REMARK  6 active torsions:
REMARK  status: ('A' for Active; 'I' for Inactive)
REMARK    1  A    between atoms: C5_5  and  C6_6 
REMARK    2  A    between atoms: C7_7  and  C8_8 
REMARK       I    between atoms: C8_8  and  N1_10 
REMARK    3  A    between atoms: N1_10  and  C9_12 
REMARK    4  A    between atoms: C18_23  and  S1_24 
REMARK    5  A    between atoms: S1_24  and  N2_27 
REMARK    6  A    between atoms: N2_27  and  C19_29 
ROOT
HETATM    1  C1  UNL     1      -4.204  -3.282  -0.813  1.00  0.00     0.103 C 
HETATM    2  C2  UNL     1      -3.539  -2.261  -0.941  1.00  0.00    -0.147 C 
HETATM    3  C3  UNL     1      -2.780  -1.056  -1.074  1.00  0.00     0.030 A 
HETATM    4  C4  UNL     1      -1.407  -1.145  -0.768  1.00  0.00     0.032 A 
HETATM    5  C5  UNL     1      -0.607  -0.045  -0.896  1.00  0.00    -0.033 A 
HETATM    6  C16 UNL     1      -1.165   1.146  -1.328  1.00  0.00     0.037 A 
HETATM    7  C17 UNL     1      -2.506   1.220  -1.624  1.00  0.00     0.059 A 
HETATM    8 CL2  UNL     1      -3.238   2.715  -2.173  1.00  0.00    -0.083 Cl
HETATM    9  C18 UNL     1      -3.338   0.114  -1.500  1.00  0.00     0.118 A 
ENDROOT
BRANCH   9  10
HETATM   10  S1  UNL     1      -5.034   0.247  -1.850  1.00  0.00     0.262 S 
HETATM   11  O2  UNL     1      -5.602  -1.050  -2.386  1.00  0.00    -0.200 OA
HETATM   12  O3  UNL     1      -5.120   1.205  -3.050  1.00  0.00    -0.200 OA
BRANCH  10  13
HETATM   13  N2  UNL     1      -5.983   0.919  -0.630  1.00  0.00    -0.311 N 
ATOM     14  H2  UNL     1      -6.493   1.785  -0.801  1.00  0.00     0.172 HD
BRANCH  13  15
HETATM   15  C19 UNL     1      -6.073   0.290   0.620  1.00  0.00     0.085 C 
HETATM   16  C20 UNL     1      -5.455   1.247   1.661  1.00  0.00     0.032 C 
HETATM   17  C21 UNL     1      -7.505   0.091   1.101  1.00  0.00     0.032 C 
ENDBRANCH  13  15
ENDBRANCH  10  13
ENDBRANCH   9  10
BRANCH   5  18
HETATM   18  C6  UNL     1       0.813  -0.106  -0.587  1.00  0.00     0.017 C 
HETATM   19  C7  UNL     1       1.456  -1.168  -0.171  1.00  0.00     0.075 C 
BRANCH  19  20
HETATM   20  C8  UNL     1       2.874  -1.216   0.134  1.00  0.00     0.245 C 
HETATM   21  O1  UNL     1       3.324  -2.351   0.529  1.00  0.00    -0.268 OA
HETATM   22  N1  UNL     1       3.703  -0.110   0.011  1.00  0.00    -0.324 N 
ATOM     23  H1  UNL     1       3.260   0.753  -0.303  1.00  0.00     0.169 HD
BRANCH  22  24
HETATM   24  C9  UNL     1       5.089  -0.042   0.270  1.00  0.00     0.036 A 
HETATM   25  C10 UNL     1       5.913  -1.116   0.373  1.00  0.00     0.030 A 
HETATM   26  C11 UNL     1       7.279  -0.960   0.656  1.00  0.00     0.011 A 
HETATM   27  C12 UNL     1       7.822   0.276   0.835  1.00  0.00    -0.040 A 
HETATM   28  C13 UNL     1       9.278   0.378   1.132  1.00  0.00     0.050 C 
HETATM   29  C14 UNL     1       7.010   1.386   0.736  1.00  0.00     0.042 A 
HETATM   30 CL1  UNL     1       7.735   2.959   0.971  1.00  0.00    -0.084 Cl
HETATM   31  C15 UNL     1       5.696   1.217   0.464  1.00  0.00     0.053 A 
ENDBRANCH  22  24
ENDBRANCH  19  20
ENDBRANCH   5  18
TORSDOF 6
