REMARK  3 active torsions:
REMARK  status: ('A' for Active; 'I' for Inactive)
REMARK    1  A    between atoms: C2_2  and  C3_3 
REMARK    2  A    between atoms: C3_3  and  C4_4 
REMARK    3  A    between atoms: C4_4  and  C5_5 
ROOT
HETATM    1  C4  UNL     1      -0.526  -0.438   0.265  1.00  0.00     0.043 C 
HETATM    2  C8  UNL     1      -0.659  -0.614  -1.206  1.00  0.00     0.182 C 
HETATM    3  O1  UNL     1      -0.537  -1.998  -1.013  1.00  0.00    -0.389 OA
HETATM    4  C9  UNL     1      -1.122  -1.821   0.240  1.00  0.00     0.182 C 
ENDROOT
BRANCH   1   5
HETATM    5  C3  UNL     1      -1.391   0.594   0.906  1.00  0.00     0.043 C 
BRANCH   5   6
HETATM    6  C2  UNL     1      -2.773   0.607   0.416  1.00  0.00    -0.036 C 
HETATM    7  C1  UNL     1      -3.261   1.689  -0.153  1.00  0.00     0.007 C 
ENDBRANCH   5   6
ENDBRANCH   1   5
BRANCH   1   8
HETATM    8  C5  UNL     1       0.891  -0.451   0.768  1.00  0.00     0.260 C 
HETATM    9  N1  UNL     1       1.532   0.810   0.535  1.00  0.00    -0.061 N 
HETATM   10  C6  UNL     1       2.942   0.655   0.601  1.00  0.00     0.243 C 
ATOM     11  H12 UNL     1       1.234   1.234  -0.343  1.00  0.00     0.278 HD
ATOM     12  H11 UNL     1       1.196   1.534   1.171  1.00  0.00     0.278 HD
HETATM   13  C7  UNL     1       3.367  -0.391  -0.406  1.00  0.00     0.103 C 
HETATM   14  S1  UNL     1       1.938  -1.544  -0.277  1.00  0.00    -0.134 SA
ENDBRANCH   1   8
TORSDOF 3
