REMARK  2 active torsions:
REMARK  status: ('A' for Active; 'I' for Inactive)
REMARK    1  A    between atoms: N1_4  and  N2_5 
REMARK    2  A    between atoms: N2_5  and  C4_7 
ROOT
HETATM    1  C1  UNL     1      -2.823   0.078   0.061  1.00  0.00     0.002 C 
HETATM    2  C2  UNL     1      -2.075   1.291   0.530  1.00  0.00     0.016 C 
HETATM    3  C3  UNL     1      -0.589   1.142   0.480  1.00  0.00     0.113 C 
HETATM    4  N1  UNL     1      -0.270  -0.095  -0.175  1.00  0.00    -0.235 NA
HETATM    5  C7  UNL     1      -0.731  -1.223   0.558  1.00  0.00     0.113 C 
HETATM    6  C8  UNL     1      -2.250  -1.215   0.526  1.00  0.00     0.016 C 
ENDROOT
BRANCH   4   7
HETATM    7  N2  UNL     1       0.984  -0.176  -0.697  1.00  0.00    -0.350 N 
ATOM      8  H2  UNL     1       1.153  -0.178  -1.703  1.00  0.00     0.174 HD
BRANCH   7   9
HETATM    9  C4  UNL     1       2.051  -0.258   0.252  1.00  0.00     0.094 A 
HETATM   10  C5  UNL     1       3.437  -0.348  -0.386  1.00  0.00     0.028 A 
HETATM   11  C6  UNL     1       3.001   0.872   0.398  1.00  0.00     0.028 A 
ENDBRANCH   7   9
ENDBRANCH   4   7
TORSDOF 2
