REMARK  1 active torsions:
REMARK  status: ('A' for Active; 'I' for Inactive)
REMARK    1  A    between atoms: N1_3  and  C3_5 
ROOT
HETATM    1  C3  UNL     1       0.286   0.398  -0.356  1.00  0.00     0.288 C 
HETATM    2  N2  UNL     1      -0.198   0.532   1.021  1.00  0.00    -0.050 N 
ATOM      3  H21 UNL     1      -0.096   1.470   1.409  1.00  0.00     0.280 HD
ATOM      4  H22 UNL     1       0.381   0.059   1.714  1.00  0.00     0.280 HD
HETATM    5  C4  UNL     1      -1.573   0.056   0.970  1.00  0.00     0.189 C 
HETATM    6  C5  UNL     1      -2.399   0.919   0.059  1.00  0.00     0.033 C 
HETATM    7  C6  UNL     1      -1.901   0.610  -1.362  1.00  0.00     0.010 C 
HETATM    8  C7  UNL     1      -0.777  -0.364  -1.102  1.00  0.00     0.038 C 
HETATM    9  C8  UNL     1      -1.382  -1.172   0.058  1.00  0.00     0.041 C 
ENDROOT
BRANCH   1  10
HETATM   10  N1  UNL     1       1.571  -0.169  -0.435  1.00  0.00    -0.376 N 
HETATM   11  C2  UNL     1       2.445   0.033   0.463  1.00  0.00     0.053 C 
HETATM   12  C1  UNL     1       3.814  -0.534   0.439  1.00  0.00     0.054 C 
ATOM     13  H1  UNL     1       1.806  -0.757  -1.234  1.00  0.00     0.160 HD
ENDBRANCH   1  10
TORSDOF 1
