REMARK  2 active torsions:
REMARK  status: ('A' for Active; 'I' for Inactive)
REMARK    1  A    between atoms: C1_1  and  C6_11 
REMARK    2  A    between atoms: N1_2  and  C2_4 
ROOT
HETATM    1  C2  UNL     1      -1.042   0.310   0.256  1.00  0.00     0.107 C 
HETATM    2  C3  UNL     1      -2.032   0.602  -0.881  1.00  0.00     0.054 C 
HETATM    3  C4  UNL     1      -3.347   0.313  -0.152  1.00  0.00     0.234 C 
HETATM    4  N2  UNL     1      -3.035  -0.964   0.485  1.00  0.00    -0.073 N 
ATOM      5  H21 UNL     1      -3.254  -1.770  -0.100  1.00  0.00     0.277 HD
ATOM      6  H22 UNL     1      -3.661  -1.192   1.257  1.00  0.00     0.277 HD
HETATM    7  C5  UNL     1      -1.650  -0.905   0.875  1.00  0.00     0.257 C 
ENDROOT
BRANCH   1   8
HETATM    8  N1  UNL     1       0.237   0.123  -0.302  1.00  0.00    -0.396 N 
HETATM    9  C1  UNL     1       1.275  -0.278   0.298  1.00  0.00     0.060 C 
ATOM     10  H1  UNL     1       0.337   0.333  -1.295  1.00  0.00     0.159 HD
BRANCH   9  11
HETATM   11  C6  UNL     1       2.528  -0.394  -0.532  1.00  0.00     0.024 A 
HETATM   12  C7  UNL     1       3.269   0.901  -0.673  1.00  0.00     0.010 A 
HETATM   13  C8  UNL     1       3.844  -0.259   0.101  1.00  0.00     0.010 A 
ENDBRANCH   9  11
ENDBRANCH   1   8
TORSDOF 2
