REMARK  11 active torsions:
REMARK  status: ('A' for Active; 'I' for Inactive)
REMARK    1  A    between atoms: C7_7  and  O1_8 
REMARK    2  A    between atoms: O1_8  and  C8_9 
REMARK    3  A    between atoms: C8_9  and  C9_10 
REMARK    4  A    between atoms: C9_10  and  C10_11 
REMARK    5  A    between atoms: C10_11  and  N1_12 
REMARK    6  A    between atoms: C13_15  and  N2_16 
REMARK       I    between atoms: N2_16  and  C14_18 
REMARK    7  A    between atoms: C14_18  and  C15_20 
REMARK    8  A    between atoms: C15_20  and  N3_21 
REMARK       I    between atoms: N3_21  and  C16_22 
REMARK    9  A    between atoms: N3_21  and  C21_33 
REMARK       I    between atoms: C16_22  and  N4_24 
REMARK   10  A    between atoms: N4_24  and  S1_26 
REMARK   11  A    between atoms: S1_26  and  C17_29 
ROOT
HETATM    1  N2  UNL     1      -1.634   1.037  -1.025  1.00  0.00    -0.355 N 
ATOM      2  H2  UNL     1      -2.232   0.543  -0.363  1.00  0.00     0.162 HD
HETATM    3  C14 UNL     1      -2.072   1.331  -2.335  1.00  0.00     0.235 C 
HETATM    4  O2  UNL     1      -1.300   1.965  -3.145  1.00  0.00    -0.272 OA
ENDROOT
BRANCH   1   5
HETATM    5  C13 UNL     1      -0.293   1.469  -0.660  1.00  0.00     0.087 C 
HETATM    6  C12 UNL     1      -0.220   2.214   0.629  1.00  0.00     0.044 C 
HETATM    7  C11 UNL     1       1.227   2.534   0.899  1.00  0.00     0.119 C 
HETATM    8  N1  UNL     1       2.118   1.426   0.844  1.00  0.00    -0.412 N 
HETATM    9  C27 UNL     1       1.962   0.673  -0.353  1.00  0.00     0.119 C 
HETATM   10  C26 UNL     1       0.512   0.177  -0.436  1.00  0.00     0.044 C 
BRANCH   8  11
HETATM   11  C10 UNL     1       2.271   0.688   2.051  1.00  0.00     0.119 C 
BRANCH  11  12
HETATM   12  C9  UNL     1       3.256  -0.448   1.834  1.00  0.00     0.046 C 
BRANCH  12  13
HETATM   13  C8  UNL     1       4.600   0.081   1.420  1.00  0.00     0.169 C 
BRANCH  13  14
HETATM   14  O1  UNL     1       5.486  -0.963   1.212  1.00  0.00    -0.385 OA
BRANCH  14  15
HETATM   15  C7  UNL     1       6.726  -0.460   0.834  1.00  0.00     0.126 C 
HETATM   16  C6  UNL     1       7.795  -0.975   1.744  1.00  0.00     0.033 C 
HETATM   17  C5  UNL     1       9.143  -1.073   1.071  1.00  0.00     0.008 C 
HETATM   18  C4  UNL     1       9.002  -1.244  -0.420  1.00  0.00    -0.006 C 
HETATM   19  C2  UNL     1       8.223  -0.165  -1.097  1.00  0.00    -0.038 C 
HETATM   20  C29 UNL     1       7.781  -2.154  -0.624  1.00  0.00     0.013 C 
HETATM   21  C1  UNL     1       8.395   1.235  -0.585  1.00  0.00     0.015 C 
HETATM   22  C3  UNL     1       8.334  -0.233  -2.585  1.00  0.00     0.015 C 
HETATM   23  C28 UNL     1       6.965  -0.861  -0.604  1.00  0.00     0.023 C 
ENDBRANCH  14  15
ENDBRANCH  13  14
ENDBRANCH  12  13
ENDBRANCH  11  12
ENDBRANCH   8  11
ENDBRANCH   1   5
BRANCH   3  24
HETATM   24  C15 UNL     1      -3.370   0.960  -2.844  1.00  0.00     0.230 C 
BRANCH  24  25
HETATM   25  N3  UNL     1      -4.145   0.190  -1.881  1.00  0.00    -0.320 N 
HETATM   26  C16 UNL     1      -4.902   0.956  -0.954  1.00  0.00     0.332 C 
HETATM   27  O3  UNL     1      -4.847   2.239  -0.982  1.00  0.00    -0.246 OA
HETATM   28  N4  UNL     1      -5.754   0.432   0.046  1.00  0.00    -0.235 N 
ATOM     29  H4  UNL     1      -5.852  -0.580   0.132  1.00  0.00     0.183 HD
BRANCH  28  30
HETATM   30  S1  UNL     1      -6.637   1.455   1.130  1.00  0.00     0.241 S 
HETATM   31  O4  UNL     1      -5.896   1.452   2.447  1.00  0.00    -0.205 OA
HETATM   32  O5  UNL     1      -6.717   2.858   0.639  1.00  0.00    -0.205 OA
BRANCH  30  33
HETATM   33  C17 UNL     1      -8.267   0.832   1.406  1.00  0.00     0.072 C 
HETATM   34  C18 UNL     1      -9.010   0.757   0.069  1.00  0.00     0.033 C 
HETATM   35  C19 UNL     1      -8.282  -0.521   2.053  1.00  0.00     0.033 C 
HETATM   36  C20 UNL     1      -9.078   1.819   2.252  1.00  0.00     0.033 C 
ENDBRANCH  30  33
ENDBRANCH  28  30
BRANCH  25  37
HETATM   37  C21 UNL     1      -4.149  -1.240  -1.957  1.00  0.00     0.089 C 
HETATM   38  C22 UNL     1      -3.710  -2.008  -0.771  1.00  0.00     0.025 C 
HETATM   39  C23 UNL     1      -4.500  -3.266  -0.722  1.00  0.00     0.002 C 
HETATM   40  C24 UNL     1      -5.625  -3.100  -1.684  1.00  0.00     0.002 C 
HETATM   41  C25 UNL     1      -5.499  -1.789  -2.375  1.00  0.00     0.025 C 
ENDBRANCH  25  37
ENDBRANCH  24  25
ENDBRANCH   3  24
TORSDOF 11
