REMARK  12 active torsions:
REMARK  status: ('A' for Active; 'I' for Inactive)
REMARK    1  A    between atoms: C3_3  and  O1_4 
REMARK    2  A    between atoms: C7_10  and  C8_11 
REMARK    3  A    between atoms: C7_10  and  N2_21 
REMARK    4  A    between atoms: C8_11  and  C9_12 
REMARK       I    between atoms: C9_12  and  N1_14 
REMARK    5  A    between atoms: N2_21  and  C16_22 
REMARK    6  A    between atoms: C16_22  and  C17_23 
REMARK    7  A    between atoms: C19_25  and  C20_26 
REMARK    8  A    between atoms: C20_26  and  C21_27 
REMARK    9  A    between atoms: C21_27  and  N3_28 
REMARK   10  A    between atoms: N3_28  and  C22_30 
REMARK   11  A    between atoms: C22_30  and  O4_32 
REMARK   12  A    between atoms: O4_32  and  C23_33 
ROOT
HETATM    1  C1  UNL     1      -6.164  -1.679  -0.791  1.00  0.00     0.100 C 
HETATM    2  C2  UNL     1      -4.962  -1.668  -1.065  1.00  0.00    -0.145 C 
HETATM    3  C3  UNL     1      -3.564  -1.676  -1.456  1.00  0.00     0.160 C 
HETATM    4  C4  UNL     1      -3.326  -2.994  -2.102  1.00  0.00     0.221 C 
HETATM    5  O2  UNL     1      -3.383  -3.983  -1.197  1.00  0.00    -0.387 OA
HETATM    6  C5  UNL     1      -3.144  -3.690   0.101  1.00  0.00     0.170 C 
HETATM    7  C6  UNL     1      -2.299  -2.522   0.384  1.00  0.00     0.066 C 
HETATM    8  C7  UNL     1      -2.553  -1.270  -0.456  1.00  0.00     0.104 C 
ENDROOT
BRANCH   3   9
HETATM    9  O1  UNL     1      -3.586  -0.671  -2.519  1.00  0.00    -0.373 OA
ATOM     10  H1  UNL     1      -2.671  -0.676  -2.775  1.00  0.00     0.212 HD
ENDBRANCH   3   9
BRANCH   8  11
HETATM   11  C8  UNL     1      -2.990  -0.152   0.403  1.00  0.00     0.083 C 
BRANCH  11  12
HETATM   12  C9  UNL     1      -4.093  -0.203   1.326  1.00  0.00     0.242 C 
HETATM   13  O3  UNL     1      -4.440  -1.184   1.993  1.00  0.00    -0.269 OA
HETATM   14  N1  UNL     1      -4.889   0.982   1.518  1.00  0.00    -0.349 N 
HETATM   15  C10 UNL     1      -5.977   0.827   2.465  1.00  0.00     0.126 C 
HETATM   16  C15 UNL     1      -4.533   2.172   0.775  1.00  0.00     0.126 C 
HETATM   17  C11 UNL     1      -7.302   1.127   1.761  1.00  0.00     0.020 C 
HETATM   18  C12 UNL     1      -7.545   2.616   1.946  1.00  0.00     0.002 C 
HETATM   19  C13 UNL     1      -6.651   3.373   0.986  1.00  0.00     0.002 C 
HETATM   20  C14 UNL     1      -5.209   3.370   1.435  1.00  0.00     0.020 C 
ENDBRANCH  11  12
ENDBRANCH   8  11
BRANCH   8  21
HETATM   21  N2  UNL     1      -1.279  -0.914  -1.066  1.00  0.00    -0.356 N 
HETATM   22  C19 UNL     1      -0.925   0.355  -1.403  1.00  0.00     0.069 C 
BRANCH  21  23
HETATM   23  C16 UNL     1      -0.490  -1.939  -1.557  1.00  0.00     0.064 C 
BRANCH  23  24
HETATM   24  C17 UNL     1       0.532  -1.591  -2.609  1.00  0.00     0.040 C 
HETATM   25  C18 UNL     1       1.264  -2.893  -3.050  1.00  0.00     0.010 C 
ENDBRANCH  23  24
ENDBRANCH  21  23
BRANCH  22  26
HETATM   26  C20 UNL     1      -0.547   1.465  -0.511  1.00  0.00     0.089 C 
BRANCH  26  27
HETATM   27  C21 UNL     1       0.647   1.260   0.390  1.00  0.00     0.069 C 
BRANCH  27  28
HETATM   28  N3  UNL     1       1.889   1.058  -0.237  1.00  0.00    -0.341 N 
ATOM     29  H3  UNL     1       1.967   1.090  -1.253  1.00  0.00     0.167 HD
BRANCH  28  30
HETATM   30  C22 UNL     1       3.052   0.805   0.581  1.00  0.00     0.214 C 
HETATM   31  S1  UNL     1       2.862   0.760   2.199  1.00  0.00    -0.033 SA
BRANCH  30  32
HETATM   32  O4  UNL     1       4.289   0.605   0.035  1.00  0.00    -0.321 OA
BRANCH  32  33
HETATM   33  C23 UNL     1       5.506   1.178   0.346  1.00  0.00     0.139 C 
HETATM   34  C24 UNL     1       6.529   0.574  -0.631  1.00  0.00     0.016 C 
HETATM   35  C25 UNL     1       7.845   1.292  -0.553  1.00  0.00     0.012 C 
HETATM   36  C29 UNL     1       6.655  -0.894  -0.334  1.00  0.00     0.012 C 
HETATM   37  C26 UNL     1       8.381   1.079   0.845  1.00  0.00    -0.013 C 
HETATM   38  C27 UNL     1       8.615  -0.401   1.057  1.00  0.00     0.009 C 
HETATM   39  C32 UNL     1       7.396   1.648   1.812  1.00  0.00     0.012 C 
HETATM   40  C28 UNL     1       7.295  -1.104   1.025  1.00  0.00    -0.013 C 
HETATM   41  C30 UNL     1       6.320  -0.512   2.033  1.00  0.00     0.012 C 
HETATM   42  C31 UNL     1       6.042   0.932   1.714  1.00  0.00     0.016 C 
ENDBRANCH  32  33
ENDBRANCH  30  32
ENDBRANCH  28  30
ENDBRANCH  27  28
ENDBRANCH  26  27
ENDBRANCH  22  26
ENDBRANCH   8  21
TORSDOF 12
