REMARK  4 active torsions:
REMARK  status: ('A' for Active; 'I' for Inactive)
REMARK    1  A    between atoms: N1_1  and  C1_5 
REMARK    2  A    between atoms: C4_8  and  N2_9 
REMARK    3  A    between atoms: N2_9  and  C5_11 
REMARK    4  A    between atoms: C5_11  and  C6_12 
ROOT
HETATM    1  C1  UNL     1      -3.691   0.579  -0.670  1.00  0.00     0.185 C 
HETATM    2  C2  UNL     1      -3.693  -0.512   0.378  1.00  0.00     0.035 C 
HETATM    3  C3  UNL     1      -2.272  -1.031   0.379  1.00  0.00     0.027 C 
HETATM    4  C4  UNL     1      -1.477  -0.157  -0.533  1.00  0.00     0.078 C 
HETATM    5  C11 UNL     1      -2.298   1.138  -0.488  1.00  0.00     0.057 C 
ENDROOT
BRANCH   4   6
HETATM    6  N2  UNL     1      -0.174   0.163  -0.114  1.00  0.00    -0.417 N 
ATOM      7  H2  UNL     1       0.079   1.134   0.070  1.00  0.00     0.153 HD
BRANCH   6   8
HETATM    8  C5  UNL     1       0.772  -0.846   0.050  1.00  0.00     0.118 C 
BRANCH   8   9
HETATM    9  C6  UNL     1       2.085  -0.200   0.507  1.00  0.00     0.003 C 
HETATM   10  C7  UNL     1       3.163  -1.240   0.705  1.00  0.00     0.006 C 
HETATM   11  C8  UNL     1       4.413  -0.352   0.770  1.00  0.00     0.000 C 
HETATM   12  C9  UNL     1       4.146   0.711  -0.274  1.00  0.00     0.000 C 
HETATM   13  C10 UNL     1       2.674   0.646  -0.597  1.00  0.00     0.006 C 
ENDBRANCH   8   9
ENDBRANCH   6   8
ENDBRANCH   4   6
BRANCH   1  14
HETATM   14  N1  UNL     1      -4.682   1.597  -0.401  1.00  0.00    -0.075 N 
ATOM     15  H13 UNL     1      -5.611   1.189  -0.295  1.00  0.00     0.274 HD
ATOM     16  H12 UNL     1      -4.568   1.985   0.535  1.00  0.00     0.274 HD
ATOM     17  H11 UNL     1      -4.681   2.333  -1.108  1.00  0.00     0.274 HD
ENDBRANCH   1  14
TORSDOF 4
