REMARK  3 active torsions:
REMARK  status: ('A' for Active; 'I' for Inactive)
REMARK    1  A    between atoms: N1_2  and  C2_5 
REMARK    2  A    between atoms: C5_8  and  C6_9 
REMARK    3  A    between atoms: C6_9  and  C7_10 
ROOT
HETATM    1  C2  UNL     1      -2.695   0.313  -0.360  1.00  0.00     0.185 C 
HETATM    2  C3  UNL     1      -2.129  -0.617  -1.431  1.00  0.00     0.033 C 
HETATM    3  C4  UNL     1      -0.838  -1.062  -0.767  1.00  0.00     0.007 C 
HETATM    4  C5  UNL     1      -0.310   0.251  -0.273  1.00  0.00    -0.010 C 
HETATM    5  C11 UNL     1      -1.526   0.820   0.429  1.00  0.00     0.037 C 
ENDROOT
BRANCH   4   6
HETATM    6  C6  UNL     1       0.832   0.120   0.694  1.00  0.00     0.037 C 
BRANCH   6   7
HETATM    7  C7  UNL     1       2.024  -0.592   0.104  1.00  0.00     0.186 C 
HETATM    8  C8  UNL     1       2.580   0.113  -1.093  1.00  0.00     0.034 C 
HETATM    9  C9  UNL     1       3.857   0.753  -0.603  1.00  0.00     0.029 C 
HETATM   10  C10 UNL     1       4.146   0.133   0.729  1.00  0.00     0.233 C 
HETATM   11  N2  UNL     1       3.037  -0.673   1.110  1.00  0.00    -0.071 N 
ATOM     12  H22 UNL     1       2.683  -0.430   2.035  1.00  0.00     0.277 HD
ATOM     13  H21 UNL     1       3.309  -1.636   1.307  1.00  0.00     0.277 HD
ENDBRANCH   6   7
ENDBRANCH   4   6
BRANCH   1  14
HETATM   14  N1  UNL     1      -3.591  -0.517   0.430  1.00  0.00    -0.075 N 
HETATM   15  C1  UNL     1      -4.348   0.331   1.328  1.00  0.00     0.267 C 
ATOM     16  H12 UNL     1      -3.098  -1.262   0.922  1.00  0.00     0.277 HD
ATOM     17  H11 UNL     1      -4.191  -1.103  -0.150  1.00  0.00     0.277 HD
ENDBRANCH   1  14
TORSDOF 3
