REMARK  14 active torsions:
REMARK  status: ('A' for Active; 'I' for Inactive)
REMARK    1  A    between atoms: O1_2  and  N1_3 
REMARK       I    between atoms: N1_3  and  C2_5 
REMARK    2  A    between atoms: C2_5  and  C3_7 
REMARK    3  A    between atoms: C3_7  and  O4_9 
REMARK    4  A    between atoms: O4_9  and  C4_10 
REMARK    5  A    between atoms: C7_13  and  O5_14 
REMARK    6  A    between atoms: C8_16  and  O6_17 
REMARK    7  A    between atoms: C9_19  and  N2_20 
REMARK       I    between atoms: N2_20  and  C10_22 
REMARK    8  A    between atoms: C10_22  and  O8_24 
REMARK    9  A    between atoms: O8_24  and  C11_25 
REMARK   10  A    between atoms: C11_25  and  C12_26 
REMARK   11  A    between atoms: C12_26  and  O9_27 
REMARK   12  A    between atoms: C13_29  and  O10_30 
REMARK   13  A    between atoms: N3_33  and  N4_34 
REMARK   14  A    between atoms: N5_37  and  O11_38 
ROOT
HETATM    1  C4  UNL     1      -2.311   1.373  -1.227  1.00  0.00     0.181 C 
HETATM    2  C5  UNL     1      -1.449   0.416  -0.911  1.00  0.00     0.121 A 
HETATM    3  C6  UNL     1      -0.263   0.605  -0.056  1.00  0.00     0.066 A 
HETATM    4  C7  UNL     1       0.266   1.696   0.618  1.00  0.00     0.116 A 
HETATM    5  C8  UNL     1       1.416   1.589   1.370  1.00  0.00     0.130 A 
HETATM    6  C9  UNL     1       2.044   0.373   1.448  1.00  0.00     0.108 A 
HETATM    7  C13 UNL     1       1.519  -0.740   0.769  1.00  0.00     0.127 A 
HETATM    8  C14 UNL     1       0.371  -0.651   0.013  1.00  0.00     0.127 A 
HETATM    9  N3  UNL     1      -0.360  -1.591  -0.749  1.00  0.00    -0.173 N 
HETATM   10  N5  UNL     1      -1.465  -0.945  -1.311  1.00  0.00    -0.139 N 
ENDROOT
BRANCH   1  11
HETATM   11  O4  UNL     1      -3.389   0.990  -2.060  1.00  0.00    -0.281 OA
BRANCH  11  12
HETATM   12  C3  UNL     1      -4.585   0.554  -1.504  1.00  0.00     0.358 C 
HETATM   13  O3  UNL     1      -4.654   0.518  -0.252  1.00  0.00    -0.253 OA
BRANCH  12  14
HETATM   14  C2  UNL     1      -5.742   0.144  -2.280  1.00  0.00     0.340 C 
HETATM   15  N1  UNL     1      -6.906  -0.279  -1.591  1.00  0.00    -0.227 N 
ATOM     16  H1  UNL     1      -6.887  -0.280  -0.571  1.00  0.00     0.198 HD
HETATM   17  O2  UNL     1      -5.638   0.190  -3.524  1.00  0.00    -0.260 OA
BRANCH  15  18
HETATM   18  O1  UNL     1      -8.040  -0.681  -2.206  1.00  0.00    -0.282 OA
HETATM   19  C1  UNL     1      -9.008  -0.875  -1.219  1.00  0.00     0.237 C 
ENDBRANCH  15  18
ENDBRANCH  12  14
ENDBRANCH  11  12
ENDBRANCH   1  11
BRANCH  10  20
HETATM   20  O11 UNL     1      -2.406  -1.492  -2.108  1.00  0.00    -0.266 OA
ATOM     21  H11 UNL     1      -2.417  -2.403  -2.376  1.00  0.00     0.247 HD
ENDBRANCH  10  20
BRANCH   4  22
HETATM   22  O5  UNL     1      -0.387   2.907   0.522  1.00  0.00    -0.357 OA
ATOM     23  H5  UNL     1      -0.025   3.654   0.984  1.00  0.00     0.217 HD
ENDBRANCH   4  22
BRANCH   9  24
HETATM   24  N4  UNL     1      -0.107  -2.938  -0.963  1.00  0.00    -0.322 N 
ATOM     25  H42 UNL     1       0.699  -3.409  -0.553  1.00  0.00     0.179 HD
ATOM     26  H41 UNL     1      -0.634  -3.616  -1.513  1.00  0.00     0.179 HD
ENDBRANCH   9  24
BRANCH   5  27
HETATM   27  O6  UNL     1       1.960   2.672   2.053  1.00  0.00    -0.356 OA
ATOM     28  H6  UNL     1       2.753   2.598   2.571  1.00  0.00     0.218 HD
ENDBRANCH   5  27
BRANCH   7  29
HETATM   29  O10 UNL     1       2.193  -1.936   0.882  1.00  0.00    -0.356 OA
ATOM     30  H10 UNL     1       1.838  -2.688   0.423  1.00  0.00     0.218 HD
ENDBRANCH   7  29
BRANCH   6  31
HETATM   31  N2  UNL     1       3.217   0.214   2.219  1.00  0.00    -0.298 N 
HETATM   32  C10 UNL     1       4.540   0.415   1.731  1.00  0.00     0.365 C 
HETATM   33  O7  UNL     1       4.664   0.760   0.532  1.00  0.00    -0.238 OA
ATOM     34  H2  UNL     1       3.109  -0.064   3.194  1.00  0.00     0.171 HD
BRANCH  32  35
HETATM   35  O8  UNL     1       5.657   0.248   2.502  1.00  0.00    -0.302 OA
BRANCH  35  36
HETATM   36  C11 UNL     1       6.951   0.430   2.070  1.00  0.00     0.206 C 
BRANCH  36  37
HETATM   37  C12 UNL     1       7.352  -0.478   0.956  1.00  0.00     0.191 C 
BRANCH  37  38
HETATM   38  O9  UNL     1       8.694  -0.228   0.579  1.00  0.00    -0.399 OA
ATOM     39  H9  UNL     1       8.949  -0.806  -0.130  1.00  0.00     0.209 HD
ENDBRANCH  37  38
ENDBRANCH  36  37
ENDBRANCH  35  36
ENDBRANCH  32  35
ENDBRANCH   6  31
TORSDOF 14
