REMARK  9 active torsions:
REMARK  status: ('A' for Active; 'I' for Inactive)
REMARK    1  A    between atoms: N1_1  and  C1_4 
REMARK    2  A    between atoms: C2_7  and  S1_8 
REMARK    3  A    between atoms: S1_8  and  N3_10 
REMARK    4  A    between atoms: S1_8  and  N5_15 
REMARK       I    between atoms: N3_10  and  C3_12 
REMARK    5  A    between atoms: C4_16  and  N6_17 
REMARK    6  A    between atoms: N6_17  and  O3_19 
REMARK    7  A    between atoms: C5_24  and  N9_25 
REMARK    8  A    between atoms: C6_30  and  N11_31 
REMARK    9  A    between atoms: C8_37  and  N13_38 
ROOT
HETATM    1  N5  UNL     1       1.609   0.884   0.451  1.00  0.00     0.096 N 
HETATM    2  C4  UNL     1       2.352   1.938   0.701  1.00  0.00     0.748 A 
HETATM    3  N7  UNL     1       3.619   1.708   0.234  1.00  0.00    -0.092 N 
ATOM      4  H7  UNL     1       4.409   2.351   0.289  1.00  0.00     0.207 HD
HETATM    5  N8  UNL     1       3.628   0.512  -0.295  1.00  0.00     0.107 N 
HETATM    6  C5  UNL     1       4.633  -0.142  -0.865  1.00  0.00     0.727 A 
HETATM    7  N10 UNL     1       4.409  -1.370  -1.333  1.00  0.00    -0.020 N 
ATOM      8  H10 UNL     1       5.174  -1.881  -1.773  1.00  0.00     0.203 HD
HETATM    9  C6  UNL     1       3.193  -1.957  -1.240  1.00  0.00     0.705 A 
HETATM   10  N12 UNL     1       2.234  -1.252  -0.662  1.00  0.00    -0.018 N 
ATOM     11  H12 UNL     1       1.316  -1.691  -0.590  1.00  0.00     0.203 HD
HETATM   12  C7  UNL     1       2.358  -0.011  -0.161  1.00  0.00     0.764 A 
ENDROOT
BRANCH   1  13
HETATM   13  S1  UNL     1      -0.208   0.684   0.954  1.00  0.00     0.203 S 
HETATM   14  O1  UNL     1      -0.062  -0.009   2.068  1.00  0.00    -0.220 OA
BRANCH  13  15
HETATM   15  C2  UNL     1      -1.183  -0.670  -0.071  1.00  0.00     0.181 A 
HETATM   16  N2  UNL     1      -0.733  -1.367  -1.112  1.00  0.00    -0.178 N 
HETATM   17  C1  UNL     1      -1.389  -2.306  -1.783  1.00  0.00     0.678 A 
ATOM     18  H2  UNL     1       0.214  -1.158  -1.427  1.00  0.00     0.185 HD
HETATM   19  N15 UNL     1      -2.634  -2.592  -1.385  1.00  0.00    -0.176 N 
HETATM   20  C9  UNL     1      -3.181  -1.954  -0.355  1.00  0.00     0.167 A 
ATOM     21  H15 UNL     1      -3.169  -3.307  -1.877  1.00  0.00     0.185 HD
HETATM   22  C8  UNL     1      -2.462  -0.972   0.330  1.00  0.00     0.183 A 
HETATM   23  N14 UNL     1      -4.517  -2.284   0.050  1.00  0.00    -0.079 NA
BRANCH  17  24
HETATM   24  N1  UNL     1      -0.876  -2.928  -2.782  1.00  0.00    -0.234 N 
ATOM     25  H12 UNL     1       0.073  -2.710  -3.085  1.00  0.00     0.174 HD
ATOM     26  H11 UNL     1      -1.380  -3.649  -3.298  1.00  0.00     0.174 HD
ENDBRANCH  17  24
BRANCH  22  27
HETATM   27  N13 UNL     1      -3.158  -0.393   1.409  1.00  0.00    -0.109 N 
HETATM   28  O4  UNL     1      -3.689   0.709   1.280  1.00  0.00    -0.532 OA
HETATM   29  O5  UNL     1      -3.257  -1.070   2.587  1.00  0.00    -0.532 OA
ENDBRANCH  22  27
ENDBRANCH  13  15
BRANCH  13  30
HETATM   30  N3  UNL     1      -1.101   2.184   1.526  1.00  0.00    -0.248 N 
HETATM   31  C3  UNL     1      -1.375   3.446   0.931  1.00  0.00     0.341 C 
HETATM   32  N4  UNL     1      -2.091   4.432   1.621  1.00  0.00    -0.039 NA
HETATM   33  O2  UNL     1      -0.971   3.677  -0.218  1.00  0.00    -0.250 OA
ATOM     34  H3  UNL     1      -1.480   2.092   2.469  1.00  0.00     0.181 HD
ENDBRANCH  13  30
ENDBRANCH   1  13
BRANCH   2  35
HETATM   35  N6  UNL     1       2.092   3.192   1.343  1.00  0.00    -0.096 N 
ATOM     36  H6  UNL     1       1.854   4.001   0.769  1.00  0.00     0.213 HD
BRANCH  35  37
HETATM   37  O3  UNL     1       2.148   3.325   2.580  1.00  0.00    -0.276 OA
ATOM     38  H3  UNL     1       1.976   4.157   3.006  1.00  0.00     0.245 HD
ENDBRANCH  35  37
ENDBRANCH   2  35
BRANCH   6  39
HETATM   39  N9  UNL     1       5.806   0.376  -0.978  1.00  0.00    -0.232 N 
ATOM     40  H92 UNL     1       5.977   1.316  -0.620  1.00  0.00     0.174 HD
ATOM     41  H91 UNL     1       6.578  -0.126  -1.416  1.00  0.00     0.174 HD
ENDBRANCH   6  39
BRANCH   9  42
HETATM   42  N11 UNL     1       3.026  -3.148  -1.707  1.00  0.00    -0.234 N 
ATOM     43 2H11 UNL     1       3.765  -3.691  -2.153  1.00  0.00     0.174 HD
ATOM     44 1H11 UNL     1       2.110  -3.590  -1.637  1.00  0.00     0.174 HD
ENDBRANCH   9  42
TORSDOF 9
