REMARK  9 active torsions:
REMARK  status: ('A' for Active; 'I' for Inactive)
REMARK    1  A    between atoms: C3_4  and  N2_5 
REMARK    2  A    between atoms: N5_10  and  C4_11 
REMARK    3  A    between atoms: C7_14  and  C8_15 
REMARK       I    between atoms: C8_15  and  N6_17 
REMARK    4  A    between atoms: N6_17  and  N7_19 
REMARK    5  A    between atoms: N8_22  and  C9_23 
REMARK    6  A    between atoms: C9_23  and  C10_24 
REMARK    7  A    between atoms: C12_29  and  N9_30 
REMARK    8  A    between atoms: C12_29  and  O5_34 
REMARK    9  A    between atoms: C13_40  and  N12_41 
ROOT
HETATM    1  N1  UNL     1       2.985   3.576   1.390  1.00  0.00    -0.191 NA
HETATM    2  C1  UNL     1       3.237   2.537   0.952  1.00  0.00     0.105 C 
HETATM    3  C2  UNL     1       3.527   1.249   0.420  1.00  0.00     0.124 A 
HETATM    4  C3  UNL     1       2.923   0.191   0.912  1.00  0.00     0.166 A 
HETATM    5  C12 UNL     1       3.220  -1.140   0.369  1.00  0.00     0.364 A 
HETATM    6  N10 UNL     1       4.195  -1.141  -0.685  1.00  0.00    -0.271 N 
ATOM      7  H10 UNL     1       4.464  -2.028  -1.111  1.00  0.00     0.185 HD
HETATM    8  N11 UNL     1       4.777   0.024  -1.137  1.00  0.00    -0.283 N 
ATOM      9  H11 UNL     1       5.459  -0.038  -1.893  1.00  0.00     0.188 HD
HETATM   10  C13 UNL     1       4.507   1.173  -0.660  1.00  0.00     0.157 A 
ENDROOT
BRANCH   4  11
HETATM   11  N2  UNL     1       1.979   0.304   1.971  1.00  0.00    -0.153 N 
HETATM   12  N3  UNL     1       2.210   0.660   3.247  1.00  0.00    -0.203 N 
HETATM   13  N4  UNL     1       0.941   0.520   3.497  1.00  0.00    -0.203 N 
ATOM     14  H3  UNL     1       3.032   0.927   3.789  1.00  0.00     0.212 HD
HETATM   15  N5  UNL     1       0.705   0.166   2.236  1.00  0.00    -0.153 N 
ATOM     16  H4  UNL     1       0.360   0.635   4.327  1.00  0.00     0.212 HD
BRANCH  15  17
HETATM   17  C4  UNL     1      -0.445  -0.205   1.490  1.00  0.00     0.146 A 
HETATM   18  C5  UNL     1      -1.185  -1.332   1.769  1.00  0.00     0.041 A 
HETATM   19  C6  UNL     1      -2.296  -1.635   1.005  1.00  0.00     0.038 A 
HETATM   20  C7  UNL     1      -2.727  -0.846  -0.063  1.00  0.00     0.107 A 
HETATM   21  N8  UNL     1      -1.985   0.253  -0.317  1.00  0.00    -0.297 N 
HETATM   22  C11 UNL     1      -0.882   0.558   0.438  1.00  0.00     0.279 A 
HETATM   23  O4  UNL     1      -0.194   1.598   0.186  1.00  0.00    -0.265 OA
BRANCH  20  24
HETATM   24  C8  UNL     1      -3.893  -1.183  -0.836  1.00  0.00     0.286 C 
HETATM   25  O1  UNL     1      -4.395  -0.502  -1.763  1.00  0.00    -0.264 OA
HETATM   26  N6  UNL     1      -4.591  -2.395  -0.574  1.00  0.00    -0.271 N 
ATOM     27  H6  UNL     1      -4.260  -3.019   0.162  1.00  0.00     0.189 HD
BRANCH  26  28
HETATM   28  N7  UNL     1      -5.747  -2.747  -1.328  1.00  0.00    -0.342 N 
ATOM     29  H72 UNL     1      -6.065  -2.112  -2.060  1.00  0.00     0.176 HD
ATOM     30  H71 UNL     1      -6.247  -3.616  -1.140  1.00  0.00     0.176 HD
ENDBRANCH  26  28
ENDBRANCH  20  24
BRANCH  21  31
HETATM   31  C9  UNL     1      -2.295   1.142  -1.385  1.00  0.00     0.245 C 
BRANCH  31  32
HETATM   32  C10 UNL     1      -3.254   2.228  -0.963  1.00  0.00     0.192 C 
HETATM   33  O2  UNL     1      -3.687   2.275   0.216  1.00  0.00    -0.647 OA
HETATM   34  O3  UNL     1      -3.661   3.169  -1.863  1.00  0.00    -0.647 OA
ENDBRANCH  31  32
ENDBRANCH  21  31
ENDBRANCH  15  17
ENDBRANCH   4  11
BRANCH  10  35
HETATM   35  N12 UNL     1       5.146   2.337  -1.174  1.00  0.00    -0.290 N 
HETATM   36  N13 UNL     1       5.577   3.203  -0.353  1.00  0.00    -0.344 N 
ATOM     37 2H13 UNL     1       5.460   3.054   0.649  1.00  0.00     0.176 HD
ATOM     38 1H13 UNL     1       6.035   4.037  -0.721  1.00  0.00     0.176 HD
ATOM     39  H12 UNL     1       5.255   2.472  -2.179  1.00  0.00     0.188 HD
ENDBRANCH  10  35
BRANCH   5  40
HETATM   40  N9  UNL     1       2.032  -1.791  -0.172  1.00  0.00    -0.020 N 
ATOM     41  H93 UNL     1       1.286  -1.834   0.522  1.00  0.00     0.280 HD
ATOM     42  H92 UNL     1       1.573  -1.203  -0.867  1.00  0.00     0.280 HD
ATOM     43  H91 UNL     1       2.238  -2.716  -0.549  1.00  0.00     0.280 HD
ENDBRANCH   5  40
BRANCH   5  44
HETATM   44  O5  UNL     1       3.682  -2.002   1.392  1.00  0.00    -0.343 OA
ATOM     45  H5  UNL     1       3.874  -2.863   1.041  1.00  0.00     0.214 HD
ENDBRANCH   5  44
TORSDOF 9
