REMARK  12 active torsions:
REMARK  status: ('A' for Active; 'I' for Inactive)
REMARK    1  A    between atoms: C2_2  and  O1_3 
REMARK    2  A    between atoms: C2_2  and  C13_41 
REMARK    3  A    between atoms: O1_3  and  N1_4 
REMARK    4  A    between atoms: N1_4  and  C3_5 
REMARK    5  A    between atoms: C3_5  and  O2_6 
REMARK    6  A    between atoms: C3_5  and  C4_8 
REMARK    7  A    between atoms: C7_16  and  N4_17 
REMARK    8  A    between atoms: N4_17  and  C8_19 
REMARK    9  A    between atoms: C9_25  and  N7_26 
REMARK   10  A    between atoms: C11_31  and  N9_32 
REMARK   11  A    between atoms: N9_32  and  O5_34 
REMARK   12  A    between atoms: C12_38  and  O6_39 
ROOT
HETATM    1  C4  UNL     1       2.240  -1.215  -0.273  1.00  0.00     0.152 A 
HETATM    2  O3  UNL     1       1.121  -0.581  -0.031  1.00  0.00    -0.287 OA
HETATM    3  C5  UNL     1       0.098  -1.377  -0.210  1.00  0.00     0.182 A 
HETATM    4  C6  UNL     1      -1.303  -1.061  -0.047  1.00  0.00     0.146 A 
HETATM    5  N2  UNL     1      -1.751   0.139   0.326  1.00  0.00    -0.279 N 
ATOM      6  H2  UNL     1      -1.052   0.861   0.501  1.00  0.00     0.188 HD
HETATM    7  N3  UNL     1      -3.010   0.477   0.489  1.00  0.00    -0.131 N 
ATOM      8  H3  UNL     1      -3.272   1.420   0.777  1.00  0.00     0.205 HD
HETATM    9  C7  UNL     1      -3.936  -0.464   0.262  1.00  0.00     0.702 A 
HETATM   10  N8  UNL     1      -3.575  -1.719  -0.121  1.00  0.00    -0.167 N 
HETATM   11  C10 UNL     1      -4.610  -2.702  -0.355  1.00  0.00     0.177 C 
HETATM   12  C11 UNL     1      -2.289  -2.046  -0.283  1.00  0.00     0.175 A 
HETATM   13  N10 UNL     1       0.582  -2.571  -0.583  1.00  0.00    -0.313 N 
ATOM     14  H10 UNL     1       0.022  -3.396  -0.795  1.00  0.00     0.170 HD
HETATM   15  C12 UNL     1       1.943  -2.505  -0.633  1.00  0.00     0.176 A 
ENDROOT
BRANCH  12  16
HETATM   16  N9  UNL     1      -1.880  -3.200  -0.640  1.00  0.00    -0.250 N 
ATOM     17  H9  UNL     1      -0.867  -3.287  -0.718  1.00  0.00     0.196 HD
BRANCH  16  18
HETATM   18  O5  UNL     1      -2.559  -4.312  -0.928  1.00  0.00    -0.288 OA
ATOM     19  H5  UNL     1      -2.254  -5.172  -1.194  1.00  0.00     0.244 HD
ENDBRANCH  16  18
ENDBRANCH  12  16
BRANCH   1  20
HETATM   20  C3  UNL     1       3.583  -0.620  -0.168  1.00  0.00     0.300 C 
BRANCH  20  21
HETATM   21  N1  UNL     1       3.746   0.164   1.041  1.00  0.00    -0.061 NA
BRANCH  21  22
HETATM   22  O1  UNL     1       4.923   0.781   1.107  1.00  0.00    -0.268 OA
BRANCH  22  23
HETATM   23  C2  UNL     1       5.055   1.880   0.299  1.00  0.00     0.243 C 
HETATM   24  C1  UNL     1       5.276   3.120   1.164  1.00  0.00     0.053 C 
BRANCH  23  25
HETATM   25  C13 UNL     1       6.220   1.795  -0.617  1.00  0.00     0.204 C 
HETATM   26  O7  UNL     1       6.984   0.799  -0.620  1.00  0.00    -0.646 OA
HETATM   27  O8  UNL     1       6.499   2.820  -1.501  1.00  0.00    -0.646 OA
ENDBRANCH  23  25
ENDBRANCH  22  23
ENDBRANCH  21  22
ENDBRANCH  20  21
BRANCH  20  28
HETATM   28  O2  UNL     1       4.593  -1.579  -0.180  1.00  0.00    -0.371 OA
ATOM     29  H2  UNL     1       4.486  -2.093  -0.972  1.00  0.00     0.212 HD
ENDBRANCH  20  28
ENDBRANCH   1  20
BRANCH  15  30
HETATM   30  O6  UNL     1       2.829  -3.523  -0.975  1.00  0.00    -0.344 OA
ATOM     31  H6  UNL     1       2.623  -4.416  -1.224  1.00  0.00     0.219 HD
ENDBRANCH  15  30
BRANCH   9  32
HETATM   32  N4  UNL     1      -5.176  -0.157   0.416  1.00  0.00    -0.169 N 
ATOM     33  H4  UNL     1      -5.867  -0.887   0.240  1.00  0.00     0.186 HD
BRANCH  32  34
HETATM   34  C8  UNL     1      -5.649   1.096   0.805  1.00  0.00     0.188 A 
HETATM   35  N5  UNL     1      -6.066   1.449   2.030  1.00  0.00    -0.221 N 
HETATM   36  O4  UNL     1      -6.434   2.695   2.011  1.00  0.00    -0.153 OA
ATOM     37  H5  UNL     1      -6.090   0.837   2.846  1.00  0.00     0.198 HD
HETATM   38  N6  UNL     1      -6.284   3.202   0.826  1.00  0.00    -0.222 N 
HETATM   39  C9  UNL     1      -5.785   2.217   0.022  1.00  0.00     0.168 A 
ATOM     40  H6  UNL     1      -6.499   4.159   0.547  1.00  0.00     0.198 HD
BRANCH  39  41
HETATM   41  N7  UNL     1      -5.510   2.344  -1.211  1.00  0.00    -0.381 N 
ATOM     42  H72 UNL     1      -5.137   1.608  -1.811  1.00  0.00     0.157 HD
ATOM     43  H71 UNL     1      -5.611   3.176  -1.792  1.00  0.00     0.157 HD
ENDBRANCH  39  41
ENDBRANCH  32  34
ENDBRANCH   9  32
TORSDOF 12
