REMARK  19 active torsions:
REMARK  status: ('A' for Active; 'I' for Inactive)
REMARK    1  A    between atoms: C3_3  and  N1_4 
REMARK       I    between atoms: N1_4  and  C4_6 
REMARK    2  A    between atoms: C4_6  and  C5_8 
REMARK    3  A    between atoms: C5_8  and  C6_9 
REMARK    4  A    between atoms: C5_8  and  N2_12 
REMARK    5  A    between atoms: C6_9  and  C7_10 
REMARK       I    between atoms: N2_12  and  C9_14 
REMARK    6  A    between atoms: C9_14  and  C10_16 
REMARK    7  A    between atoms: C10_16  and  N3_17 
REMARK    8  A    between atoms: N3_17  and  C11_19 
REMARK    9  A    between atoms: C11_19  and  O3_20 
REMARK   10  A    between atoms: C11_19  and  C12_22 
REMARK   11  A    between atoms: C12_22  and  C13_23 
REMARK   12  A    between atoms: C13_23  and  N4_24 
REMARK   13  A    between atoms: N4_24  and  C14_26 
REMARK   14  A    between atoms: C14_26  and  O4_27 
REMARK   15  A    between atoms: C14_26  and  C15_29 
REMARK   16  A    between atoms: C15_29  and  N5_30 
REMARK   17  A    between atoms: C15_29  and  C21_39 
REMARK       I    between atoms: N5_30  and  C16_32 
REMARK   18  A    between atoms: C16_32  and  O6_34 
REMARK   19  A    between atoms: O6_34  and  C17_35 
ROOT
HETATM    1  C1  UNL     1       7.740  -3.792   3.051  1.00  0.00     0.014 C 
HETATM    2  C2  UNL     1       8.296  -3.306   2.128  1.00  0.00    -0.098 C 
HETATM    3  C3  UNL     1       8.988  -2.691   1.009  1.00  0.00     0.216 C 
ENDROOT
BRANCH   3   4
HETATM    4  N1  UNL     1       8.098  -2.330  -0.078  1.00  0.00    -0.349 N 
HETATM    5  C4  UNL     1       7.035  -1.412   0.116  1.00  0.00     0.241 C 
HETATM    6  O1  UNL     1       6.827  -0.883   1.229  1.00  0.00    -0.271 OA
ATOM      7  H1  UNL     1       8.240  -2.744  -0.999  1.00  0.00     0.163 HD
BRANCH   5   8
HETATM    8  C5  UNL     1       6.146  -1.069  -1.040  1.00  0.00     0.180 C 
BRANCH   8   9
HETATM    9  C6  UNL     1       6.991  -0.617  -2.186  1.00  0.00     0.061 C 
BRANCH   9  10
HETATM   10  C7  UNL     1       7.815   0.567  -1.870  1.00  0.00    -0.034 C 
HETATM   11  C8  UNL     1       7.716   1.689  -2.549  1.00  0.00     0.007 C 
ENDBRANCH   9  10
ENDBRANCH   8   9
BRANCH   8  12
HETATM   12  N2  UNL     1       5.166  -0.128  -0.585  1.00  0.00    -0.343 N 
HETATM   13  C9  UNL     1       3.796  -0.401  -0.442  1.00  0.00     0.275 C 
HETATM   14  O2  UNL     1       3.354  -1.535  -0.718  1.00  0.00    -0.268 OA
ATOM     15  H2  UNL     1       5.488   0.810  -0.347  1.00  0.00     0.163 HD
BRANCH  13  16
HETATM   16  C10 UNL     1       2.855   0.631   0.040  1.00  0.00     0.232 C 
HETATM   17  O7  UNL     1       3.523   1.674   0.703  1.00  0.00    -0.279 OA
HETATM   18  C30 UNL     1       3.680   2.738  -0.191  1.00  0.00     0.267 C 
HETATM   19  O8  UNL     1       4.626   3.560  -0.296  1.00  0.00    -0.265 OA
HETATM   20  C31 UNL     1       2.480   2.720  -1.024  1.00  0.00     0.104 A 
HETATM   21  C32 UNL     1       2.016   1.241  -1.034  1.00  0.00     0.075 A 
HETATM   22  C33 UNL     1       2.477   1.908  -2.243  1.00  0.00    -0.025 A 
HETATM   23  C34 UNL     1       3.740   1.630  -2.980  1.00  0.00     0.016 C 
HETATM   24  C35 UNL     1       1.331   2.296  -3.212  1.00  0.00     0.016 C 
BRANCH  16  25
HETATM   25  N3  UNL     1       1.932  -0.051   0.963  1.00  0.00    -0.332 N 
ATOM     26  H3  UNL     1       2.037  -1.055   1.110  1.00  0.00     0.165 HD
BRANCH  25  27
HETATM   27  C11 UNL     1       0.927   0.621   1.638  1.00  0.00     0.153 C 
BRANCH  27  28
HETATM   28  O3  UNL     1       0.826   1.899   1.402  1.00  0.00    -0.348 OA
ATOM     29  H3  UNL     1       0.136   2.360   1.865  1.00  0.00     0.219 HD
ENDBRANCH  27  28
BRANCH  27  30
HETATM   30  C12 UNL     1      -0.069   0.141   2.596  1.00  0.00     0.213 C 
HETATM   31  C25 UNL     1       0.355   0.564   4.010  1.00  0.00     0.060 C 
HETATM   32  C26 UNL     1      -0.779   0.062   4.851  1.00  0.00     0.037 C 
HETATM   33  C29 UNL     1       1.169  -0.715   3.899  1.00  0.00     0.246 C 
HETATM   34  C27 UNL     1      -1.021  -1.258   4.142  1.00  0.00     0.239 C 
HETATM   35  N6  UNL     1       0.027  -1.186   3.116  1.00  0.00    -0.052 N 
HETATM   36  C28 UNL     1       0.175  -2.306   2.299  1.00  0.00     0.274 C 
BRANCH  30  37
HETATM   37  C13 UNL     1      -1.464   0.606   2.261  1.00  0.00     0.170 C 
BRANCH  37  38
HETATM   38  N4  UNL     1      -1.992   0.162   1.012  1.00  0.00    -0.370 N 
ATOM     39  H4  UNL     1      -1.436  -0.432   0.397  1.00  0.00     0.161 HD
BRANCH  38  40
HETATM   40  C14 UNL     1      -3.299   0.558   0.638  1.00  0.00     0.135 C 
BRANCH  40  41
HETATM   41  O4  UNL     1      -3.943   1.333   1.483  1.00  0.00    -0.348 OA
ATOM     42  H4  UNL     1      -4.820   1.599   1.232  1.00  0.00     0.219 HD
ENDBRANCH  40  41
BRANCH  40  43
HETATM   43  C15 UNL     1      -4.058   0.223  -0.564  1.00  0.00     0.168 C 
BRANCH  43  44
HETATM   44  N5  UNL     1      -5.415   0.778  -0.417  1.00  0.00    -0.324 N 
HETATM   45  C16 UNL     1      -6.582  -0.020  -0.392  1.00  0.00     0.362 C 
HETATM   46  O5  UNL     1      -6.569  -1.278  -0.494  1.00  0.00    -0.238 OA
ATOM     47  H5  UNL     1      -5.518   1.789  -0.329  1.00  0.00     0.165 HD
BRANCH  45  48
HETATM   48  O6  UNL     1      -7.814   0.590  -0.249  1.00  0.00    -0.294 OA
BRANCH  48  49
HETATM   49  C17 UNL     1      -9.055  -0.040  -0.203  1.00  0.00     0.061 C 
HETATM   50  C18 UNL     1      -9.198  -1.026   0.947  1.00  0.00     0.046 C 
HETATM   51  C19 UNL     1      -9.404  -0.743  -1.498  1.00  0.00     0.046 C 
HETATM   52  C20 UNL     1     -10.107   1.033   0.029  1.00  0.00     0.046 C 
ENDBRANCH  48  49
ENDBRANCH  45  48
ENDBRANCH  43  44
BRANCH  43  53
HETATM   53  C21 UNL     1      -3.431   0.722  -1.811  1.00  0.00    -0.023 C 
HETATM   54  C22 UNL     1      -2.073   0.131  -2.040  1.00  0.00     0.017 C 
HETATM   55  C23 UNL     1      -3.257   2.235  -1.810  1.00  0.00     0.017 C 
HETATM   56  C24 UNL     1      -4.265   0.420  -3.048  1.00  0.00     0.017 C 
ENDBRANCH  43  53
ENDBRANCH  40  43
ENDBRANCH  38  40
ENDBRANCH  37  38
ENDBRANCH  30  37
ENDBRANCH  27  30
ENDBRANCH  25  27
ENDBRANCH  16  25
ENDBRANCH  13  16
ENDBRANCH   8  12
ENDBRANCH   5   8
ENDBRANCH   3   4
TORSDOF 19
