REMARK  2 active torsions:
REMARK  status: ('A' for Active; 'I' for Inactive)
REMARK    1  A    between atoms: C1_4  and  N2_5 
REMARK    2  A    between atoms: N2_5  and  C2_7 
ROOT
HETATM    1  C2  UNL     1       2.970   2.159   1.492  1.00  0.00     0.123 C 
HETATM    2  C3  UNL     1       1.949   1.566   0.865  1.00  0.00     0.112 C 
HETATM    3  N3  UNL     1       1.659   1.885  -0.479  1.00  0.00    -0.383 N 
ATOM      4  H3  UNL     1       2.444   2.212  -1.041  1.00  0.00     0.159 HD
HETATM    5  C4  UNL     1       0.399   1.805  -1.147  1.00  0.00     0.147 C 
HETATM    6  C5  UNL     1      -0.748   2.462  -0.429  1.00  0.00     0.251 C 
HETATM    7  N4  UNL     1      -2.010   2.245  -1.110  1.00  0.00    -0.074 N 
ATOM      8  H41 UNL     1      -1.884   2.085  -2.109  1.00  0.00     0.277 HD
ATOM      9  H42 UNL     1      -2.567   3.098  -1.166  1.00  0.00     0.277 HD
HETATM   10  C6  UNL     1      -2.728   1.170  -0.476  1.00  0.00     0.234 C 
HETATM   11  C7  UNL     1      -3.571   0.347  -1.395  1.00  0.00     0.055 C 
HETATM   12  C8  UNL     1      -2.835  -0.695  -2.176  1.00  0.00     0.234 C 
HETATM   13  N5  UNL     1      -3.048  -2.040  -1.742  1.00  0.00    -0.073 N 
ATOM     14  H51 UNL     1      -3.206  -2.656  -2.539  1.00  0.00     0.277 HD
ATOM     15  H52 UNL     1      -3.951  -2.131  -1.277  1.00  0.00     0.277 HD
HETATM   16  C9  UNL     1      -1.970  -2.556  -0.891  1.00  0.00     0.259 C 
HETATM   17  C10 UNL     1      -0.663  -2.587  -1.614  1.00  0.00     0.259 C 
HETATM   18  N6  UNL     1       0.336  -3.376  -0.952  1.00  0.00    -0.072 N 
ATOM     19  H61 UNL     1       1.217  -3.402  -1.466  1.00  0.00     0.277 HD
ATOM     20  H62 UNL     1       0.127  -4.374  -0.980  1.00  0.00     0.277 HD
HETATM   21  C11 UNL     1       0.498  -2.883   0.398  1.00  0.00     0.252 C 
HETATM   22  C12 UNL     1       1.274  -1.593   0.350  1.00  0.00     0.150 C 
HETATM   23  N7  UNL     1       0.613  -0.601   1.158  1.00  0.00    -0.354 N 
ATOM     24  H7  UNL     1      -0.364  -0.776   1.392  1.00  0.00     0.162 HD
HETATM   25  C13 UNL     1       1.186   0.594   1.660  1.00  0.00     0.269 C 
HETATM   26  O1  UNL     1       1.063   0.908   2.901  1.00  0.00    -0.266 OA
ENDROOT
BRANCH   1  27
HETATM   27  N2  UNL     1       3.343   1.917   2.816  1.00  0.00    -0.360 N 
ATOM     28  H2  UNL     1       2.941   2.527   3.528  1.00  0.00     0.166 HD
BRANCH  27  29
HETATM   29  C1  UNL     1       4.218   0.915   3.259  1.00  0.00     0.173 C 
HETATM   30  N1  UNL     1       5.146   1.198   4.088  1.00  0.00    -0.395 N 
ATOM     31  H12 UNL     1       5.238   2.159   4.419  1.00  0.00     0.156 HD
ATOM     32  H11 UNL     1       5.783   0.469   4.410  1.00  0.00     0.156 HD
ENDBRANCH  27  29
ENDBRANCH   1  27
TORSDOF 2
