REMARK  7 active torsions:
REMARK  status: ('A' for Active; 'I' for Inactive)
REMARK    1  A    between atoms: O1_2  and  C2_3 
REMARK    2  A    between atoms: C2_3  and  C3_5 
REMARK    3  A    between atoms: C3_5  and  N1_6 
REMARK       I    between atoms: N1_6  and  C4_8 
REMARK    4  A    between atoms: C4_8  and  C5_10 
REMARK    5  A    between atoms: C8_15  and  C9_16 
REMARK    6  A    between atoms: C9_16  and  S1_17 
REMARK    7  A    between atoms: C16_25  and  C17_26 
ROOT
HETATM    1  C5  UNL     1       1.306   0.103  -0.634  1.00  0.00     0.116 A 
HETATM    2  N2  UNL     1       0.341   1.078  -0.698  1.00  0.00    -0.350 N 
ATOM      3  H2  UNL     1       0.513   2.056  -0.931  1.00  0.00     0.166 HD
HETATM    4  C6  UNL     1      -0.858   0.557  -0.410  1.00  0.00     0.045 A 
HETATM    5  C7  UNL     1      -2.124   1.112  -0.340  1.00  0.00     0.039 A 
HETATM    6  C8  UNL     1      -3.251   0.392  -0.021  1.00  0.00    -0.038 A 
HETATM    7  C11 UNL     1      -3.112  -0.949   0.243  1.00  0.00    -0.048 A 
HETATM    8  C12 UNL     1      -4.297  -1.740   0.586  1.00  0.00     0.049 C 
HETATM    9  C13 UNL     1      -1.852  -1.544   0.182  1.00  0.00    -0.042 A 
HETATM   10  C14 UNL     1      -1.732  -2.986   0.475  1.00  0.00     0.049 C 
HETATM   11  C15 UNL     1      -0.737  -0.792  -0.143  1.00  0.00     0.013 A 
HETATM   12  C16 UNL     1       0.631  -1.052  -0.289  1.00  0.00     0.055 A 
ENDROOT
BRANCH   1  13
HETATM   13  C4  UNL     1       2.703   0.381  -0.891  1.00  0.00     0.269 C 
HETATM   14  N1  UNL     1       3.741  -0.563  -0.930  1.00  0.00    -0.346 N 
ATOM     15  H1  UNL     1       3.542  -1.551  -0.776  1.00  0.00     0.163 HD
HETATM   16  O3  UNL     1       2.991   1.623  -1.100  1.00  0.00    -0.266 OA
BRANCH  14  17
HETATM   17  C3  UNL     1       5.100  -0.123  -1.191  1.00  0.00     0.234 C 
BRANCH  17  18
HETATM   18  C2  UNL     1       5.577   0.797  -0.131  1.00  0.00     0.276 C 
HETATM   19  O2  UNL     1       4.919   1.123   0.884  1.00  0.00    -0.263 OA
BRANCH  18  20
HETATM   20  O1  UNL     1       6.857   1.372  -0.230  1.00  0.00    -0.325 OA
HETATM   21  C1  UNL     1       7.322   2.255   0.783  1.00  0.00     0.213 C 
ENDBRANCH  18  20
ENDBRANCH  17  18
ENDBRANCH  14  17
ENDBRANCH   1  13
BRANCH  12  22
HETATM   22  C17 UNL     1       1.212  -2.348  -0.093  1.00  0.00     0.159 C 
HETATM   23  C18 UNL     1       1.722  -2.861   1.229  1.00  0.00     0.097 C 
HETATM   24  O5  UNL     1       1.314  -3.138  -1.087  1.00  0.00    -0.293 OA
ENDBRANCH  12  22
BRANCH   6  25
HETATM   25  C9  UNL     1      -4.592   1.058   0.044  1.00  0.00     0.147 C 
BRANCH  25  26
HETATM   26  S1  UNL     1      -4.497   2.781  -0.357  1.00  0.00     0.015 S 
HETATM   27  C10 UNL     1      -6.136   3.522  -0.250  1.00  0.00     0.127 C 
HETATM   28  O4  UNL     1      -4.035   2.902  -1.978  1.00  0.00    -0.258 OA
ENDBRANCH  25  26
ENDBRANCH   6  25
TORSDOF 7
