REMARK  1 active torsions:
REMARK  status: ('A' for Active; 'I' for Inactive)
REMARK    1  A    between atoms: O1_1  and  N1_3 
ROOT
HETATM    1  N1  UNL     1      -1.013  -0.725   0.052  1.00  0.00    -0.115 N 
HETATM    2  N2  UNL     1       0.152  -1.351  -0.090  1.00  0.00    -0.245 N 
ATOM      3  H2  UNL     1       0.278  -2.361  -0.158  1.00  0.00     0.192 HD
HETATM    4  C1  UNL     1       1.128  -0.445  -0.129  1.00  0.00     0.199 A 
HETATM    5 CL1  UNL     1       2.824  -0.734  -0.301  1.00  0.00    -0.043 Cl
HETATM    6  N3  UNL     1       0.554   0.750  -0.009  1.00  0.00    -0.290 N 
ATOM      7  H3  UNL     1       1.043   1.645  -0.004  1.00  0.00     0.172 HD
HETATM    8  C2  UNL     1      -0.765   0.587   0.103  1.00  0.00     0.309 A 
HETATM    9  F1  UNL     1      -1.688   1.548   0.243  1.00  0.00    -0.161 F 
ENDROOT
BRANCH   1  10
HETATM   10  O1  UNL     1      -2.249  -1.287   0.134  1.00  0.00    -0.264 OA
ATOM     11  H1  UNL     1      -3.081  -0.840   0.235  1.00  0.00     0.247 HD
ENDBRANCH   1  10
TORSDOF 1
