REMARK  11 active torsions:
REMARK  status: ('A' for Active; 'I' for Inactive)
REMARK    1  A    between atoms: C2_2  and  C3_3 
REMARK    2  A    between atoms: C3_3  and  C4_4 
REMARK    3  A    between atoms: C4_4  and  C5_5 
REMARK    4  A    between atoms: C5_5  and  N1_6 
REMARK       I    between atoms: N1_6  and  C6_8 
REMARK       I    between atoms: C6_8  and  N2_10 
REMARK    5  A    between atoms: N2_10  and  C7_12 
REMARK    6  A    between atoms: C14_21  and  N4_22 
REMARK    7  A    between atoms: N4_22  and  C15_24 
REMARK    8  A    between atoms: C15_24  and  C16_25 
REMARK    9  A    between atoms: C16_25  and  C17_26 
REMARK   10  A    between atoms: C17_26  and  N5_27 
REMARK       I    between atoms: N5_27  and  C18_29 
REMARK   11  A    between atoms: C18_29  and  C19_31 
ROOT
HETATM    1  C7  UNL     1       2.757   0.335  -0.247  1.00  0.00     0.037 A 
HETATM    2  C8  UNL     1       3.847   1.166  -0.325  1.00  0.00     0.032 A 
HETATM    3  C9  UNL     1       3.639   2.523  -0.226  1.00  0.00     0.033 A 
HETATM    4  C10 UNL     1       2.379   3.046  -0.055  1.00  0.00     0.043 A 
HETATM    5  N3  UNL     1       2.201   4.359   0.061  1.00  0.00    -0.358 N 
ATOM      6  H3  UNL     1       3.009   4.979   0.006  1.00  0.00     0.166 HD
HETATM    7  C11 UNL     1       0.978   4.886   0.249  1.00  0.00     0.017 A 
HETATM    8  C12 UNL     1      -0.151   4.131   0.333  1.00  0.00    -0.023 A 
HETATM    9  C13 UNL     1      -0.023   2.720   0.215  1.00  0.00    -0.000 A 
HETATM   10  C14 UNL     1      -1.280   2.033   0.340  1.00  0.00     0.096 C 
HETATM   11  C24 UNL     1       1.250   2.219   0.026  1.00  0.00     0.005 A 
HETATM   12  C25 UNL     1       1.468   0.892  -0.071  1.00  0.00     0.044 A 
HETATM   13  C26 UNL     1      -1.534   4.727   0.523  1.00  0.00     0.047 C 
HETATM   14  C27 UNL     1      -1.263   6.035   1.140  1.00  0.00     0.003 A 
HETATM   15  C28 UNL     1      -0.449   6.754   0.009  1.00  0.00     0.004 A 
HETATM   16  C29 UNL     1       0.934   6.410   0.366  1.00  0.00     0.063 C 
HETATM   17  C30 UNL     1      -1.504   7.368   0.743  1.00  0.00    -0.039 A 
HETATM   18  C31 UNL     1      -1.090   8.494   1.702  1.00  0.00     0.015 C 
HETATM   19  C32 UNL     1      -2.787   7.717   0.017  1.00  0.00     0.015 C 
ENDROOT
BRANCH  10  20
HETATM   20  N4  UNL     1      -1.387   0.663   0.134  1.00  0.00    -0.398 N 
ATOM     21  H4  UNL     1      -0.621   0.083  -0.209  1.00  0.00     0.158 HD
BRANCH  20  22
HETATM   22  C15 UNL     1      -2.726   0.134   0.463  1.00  0.00     0.120 C 
BRANCH  22  23
HETATM   23  C16 UNL     1      -3.788   0.586  -0.481  1.00  0.00     0.039 C 
BRANCH  23  24
HETATM   24  C17 UNL     1      -5.111  -0.013  -0.062  1.00  0.00     0.124 C 
BRANCH  24  25
HETATM   25  N5  UNL     1      -5.047  -1.446  -0.062  1.00  0.00    -0.361 N 
HETATM   26  C18 UNL     1      -4.772  -2.184  -1.219  1.00  0.00     0.221 C 
HETATM   27  O2  UNL     1      -4.569  -1.625  -2.326  1.00  0.00    -0.273 OA
ATOM     28  H5  UNL     1      -5.208  -1.945   0.813  1.00  0.00     0.162 HD
BRANCH  26  29
HETATM   29  C19 UNL     1      -4.722  -3.694  -1.114  1.00  0.00     0.078 C 
HETATM   30  C20 UNL     1      -6.090  -4.146  -0.661  1.00  0.00     0.014 C 
HETATM   31  C21 UNL     1      -5.881  -5.201   0.379  1.00  0.00     0.001 C 
HETATM   32  C22 UNL     1      -4.445  -5.128   0.825  1.00  0.00     0.001 C 
HETATM   33  C23 UNL     1      -3.754  -4.109  -0.044  1.00  0.00     0.014 C 
ENDBRANCH  26  29
ENDBRANCH  24  25
ENDBRANCH  23  24
ENDBRANCH  22  23
ENDBRANCH  20  22
ENDBRANCH  10  20
BRANCH   1  34
HETATM   34  N2  UNL     1       2.842  -1.063  -0.336  1.00  0.00    -0.309 N 
HETATM   35  C6  UNL     1       3.978  -1.878  -0.499  1.00  0.00     0.320 C 
HETATM   36  N1  UNL     1       3.874  -3.305  -0.571  1.00  0.00    -0.343 N 
HETATM   37  O1  UNL     1       5.127  -1.417  -0.590  1.00  0.00    -0.247 OA
ATOM     38  H1  UNL     1       2.945  -3.721  -0.507  1.00  0.00     0.164 HD
ATOM     39  H2  UNL     1       1.953  -1.560  -0.274  1.00  0.00     0.170 HD
BRANCH  36  40
HETATM   40  C5  UNL     1       4.988  -4.179  -0.727  1.00  0.00     0.124 C 
BRANCH  40  41
HETATM   41  C4  UNL     1       5.921  -4.085   0.427  1.00  0.00     0.020 C 
BRANCH  41  42
HETATM   42  C3  UNL     1       7.112  -5.021   0.287  1.00  0.00     0.001 C 
BRANCH  42  43
HETATM   43  C2  UNL     1       6.692  -6.461   0.192  1.00  0.00    -0.004 C 
HETATM   44  C1  UNL     1       7.927  -7.320   0.057  1.00  0.00     0.005 C 
ENDBRANCH  42  43
ENDBRANCH  41  42
ENDBRANCH  40  41
ENDBRANCH  36  40
ENDBRANCH   1  34
TORSDOF 11
