REMARK  14 active torsions:
REMARK  status: ('A' for Active; 'I' for Inactive)
REMARK    1  A    between atoms: C2_2  and  N1_4 
REMARK       I    between atoms: N1_4  and  C4_6 
REMARK    2  A    between atoms: C4_6  and  C5_8 
REMARK    3  A    between atoms: C5_8  and  C6_9 
REMARK    4  A    between atoms: C6_9  and  C7_10 
REMARK    5  A    between atoms: C7_10  and  C8_11 
REMARK    6  A    between atoms: C8_11  and  C9_12 
REMARK    7  A    between atoms: C9_12  and  N2_13 
REMARK       I    between atoms: N2_13  and  C10_15 
REMARK    8  A    between atoms: C10_15  and  C11_17 
REMARK    9  A    between atoms: C11_17  and  C12_18 
REMARK   10  A    between atoms: C12_18  and  C13_19 
REMARK   11  A    between atoms: C13_19  and  O3_20 
REMARK   12  A    between atoms: C13_19  and  C14_22 
REMARK   13  A    between atoms: C23_31  and  C24_32 
REMARK   14  A    between atoms: C24_32  and  O4_33 
ROOT
HETATM    1  C14 UNL     1      -1.603  -2.511  -1.000  1.00  0.00     0.023 C 
HETATM    2  C15 UNL     1      -2.053  -3.529   0.071  1.00  0.00     0.008 C 
HETATM    3  C16 UNL     1      -3.326  -2.972   0.653  1.00  0.00     0.006 C 
HETATM    4  C17 UNL     1      -3.611  -1.816  -0.221  1.00  0.00    -0.001 C 
HETATM    5  C18 UNL     1      -4.642  -0.880   0.160  1.00  0.00    -0.002 C 
HETATM    6  C19 UNL     1      -4.734  -0.426   1.584  1.00  0.00     0.033 C 
HETATM    7  C20 UNL     1      -6.063   0.231   1.709  1.00  0.00    -0.023 C 
HETATM    8  C21 UNL     1      -6.526   1.012   0.742  1.00  0.00    -0.079 C 
HETATM    9  C22 UNL     1      -7.858   1.620   0.958  1.00  0.00     0.041 C 
HETATM   10  C23 UNL     1      -8.441   2.381  -0.160  1.00  0.00     0.013 C 
HETATM   11  C25 UNL     1      -7.697   2.425  -1.439  1.00  0.00     0.007 C 
HETATM   12  C26 UNL     1      -6.765   1.257  -1.642  1.00  0.00     0.010 C 
HETATM   13  C27 UNL     1      -5.770   1.280  -0.503  1.00  0.00     0.019 C 
HETATM   14  C28 UNL     1      -4.695   0.289  -0.798  1.00  0.00    -0.002 C 
HETATM   15  C29 UNL     1      -3.315   0.904  -0.859  1.00  0.00     0.006 C 
HETATM   16  C30 UNL     1      -2.413  -0.163  -1.462  1.00  0.00     0.010 C 
HETATM   17  C31 UNL     1      -2.199  -1.258  -0.469  1.00  0.00    -0.034 C 
HETATM   18  C32 UNL     1      -1.560  -0.819   0.820  1.00  0.00     0.016 C 
ENDROOT
BRANCH   1  19
HETATM   19  C13 UNL     1      -0.114  -2.637  -1.036  1.00  0.00     0.123 C 
BRANCH  19  20
HETATM   20  C12 UNL     1       0.606  -1.774  -1.996  1.00  0.00     0.041 C 
BRANCH  20  21
HETATM   21  C11 UNL     1       2.059  -2.142  -2.053  1.00  0.00     0.105 C 
BRANCH  21  22
HETATM   22  C10 UNL     1       2.761  -1.894  -0.766  1.00  0.00     0.217 C 
HETATM   23  N2  UNL     1       4.082  -2.317  -0.532  1.00  0.00    -0.361 N 
ATOM     24  H2  UNL     1       4.573  -2.821  -1.270  1.00  0.00     0.162 HD
HETATM   25  O2  UNL     1       2.154  -1.284   0.144  1.00  0.00    -0.274 OA
BRANCH  23  26
HETATM   26  C9  UNL     1       4.761  -2.068   0.697  1.00  0.00     0.122 C 
BRANCH  26  27
HETATM   27  C8  UNL     1       4.938  -0.594   0.936  1.00  0.00     0.020 C 
BRANCH  27  28
HETATM   28  C7  UNL     1       5.663  -0.353   2.252  1.00  0.00     0.002 C 
BRANCH  28  29
HETATM   29  C6  UNL     1       5.820   1.124   2.448  1.00  0.00     0.009 C 
BRANCH  29  30
HETATM   30  C5  UNL     1       6.607   1.821   1.388  1.00  0.00     0.103 C 
BRANCH  30  31
HETATM   31  C4  UNL     1       8.001   1.350   1.268  1.00  0.00     0.217 C 
HETATM   32  N1  UNL     1       8.835   1.866   0.242  1.00  0.00    -0.357 N 
ATOM     33  H1  UNL     1       8.466   2.558  -0.410  1.00  0.00     0.162 HD
HETATM   34  O1  UNL     1       8.455   0.503   2.060  1.00  0.00    -0.274 OA
BRANCH  32  35
HETATM   35  C2  UNL     1      10.221   1.412   0.112  1.00  0.00     0.076 C 
HETATM   36  C1  UNL     1      10.403   0.683  -1.214  1.00  0.00     0.032 C 
HETATM   37  C3  UNL     1      11.120   2.595   0.239  1.00  0.00     0.032 C 
ENDBRANCH  32  35
ENDBRANCH  30  31
ENDBRANCH  29  30
ENDBRANCH  28  29
ENDBRANCH  27  28
ENDBRANCH  26  27
ENDBRANCH  23  26
ENDBRANCH  21  22
ENDBRANCH  20  21
ENDBRANCH  19  20
BRANCH  19  38
HETATM   38  O3  UNL     1       0.080  -3.965  -1.555  1.00  0.00    -0.395 OA
ATOM     39  H3  UNL     1      -0.383  -4.520  -0.938  1.00  0.00     0.210 HD
ENDBRANCH  19  38
ENDBRANCH   1  19
BRANCH  10  40
HETATM   40  C24 UNL     1      -8.813   3.816   0.229  1.00  0.00     0.168 C 
BRANCH  40  41
HETATM   41  O4  UNL     1      -9.738   3.862   1.249  1.00  0.00    -0.400 OA
ATOM     42  H4  UNL     1      -9.969   4.751   1.490  1.00  0.00     0.209 HD
ENDBRANCH  40  41
ENDBRANCH  10  40
TORSDOF 14
