REMARK  6 active torsions:
REMARK  status: ('A' for Active; 'I' for Inactive)
REMARK    1  A    between atoms: O1_1  and  C1_3 
REMARK    2  A    between atoms: C1_3  and  C2_4 
REMARK    3  A    between atoms: C3_5  and  C4_6 
REMARK    4  A    between atoms: C4_6  and  C5_7 
REMARK    5  A    between atoms: C7_9  and  C8_10 
REMARK    6  A    between atoms: C9_11  and  C10_12 
ROOT
HETATM    1  C5  UNL     1       1.437  -1.065  -0.643  1.00  0.00     0.015 A 
HETATM    2  C6  UNL     1       0.169  -0.553  -0.827  1.00  0.00     0.048 A 
HETATM    3  C7  UNL     1      -0.683  -1.090   0.130  1.00  0.00     0.053 A 
HETATM    4  C13 UNL     1       0.100  -1.929   0.887  1.00  0.00     0.099 A 
HETATM    5 BR1  UNL     1      -0.564  -2.941   2.362  1.00  0.00    -0.030 Br
HETATM    6  N2  UNL     1       1.356  -1.897   0.408  1.00  0.00    -0.352 N 
ATOM      7  H2  UNL     1       2.138  -2.430   0.789  1.00  0.00     0.166 HD
ENDROOT
BRANCH   3   8
HETATM    8  C8  UNL     1      -2.102  -0.806   0.277  1.00  0.00    -0.064 C 
HETATM    9  C9  UNL     1      -3.272  -0.569   0.378  1.00  0.00    -0.093 C 
BRANCH   9  10
HETATM   10  C10 UNL     1      -4.708  -0.275   0.476  1.00  0.00     0.116 C 
HETATM   11  C11 UNL     1      -5.295   0.325  -0.787  1.00  0.00     0.251 C 
HETATM   12  N1  UNL     1      -5.126   1.678  -0.259  1.00  0.00    -0.073 N 
HETATM   13  C12 UNL     1      -5.033   1.070   1.066  1.00  0.00     0.251 C 
ATOM     14  H12 UNL     1      -4.394   2.296  -0.610  1.00  0.00     0.277 HD
ATOM     15  H11 UNL     1      -5.805   2.413  -0.458  1.00  0.00     0.277 HD
ENDBRANCH   9  10
ENDBRANCH   3   8
BRANCH   1  16
HETATM   16  C4  UNL     1       2.653  -0.760  -1.441  1.00  0.00     0.084 C 
BRANCH  16  17
HETATM   17  C3  UNL     1       3.364   0.411  -0.836  1.00  0.00    -0.023 C 
HETATM   18  C2  UNL     1       4.598   0.344  -0.391  1.00  0.00    -0.005 C 
BRANCH  18  19
HETATM   19  C1  UNL     1       5.241   1.532   0.193  1.00  0.00     0.191 C 
BRANCH  19  20
HETATM   20  O1  UNL     1       5.633   1.335   1.517  1.00  0.00    -0.397 OA
ATOM     21  H1  UNL     1       6.048   2.102   1.894  1.00  0.00     0.209 HD
ENDBRANCH  19  20
ENDBRANCH  18  19
ENDBRANCH  16  17
ENDBRANCH   1  16
TORSDOF 6
