REMARK  13 active torsions:
REMARK  status: ('A' for Active; 'I' for Inactive)
REMARK    1  A    between atoms: C1_2  and  C2_3 
REMARK       I    between atoms: C1_2  and  N5_33 
REMARK    2  A    between atoms: C2_3  and  C3_4 
REMARK    3  A    between atoms: C3_4  and  C4_5 
REMARK    4  A    between atoms: C4_5  and  N1_7 
REMARK    5  A    between atoms: N1_7  and  C5_9 
REMARK    6  A    between atoms: C5_9  and  C6_10 
REMARK    7  A    between atoms: C6_10  and  C7_11 
REMARK    8  A    between atoms: C7_11  and  N2_12 
REMARK    9  A    between atoms: N2_12  and  C8_15 
REMARK   10  A    between atoms: C8_15  and  C9_16 
REMARK   11  A    between atoms: C9_16  and  C10_17 
REMARK   12  A    between atoms: C10_17  and  N3_18 
REMARK   13  A    between atoms: N3_18  and  C11_20 
ROOT
HETATM    1  N2  UNL     1      -2.287   2.771  -0.315  1.00  0.00    -0.075 N 
ATOM      2  H21 UNL     1      -2.575   2.946  -1.278  1.00  0.00     0.277 HD
ATOM      3  H22 UNL     1      -2.156   3.731   0.004  1.00  0.00     0.277 HD
ENDROOT
BRANCH   1   4
HETATM    4  C7  UNL     1      -1.047   2.060  -0.285  1.00  0.00     0.234 C 
BRANCH   4   5
HETATM    5  C6  UNL     1      -0.385   2.014   1.070  1.00  0.00     0.047 C 
BRANCH   5   6
HETATM    6  C5  UNL     1       0.911   1.248   0.965  1.00  0.00     0.122 C 
BRANCH   6   7
HETATM    7  N1  UNL     1       1.803   1.914   0.049  1.00  0.00    -0.384 N 
ATOM      8  H1  UNL     1       1.502   2.790  -0.379  1.00  0.00     0.160 HD
BRANCH   7   9
HETATM    9  C4  UNL     1       3.076   1.401  -0.278  1.00  0.00     0.073 C 
HETATM   10  S1  UNL     1       4.027   2.215  -1.311  1.00  0.00    -0.066 SA
BRANCH   9  11
HETATM   11  C3  UNL     1       3.532   0.134   0.321  1.00  0.00     0.078 C 
BRANCH  11  12
HETATM   12  C2  UNL     1       4.940  -0.152  -0.149  1.00  0.00     0.110 C 
BRANCH  12  13
HETATM   13  C1  UNL     1       5.448  -1.434   0.417  1.00  0.00     0.220 C 
HETATM   14  O1  UNL     1       4.689  -2.154   1.113  1.00  0.00    -0.273 OA
HETATM   15  N5  UNL     1       6.782  -1.844   0.173  1.00  0.00    -0.352 N 
HETATM   16  C20 UNL     1       7.667  -0.991  -0.632  1.00  0.00     0.128 C 
HETATM   17  C24 UNL     1       7.348  -3.060   0.671  1.00  0.00     0.128 C 
HETATM   18  C21 UNL     1       8.729  -0.534   0.373  1.00  0.00     0.057 C 
HETATM   19  C22 UNL     1       9.511  -1.753   0.760  1.00  0.00     0.173 C 
HETATM   20  F1  UNL     1      10.230  -2.171  -0.344  1.00  0.00    -0.249 F 
HETATM   21  C23 UNL     1       8.675  -2.854   1.357  1.00  0.00     0.057 C 
ENDBRANCH  12  13
ENDBRANCH  11  12
ENDBRANCH   9  11
ENDBRANCH   7   9
ENDBRANCH   6   7
ENDBRANCH   5   6
ENDBRANCH   4   5
ENDBRANCH   1   4
BRANCH   1  22
HETATM   22  C8  UNL     1      -3.354   2.133   0.424  1.00  0.00     0.234 C 
BRANCH  22  23
HETATM   23  C9  UNL     1      -4.636   2.937   0.298  1.00  0.00     0.047 C 
BRANCH  23  24
HETATM   24  C10 UNL     1      -5.757   2.297   1.076  1.00  0.00     0.121 C 
BRANCH  24  25
HETATM   25  N3  UNL     1      -6.082   0.975   0.667  1.00  0.00    -0.389 N 
ATOM     26  H3  UNL     1      -5.688   0.228   1.239  1.00  0.00     0.159 HD
BRANCH  25  27
HETATM   27  C11 UNL     1      -6.792   0.600  -0.308  1.00  0.00     0.042 A 
HETATM   28  C12 UNL     1      -7.382   1.494  -1.159  1.00  0.00     0.047 A 
HETATM   29  C13 UNL     1      -8.147   1.018  -2.194  1.00  0.00     0.090 A 
HETATM   30  N4  UNL     1      -8.327  -0.310  -2.386  1.00  0.00    -0.365 N 
HETATM   31  C14 UNL     1      -7.757  -1.219  -1.563  1.00  0.00     0.046 A 
ATOM     32  H4  UNL     1      -8.902  -0.630  -3.165  1.00  0.00     0.165 HD
HETATM   33  C15 UNL     1      -7.966  -2.550  -1.796  1.00  0.00     0.056 A 
HETATM   34  C19 UNL     1      -6.972  -0.774  -0.500  1.00  0.00     0.019 A 
HETATM   35  C16 UNL     1      -7.377  -3.459  -0.946  1.00  0.00     0.058 A 
HETATM   36 CL1  UNL     1      -7.612  -5.181  -1.200  1.00  0.00    -0.082 Cl
HETATM   37  C17 UNL     1      -6.589  -3.053   0.123  1.00  0.00     0.056 A 
HETATM   38 CL2  UNL     1      -5.853  -4.259   1.184  1.00  0.00    -0.083 Cl
HETATM   39  C18 UNL     1      -6.394  -1.704   0.335  1.00  0.00     0.041 A 
ENDBRANCH  25  27
ENDBRANCH  24  25
ENDBRANCH  23  24
ENDBRANCH  22  23
ENDBRANCH   1  22
TORSDOF 13
