REMARK  15 active torsions:
REMARK  status: ('A' for Active; 'I' for Inactive)
REMARK       I    between atoms: C2_5  and  N4_7 
REMARK    1  A    between atoms: N4_7  and  C3_9 
REMARK    2  A    between atoms: C3_9  and  C4_10 
REMARK    3  A    between atoms: C4_10  and  C5_11 
REMARK    4  A    between atoms: C5_11  and  C6_12 
REMARK    5  A    between atoms: C6_12  and  C7_13 
REMARK    6  A    between atoms: C7_13  and  C8_14 
REMARK    7  A    between atoms: C8_14  and  C9_15 
REMARK    8  A    between atoms: C9_15  and  N5_16 
REMARK    9  A    between atoms: N5_16  and  C10_17 
REMARK   10  A    between atoms: N5_16  and  C18_31 
REMARK   11  A    between atoms: C10_17  and  O1_18 
REMARK   12  A    between atoms: C10_17  and  N6_20 
REMARK   13  A    between atoms: N6_20  and  C11_22 
REMARK   14  A    between atoms: C11_22  and  C12_23 
REMARK   15  A    between atoms: C18_31  and  C19_33 
ROOT
HETATM    1  N1  UNL     1       5.366   2.694  -3.199  1.00  0.00    -0.172 NA
HETATM    2  C1  UNL     1       5.989   1.798  -2.870  1.00  0.00     0.184 C 
HETATM    3  N2  UNL     1       6.761   0.699  -2.486  1.00  0.00    -0.268 N 
ATOM      4  H2  UNL     1       7.682   0.595  -2.912  1.00  0.00     0.180 HD
HETATM    5  C2  UNL     1       6.400  -0.175  -1.649  1.00  0.00     0.197 C 
HETATM    6  N3  UNL     1       7.211  -1.259  -1.298  1.00  0.00    -0.063 NA
HETATM    7  N4  UNL     1       5.098  -0.066  -1.015  1.00  0.00    -0.364 N 
ATOM      8  H4  UNL     1       4.228  -0.242  -1.517  1.00  0.00     0.162 HD
ENDROOT
BRANCH   7   9
HETATM    9  C3  UNL     1       5.126   0.302   0.350  1.00  0.00     0.122 C 
BRANCH   9  10
HETATM   10  C4  UNL     1       3.902   0.362   1.158  1.00  0.00     0.020 C 
BRANCH  10  11
HETATM   11  C5  UNL     1       3.171  -0.903   1.372  1.00  0.00     0.002 C 
BRANCH  11  12
HETATM   12  C6  UNL     1       2.583  -1.556   0.169  1.00  0.00     0.000 C 
BRANCH  12  13
HETATM   13  C7  UNL     1       1.556  -0.632  -0.485  1.00  0.00     0.002 C 
BRANCH  13  14
HETATM   14  C8  UNL     1       0.425  -0.273   0.417  1.00  0.00     0.020 C 
BRANCH  14  15
HETATM   15  C9  UNL     1      -0.552   0.625  -0.294  1.00  0.00     0.133 C 
BRANCH  15  16
HETATM   16  N5  UNL     1      -1.654   0.968   0.658  1.00  0.00    -0.307 N 
BRANCH  16  17
HETATM   17  C10 UNL     1      -2.738   0.097   0.716  1.00  0.00     0.220 C 
BRANCH  17  18
HETATM   18  O1  UNL     1      -2.693  -0.977  -0.043  1.00  0.00    -0.332 OA
ATOM     19  H1  UNL     1      -3.433  -1.572  -0.003  1.00  0.00     0.220 HD
ENDBRANCH  17  18
BRANCH  17  20
HETATM   20  N6  UNL     1      -3.889   0.206   1.479  1.00  0.00    -0.352 N 
ATOM     21  H6  UNL     1      -4.029   0.999   2.106  1.00  0.00     0.163 HD
BRANCH  20  22
HETATM   22  C11 UNL     1      -4.907  -0.855   1.361  1.00  0.00     0.163 C 
BRANCH  22  23
HETATM   23  C12 UNL     1      -5.582  -0.793   0.067  1.00  0.00    -0.017 A 
HETATM   24  C13 UNL     1      -5.369   0.200  -0.839  1.00  0.00     0.011 A 
HETATM   25  C14 UNL     1      -6.104   0.185  -2.020  1.00  0.00     0.002 A 
HETATM   26  C15 UNL     1      -7.038  -0.782  -2.323  1.00  0.00     0.026 A 
HETATM   27  C16 UNL     1      -7.233  -1.788  -1.371  1.00  0.00     0.056 A 
HETATM   28 CL1  UNL     1      -8.420  -3.056  -1.708  1.00  0.00    -0.083 Cl
HETATM   29  C17 UNL     1      -6.521  -1.783  -0.215  1.00  0.00     0.063 A 
HETATM   30 CL2  UNL     1      -6.793  -3.067   0.954  1.00  0.00    -0.082 Cl
ENDBRANCH  22  23
ENDBRANCH  20  22
ENDBRANCH  17  20
ENDBRANCH  16  17
BRANCH  16  31
HETATM   31  C18 UNL     1      -1.435   2.104   1.422  1.00  0.00     0.092 C 
HETATM   32  S1  UNL     1      -2.416   2.540   2.672  1.00  0.00    -0.064 SA
BRANCH  31  33
HETATM   33  C19 UNL     1      -0.316   3.079   1.135  1.00  0.00     0.154 C 
HETATM   34 BR1  UNL     1      -0.745   4.167  -0.433  1.00  0.00    -0.089 Br
ENDBRANCH  31  33
ENDBRANCH  16  31
ENDBRANCH  15  16
ENDBRANCH  14  15
ENDBRANCH  13  14
ENDBRANCH  12  13
ENDBRANCH  11  12
ENDBRANCH  10  11
ENDBRANCH   9  10
ENDBRANCH   7   9
TORSDOF 15
