REMARK  6 active torsions:
REMARK  status: ('A' for Active; 'I' for Inactive)
REMARK    1  A    between atoms: C2_2  and  C3_3 
REMARK    2  A    between atoms: C3_3  and  N1_4 
REMARK       I    between atoms: N1_4  and  C4_6 
REMARK    3  A    between atoms: C4_6  and  C5_8 
REMARK    4  A    between atoms: C6_9  and  C7_10 
REMARK    5  A    between atoms: C7_10  and  N2_11 
REMARK       I    between atoms: N2_11  and  C8_13 
REMARK    6  A    between atoms: C8_13  and  C9_15 
ROOT
HETATM    1  C9  UNL     1       3.473   1.045  -0.150  1.00  0.00     0.129 C 
HETATM    2  C10 UNL     1       3.595   2.474   0.233  1.00  0.00     0.079 C 
HETATM    3  N3  UNL     1       3.672   3.589   0.528  1.00  0.00    -0.196 NA
HETATM    4  C11 UNL     1       4.155   0.746  -1.428  1.00  0.00     0.034 C 
HETATM    5  C12 UNL     1       5.621   0.482  -1.322  1.00  0.00     0.002 C 
HETATM    6  C13 UNL     1       5.799  -0.656  -0.309  1.00  0.00     0.000 C 
HETATM    7  C14 UNL     1       5.395  -0.061   1.031  1.00  0.00     0.002 C 
HETATM    8  C15 UNL     1       3.934   0.212   1.017  1.00  0.00     0.034 C 
ENDROOT
BRANCH   1   9
HETATM    9  C8  UNL     1       2.024   0.786  -0.314  1.00  0.00     0.240 C 
HETATM   10  N2  UNL     1       1.177   0.984   0.800  1.00  0.00    -0.357 N 
ATOM     11  H2  UNL     1       1.604   1.302   1.670  1.00  0.00     0.162 HD
HETATM   12  O2  UNL     1       1.631   0.404  -1.435  1.00  0.00    -0.272 OA
BRANCH  10  13
HETATM   13  C7  UNL     1      -0.262   0.766   0.791  1.00  0.00     0.157 C 
BRANCH  13  14
HETATM   14  C6  UNL     1      -0.562  -0.671   0.477  1.00  0.00     0.182 C 
HETATM   15  C5  UNL     1      -2.043  -0.995   0.433  1.00  0.00     0.350 C 
HETATM   16  N4  UNL     1      -2.101  -2.287  -0.278  1.00  0.00     0.158 N 
HETATM   17  C17 UNL     1      -1.387  -3.228   0.530  1.00  0.00     0.388 C 
HETATM   18  C18 UNL     1      -3.299  -3.042   0.017  1.00  0.00     0.447 C 
HETATM   19  C16 UNL     1      -0.709  -2.594   1.714  1.00  0.00     0.232 C 
HETATM   20  O4  UNL     1      -2.574  -3.828   0.912  1.00  0.00    -0.325 OA
HETATM   21  O3  UNL     1       0.015  -1.474   1.437  1.00  0.00    -0.377 OA
BRANCH  15  22
HETATM   22  C4  UNL     1      -2.833  -0.025  -0.369  1.00  0.00     0.254 C 
HETATM   23  N1  UNL     1      -3.206   1.259   0.064  1.00  0.00    -0.359 N 
ATOM     24  H1  UNL     1      -2.914   1.556   0.995  1.00  0.00     0.162 HD
HETATM   25  O1  UNL     1      -3.201  -0.380  -1.527  1.00  0.00    -0.271 OA
BRANCH  23  26
HETATM   26  C3  UNL     1      -3.974   2.177  -0.727  1.00  0.00     0.122 C 
BRANCH  26  27
HETATM   27  C2  UNL     1      -5.342   1.705  -1.099  1.00  0.00     0.015 C 
HETATM   28  C1  UNL     1      -6.186   1.419   0.142  1.00  0.00     0.006 C 
ENDBRANCH  26  27
ENDBRANCH  23  26
ENDBRANCH  15  22
ENDBRANCH  13  14
ENDBRANCH  10  13
ENDBRANCH   1   9
TORSDOF 6
