REMARK  6 active torsions:
REMARK  status: ('A' for Active; 'I' for Inactive)
REMARK       I    between atoms: C1_2  and  N1_3 
REMARK    1  A    between atoms: C1_2  and  C15_25 
REMARK    2  A    between atoms: N1_3  and  C2_5 
REMARK    3  A    between atoms: C2_5  and  C3_6 
REMARK    4  A    between atoms: C3_6  and  C4_7 
REMARK    5  A    between atoms: C4_7  and  C5_8 
REMARK       I    between atoms: C5_8  and  N2_10 
REMARK    6  A    between atoms: C9_14  and  C10_15 
REMARK       I    between atoms: C10_15  and  N3_17 
ROOT
HETATM    1  C5  UNL     1       0.038  -1.167  -0.936  1.00  0.00     0.220 C 
HETATM    2  O2  UNL     1       0.147   0.050  -1.232  1.00  0.00    -0.273 OA
HETATM    3  N2  UNL     1      -1.249  -1.792  -0.906  1.00  0.00    -0.339 N 
HETATM    4  C6  UNL     1      -1.554  -3.171  -0.587  1.00  0.00     0.127 C 
HETATM    5  C7  UNL     1      -2.964  -3.051  -0.053  1.00  0.00     0.022 C 
HETATM    6  C8  UNL     1      -3.572  -2.130  -1.123  1.00  0.00     0.037 C 
HETATM    7  C9  UNL     1      -2.477  -1.067  -1.215  1.00  0.00     0.179 C 
ENDROOT
BRANCH   1   8
HETATM    8  C4  UNL     1       1.270  -1.918  -0.626  1.00  0.00     0.104 C 
BRANCH   8   9
HETATM    9  C3  UNL     1       2.505  -1.072  -0.503  1.00  0.00     0.029 C 
BRANCH   9  10
HETATM   10  C2  UNL     1       2.467  -0.055   0.588  1.00  0.00     0.123 C 
BRANCH  10  11
HETATM   11  N1  UNL     1       3.688   0.708   0.618  1.00  0.00    -0.357 N 
HETATM   12  C1  UNL     1       4.930   0.098   0.878  1.00  0.00     0.273 C 
HETATM   13  O1  UNL     1       5.053  -1.137   1.107  1.00  0.00    -0.268 OA
ATOM     14  H1  UNL     1       3.652   1.713   0.447  1.00  0.00     0.162 HD
BRANCH  12  15
HETATM   15  C15 UNL     1       6.146   0.972   0.878  1.00  0.00     0.353 C 
HETATM   16  O4  UNL     1       7.292   0.255   1.148  1.00  0.00    -0.351 OA
HETATM   17  C16 UNL     1       8.224   1.270   1.428  1.00  0.00     0.197 C 
HETATM   18  C17 UNL     1       7.384   2.515   1.714  1.00  0.00     0.197 C 
HETATM   19  O5  UNL     1       6.119   1.912   1.906  1.00  0.00    -0.351 OA
ENDBRANCH  12  15
ENDBRANCH  10  11
ENDBRANCH   9  10
ENDBRANCH   8   9
ENDBRANCH   1   8
BRANCH   7  20
HETATM   20  C10 UNL     1      -2.663  -0.035  -0.187  1.00  0.00     0.242 C 
HETATM   21  O3  UNL     1      -1.940   0.006   0.840  1.00  0.00    -0.271 OA
HETATM   22  N3  UNL     1      -3.670   0.940  -0.342  1.00  0.00    -0.347 N 
HETATM   23  C11 UNL     1      -4.561   1.020  -1.481  1.00  0.00     0.153 C 
HETATM   24  C14 UNL     1      -3.866   1.965   0.693  1.00  0.00     0.153 C 
HETATM   25  C12 UNL     1      -5.989   1.031  -0.948  1.00  0.00     0.252 C 
HETATM   26  N4  UNL     1      -6.124   2.156  -0.057  1.00  0.00    -0.072 N 
HETATM   27  C13 UNL     1      -5.320   1.854   1.132  1.00  0.00     0.252 C 
ATOM     28  H42 UNL     1      -5.879   3.045  -0.492  1.00  0.00     0.277 HD
ATOM     29  H41 UNL     1      -7.094   2.382   0.161  1.00  0.00     0.277 HD
ENDBRANCH   7  20
TORSDOF 6
