REMARK  5 active torsions:
REMARK  status: ('A' for Active; 'I' for Inactive)
REMARK    1  A    between atoms: C2_2  and  O2_4 
REMARK    2  A    between atoms: O2_4  and  C3_5 
REMARK    3  A    between atoms: C3_5  and  C5_7 
REMARK       I    between atoms: C5_7  and  N1_9 
REMARK    4  A    between atoms: N1_9  and  N2_11 
REMARK       I    between atoms: N2_11  and  C6_13 
REMARK    5  A    between atoms: C6_13  and  C7_15 
ROOT
HETATM    1  C7  UNL     1      -1.089   0.117  -0.251  1.00  0.00     0.146 C 
HETATM    2  C8  UNL     1      -2.013   0.926   0.655  1.00  0.00     0.013 C 
HETATM    3  C9  UNL     1      -2.143   0.513   2.046  1.00  0.00     0.008 C 
HETATM    4  C10 UNL     1      -1.719  -0.827   2.512  1.00  0.00     0.032 C 
HETATM    5  C11 UNL     1      -2.056  -1.970   1.599  1.00  0.00     0.125 C 
HETATM    6  C12 UNL     1      -0.851  -2.661   1.011  1.00  0.00     0.037 C 
HETATM    7  C13 UNL     1      -1.132  -2.425  -0.483  1.00  0.00     0.072 C 
HETATM    8  C14 UNL     1      -1.798  -1.134  -0.443  1.00  0.00     0.180 C 
HETATM    9  O5  UNL     1      -2.769  -1.419   0.571  1.00  0.00    -0.349 OA
HETATM   10  O6  UNL     1      -2.708  -0.903  -1.517  1.00  0.00    -0.324 OA
HETATM   11  C15 UNL     1      -3.672  -0.054  -1.016  1.00  0.00     0.267 C 
HETATM   12  O7  UNL     1      -4.391   0.370  -2.142  1.00  0.00    -0.361 OA
HETATM   13  C16 UNL     1      -5.242   1.424  -1.841  1.00  0.00     0.171 C 
HETATM   14  C17 UNL     1      -4.374   2.656  -1.756  1.00  0.00     0.027 C 
HETATM   15  C18 UNL     1      -3.287   2.415  -0.786  1.00  0.00     0.012 C 
HETATM   16  C19 UNL     1      -3.298   1.040  -0.122  1.00  0.00     0.046 C 
ENDROOT
BRANCH   1  17
HETATM   17  C6  UNL     1       0.301   0.222   0.078  1.00  0.00     0.245 C 
HETATM   18  N2  UNL     1       1.323  -0.318  -0.714  1.00  0.00    -0.267 N 
ATOM     19  H2  UNL     1       1.037  -0.805  -1.563  1.00  0.00     0.190 HD
HETATM   20  O4  UNL     1       0.657   0.817   1.113  1.00  0.00    -0.271 OA
BRANCH  18  21
HETATM   21  N1  UNL     1       2.681  -0.257  -0.459  1.00  0.00    -0.265 N 
HETATM   22  C5  UNL     1       3.365  -0.641   0.692  1.00  0.00     0.265 C 
HETATM   23  O3  UNL     1       2.722  -1.110   1.661  1.00  0.00    -0.269 OA
ATOM     24  H1  UNL     1       3.257   0.118  -1.212  1.00  0.00     0.190 HD
BRANCH  22  25
HETATM   25  C3  UNL     1       4.830  -0.533   0.856  1.00  0.00     0.221 C 
HETATM   26  C4  UNL     1       5.338  -1.973   1.014  1.00  0.00     0.050 C 
BRANCH  25  27
HETATM   27  O2  UNL     1       5.467  -0.004  -0.280  1.00  0.00    -0.307 OA
BRANCH  27  28
HETATM   28  C2  UNL     1       6.282   1.096  -0.149  1.00  0.00     0.255 C 
HETATM   29  C1  UNL     1       6.977   1.686  -1.333  1.00  0.00     0.126 C 
HETATM   30  O1  UNL     1       6.490   1.664   0.957  1.00  0.00    -0.266 OA
ENDBRANCH  27  28
ENDBRANCH  25  27
ENDBRANCH  22  25
ENDBRANCH  18  21
ENDBRANCH   1  17
TORSDOF 5
