REMARK  7 active torsions:
REMARK  status: ('A' for Active; 'I' for Inactive)
REMARK    1  A    between atoms: C2_2  and  C4_4 
REMARK    2  A    between atoms: C5_5  and  C6_6 
REMARK    3  A    between atoms: C6_6  and  C7_8 
REMARK    4  A    between atoms: C14_17  and  C15_18 
REMARK    5  A    between atoms: C15_18  and  O4_19 
REMARK    6  A    between atoms: C15_18  and  C16_21 
REMARK    7  A    between atoms: C16_21  and  O5_22 
ROOT
HETATM    1  C7  UNL     1       0.695  -0.987  -1.512  1.00  0.00     0.130 C 
HETATM    2  C8  UNL     1       0.542  -2.366  -0.969  1.00  0.00     0.023 C 
HETATM    3  C9  UNL     1      -0.854  -2.912  -1.083  1.00  0.00     0.038 C 
HETATM    4  C10 UNL     1      -1.500  -2.762   0.301  1.00  0.00     0.057 C 
HETATM    5  C11 UNL     1      -0.863  -3.877   1.149  1.00  0.00     0.045 C 
HETATM    6  C12 UNL     1      -2.958  -3.015   0.247  1.00  0.00     0.045 C 
HETATM    7  O2  UNL     1      -1.091  -1.589   0.825  1.00  0.00    -0.350 OA
HETATM    8  C13 UNL     1      -1.868  -0.499   0.708  1.00  0.00     0.275 C 
HETATM    9  O3  UNL     1      -2.912  -0.468  -0.163  1.00  0.00    -0.351 OA
HETATM   10  C14 UNL     1      -2.593   0.840  -0.493  1.00  0.00     0.171 C 
HETATM   11  C17 UNL     1      -1.162   0.529  -0.154  1.00  0.00     0.143 C 
HETATM   12  C18 UNL     1      -0.452  -0.103  -1.271  1.00  0.00     0.149 C 
HETATM   13  O6  UNL     1      -0.983   0.202  -2.349  1.00  0.00    -0.296 OA
ENDROOT
BRANCH   1  14
HETATM   14  C6  UNL     1       1.898  -0.328  -0.857  1.00  0.00     0.160 C 
HETATM   15  O1  UNL     1       2.531  -0.995  -0.022  1.00  0.00    -0.292 OA
BRANCH  14  16
HETATM   16  C5  UNL     1       2.231   1.010  -1.235  1.00  0.00     0.047 C 
HETATM   17  C4  UNL     1       3.219   1.705  -0.772  1.00  0.00    -0.019 C 
BRANCH  17  18
HETATM   18  C2  UNL     1       4.218   1.347   0.209  1.00  0.00    -0.000 C 
HETATM   19  C1  UNL     1       5.642   1.563  -0.310  1.00  0.00     0.013 C 
HETATM   20  C3  UNL     1       4.107   2.341   1.391  1.00  0.00     0.013 C 
ENDBRANCH  17  18
ENDBRANCH  14  16
ENDBRANCH   1  14
BRANCH  10  21
HETATM   21  C15 UNL     1      -3.191   1.889   0.417  1.00  0.00     0.171 C 
BRANCH  21  22
HETATM   22  O4  UNL     1      -4.574   1.851   0.433  1.00  0.00    -0.391 OA
ATOM     23  H4  UNL     1      -4.950   2.510   1.005  1.00  0.00     0.210 HD
ENDBRANCH  21  22
BRANCH  21  24
HETATM   24  C16 UNL     1      -2.754   3.253  -0.112  1.00  0.00     0.198 C 
BRANCH  24  25
HETATM   25  O5  UNL     1      -3.247   4.255   0.719  1.00  0.00    -0.398 OA
ATOM     26  H5  UNL     1      -2.975   5.104   0.390  1.00  0.00     0.209 HD
ENDBRANCH  24  25
ENDBRANCH  21  24
ENDBRANCH  10  21
TORSDOF 7
