REMARK  9 active torsions:
REMARK  status: ('A' for Active; 'I' for Inactive)
REMARK    1  A    between atoms: O1_2  and  S1_3 
REMARK    2  A    between atoms: S1_3  and  S2_4 
REMARK    3  A    between atoms: S2_4  and  C2_5 
REMARK    4  A    between atoms: C3_6  and  O2_7 
REMARK    5  A    between atoms: C4_9  and  O3_10 
REMARK    6  A    between atoms: C5_12  and  O4_13 
REMARK    7  A    between atoms: C6_15  and  C7_16 
REMARK    8  A    between atoms: C7_16  and  O5_17 
REMARK    9  A    between atoms: C8_19  and  C9_20 
ROOT
HETATM    1  C2  UNL     1       0.700  -0.019  -0.049  1.00  0.00     0.097 C 
HETATM    2  C3  UNL     1       0.905  -1.471  -0.342  1.00  0.00     0.164 C 
HETATM    3  C4  UNL     1       0.136  -2.283   0.665  1.00  0.00     0.177 C 
HETATM    4  C5  UNL     1      -1.301  -2.050   0.302  1.00  0.00     0.156 C 
HETATM    5  C6  UNL     1      -1.675  -0.636   0.535  1.00  0.00     0.046 C 
HETATM    6  C8  UNL     1      -0.708   0.428   0.168  1.00  0.00     0.019 C 
ENDROOT
BRANCH   1   7
HETATM    7  S2  UNL     1       1.560   0.843  -1.410  1.00  0.00    -0.060 SA
BRANCH   7   8
HETATM    8  S1  UNL     1       3.645   0.489  -1.271  1.00  0.00     0.063 SA
BRANCH   8   9
HETATM    9  O1  UNL     1       4.436   1.677  -0.312  1.00  0.00    -0.315 OA
HETATM   10  C1  UNL     1       5.460   1.094   0.446  1.00  0.00     0.221 C 
ENDBRANCH   8   9
ENDBRANCH   7   8
ENDBRANCH   1   7
BRANCH   2  11
HETATM   11  O2  UNL     1       2.274  -1.740  -0.267  1.00  0.00    -0.392 OA
ATOM     12  H2  UNL     1       2.404  -2.662  -0.453  1.00  0.00     0.210 HD
ENDBRANCH   2  11
BRANCH   6  13
HETATM   13  C9  UNL     1      -1.197   1.399  -0.891  1.00  0.00    -0.046 C 
HETATM   14  C10 UNL     1      -1.178   0.839  -2.287  1.00  0.00     0.015 C 
HETATM   15  C11 UNL     1      -2.634   1.782  -0.609  1.00  0.00     0.015 C 
HETATM   16  C12 UNL     1      -0.429   2.718  -0.811  1.00  0.00     0.015 C 
ENDBRANCH   6  13
BRANCH   3  17
HETATM   17  O3  UNL     1       0.474  -3.645   0.576  1.00  0.00    -0.390 OA
ATOM     18  H3  UNL     1      -0.011  -4.158   1.212  1.00  0.00     0.210 HD
ENDBRANCH   3  17
BRANCH   5  19
HETATM   19  C7  UNL     1      -2.249  -0.523   1.937  1.00  0.00     0.172 C 
BRANCH  19  20
HETATM   20  O5  UNL     1      -1.401  -0.889   2.946  1.00  0.00    -0.400 OA
ATOM     21  H5  UNL     1      -1.760  -0.818   3.823  1.00  0.00     0.209 HD
ENDBRANCH  19  20
ENDBRANCH   5  19
BRANCH   4  22
HETATM   22  O4  UNL     1      -2.102  -2.856   1.121  1.00  0.00    -0.392 OA
ATOM     23  H4  UNL     1      -3.012  -2.708   0.891  1.00  0.00     0.210 HD
ENDBRANCH   4  22
TORSDOF 9
