REMARK  0 active torsions:
REMARK  status: ('A' for Active; 'I' for Inactive)
ROOT
HETATM    1  C1  UNL     1      -1.287   1.126   0.467  1.00  0.00     0.055 C 
HETATM    2  C2  UNL     1      -2.089   0.035  -0.225  1.00  0.00     0.236 C 
HETATM    3  N1  UNL     1      -1.342  -1.202  -0.045  1.00  0.00    -0.051 N 
ATOM      4  H11 UNL     1      -1.887  -2.016  -0.328  1.00  0.00     0.279 HD
ATOM      5  H12 UNL     1      -1.224  -1.431   0.942  1.00  0.00     0.279 HD
HETATM    6  C3  UNL     1      -0.054  -1.141  -0.745  1.00  0.00     0.467 C 
HETATM    7  N2  UNL     1       0.742  -0.129  -0.137  1.00  0.00    -0.040 N 
HETATM    8  C4  UNL     1       0.091   1.131  -0.076  1.00  0.00     0.241 C 
HETATM    9  C5  UNL     1       2.166  -0.057  -0.363  1.00  0.00     0.267 A 
HETATM   10  C6  UNL     1       1.637  -0.580   0.890  1.00  0.00     0.267 A 
ENDROOT
TORSDOF 0
