REMARK  9 active torsions:
REMARK  status: ('A' for Active; 'I' for Inactive)
REMARK    1  A    between atoms: O1_2  and  C2_3 
REMARK       I    between atoms: C2_3  and  N1_5 
REMARK    2  A    between atoms: N1_5  and  C3_7 
REMARK    3  A    between atoms: C3_7  and  C5_9 
REMARK    4  A    between atoms: C5_9  and  N2_10 
REMARK    5  A    between atoms: N2_10  and  C8_14 
REMARK    6  A    between atoms: C6_11  and  C7_12 
REMARK    7  A    between atoms: N3_17  and  C11_18 
REMARK    8  A    between atoms: C11_18  and  C12_19 
REMARK    9  A    between atoms: C14_24  and  N5_25 
ROOT
HETATM    1  C8  UNL     1      -0.526   0.765   0.118  1.00  0.00     0.090 C 
HETATM    2  C9  UNL     1       0.278   1.397   1.221  1.00  0.00     0.040 C 
HETATM    3  C10 UNL     1       1.384   0.463   1.561  1.00  0.00     0.097 C 
HETATM    4  N3  UNL     1       2.218   0.132   0.388  1.00  0.00    -0.291 NA
HETATM    5  C16 UNL     1       1.849   0.897  -0.732  1.00  0.00     0.097 C 
HETATM    6  C17 UNL     1       0.354   0.812  -1.105  1.00  0.00     0.040 C 
ENDROOT
BRANCH   4   7
HETATM    7  C11 UNL     1       3.546   0.379   0.856  1.00  0.00     0.078 C 
BRANCH   7   8
HETATM    8  C12 UNL     1       4.701  -0.272   0.269  1.00  0.00     0.058 A 
HETATM    9  C13 UNL     1       4.749  -1.668   0.399  1.00  0.00     0.134 A 
HETATM   10 CL2  UNL     1       3.262  -2.379   1.058  1.00  0.00    -0.063 Cl
HETATM   11  N4  UNL     1       5.763  -2.397   0.066  1.00  0.00    -0.180 N 
HETATM   12  C14 UNL     1       6.898  -1.831  -0.447  1.00  0.00     0.678 A 
ATOM     13  H4  UNL     1       5.716  -3.409   0.187  1.00  0.00     0.185 HD
HETATM   14  N6  UNL     1       6.881  -0.501  -0.584  1.00  0.00    -0.176 N 
HETATM   15  C15 UNL     1       5.821   0.300  -0.243  1.00  0.00     0.129 A 
ATOM     16  H6  UNL     1       7.712  -0.052  -0.968  1.00  0.00     0.186 HD
HETATM   17  N7  UNL     1       5.877   1.579  -0.374  1.00  0.00    -0.384 N 
ATOM     18  H72 UNL     1       5.089   2.175  -0.120  1.00  0.00     0.157 HD
ATOM     19  H71 UNL     1       6.718   2.009  -0.759  1.00  0.00     0.157 HD
BRANCH  12  20
HETATM   20  N5  UNL     1       7.879  -2.500  -0.749  1.00  0.00    -0.234 N 
ATOM     21  H52 UNL     1       7.892  -3.515  -0.644  1.00  0.00     0.174 HD
ATOM     22  H51 UNL     1       8.725  -2.078  -1.131  1.00  0.00     0.174 HD
ENDBRANCH  12  20
ENDBRANCH   7   8
ENDBRANCH   4   7
BRANCH   1  23
HETATM   23  N2  UNL     1      -1.880   1.146  -0.021  1.00  0.00    -0.366 N 
HETATM   24  C6  UNL     1      -2.302   2.433  -0.086  1.00  0.00     0.078 C 
BRANCH  23  25
HETATM   25  C5  UNL     1      -2.630   0.091  -0.564  1.00  0.00     0.088 C 
BRANCH  25  26
HETATM   26  C3  UNL     1      -3.912  -0.237   0.092  1.00  0.00     0.121 C 
HETATM   27  C4  UNL     1      -4.996   0.858   0.013  1.00  0.00     0.038 C 
BRANCH  26  28
HETATM   28  N1  UNL     1      -4.482  -1.374  -0.634  1.00  0.00    -0.328 N 
HETATM   29  C2  UNL     1      -5.330  -2.308   0.035  1.00  0.00     0.360 C 
HETATM   30  O2  UNL     1      -5.632  -2.181   1.253  1.00  0.00    -0.239 OA
ATOM     31  H1  UNL     1      -4.272  -1.500  -1.624  1.00  0.00     0.165 HD
BRANCH  29  32
HETATM   32  O1  UNL     1      -5.825  -3.373  -0.676  1.00  0.00    -0.309 OA
HETATM   33  C1  UNL     1      -6.688  -4.373  -0.159  1.00  0.00     0.215 C 
ENDBRANCH  29  32
ENDBRANCH  26  28
ENDBRANCH  25  26
ENDBRANCH  23  25
BRANCH  24  34
HETATM   34  C7  UNL     1      -1.477   3.591   0.366  1.00  0.00     0.159 C 
HETATM   35 CL1  UNL     1      -2.501   5.053   0.078  1.00  0.00    -0.125 Cl
ENDBRANCH  24  34
ENDBRANCH   1  23
TORSDOF 9
