REMARK  6 active torsions:
REMARK  status: ('A' for Active; 'I' for Inactive)
REMARK    1  A    between atoms: C2_2  and  C3_3 
REMARK    2  A    between atoms: C4_4  and  C5_5 
REMARK    3  A    between atoms: C9_9  and  O1_10 
REMARK    4  A    between atoms: C14_17  and  O2_18 
REMARK    5  A    between atoms: C15_20  and  O3_21 
REMARK    6  A    between atoms: C16_23  and  O4_24 
ROOT
HETATM    1  C5  UNL     1       2.448   0.103  -0.057  1.00  0.00    -0.009 A 
HETATM    2  C6  UNL     1       1.872   1.264  -0.589  1.00  0.00     0.022 A 
HETATM    3  C7  UNL     1       0.518   1.507  -0.540  1.00  0.00    -0.040 A 
HETATM    4  C8  UNL     1      -0.332   0.564   0.065  1.00  0.00     0.016 A 
HETATM    5  C9  UNL     1       0.221  -0.588   0.592  1.00  0.00     0.102 A 
HETATM    6  C10 UNL     1       1.612  -0.804   0.524  1.00  0.00     0.090 A 
HETATM    7  N1  UNL     1       2.025  -2.029   1.109  1.00  0.00    -0.099 NA
HETATM    8  C11 UNL     1      -1.673   1.117  -0.074  1.00  0.00    -0.014 A 
HETATM    9  C12 UNL     1      -2.910   0.490   0.315  1.00  0.00    -0.002 A 
HETATM   10  C13 UNL     1      -3.138  -0.157   1.495  1.00  0.00     0.053 A 
HETATM   11  C14 UNL     1      -4.303  -0.842   1.793  1.00  0.00     0.102 A 
HETATM   12  C15 UNL     1      -5.310  -0.886   0.857  1.00  0.00     0.134 A 
HETATM   13  C16 UNL     1      -5.086  -0.230  -0.341  1.00  0.00     0.120 A 
HETATM   14  C17 UNL     1      -3.924   0.451  -0.638  1.00  0.00     0.059 A 
HETATM   15  S1  UNL     1      -3.822   1.191  -2.264  1.00  0.00    -0.049 SA
HETATM   16  C18 UNL     1      -1.644   2.304  -0.724  1.00  0.00    -0.009 A 
HETATM   17  C19 UNL     1      -0.272   2.653  -1.078  1.00  0.00     0.067 A 
ENDROOT
BRANCH   5  18
HETATM   18  O1  UNL     1      -0.579  -1.546   1.182  1.00  0.00    -0.358 OA
ATOM     19  H1  UNL     1      -0.199  -2.338   1.544  1.00  0.00     0.217 HD
ENDBRANCH   5  18
BRANCH  11  20
HETATM   20  O2  UNL     1      -4.463  -1.486   3.029  1.00  0.00    -0.358 OA
ATOM     21  H2  UNL     1      -5.263  -1.956   3.234  1.00  0.00     0.217 HD
ENDBRANCH  11  20
BRANCH  13  22
HETATM   22  O4  UNL     1      -6.123  -0.286  -1.278  1.00  0.00    -0.357 OA
ATOM     23  H4  UNL     1      -5.969   0.164  -2.100  1.00  0.00     0.218 HD
ENDBRANCH  13  22
BRANCH   1  24
HETATM   24  C4  UNL     1       3.865  -0.080  -0.145  1.00  0.00     0.009 C 
HETATM   25  C3  UNL     1       4.628  -1.045   0.260  1.00  0.00    -0.026 C 
BRANCH  25  26
HETATM   26  C2  UNL     1       6.118  -0.959   0.023  1.00  0.00     0.022 C 
HETATM   27  C1  UNL     1       6.512   0.292  -0.681  1.00  0.00     0.009 C 
ENDBRANCH  25  26
ENDBRANCH   1  24
BRANCH  12  28
HETATM   28  O3  UNL     1      -6.500  -1.569   1.127  1.00  0.00    -0.356 OA
ATOM     29  H3  UNL     1      -7.195  -1.599   0.481  1.00  0.00     0.218 HD
ENDBRANCH  12  28
TORSDOF 6
