REMARK  3 active torsions:
REMARK  status: ('A' for Active; 'I' for Inactive)
REMARK    1  A    between atoms: C3_3  and  C4_4 
REMARK    2  A    between atoms: C4_4  and  C6_6 
REMARK    3  A    between atoms: N1_7  and  C7_9 
ROOT
HETATM    1  C1  UNL     1       4.071  -2.100  -0.068  1.00  0.00     0.112 C 
HETATM    2  C2  UNL     1       2.933  -1.163  -0.220  1.00  0.00    -0.110 C 
HETATM    3  C3  UNL     1       2.022  -0.405  -0.356  1.00  0.00    -0.097 C 
ENDROOT
BRANCH   3   4
HETATM    4  C4  UNL     1       0.904   0.516  -0.543  1.00  0.00     0.099 C 
HETATM    5  C5  UNL     1       1.055   1.737   0.368  1.00  0.00     0.029 C 
BRANCH   4   6
HETATM    6  C6  UNL     1      -0.345  -0.161  -0.151  1.00  0.00     0.072 C 
HETATM    7  N1  UNL     1      -1.449   0.472  -0.145  1.00  0.00    -0.401 N 
ATOM      8  H1  UNL     1      -1.467   1.456  -0.414  1.00  0.00     0.158 HD
BRANCH   7   9
HETATM    9  C7  UNL     1      -2.682  -0.187   0.240  1.00  0.00     0.114 C 
HETATM   10  C8  UNL     1      -3.865   0.498  -0.349  1.00  0.00     0.026 C 
ENDBRANCH   7   9
ENDBRANCH   4   6
ENDBRANCH   3   4
TORSDOF 3
