REMARK  1 active torsions:
REMARK  status: ('A' for Active; 'I' for Inactive)
REMARK    1  A    between atoms: C3_3  and  N1_4 
ROOT
HETATM    1  C1  UNL     1       3.247   0.323  -0.592  1.00  0.00     0.013 C 
HETATM    2  C2  UNL     1       2.400   0.127   0.262  1.00  0.00    -0.088 C 
HETATM    3  C3  UNL     1       1.406  -0.109   1.299  1.00  0.00     0.353 C 
ENDROOT
BRANCH   3   4
HETATM    4  N1  UNL     1       0.102  -0.231   0.723  1.00  0.00     0.029 N 
HETATM    5  C4  UNL     1      -0.116  -1.398  -0.095  1.00  0.00     0.297 A 
HETATM    6  C5  UNL     1      -0.135  -0.029  -0.671  1.00  0.00     0.241 A 
HETATM    7  C6  UNL     1      -1.534   0.570  -0.805  1.00  0.00     0.055 C 
HETATM    8  C7  UNL     1      -2.094   0.353   0.563  1.00  0.00     0.145 C 
HETATM    9  N2  UNL     1      -0.952   0.331   1.428  1.00  0.00    -0.045 NA
ENDBRANCH   3   4
TORSDOF 1
