REMARK  3 active torsions:
REMARK  status: ('A' for Active; 'I' for Inactive)
REMARK    1  A    between atoms: N2_11  and  C10_12 
REMARK    2  A    between atoms: C10_12  and  C11_13 
REMARK    3  A    between atoms: N3_15  and  O1_17 
ROOT
HETATM    1  C1  UNL     1      -2.956   1.060   0.997  1.00  0.00     0.272 C 
HETATM    2  N1  UNL     1      -2.391   0.257  -0.082  1.00  0.00    -0.074 N 
HETATM    3  C2  UNL     1      -3.563  -0.120  -0.896  1.00  0.00     0.272 C 
HETATM    4  C3  UNL     1      -1.577   1.092  -0.868  1.00  0.00     0.238 C 
HETATM    5  C4  UNL     1      -0.144   0.639  -1.017  1.00  0.00     0.054 C 
HETATM    6  C5  UNL     1       0.338   0.396   0.392  1.00  0.00     0.092 C 
HETATM    7  C6  UNL     1      -0.382  -0.854   0.853  1.00  0.00     0.034 C 
HETATM    8  C7  UNL     1       0.351  -2.101   0.353  1.00  0.00     0.010 C 
HETATM    9  C8  UNL     1       1.746  -2.193   0.872  1.00  0.00     0.020 C 
HETATM   10  C9  UNL     1       2.252  -0.848   1.324  1.00  0.00     0.124 C 
HETATM   11  N2  UNL     1       1.742   0.233   0.512  1.00  0.00    -0.363 N 
HETATM   12  C12 UNL     1      -1.810  -0.904   0.497  1.00  0.00     0.243 C 
ENDROOT
BRANCH  11  13
HETATM   13  C10 UNL     1       2.695   1.092  -0.135  1.00  0.00     0.109 C 
HETATM   14  N3  UNL     1       3.183   0.755  -1.280  1.00  0.00    -0.256 N 
ATOM     15  H3  UNL     1       3.860   1.354  -1.753  1.00  0.00     0.195 HD
BRANCH  13  16
HETATM   16  C11 UNL     1       3.150   2.358   0.448  1.00  0.00     0.163 C 
HETATM   17 BR1  UNL     1       3.972   1.931   2.167  1.00  0.00    -0.088 Br
ENDBRANCH  13  16
BRANCH  14  18
HETATM   18  O1  UNL     1       2.778  -0.417  -1.848  1.00  0.00    -0.288 OA
ATOM     19  H1  UNL     1       3.138  -0.665  -2.692  1.00  0.00     0.244 HD
ENDBRANCH  14  18
ENDBRANCH  11  13
TORSDOF 3
