REMARK  4 active torsions:
REMARK  status: ('A' for Active; 'I' for Inactive)
REMARK    1  A    between atoms: C1_2  and  C4_7 
REMARK    2  A    between atoms: C2_3  and  C3_4 
REMARK    3  A    between atoms: C3_4  and  O1_5 
REMARK    4  A    between atoms: C10_13  and  O2_14 
ROOT
HETATM    1  C4  UNL     1       0.457   0.582   0.392  1.00  0.00     0.043 C 
HETATM    2  C5  UNL     1      -0.607  -0.124   1.161  1.00  0.00     0.002 C 
HETATM    3  C6  UNL     1      -0.161  -1.149   2.140  1.00  0.00     0.006 C 
HETATM    4  C7  UNL     1      -1.475  -1.883   2.460  1.00  0.00     0.001 C 
HETATM    5  C8  UNL     1      -2.438  -1.549   1.368  1.00  0.00     0.007 C 
HETATM    6  C9  UNL     1      -1.530  -0.977   0.289  1.00  0.00     0.021 C 
HETATM    7  C10 UNL     1      -2.328  -0.114  -0.684  1.00  0.00     0.153 C 
HETATM    8  C11 UNL     1      -1.572   1.186  -0.781  1.00  0.00     0.219 C 
HETATM    9  N2  UNL     1      -1.845   1.916  -1.990  1.00  0.00    -0.068 N 
ATOM     10  H21 UNL     1      -2.769   2.344  -2.046  1.00  0.00     0.277 HD
ATOM     11  H22 UNL     1      -1.961   1.349  -2.830  1.00  0.00     0.277 HD
HETATM   12  C12 UNL     1      -0.716   2.847  -2.008  1.00  0.00     0.233 C 
HETATM   13  C13 UNL     1       0.479   1.976  -1.704  1.00  0.00     0.035 C 
HETATM   14  C14 UNL     1      -0.105   0.780  -1.012  1.00  0.00     0.030 C 
ENDROOT
BRANCH   1  15
HETATM   15  C1  UNL     1       1.782  -0.028   0.413  1.00  0.00     0.027 C 
HETATM   16  N1  UNL     1       2.414  -0.225   1.678  1.00  0.00    -0.107 NA
HETATM   17  C2  UNL     1       2.396  -0.380  -0.694  1.00  0.00     0.021 C 
BRANCH  17  18
HETATM   18  C3  UNL     1       3.747  -0.983  -0.635  1.00  0.00     0.193 C 
BRANCH  18  19
HETATM   19  O1  UNL     1       4.603  -0.160  -1.349  1.00  0.00    -0.397 OA
ATOM     20  H1  UNL     1       5.470  -0.547  -1.311  1.00  0.00     0.209 HD
ENDBRANCH  18  19
ENDBRANCH  17  18
ENDBRANCH   1  15
BRANCH   7  21
HETATM   21  O2  UNL     1      -3.633   0.040  -0.254  1.00  0.00    -0.393 OA
ATOM     22  H2  UNL     1      -4.130   0.577  -0.860  1.00  0.00     0.210 HD
ENDBRANCH   7  21
TORSDOF 4
