REMARK  6 active torsions:
REMARK  status: ('A' for Active; 'I' for Inactive)
REMARK    1  A    between atoms: C2_2  and  C4_4 
REMARK    2  A    between atoms: C10_10  and  C11_11 
REMARK    3  A    between atoms: C10_10  and  C12_14 
REMARK    4  A    between atoms: C11_11  and  O1_12 
REMARK    5  A    between atoms: C12_14  and  O2_15 
REMARK    6  A    between atoms: C16_20  and  O3_21 
ROOT
HETATM    1  C4  UNL     1       1.950  -0.654   0.147  1.00  0.00     0.018 C 
HETATM    2  C5  UNL     1       1.404  -0.636  -1.230  1.00  0.00     0.012 C 
HETATM    3  C6  UNL     1       0.364   0.382  -1.513  1.00  0.00    -0.014 C 
HETATM    4  C7  UNL     1       0.920   1.554  -2.334  1.00  0.00     0.010 C 
HETATM    5  C8  UNL     1      -0.307   0.964  -0.326  1.00  0.00    -0.003 C 
HETATM    6  C9  UNL     1      -1.777   1.141  -0.644  1.00  0.00     0.019 C 
HETATM    7  C10 UNL     1      -2.491  -0.076  -0.106  1.00  0.00     0.006 C 
HETATM    8  C13 UNL     1      -1.430  -0.922   0.498  1.00  0.00     0.001 C 
HETATM    9  C14 UNL     1      -1.861  -1.843   1.575  1.00  0.00     0.011 C 
HETATM   10  C15 UNL     1      -0.357   0.047   0.871  1.00  0.00     0.024 C 
HETATM   11  C16 UNL     1       0.948  -0.536   1.243  1.00  0.00     0.127 C 
ENDROOT
BRANCH   7  12
HETATM   12  C11 UNL     1      -3.576   0.361   0.823  1.00  0.00     0.176 C 
BRANCH  12  13
HETATM   13  O1  UNL     1      -3.140   1.087   1.913  1.00  0.00    -0.400 OA
ATOM     14  H1  UNL     1      -3.830   1.365   2.504  1.00  0.00     0.209 HD
ENDBRANCH  12  13
ENDBRANCH   7  12
BRANCH   7  15
HETATM   15  C12 UNL     1      -3.149  -0.877  -1.224  1.00  0.00     0.176 C 
BRANCH  15  16
HETATM   16  O2  UNL     1      -4.079  -0.158  -1.924  1.00  0.00    -0.400 OA
ATOM     17  H2  UNL     1      -4.489  -0.657  -2.621  1.00  0.00     0.209 HD
ENDBRANCH  15  16
ENDBRANCH   7  15
BRANCH  11  18
HETATM   18  O3  UNL     1       0.714  -1.778   1.868  1.00  0.00    -0.395 OA
ATOM     19  H3  UNL     1       0.075  -1.703   2.567  1.00  0.00     0.210 HD
ENDBRANCH  11  18
BRANCH   1  20
HETATM   20  C2  UNL     1       3.098   0.352   0.326  1.00  0.00    -0.016 C 
HETATM   21  C1  UNL     1       4.185  -0.053  -0.666  1.00  0.00     0.010 C 
HETATM   22  C3  UNL     1       3.663   0.110   1.712  1.00  0.00     0.010 C 
ENDBRANCH   1  20
TORSDOF 6
