REMARK  3 active torsions:
REMARK  status: ('A' for Active; 'I' for Inactive)
REMARK    1  A    between atoms: C3_7  and  N3_8 
REMARK    2  A    between atoms: N3_8  and  C4_10 
REMARK    3  A    between atoms: C8_14  and  O1_15 
ROOT
HETATM    1  C1  UNL     1      -5.486   1.324  -1.192  1.00  0.00     0.147 C 
HETATM    2  N1  UNL     1      -4.120   1.200  -1.395  1.00  0.00    -0.379 N 
ATOM      3  H1  UNL     1      -3.828   1.648  -2.264  1.00  0.00     0.160 HD
HETATM    4  C2  UNL     1      -3.153   0.686  -0.798  1.00  0.00     0.141 A 
HETATM    5  N2  UNL     1      -1.891   0.785  -1.354  1.00  0.00    -0.175 N 
ATOM      6  H2  UNL     1      -1.778   1.276  -2.241  1.00  0.00     0.186 HD
HETATM    7  C3  UNL     1      -0.822   0.259  -0.767  1.00  0.00     0.685 A 
HETATM    8  N4  UNL     1      -0.899  -0.398   0.396  1.00  0.00    -0.177 N 
ATOM      9  H4  UNL     1      -0.058  -0.790   0.820  1.00  0.00     0.185 HD
HETATM   10  C11 UNL     1      -2.080  -0.537   0.997  1.00  0.00     0.156 A 
HETATM   11  N5  UNL     1      -2.208  -1.225   2.228  1.00  0.00    -0.080 NA
HETATM   12  C12 UNL     1      -3.227   0.015   0.390  1.00  0.00     0.130 A 
HETATM   13  C13 UNL     1      -4.484  -0.163   1.083  1.00  0.00     0.107 C 
HETATM   14  N6  UNL     1      -5.480  -0.323   1.664  1.00  0.00    -0.191 NA
ENDROOT
BRANCH   7  15
HETATM   15  N3  UNL     1       0.302   0.424  -1.396  1.00  0.00    -0.192 N 
ATOM     16  H3  UNL     1       0.278   0.937  -2.277  1.00  0.00     0.184 HD
BRANCH  15  17
HETATM   17  C4  UNL     1       1.533  -0.044  -0.961  1.00  0.00     0.051 A 
HETATM   18  C5  UNL     1       1.836  -1.383  -1.003  1.00  0.00     0.030 A 
HETATM   19  C6  UNL     1       3.068  -1.865  -0.568  1.00  0.00     0.005 A 
HETATM   20  C7  UNL     1       3.994  -0.968  -0.088  1.00  0.00     0.037 A 
HETATM   21  C8  UNL     1       3.726   0.361  -0.033  1.00  0.00     0.070 A 
HETATM   22  C10 UNL     1       2.480   0.825  -0.475  1.00  0.00     0.066 A 
BRANCH  21  23
HETATM   23  O1  UNL     1       4.678   1.232   0.455  1.00  0.00    -0.356 OA
HETATM   24  C9  UNL     1       5.913   0.754   0.891  1.00  0.00     0.210 C 
ENDBRANCH  21  23
ENDBRANCH  15  17
ENDBRANCH   7  15
TORSDOF 3
