REMARK  5 active torsions:
REMARK  status: ('A' for Active; 'I' for Inactive)
REMARK    1  A    between atoms: N1_1  and  N2_4 
REMARK    2  A    between atoms: N2_4  and  C1_6 
REMARK    3  A    between atoms: C2_9  and  C3_10 
REMARK    4  A    between atoms: C8_19  and  N6_20 
REMARK    5  A    between atoms: N6_20  and  C9_22 
ROOT
HETATM    1  C1  UNL     1      -0.582   1.436   0.896  1.00  0.00     0.712 A 
HETATM    2  N3  UNL     1      -1.768   1.023   0.415  1.00  0.00    -0.172 N 
ATOM      3  H3  UNL     1      -2.605   1.562   0.635  1.00  0.00     0.186 HD
HETATM    4  C2  UNL     1      -1.886  -0.095  -0.358  1.00  0.00     0.163 A 
HETATM    5  N5  UNL     1      -0.776  -0.778  -0.628  1.00  0.00    -0.173 N 
ATOM      6  H5  UNL     1      -0.844  -1.616  -1.205  1.00  0.00     0.186 HD
HETATM    7  C8  UNL     1       0.437  -0.404  -0.168  1.00  0.00     0.699 A 
HETATM    8  N7  UNL     1       0.501   0.703   0.588  1.00  0.00    -0.021 N 
ATOM      9  H7  UNL     1       1.410   1.000   0.944  1.00  0.00     0.203 HD
ENDROOT
BRANCH   7  10
HETATM   10  N6  UNL     1       1.525  -1.038  -0.409  1.00  0.00    -0.191 N 
ATOM     11  H6  UNL     1       1.477  -1.879  -0.984  1.00  0.00     0.184 HD
BRANCH  10  12
HETATM   12  C9  UNL     1       2.788  -0.633   0.081  1.00  0.00     0.049 A 
HETATM   13  C10 UNL     1       3.214  -0.918   1.363  1.00  0.00     0.030 A 
HETATM   14  C11 UNL     1       4.460  -0.493   1.779  1.00  0.00     0.002 A 
HETATM   15  C12 UNL     1       5.314   0.226   0.935  1.00  0.00     0.000 A 
HETATM   16  C13 UNL     1       4.884   0.506  -0.338  1.00  0.00     0.002 A 
HETATM   17  C14 UNL     1       3.642   0.081  -0.749  1.00  0.00     0.030 A 
ENDBRANCH  10  12
ENDBRANCH   7  10
BRANCH   4  18
HETATM   18  C3  UNL     1      -3.230  -0.436  -0.818  1.00  0.00     0.077 A 
HETATM   19  C4  UNL     1      -3.431  -1.547  -1.600  1.00  0.00     0.033 A 
HETATM   20  C5  UNL     1      -4.683  -1.912  -2.061  1.00  0.00     0.004 A 
HETATM   21  C6  UNL     1      -5.753  -1.120  -1.711  1.00  0.00     0.017 A 
HETATM   22  C7  UNL     1      -5.504  -0.018  -0.926  1.00  0.00     0.088 A 
HETATM   23  N4  UNL     1      -4.290   0.327  -0.486  1.00  0.00    -0.363 N 
ATOM     24  H4  UNL     1      -4.167   1.157   0.094  1.00  0.00     0.165 HD
ENDBRANCH   4  18
BRANCH   1  25
HETATM   25  N2  UNL     1      -0.475   2.495   1.627  1.00  0.00    -0.138 N 
ATOM     26  H2  UNL     1      -1.325   3.019   1.834  1.00  0.00     0.205 HD
BRANCH  25  27
HETATM   27  N1  UNL     1       0.711   2.962   2.145  1.00  0.00    -0.331 N 
ATOM     28  H12 UNL     1       1.551   2.425   1.928  1.00  0.00     0.177 HD
ATOM     29  H11 UNL     1       0.796   3.799   2.722  1.00  0.00     0.177 HD
ENDBRANCH  25  27
ENDBRANCH   1  25
TORSDOF 5
