REMARK  4 active torsions:
REMARK  status: ('A' for Active; 'I' for Inactive)
REMARK    1  A    between atoms: C2_2  and  C3_3 
REMARK    2  A    between atoms: C4_4  and  O1_5 
REMARK    3  A    between atoms: C6_9  and  O2_11 
REMARK    4  A    between atoms: C8_13  and  C9_14 
ROOT
HETATM    1  C3  UNL     1      -1.439  -0.663  -0.031  1.00  0.00     0.282 C 
HETATM    2  C4  UNL     1      -1.973   0.725   0.057  1.00  0.00     0.393 C 
HETATM    3  N1  UNL     1      -1.179   1.621  -0.734  1.00  0.00     0.152 N 
HETATM    4  C5  UNL     1      -1.513   1.593  -2.137  1.00  0.00     0.317 C 
HETATM    5  C6  UNL     1       0.234   1.519  -0.488  1.00  0.00     0.296 C 
HETATM    6  C7  UNL     1       0.590   2.340   0.705  1.00  0.00     0.084 C 
HETATM    7  C8  UNL     1       0.723   0.097  -0.449  1.00  0.00     0.355 C 
HETATM    8  N4  UNL     1      -0.053  -0.784   0.361  1.00  0.00     0.110 N 
HETATM    9  C13 UNL     1       0.154  -0.716   1.764  1.00  0.00     0.311 C 
ENDROOT
BRANCH   7  10
HETATM   10  C9  UNL     1       2.156   0.081  -0.185  1.00  0.00     0.122 A 
HETATM   11  N2  UNL     1       2.930   1.170  -0.073  1.00  0.00    -0.352 N 
HETATM   12  C10 UNL     1       4.189   0.816   0.168  1.00  0.00     0.106 A 
ATOM     13  H2  UNL     1       2.601   2.131  -0.160  1.00  0.00     0.166 HD
HETATM   14  C11 UNL     1       4.167  -0.564   0.201  1.00  0.00     0.108 A 
HETATM   15  N3  UNL     1       2.921  -1.013  -0.015  1.00  0.00    -0.348 N 
HETATM   16  C12 UNL     1       2.544  -2.411  -0.046  1.00  0.00     0.157 C 
ENDBRANCH   7  10
BRANCH   5  17
HETATM   17  O2  UNL     1       0.869   2.093  -1.618  1.00  0.00    -0.361 OA
ATOM     18  H2  UNL     1       1.803   2.026  -1.455  1.00  0.00     0.212 HD
ENDBRANCH   5  17
BRANCH   1  19
HETATM   19  C2  UNL     1      -2.246  -1.672   0.736  1.00  0.00     0.036 C 
HETATM   20  C1  UNL     1      -3.661  -1.788   0.295  1.00  0.00     0.007 C 
ENDBRANCH   1  19
BRANCH   2  21
HETATM   21  O1  UNL     1      -3.262   0.725  -0.473  1.00  0.00    -0.366 OA
ATOM     22  H1  UNL     1      -3.603   1.610  -0.417  1.00  0.00     0.212 HD
ENDBRANCH   2  21
TORSDOF 4
