REMARK  4 active torsions:
REMARK  status: ('A' for Active; 'I' for Inactive)
REMARK    1  A    between atoms: C4_8  and  N3_9 
REMARK    2  A    between atoms: N3_9  and  C5_11 
REMARK    3  A    between atoms: C5_11  and  C6_12 
REMARK    4  A    between atoms: C6_12  and  N4_14 
ROOT
HETATM    1  N3  UNL     1      -0.064   0.724   0.897  1.00  0.00    -0.373 N 
ATOM      2  H3  UNL     1      -0.601   1.426   1.405  1.00  0.00     0.161 HD
ENDROOT
BRANCH   1   3
HETATM    3  C4  UNL     1       1.165   0.941   0.778  1.00  0.00     0.123 A 
HETATM    4  C2  UNL     1       2.123   0.203   0.166  1.00  0.00    -0.000 A 
HETATM    5  C1  UNL     1       2.030  -1.087  -0.555  1.00  0.00     0.054 C 
HETATM    6  C3  UNL     1       3.348   0.871   0.306  1.00  0.00     0.117 A 
HETATM    7  N1  UNL     1       3.085   1.987   0.997  1.00  0.00    -0.310 N 
HETATM    8  N2  UNL     1       1.798   2.040   1.282  1.00  0.00    -0.286 N 
ATOM      9  H1  UNL     1       3.775   2.690   1.263  1.00  0.00     0.186 HD
ATOM     10  H2  UNL     1       1.344   2.791   1.802  1.00  0.00     0.188 HD
ENDBRANCH   1   3
BRANCH   1  11
HETATM   11  C5  UNL     1      -0.792  -0.393   0.402  1.00  0.00     0.153 C 
BRANCH  11  12
HETATM   12  C6  UNL     1      -2.308  -0.094   0.420  1.00  0.00     0.197 C 
HETATM   13  C7  UNL     1      -2.962  -1.349  -0.125  1.00  0.00     0.041 C 
BRANCH  12  14
HETATM   14  N4  UNL     1      -2.538   1.045  -0.442  1.00  0.00    -0.074 N 
ATOM     15  H43 UNL     1      -1.970   1.854  -0.191  1.00  0.00     0.274 HD
ATOM     16  H42 UNL     1      -2.171   0.911  -1.384  1.00  0.00     0.274 HD
ATOM     17  H41 UNL     1      -3.539   1.242  -0.430  1.00  0.00     0.274 HD
ENDBRANCH  12  14
ENDBRANCH  11  12
ENDBRANCH   1  11
TORSDOF 4
