REMARK  19 active torsions:
REMARK  status: ('A' for Active; 'I' for Inactive)
REMARK    1  A    between atoms: C2_2  and  C3_3 
REMARK    2  A    between atoms: C3_3  and  C4_4 
REMARK    3  A    between atoms: C4_4  and  C5_5 
REMARK    4  A    between atoms: C5_5  and  C6_6 
REMARK    5  A    between atoms: C6_6  and  C7_7 
REMARK    6  A    between atoms: C7_7  and  C8_8 
REMARK    7  A    between atoms: C8_8  and  C9_9 
REMARK    8  A    between atoms: C9_9  and  N1_10 
REMARK    9  A    between atoms: C9_9  and  C30_47 
REMARK       I    between atoms: N1_10  and  C10_12 
REMARK   10  A    between atoms: C10_12  and  C11_14 
REMARK   11  A    between atoms: N2_18  and  C15_19 
REMARK   12  A    between atoms: C15_19  and  O2_20 
REMARK   13  A    between atoms: C16_22  and  N3_23 
REMARK   14  A    between atoms: C18_26  and  C19_27 
REMARK   15  A    between atoms: C19_27  and  C20_28 
REMARK   16  A    between atoms: C20_28  and  C21_29 
REMARK   17  A    between atoms: C21_29  and  N4_30 
REMARK       I    between atoms: N7_35  and  C23_36 
REMARK   18  A    between atoms: N9_38  and  C24_40 
REMARK   19  A    between atoms: C24_40  and  C25_41 
ROOT
HETATM    1  C15 UNL     1       0.537   0.526   0.974  1.00  0.00     0.155 C 
HETATM    2  C16 UNL     1      -0.145   1.459   0.111  1.00  0.00     0.160 C 
ENDROOT
BRANCH   2   3
HETATM    3  N3  UNL     1      -1.561   1.404  -0.056  1.00  0.00    -0.238 N 
HETATM    4  C17 UNL     1      -2.550   2.075   0.714  1.00  0.00     0.255 C 
HETATM    5  O3  UNL     1      -2.388   2.494   1.876  1.00  0.00    -0.270 OA
HETATM    6  C18 UNL     1      -3.764   2.159  -0.145  1.00  0.00     0.190 C 
HETATM    7  N7  UNL     1      -3.655   0.908  -0.859  1.00  0.00    -0.259 N 
HETATM    8  C23 UNL     1      -4.737   0.047  -1.296  1.00  0.00     0.195 C 
HETATM    9  C29 UNL     1      -2.280   0.663  -1.058  1.00  0.00     0.338 C 
HETATM   10  N8  UNL     1      -6.050   0.446  -0.999  1.00  0.00    -0.063 NA
HETATM   11  N9  UNL     1      -4.491  -1.026  -1.922  1.00  0.00    -0.361 N 
ATOM     12  H9  UNL     1      -3.516  -1.263  -2.107  1.00  0.00     0.162 HD
HETATM   13  O4  UNL     1      -1.786  -0.066  -1.949  1.00  0.00    -0.246 OA
BRANCH   6  14
HETATM   14  C19 UNL     1      -3.660   3.287  -1.136  1.00  0.00     0.037 C 
BRANCH  14  15
HETATM   15  C20 UNL     1      -3.485   4.621  -0.434  1.00  0.00     0.022 C 
BRANCH  15  16
HETATM   16  C21 UNL     1      -4.623   4.928   0.493  1.00  0.00     0.122 C 
BRANCH  16  17
HETATM   17  N4  UNL     1      -5.891   4.986  -0.188  1.00  0.00    -0.367 N 
HETATM   18  C22 UNL     1      -7.032   4.963   0.415  1.00  0.00     0.196 C 
HETATM   19  N5  UNL     1      -7.146   4.878   1.827  1.00  0.00    -0.067 NA
HETATM   20  N6  UNL     1      -8.180   5.015  -0.403  1.00  0.00    -0.067 NA
ATOM     21  H4  UNL     1      -5.887   5.049  -1.206  1.00  0.00     0.161 HD
ENDBRANCH  16  17
ENDBRANCH  15  16
ENDBRANCH  14  15
ENDBRANCH   6  14
BRANCH  11  22
HETATM   22  C24 UNL     1      -5.495  -1.918  -2.381  1.00  0.00     0.149 C 
BRANCH  22  23
HETATM   23  C25 UNL     1      -6.023  -2.806  -1.317  1.00  0.00    -0.005 C 
HETATM   24  C26 UNL     1      -5.923  -4.102  -1.440  1.00  0.00    -0.090 C 
HETATM   25  C27 UNL     1      -6.451  -5.018  -0.375  1.00  0.00     0.042 C 
HETATM   26  C28 UNL     1      -5.291  -4.697  -2.657  1.00  0.00     0.042 C 
ENDBRANCH  22  23
ENDBRANCH  11  22
ENDBRANCH   2   3
BRANCH   1  27
HETATM   27  N2  UNL     1       0.149  -0.510   1.792  1.00  0.00    -0.347 N 
HETATM   28  C11 UNL     1       0.977  -1.377   2.674  1.00  0.00     0.178 C 
HETATM   29  C12 UNL     1       0.292  -1.057   3.985  1.00  0.00     0.037 C 
HETATM   30  C13 UNL     1      -1.186  -0.994   3.598  1.00  0.00     0.022 C 
HETATM   31  C14 UNL     1      -1.151  -1.141   2.070  1.00  0.00     0.126 C 
BRANCH  28  32
HETATM   32  C10 UNL     1       2.394  -1.144   2.645  1.00  0.00     0.241 C 
HETATM   33  N1  UNL     1       3.243  -2.006   1.965  1.00  0.00    -0.346 N 
ATOM     34  H1  UNL     1       2.810  -2.816   1.521  1.00  0.00     0.163 HD
HETATM   35  O1  UNL     1       2.872  -0.118   3.258  1.00  0.00    -0.271 OA
BRANCH  33  36
HETATM   36  C9  UNL     1       4.707  -1.877   1.815  1.00  0.00     0.173 C 
BRANCH  36  37
HETATM   37  C8  UNL     1       5.120  -2.656   0.665  1.00  0.00     0.034 C 
BRANCH  37  38
HETATM   38  C7  UNL     1       6.510  -2.682   0.192  1.00  0.00     0.002 C 
BRANCH  38  39
HETATM   39  C6  UNL     1       7.030  -1.349  -0.328  1.00  0.00     0.000 C 
BRANCH  39  40
HETATM   40  C5  UNL     1       6.179  -0.885  -1.495  1.00  0.00     0.000 C 
BRANCH  40  41
HETATM   41  C4  UNL     1       6.679   0.392  -2.127  1.00  0.00     0.000 C 
BRANCH  41  42
HETATM   42  C3  UNL     1       8.100   0.178  -2.652  1.00  0.00    -0.000 C 
BRANCH  42  43
HETATM   43  C2  UNL     1       8.555   1.441  -3.331  1.00  0.00    -0.005 C 
HETATM   44  C1  UNL     1       8.541   2.567  -2.348  1.00  0.00     0.005 C 
ENDBRANCH  42  43
ENDBRANCH  41  42
ENDBRANCH  40  41
ENDBRANCH  39  40
ENDBRANCH  38  39
ENDBRANCH  37  38
ENDBRANCH  36  37
BRANCH  36  45
HETATM   45  C30 UNL     1       5.321  -2.322   3.128  1.00  0.00     0.254 C 
HETATM   46  N10 UNL     1       6.674  -2.654   3.290  1.00  0.00    -0.060 NA
HETATM   47  O5  UNL     1       4.527  -2.382   4.102  1.00  0.00    -0.275 OA
ENDBRANCH  36  45
ENDBRANCH  33  36
ENDBRANCH  28  32
ENDBRANCH   1  27
BRANCH   1  48
HETATM   48  O2  UNL     1       1.847   0.740   0.965  1.00  0.00    -0.345 OA
ATOM     49  H2  UNL     1       2.115   1.455   0.400  1.00  0.00     0.219 HD
ENDBRANCH   1  48
TORSDOF 19
