REMARK  2 active torsions:
REMARK  status: ('A' for Active; 'I' for Inactive)
REMARK    1  A    between atoms: N2_7  and  C4_9 
REMARK    2  A    between atoms: C4_9  and  C5_10 
ROOT
HETATM    1  C1  UNL     1      -2.198   0.082   0.995  1.00  0.00     0.286 C 
HETATM    2  N1  UNL     1      -3.341  -0.123   0.165  1.00  0.00    -0.065 N 
ATOM      3  H11 UNL     1      -4.217   0.356   0.375  1.00  0.00     0.277 HD
ATOM      4  H12 UNL     1      -3.828  -1.019   0.179  1.00  0.00     0.277 HD
HETATM    5  C2  UNL     1      -2.562   0.263  -1.001  1.00  0.00     0.286 C 
HETATM    6  C3  UNL     1      -1.307   0.209  -0.189  1.00  0.00     0.037 C 
HETATM    7  N2  UNL     1      -0.048   0.249  -0.383  1.00  0.00    -0.371 N 
ATOM      8  H2  UNL     1       0.321   0.344  -1.329  1.00  0.00     0.164 HD
ENDROOT
BRANCH   7   9
HETATM    9  C4  UNL     1       0.832   0.162   0.715  1.00  0.00     0.095 C 
BRANCH   9  10
HETATM   10  C5  UNL     1       2.251   0.496   0.407  1.00  0.00     0.249 A 
HETATM   11  C6  UNL     1       3.038  -0.231  -0.565  1.00  0.00     0.271 A 
HETATM   12  N3  UNL     1       3.215  -0.494   0.912  1.00  0.00    -0.062 N 
ATOM     13  H32 UNL     1       3.993  -0.493   1.571  1.00  0.00     0.278 HD
ATOM     14  H31 UNL     1       3.180  -1.310   1.523  1.00  0.00     0.278 HD
ENDBRANCH   9  10
ENDBRANCH   7   9
TORSDOF 2
