REMARK  7 active torsions:
REMARK  status: ('A' for Active; 'I' for Inactive)
REMARK    1  A    between atoms: O1_1  and  C1_3 
REMARK    2  A    between atoms: C1_3  and  C2_4 
REMARK    3  A    between atoms: C2_4  and  C3_5 
REMARK    4  A    between atoms: C3_5  and  C4_6 
REMARK    5  A    between atoms: C4_6  and  N1_7 
REMARK    6  A    between atoms: N1_7  and  C5_9 
REMARK    7  A    between atoms: N2_10  and  N3_12 
ROOT
HETATM    1  C5  UNL     1       1.012   1.274  -0.338  1.00  0.00     0.196 C 
HETATM    2  N2  UNL     1       0.832   0.151   0.113  1.00  0.00    -0.295 N 
ATOM      3  H2  UNL     1       1.699  -0.325   0.363  1.00  0.00     0.187 HD
ENDROOT
BRANCH   2   4
HETATM    4  N3  UNL     1      -0.240  -0.573   0.344  1.00  0.00    -0.288 N 
HETATM    5  C6  UNL     1      -1.444  -0.352   0.608  1.00  0.00     0.091 C 
HETATM    6  C7  UNL     1      -2.193  -1.628   0.761  1.00  0.00     0.077 C 
HETATM    7  N4  UNL     1      -1.851   0.995   0.715  1.00  0.00    -0.379 N 
HETATM    8  C8  UNL     1      -3.061  -1.917  -0.440  1.00  0.00     0.007 C 
HETATM    9  C9  UNL     1      -4.474  -1.433  -0.255  1.00  0.00     0.000 C 
HETATM   10  C10 UNL     1      -4.579  -0.063   0.345  1.00  0.00     0.002 C 
HETATM   11  C11 UNL     1      -3.978   1.003  -0.512  1.00  0.00     0.020 C 
HETATM   12  C12 UNL     1      -2.967   1.777   0.304  1.00  0.00     0.121 C 
ATOM     13  H4  UNL     1      -1.165   1.556   1.220  1.00  0.00     0.160 HD
ATOM     14  H3  UNL     1      -0.040  -1.572   0.296  1.00  0.00     0.188 HD
ENDBRANCH   2   4
BRANCH   1  15
HETATM   15  N1  UNL     1       2.239   1.936  -0.535  1.00  0.00    -0.365 N 
ATOM     16  H1  UNL     1       2.252   2.893  -0.182  1.00  0.00     0.165 HD
BRANCH  15  17
HETATM   17  C4  UNL     1       3.440   1.534  -1.120  1.00  0.00     0.062 C 
BRANCH  17  18
HETATM   18  C3  UNL     1       4.410   0.656  -0.449  1.00  0.00     0.046 C 
BRANCH  18  19
HETATM   19  C2  UNL     1       3.994  -0.681  -0.012  1.00  0.00     0.031 C 
BRANCH  19  20
HETATM   20  C1  UNL     1       5.251  -1.415   0.526  1.00  0.00     0.164 C 
BRANCH  20  21
HETATM   21  O1  UNL     1       6.142  -1.476  -0.517  1.00  0.00    -0.401 OA
ATOM     22  H1  UNL     1       6.911  -1.925  -0.188  1.00  0.00     0.209 HD
ENDBRANCH  20  21
ENDBRANCH  19  20
ENDBRANCH  18  19
ENDBRANCH  17  18
ENDBRANCH  15  17
ENDBRANCH   1  15
TORSDOF 7
