REMARK  8 active torsions:
REMARK  status: ('A' for Active; 'I' for Inactive)
REMARK    1  A    between atoms: C5_5  and  C6_6 
REMARK    2  A    between atoms: C6_6  and  C7_7 
REMARK    3  A    between atoms: C7_7  and  C8_8 
REMARK    4  A    between atoms: C8_8  and  C9_9 
REMARK    5  A    between atoms: C9_9  and  O1_11 
REMARK    6  A    between atoms: C9_9  and  C11_13 
REMARK    7  A    between atoms: C11_13  and  O2_14 
REMARK    8  A    between atoms: C13_17  and  O3_19 
ROOT
HETATM    1  C1  UNL     1       4.676  -1.438   0.022  1.00  0.00     0.017 C 
HETATM    2  C2  UNL     1       3.465  -0.901   0.019  1.00  0.00    -0.056 C 
HETATM    3  C3  UNL     1       2.235  -1.693  -0.194  1.00  0.00     0.037 C 
HETATM    4  C4  UNL     1       1.169  -0.736  -0.737  1.00  0.00     0.009 C 
HETATM    5  C5  UNL     1       0.851   0.301   0.306  1.00  0.00    -0.011 C 
HETATM    6  C12 UNL     1       2.064   1.008   0.825  1.00  0.00     0.046 C 
HETATM    7  C13 UNL     1       3.356   0.555   0.239  1.00  0.00     0.077 C 
HETATM    8  C14 UNL     1       3.665   1.332  -1.032  1.00  0.00     0.051 C 
ENDROOT
BRANCH   5   9
HETATM    9  C6  UNL     1      -0.096   1.322  -0.262  1.00  0.00     0.005 C 
BRANCH   9  10
HETATM   10  C7  UNL     1      -1.410   0.718  -0.722  1.00  0.00     0.003 C 
BRANCH  10  11
HETATM   11  C8  UNL     1      -2.149   0.044   0.379  1.00  0.00     0.040 C 
BRANCH  11  12
HETATM   12  C9  UNL     1      -3.438  -0.558  -0.120  1.00  0.00     0.075 C 
HETATM   13  C10 UNL     1      -4.187  -1.246   1.018  1.00  0.00     0.048 C 
BRANCH  12  14
HETATM   14  O1  UNL     1      -3.213  -1.575  -1.063  1.00  0.00    -0.388 OA
ATOM     15  H1  UNL     1      -4.025  -1.954  -1.377  1.00  0.00     0.210 HD
ENDBRANCH  12  14
BRANCH  12  16
HETATM   16  C11 UNL     1      -4.269   0.515  -0.750  1.00  0.00     0.201 C 
BRANCH  16  17
HETATM   17  O2  UNL     1      -5.517   0.044  -1.165  1.00  0.00    -0.398 OA
ATOM     18  H2  UNL     1      -6.045   0.725  -1.565  1.00  0.00     0.209 HD
ENDBRANCH  16  17
ENDBRANCH  12  16
ENDBRANCH  11  12
ENDBRANCH  10  11
ENDBRANCH   9  10
ENDBRANCH   5   9
BRANCH   7  19
HETATM   19  O3  UNL     1       4.373   0.904   1.159  1.00  0.00    -0.386 OA
ATOM     20  H3  UNL     1       4.303   1.841   1.301  1.00  0.00     0.211 HD
ENDBRANCH   7  19
TORSDOF 8
