REMARK  5 active torsions:
REMARK  status: ('A' for Active; 'I' for Inactive)
REMARK    1  A    between atoms: C2_7  and  C3_8 
REMARK    2  A    between atoms: C3_8  and  S1_9 
REMARK    3  A    between atoms: S1_9  and  C4_10 
REMARK    4  A    between atoms: C6_16  and  N6_17 
REMARK    5  A    between atoms: C7_22  and  N8_23 
ROOT
HETATM    1  C4  UNL     1       1.074   1.333   0.240  1.00  0.00     0.146 A 
HETATM    2  N4  UNL     1       1.127   1.173  -1.081  1.00  0.00    -0.321 N 
ATOM      3  H4  UNL     1       1.939   1.388  -1.659  1.00  0.00     0.169 HD
HETATM    4  C5  UNL     1      -0.041   0.687  -1.549  1.00  0.00     0.153 A 
HETATM    5  N5  UNL     1      -0.526   0.360  -2.733  1.00  0.00    -0.174 N 
ATOM      6  H5  UNL     1       0.086   0.472  -3.541  1.00  0.00     0.186 HD
HETATM    7  C6  UNL     1      -1.758  -0.106  -2.951  1.00  0.00     0.679 A 
HETATM    8  N7  UNL     1      -2.558  -0.251  -1.888  1.00  0.00    -0.175 N 
ATOM      9  H7  UNL     1      -3.505  -0.604  -2.025  1.00  0.00     0.186 HD
HETATM   10  C7  UNL     1      -2.144   0.059  -0.632  1.00  0.00     0.150 A 
HETATM   11  C12 UNL     1      -0.856   0.545  -0.421  1.00  0.00     0.124 A 
HETATM   12  N9  UNL     1      -0.168   0.942   0.659  1.00  0.00    -0.331 N 
ATOM     13  H9  UNL     1      -0.509   0.951   1.620  1.00  0.00     0.168 HD
ENDROOT
BRANCH   1  14
HETATM   14  S1  UNL     1       2.306   1.939   1.379  1.00  0.00    -0.086 SA
BRANCH  14  15
HETATM   15  C3  UNL     1       3.835   2.354   0.499  1.00  0.00     0.161 C 
BRANCH  15  16
HETATM   16  C2  UNL     1       4.444   1.117  -0.044  1.00  0.00     0.122 A 
HETATM   17  N3  UNL     1       4.204   0.601  -1.258  1.00  0.00    -0.271 N 
HETATM   18  N2  UNL     1       4.908  -0.504  -1.421  1.00  0.00    -0.225 N 
ATOM     19  H3  UNL     1       3.572   1.002  -1.951  1.00  0.00     0.190 HD
HETATM   20  N1  UNL     1       5.599  -0.705  -0.326  1.00  0.00    -0.223 N 
ATOM     21  H2  UNL     1       4.913  -1.096  -2.252  1.00  0.00     0.210 HD
HETATM   22  C1  UNL     1       6.524  -1.820  -0.062  1.00  0.00     0.202 C 
HETATM   23  N10 UNL     1       5.326   0.274   0.519  1.00  0.00    -0.270 N 
ATOM     24  H10 UNL     1       5.723   0.374   1.453  1.00  0.00     0.190 HD
ENDBRANCH  15  16
ENDBRANCH  14  15
ENDBRANCH   1  14
BRANCH  10  25
HETATM   25  N8  UNL     1      -3.046  -0.103   0.451  1.00  0.00    -0.365 N 
HETATM   26  C8  UNL     1      -2.855  -0.086   1.877  1.00  0.00     0.124 C 
HETATM   27  C9  UNL     1      -4.019  -0.843   2.507  1.00  0.00     0.021 C 
HETATM   28  C10 UNL     1      -4.698  -1.448   1.315  1.00  0.00     0.021 C 
HETATM   29  C11 UNL     1      -4.499  -0.306   0.308  1.00  0.00     0.124 C 
ENDBRANCH  10  25
BRANCH   7  30
HETATM   30  N6  UNL     1      -2.175  -0.411  -4.159  1.00  0.00    -0.234 N 
ATOM     31  H62 UNL     1      -1.565  -0.300  -4.969  1.00  0.00     0.174 HD
ATOM     32  H61 UNL     1      -3.116  -0.767  -4.326  1.00  0.00     0.174 HD
ENDBRANCH   7  30
TORSDOF 5
