REMARK  7 active torsions:
REMARK  status: ('A' for Active; 'I' for Inactive)
REMARK    1  A    between atoms: C3_5  and  C4_6 
REMARK    2  A    between atoms: C6_18  and  C7_19 
REMARK    3  A    between atoms: C7_19  and  O1_20 
REMARK    4  A    between atoms: C7_19  and  N7_22 
REMARK    5  A    between atoms: N7_22  and  N8_24 
REMARK    6  A    between atoms: C8_26  and  C9_27 
REMARK    7  A    between atoms: C12_34  and  N11_35 
ROOT
HETATM    1  C7  UNL     1       0.180  -0.344   0.106  1.00  0.00     0.168 C 
ENDROOT
BRANCH   1   2
HETATM    2  C6  UNL     1       1.624  -0.304  -0.006  1.00  0.00     0.054 A 
HETATM    3  C2  UNL     1       2.355   0.722  -0.526  1.00  0.00     0.023 A 
HETATM    4  C1  UNL     1       1.702   1.920  -1.152  1.00  0.00     0.069 C 
HETATM    5  N1  UNL     1       3.724   0.671  -0.538  1.00  0.00    -0.342 N 
HETATM    6  C3  UNL     1       4.389  -0.375  -0.049  1.00  0.00     0.153 A 
ATOM      7  H1  UNL     1       4.247   1.453  -0.931  1.00  0.00     0.167 HD
HETATM    8  N6  UNL     1       3.685  -1.384   0.461  1.00  0.00    -0.348 N 
HETATM    9  C5  UNL     1       2.359  -1.398   0.505  1.00  0.00     0.107 A 
ATOM     10  H6  UNL     1       4.191  -2.186   0.837  1.00  0.00     0.167 HD
BRANCH   6  11
HETATM   11  C4  UNL     1       5.847  -0.428  -0.069  1.00  0.00     0.182 A 
HETATM   12  N2  UNL     1       6.580  -1.460   0.413  1.00  0.00    -0.266 N 
HETATM   13  N3  UNL     1       7.866  -1.134   0.209  1.00  0.00    -0.226 N 
ATOM     14  H2  UNL     1       6.226  -2.314   0.844  1.00  0.00     0.190 HD
HETATM   15  N4  UNL     1       7.939   0.036  -0.367  1.00  0.00    -0.226 N 
ATOM     16  H3  UNL     1       8.666  -1.713   0.465  1.00  0.00     0.210 HD
HETATM   17  N5  UNL     1       6.699   0.474  -0.540  1.00  0.00    -0.266 N 
ATOM     18  H4  UNL     1       8.794   0.524  -0.635  1.00  0.00     0.210 HD
ATOM     19  H5  UNL     1       6.441   1.363  -0.967  1.00  0.00     0.190 HD
ENDBRANCH   6  11
ENDBRANCH   1   2
BRANCH   1  20
HETATM   20  O1  UNL     1      -0.315  -1.547   0.089  1.00  0.00    -0.344 OA
ATOM     21  H1  UNL     1      -1.262  -1.573   0.162  1.00  0.00     0.219 HD
ENDBRANCH   1  20
BRANCH   1  22
HETATM   22  N7  UNL     1      -0.735   0.677   0.231  1.00  0.00    -0.280 N 
ATOM     23  H7  UNL     1      -0.392   1.637   0.265  1.00  0.00     0.189 HD
BRANCH  22  24
HETATM   24  N8  UNL     1      -2.100   0.459   0.312  1.00  0.00    -0.309 N 
HETATM   25  C8  UNL     1      -2.849  -0.410  -0.140  1.00  0.00     0.123 C 
ATOM     26  H8  UNL     1      -2.589   1.166   0.861  1.00  0.00     0.186 HD
BRANCH  25  27
HETATM   27  C9  UNL     1      -4.291  -0.433   0.089  1.00  0.00     0.040 A 
HETATM   28  C10 UNL     1      -5.035  -1.502  -0.474  1.00  0.00     0.105 A 
HETATM   29  N9  UNL     1      -6.342  -1.531  -0.262  1.00  0.00    -0.361 N 
HETATM   30  C11 UNL     1      -7.011  -0.616   0.451  1.00  0.00     0.181 A 
ATOM     31  H9  UNL     1      -6.874  -2.301  -0.668  1.00  0.00     0.166 HD
HETATM   32  N10 UNL     1      -6.367   0.406   1.001  1.00  0.00    -0.338 N 
HETATM   33  C12 UNL     1      -4.999   0.495   0.817  1.00  0.00     0.112 A 
ATOM     34  H10 UNL     1      -6.868   1.108   1.546  1.00  0.00     0.168 HD
BRANCH  33  35
HETATM   35  N11 UNL     1      -4.431   1.486   1.351  1.00  0.00    -0.385 N 
ATOM     36 2H11 UNL     1      -3.422   1.552   1.215  1.00  0.00     0.157 HD
ATOM     37 1H11 UNL     1      -4.956   2.174   1.891  1.00  0.00     0.157 HD
ENDBRANCH  33  35
ENDBRANCH  25  27
ENDBRANCH  22  24
ENDBRANCH   1  22
TORSDOF 7
