REMARK  7 active torsions:
REMARK  status: ('A' for Active; 'I' for Inactive)
REMARK    1  A    between atoms: C3_5  and  N2_6 
REMARK    2  A    between atoms: N2_6  and  N3_8 
REMARK    3  A    between atoms: C5_15  and  N5_16 
REMARK    4  A    between atoms: N5_16  and  N6_18 
REMARK       I    between atoms: N6_18  and  C6_20 
REMARK    5  A    between atoms: C7_23  and  N8_24 
REMARK    6  A    between atoms: N8_24  and  N9_26 
REMARK    7  A    between atoms: N9_26  and  N10_27 
ROOT
HETATM    1  C1  UNL     1      -2.290   2.684   0.775  1.00  0.00     0.071 C 
HETATM    2  C2  UNL     1      -1.663   1.363   0.491  1.00  0.00     0.040 C 
HETATM    3  N1  UNL     1      -2.445   0.260   0.596  1.00  0.00    -0.338 N 
ATOM      4  H1  UNL     1      -3.413   0.428   0.869  1.00  0.00     0.167 HD
HETATM    5  C3  UNL     1      -2.112  -1.026   0.388  1.00  0.00     0.189 C 
HETATM    6  C4  UNL     1      -0.829  -1.571   0.346  1.00  0.00     0.292 C 
HETATM    7  O1  UNL     1      -0.748  -2.797   0.560  1.00  0.00    -0.264 OA
HETATM    8  N4  UNL     1       0.363  -0.980   0.108  1.00  0.00    -0.303 N 
ATOM      9  H4  UNL     1       1.189  -1.578   0.096  1.00  0.00     0.171 HD
HETATM   10  C5  UNL     1       0.548   0.341  -0.115  1.00  0.00     0.154 C 
HETATM   11  C7  UNL     1      -0.328   1.394   0.145  1.00  0.00     0.130 C 
ENDROOT
BRANCH  10  12
HETATM   12  N5  UNL     1       1.645   0.727  -0.626  1.00  0.00    -0.280 N 
ATOM     13  H5  UNL     1       1.748   1.730  -0.780  1.00  0.00     0.188 HD
BRANCH  12  14
HETATM   14  N6  UNL     1       2.711  -0.065  -0.995  1.00  0.00    -0.252 N 
HETATM   15  C6  UNL     1       3.659  -0.459  -0.010  1.00  0.00     0.347 C 
HETATM   16  N7  UNL     1       4.772  -1.272  -0.335  1.00  0.00    -0.038 NA
HETATM   17  O2  UNL     1       3.529  -0.084   1.202  1.00  0.00    -0.249 OA
ATOM     18  H6  UNL     1       2.819  -0.365  -1.964  1.00  0.00     0.191 HD
ENDBRANCH  12  14
ENDBRANCH  10  12
BRANCH  11  19
HETATM   19  N8  UNL     1       0.196   2.721   0.048  1.00  0.00    -0.211 N 
ATOM     20  H8  UNL     1       0.344   3.312   0.866  1.00  0.00     0.204 HD
BRANCH  19  21
HETATM   21  N9  UNL     1       0.459   3.103  -1.112  1.00  0.00    -0.243 NA
BRANCH  21  22
HETATM   22  N10 UNL     1       0.420   3.680  -2.193  1.00  0.00    -0.260 N 
ATOM     23 2H10 UNL     1      -0.417   4.219  -1.971  1.00  0.00     0.193 HD
ATOM     24 1H10 UNL     1       0.635   3.992  -3.140  1.00  0.00     0.193 HD
ENDBRANCH  21  22
ENDBRANCH  19  21
ENDBRANCH  11  19
BRANCH   5  25
HETATM   25  N2  UNL     1      -3.080  -1.839   0.208  1.00  0.00    -0.287 N 
ATOM     26  H2  UNL     1      -4.033  -1.476   0.231  1.00  0.00     0.188 HD
BRANCH  25  27
HETATM   27  N3  UNL     1      -2.893  -3.190  -0.017  1.00  0.00    -0.343 N 
ATOM     28  H32 UNL     1      -1.934  -3.536  -0.037  1.00  0.00     0.176 HD
ATOM     29  H31 UNL     1      -3.666  -3.839  -0.161  1.00  0.00     0.176 HD
ENDBRANCH  25  27
ENDBRANCH   5  25
TORSDOF 7
