REMARK  3 active torsions:
REMARK  status: ('A' for Active; 'I' for Inactive)
REMARK    1  A    between atoms: N1_1  and  C1_5 
REMARK    2  A    between atoms: C1_5  and  C2_6 
REMARK    3  A    between atoms: C2_6  and  N2_7 
ROOT
HETATM    1  N2  UNL     1      -2.072   0.283   0.059  1.00  0.00     0.093 N 
HETATM    2  C3  UNL     1      -1.398  -0.883  -0.473  1.00  0.00     0.291 C 
HETATM    3  C4  UNL     1      -0.663  -1.616   0.626  1.00  0.00     0.144 C 
HETATM    4  N3  UNL     1       0.214  -2.633   0.142  1.00  0.00    -0.418 N 
ATOM      5  H3  UNL     1      -0.019  -3.625   0.193  1.00  0.00     0.153 HD
HETATM    6  C5  UNL     1       1.439  -2.163  -0.418  1.00  0.00     0.141 C 
HETATM    7  C6  UNL     1       2.471  -1.768   0.602  1.00  0.00     0.251 C 
HETATM    8  N4  UNL     1       3.674  -1.386  -0.155  1.00  0.00    -0.072 N 
ATOM      9  H41 UNL     1       3.538  -1.530  -1.156  1.00  0.00     0.277 HD
ATOM     10  H42 UNL     1       4.433  -2.048   0.005  1.00  0.00     0.277 HD
HETATM   11  C7  UNL     1       4.094  -0.049   0.119  1.00  0.00     0.260 C 
HETATM   12  C8  UNL     1       3.497   0.983  -0.806  1.00  0.00     0.261 C 
HETATM   13  N5  UNL     1       2.981   2.072  -0.033  1.00  0.00    -0.050 N 
ATOM     14  H51 UNL     1       3.670   2.821   0.037  1.00  0.00     0.279 HD
ATOM     15  H52 UNL     1       2.910   1.812   0.951  1.00  0.00     0.279 HD
HETATM   16  C9  UNL     1       1.721   2.584  -0.515  1.00  0.00     0.462 C 
HETATM   17  N6  UNL     1       0.635   1.646  -0.249  1.00  0.00    -0.050 N 
ATOM     18  H61 UNL     1       0.820   1.106   0.596  1.00  0.00     0.279 HD
ATOM     19  H62 UNL     1       0.632   0.890  -0.933  1.00  0.00     0.279 HD
HETATM   20  C10 UNL     1      -0.645   2.277  -0.181  1.00  0.00     0.264 C 
HETATM   21  C11 UNL     1      -1.765   1.458  -0.770  1.00  0.00     0.300 C 
ENDROOT
BRANCH   1  22
HETATM   22  C2  UNL     1      -3.511   0.120  -0.046  1.00  0.00     0.299 C 
BRANCH  22  23
HETATM   23  C1  UNL     1      -4.059  -0.952   0.854  1.00  0.00     0.259 C 
BRANCH  23  24
HETATM   24  N1  UNL     1      -5.502  -0.985   0.629  1.00  0.00    -0.078 N 
ATOM     25  H13 UNL     1      -5.952  -0.079   0.760  1.00  0.00     0.274 HD
ATOM     26  H12 UNL     1      -5.755  -1.112  -0.351  1.00  0.00     0.274 HD
ATOM     27  H11 UNL     1      -5.874  -1.712   1.240  1.00  0.00     0.274 HD
ENDBRANCH  23  24
ENDBRANCH  22  23
ENDBRANCH   1  22
TORSDOF 3
