REMARK  7 active torsions:
REMARK  status: ('A' for Active; 'I' for Inactive)
REMARK    1  A    between atoms: C2_2  and  C3_3 
REMARK    2  A    between atoms: C3_3  and  N1_4 
REMARK    3  A    between atoms: N1_4  and  C4_7 
REMARK    4  A    between atoms: C8_11  and  C9_12 
REMARK    5  A    between atoms: C8_11  and  C13_18 
REMARK    6  A    between atoms: C9_12  and  C10_13 
REMARK    7  A    between atoms: C10_13  and  O1_16 
ROOT
HETATM    1  C4  UNL     1       1.383   0.612  -0.784  1.00  0.00     0.186 C 
HETATM    2  C5  UNL     1       1.446  -0.497  -1.753  1.00  0.00     0.033 C 
HETATM    3  C6  UNL     1       0.119  -1.275  -1.677  1.00  0.00     0.003 C 
HETATM    4  C7  UNL     1      -0.928  -0.289  -2.040  1.00  0.00     0.012 C 
HETATM    5  C8  UNL     1      -1.206   0.634  -0.868  1.00  0.00    -0.007 C 
HETATM    6  C15 UNL     1       0.135   1.338  -0.564  1.00  0.00     0.045 C 
ENDROOT
BRANCH   5   7
HETATM    7  C9  UNL     1      -1.648  -0.044   0.339  1.00  0.00     0.049 C 
BRANCH   7   8
HETATM    8  C10 UNL     1      -2.770  -0.919   0.523  1.00  0.00     0.051 C 
HETATM    9  C11 UNL     1      -2.675  -1.325   2.043  1.00  0.00     0.045 C 
HETATM   10  C12 UNL     1      -4.183  -0.534   0.375  1.00  0.00     0.045 C 
BRANCH   8  11
HETATM   11  O1  UNL     1      -2.664  -2.188  -0.081  1.00  0.00    -0.391 OA
ATOM     12  H1  UNL     1      -3.407  -2.767   0.041  1.00  0.00     0.210 HD
ENDBRANCH   8  11
ENDBRANCH   7   8
ENDBRANCH   5   7
BRANCH   5  13
HETATM   13  C13 UNL     1      -2.084   1.760  -1.300  1.00  0.00     0.154 A 
HETATM   14  C14 UNL     1      -2.458   2.840  -0.346  1.00  0.00     0.201 A 
HETATM   15  O2  UNL     1      -3.371   1.993  -0.935  1.00  0.00    -0.380 OA
ENDBRANCH   5  13
BRANCH   1  16
HETATM   16  N1  UNL     1       2.065   0.284   0.455  1.00  0.00    -0.071 N 
ATOM     17  H12 UNL     1       1.642  -0.529   0.902  1.00  0.00     0.277 HD
ATOM     18  H11 UNL     1       1.877   0.983   1.173  1.00  0.00     0.277 HD
BRANCH  16  19
HETATM   19  C3  UNL     1       3.480   0.097   0.274  1.00  0.00     0.232 C 
BRANCH  19  20
HETATM   20  C2  UNL     1       4.095  -0.210   1.630  1.00  0.00     0.023 C 
HETATM   21  C1  UNL     1       5.578  -0.418   1.501  1.00  0.00     0.007 C 
ENDBRANCH  19  20
ENDBRANCH  16  19
ENDBRANCH   1  16
TORSDOF 7
