REMARK  7 active torsions:
REMARK  status: ('A' for Active; 'I' for Inactive)
REMARK    1  A    between atoms: C2_2  and  O1_4 
REMARK    2  A    between atoms: C2_2  and  C4_6 
REMARK    3  A    between atoms: C5_8  and  C6_9 
REMARK    4  A    between atoms: C6_9  and  N1_10 
REMARK       I    between atoms: N4_19  and  C9_21 
REMARK       I    between atoms: C9_21  and  N5_22 
REMARK       I    between atoms: C9_21  and  N6_26 
REMARK    5  A    between atoms: C14_36  and  N7_37 
REMARK    6  A    between atoms: N7_37  and  C15_39 
REMARK    7  A    between atoms: C17_46  and  O6_47 
ROOT
HETATM    1  N1  UNL     1       0.855  -0.024   1.103  1.00  0.00    -0.201 N 
HETATM    2  O3  UNL     1       1.370   0.842   2.074  1.00  0.00    -0.148 OA
HETATM    3  N2  UNL     1       2.532   0.570   2.613  1.00  0.00    -0.223 N 
ATOM      4  H2  UNL     1       2.575   0.577   3.632  1.00  0.00     0.198 HD
HETATM    5  C7  UNL     1       3.762   0.261   1.915  1.00  0.00     0.149 C 
HETATM    6  N3  UNL     1       4.772   0.029   2.648  1.00  0.00    -0.382 N 
ATOM      7  H31 UNL     1       5.639  -0.189   2.156  1.00  0.00     0.157 HD
ATOM      8  H32 UNL     1       4.650   0.079   3.659  1.00  0.00     0.157 HD
HETATM    9  C8  UNL     1       3.937   0.190   0.469  1.00  0.00     0.093 C 
HETATM   10  N4  UNL     1       4.938   0.491  -0.129  1.00  0.00    -0.337 N 
ATOM     11  H4  UNL     1       4.746   0.333  -1.118  1.00  0.00     0.163 HD
HETATM   12  C9  UNL     1       6.219   0.953  -0.049  1.00  0.00     0.480 C 
HETATM   13  N5  UNL     1       7.165   0.107   0.599  1.00  0.00    -0.033 N 
ATOM     14  H51 UNL     1       8.123   0.452   0.659  1.00  0.00     0.278 HD
ATOM     15  H52 UNL     1       7.160  -0.813   0.158  1.00  0.00     0.278 HD
ATOM     16  H53 UNL     1       6.828  -0.131   1.532  1.00  0.00     0.278 HD
HETATM   17  N6  UNL     1       6.704   1.182  -1.441  1.00  0.00    -0.033 N 
ATOM     18  H61 UNL     1       7.662   1.527  -1.381  1.00  0.00     0.278 HD
ATOM     19  H62 UNL     1       6.093   1.797  -1.978  1.00  0.00     0.278 HD
ATOM     20  H63 UNL     1       6.616   0.356  -2.033  1.00  0.00     0.278 HD
HETATM   21  C10 UNL     1       2.815  -0.278  -0.407  1.00  0.00     0.082 A 
HETATM   22  C11 UNL     1       1.478  -0.382  -0.115  1.00  0.00     0.135 A 
HETATM   23  C12 UNL     1       1.208  -0.840  -1.384  1.00  0.00     0.252 A 
HETATM   24  O4  UNL     1       0.271  -1.221  -2.110  1.00  0.00    -0.281 OA
HETATM   25  C13 UNL     1       2.572  -0.727  -1.663  1.00  0.00     0.239 A 
HETATM   26  O5  UNL     1       3.301  -0.949  -2.690  1.00  0.00    -0.283 OA
ENDROOT
BRANCH   1  27
HETATM   27  C6  UNL     1      -0.450  -0.409   1.463  1.00  0.00     0.166 C 
BRANCH  27  28
HETATM   28  C5  UNL     1      -1.459  -0.727   0.476  1.00  0.00     0.123 A 
HETATM   29  O2  UNL     1      -1.945  -1.840   0.087  1.00  0.00    -0.305 OA
HETATM   30  C4  UNL     1      -2.886  -1.719  -0.814  1.00  0.00     0.122 A 
HETATM   31  C17 UNL     1      -3.042  -0.392  -1.062  1.00  0.00     0.128 A 
HETATM   32  C14 UNL     1      -2.132   0.273  -0.244  1.00  0.00     0.106 A 
BRANCH  30  33
HETATM   33  C2  UNL     1      -3.618  -2.876  -1.400  1.00  0.00     0.102 C 
HETATM   34  C1  UNL     1      -2.905  -4.169  -0.943  1.00  0.00     0.053 C 
HETATM   35  C3  UNL     1      -5.029  -3.017  -0.897  1.00  0.00     0.053 C 
BRANCH  33  36
HETATM   36  O1  UNL     1      -3.473  -2.852  -2.759  1.00  0.00    -0.384 OA
ATOM     37  H1  UNL     1      -3.911  -2.057  -3.040  1.00  0.00     0.211 HD
ENDBRANCH  33  36
ENDBRANCH  30  33
BRANCH  31  38
HETATM   38  O6  UNL     1      -3.891   0.241  -1.925  1.00  0.00    -0.356 OA
ATOM     39  H6  UNL     1      -4.000   1.169  -2.098  1.00  0.00     0.218 HD
ENDBRANCH  31  38
BRANCH  32  40
HETATM   40  N7  UNL     1      -1.826   1.642  -0.262  1.00  0.00    -0.323 N 
ATOM     41  H7  UNL     1      -0.974   1.890  -0.765  1.00  0.00     0.169 HD
BRANCH  40  42
HETATM   42  C15 UNL     1      -2.512   2.711   0.305  1.00  0.00     0.193 A 
HETATM   43  N8  UNL     1      -1.983   3.819   0.673  1.00  0.00    -0.346 N 
HETATM   44  C16 UNL     1      -2.919   4.740   1.221  1.00  0.00     0.259 A 
ATOM     45  H8  UNL     1      -0.987   4.021   0.582  1.00  0.00     0.163 HD
HETATM   46  N9  UNL     1      -4.198   4.097   1.083  1.00  0.00    -0.119 NA
HETATM   47  N10 UNL     1      -3.918   2.825   0.602  1.00  0.00    -0.274 N 
ATOM     48  H10 UNL     1      -4.605   2.082   0.477  1.00  0.00     0.185 HD
ENDBRANCH  40  42
ENDBRANCH  32  40
ENDBRANCH  27  28
ENDBRANCH   1  27
TORSDOF 7
