REMARK  10 active torsions:
REMARK  status: ('A' for Active; 'I' for Inactive)
REMARK    1  A    between atoms: C4_4  and  C5_5 
REMARK    2  A    between atoms: C5_5  and  C6_6 
REMARK    3  A    between atoms: C6_6  and  C7_7 
REMARK    4  A    between atoms: C7_7  and  C8_8 
REMARK    5  A    between atoms: C8_8  and  C9_9 
REMARK    6  A    between atoms: C9_9  and  C10_10 
REMARK    7  A    between atoms: C10_10  and  C11_11 
REMARK    8  A    between atoms: N1_14  and  C14_15 
REMARK    9  A    between atoms: C22_27  and  C23_28 
REMARK   10  A    between atoms: C23_28  and  C24_29 
ROOT
HETATM    1  C11 UNL     1      -0.477   0.769   0.633  1.00  0.00     0.086 C 
HETATM    2  C12 UNL     1      -1.413   1.618  -0.198  1.00  0.00     0.045 C 
HETATM    3  C13 UNL     1      -2.304   2.512   0.600  1.00  0.00     0.128 C 
HETATM    4  N1  UNL     1      -2.830   3.556  -0.280  1.00  0.00    -0.348 N 
HETATM    5  C17 UNL     1      -3.755   3.227  -1.280  1.00  0.00     0.220 C 
HETATM    6  O1  UNL     1      -3.732   3.928  -2.343  1.00  0.00    -0.273 OA
HETATM    7  C18 UNL     1      -4.754   2.131  -1.196  1.00  0.00     0.103 C 
HETATM    8  C19 UNL     1      -4.716   1.179  -2.340  1.00  0.00     0.018 C 
HETATM    9  C20 UNL     1      -4.567  -0.268  -1.931  1.00  0.00     0.103 C 
HETATM   10  C21 UNL     1      -4.906  -0.512  -0.529  1.00  0.00     0.218 C 
HETATM   11  O2  UNL     1      -6.126  -0.362  -0.207  1.00  0.00    -0.274 OA
HETATM   12  N2  UNL     1      -4.031  -0.896   0.509  1.00  0.00    -0.348 N 
ATOM     13  H2  UNL     1      -4.304  -0.650   1.460  1.00  0.00     0.163 HD
HETATM   14  C22 UNL     1      -2.794  -1.600   0.348  1.00  0.00     0.177 C 
HETATM   15  C27 UNL     1      -1.789  -1.287   1.404  1.00  0.00     0.240 C 
HETATM   16  O3  UNL     1      -1.502  -2.220   2.216  1.00  0.00    -0.271 OA
HETATM   17  N3  UNL     1      -1.134  -0.063   1.584  1.00  0.00    -0.355 N 
ATOM     18  H3  UNL     1      -1.126   0.286   2.542  1.00  0.00     0.162 HD
ENDROOT
BRANCH   1  19
HETATM   19  C10 UNL     1       0.421   0.061  -0.352  1.00  0.00     0.025 C 
BRANCH  19  20
HETATM   20  C9  UNL     1       1.428  -0.822   0.319  1.00  0.00     0.002 C 
BRANCH  20  21
HETATM   21  C8  UNL     1       2.294  -1.501  -0.748  1.00  0.00     0.000 C 
BRANCH  21  22
HETATM   22  C7  UNL     1       3.309  -2.390  -0.075  1.00  0.00     0.000 C 
BRANCH  22  23
HETATM   23  C6  UNL     1       4.201  -3.094  -1.041  1.00  0.00     0.006 C 
BRANCH  23  24
HETATM   24  C5  UNL     1       5.019  -2.175  -1.912  1.00  0.00     0.057 C 
BRANCH  24  25
HETATM   25  C4  UNL     1       5.914  -1.307  -1.128  1.00  0.00     0.011 A 
HETATM   26  C3  UNL     1       5.794   0.001  -1.218  1.00  0.00     0.036 A 
HETATM   27  C2  UNL     1       6.662   0.918  -0.456  1.00  0.00    -0.035 A 
HETATM   28  C1  UNL     1       6.494   2.228  -0.587  1.00  0.00     0.024 C 
HETATM   29  C29 UNL     1       7.686   0.372   0.425  1.00  0.00    -0.018 A 
HETATM   30  C28 UNL     1       7.786  -0.954   0.497  1.00  0.00     0.086 A 
HETATM   31  C30 UNL     1       8.580   1.280   1.209  1.00  0.00     0.052 C 
HETATM   32  N4  UNL     1       6.922  -1.812  -0.261  1.00  0.00    -0.353 N 
HETATM   33 BR1  UNL     1       9.103  -1.714   1.630  1.00  0.00    -0.031 Br
ATOM     34  H4  UNL     1       7.035  -2.822  -0.175  1.00  0.00     0.166 HD
ENDBRANCH  24  25
ENDBRANCH  23  24
ENDBRANCH  22  23
ENDBRANCH  21  22
ENDBRANCH  20  21
ENDBRANCH  19  20
ENDBRANCH   1  19
BRANCH   4  35
HETATM   35  C14 UNL     1      -2.346   4.919  -0.060  1.00  0.00     0.079 C 
HETATM   36  C15 UNL     1      -2.709   5.337   1.347  1.00  0.00     0.032 C 
HETATM   37  C16 UNL     1      -0.829   4.974  -0.256  1.00  0.00     0.032 C 
ENDBRANCH   4  35
BRANCH  14  38
HETATM   38  C23 UNL     1      -3.074  -3.049   0.152  1.00  0.00     0.038 C 
BRANCH  38  39
HETATM   39  C24 UNL     1      -3.784  -3.811   1.190  1.00  0.00    -0.020 C 
HETATM   40  C25 UNL     1      -5.163  -3.390   1.562  1.00  0.00     0.009 C 
HETATM   41  C26 UNL     1      -3.920  -5.305   0.772  1.00  0.00     0.009 C 
ENDBRANCH  38  39
ENDBRANCH  14  38
TORSDOF 10
