REMARK  19 active torsions:
REMARK  status: ('A' for Active; 'I' for Inactive)
REMARK    1  A    between atoms: C2_2  and  C3_3 
REMARK    2  A    between atoms: C2_2  and  C12_21 
REMARK    3  A    between atoms: C3_3  and  C4_4 
REMARK    4  A    between atoms: C4_4  and  C5_5 
REMARK    5  A    between atoms: C5_5  and  C6_6 
REMARK    6  A    between atoms: C5_5  and  N2_18 
REMARK    7  A    between atoms: C6_6  and  O1_7 
REMARK    8  A    between atoms: C6_6  and  C7_9 
REMARK    9  A    between atoms: C7_9  and  C8_10 
REMARK   10  A    between atoms: C8_10  and  N1_11 
REMARK   11  A    between atoms: C8_10  and  C9_15 
REMARK   12  A    between atoms: C22_32  and  C24_34 
REMARK       I    between atoms: C24_34  and  N3_36 
REMARK   13  A    between atoms: N3_36  and  C25_38 
REMARK   14  A    between atoms: C25_38  and  C26_39 
REMARK   15  A    between atoms: C26_39  and  C27_40 
REMARK   16  A    between atoms: C27_40  and  C28_41 
REMARK   17  A    between atoms: C28_41  and  C29_42 
REMARK   18  A    between atoms: C29_42  and  N4_43 
REMARK   19  A    between atoms: C32_49  and  O6_50 
ROOT
HETATM    1  C12 UNL     1      -3.044  -1.059   0.789  1.00  0.00     0.001 C 
HETATM    2  C13 UNL     1      -1.816  -1.888   1.206  1.00  0.00     0.011 C 
HETATM    3  C14 UNL     1      -1.177  -0.616   1.603  1.00  0.00     0.001 C 
HETATM    4  C15 UNL     1       0.270  -0.445   1.473  1.00  0.00    -0.005 C 
HETATM    5  C16 UNL     1       0.926  -1.825   1.645  1.00  0.00     0.006 C 
HETATM    6  C17 UNL     1       2.381  -1.470   1.964  1.00  0.00     0.007 C 
HETATM    7  C18 UNL     1       2.981  -0.906   0.735  1.00  0.00     0.015 C 
HETATM    8  C19 UNL     1       2.202   0.042  -0.059  1.00  0.00     0.003 C 
HETATM    9  C20 UNL     1       2.944   1.384   0.061  1.00  0.00     0.085 C 
HETATM   10  C21 UNL     1       3.907   1.192   1.160  1.00  0.00     0.145 C 
HETATM   11  O4  UNL     1       4.294   2.043   1.926  1.00  0.00    -0.297 OA
HETATM   12  C22 UNL     1       4.296  -0.221   1.141  1.00  0.00     0.101 C 
HETATM   13  C23 UNL     1       4.748  -0.688   2.516  1.00  0.00     0.034 C 
HETATM   14  C30 UNL     1       0.759   0.217   0.217  1.00  0.00    -0.003 C 
HETATM   15  C31 UNL     1      -0.098  -0.214  -0.973  1.00  0.00     0.038 C 
HETATM   16  C32 UNL     1      -1.537   0.082  -0.791  1.00  0.00     0.127 C 
HETATM   17  C33 UNL     1      -2.054   0.082   0.610  1.00  0.00    -0.010 C 
HETATM   18  C34 UNL     1      -2.443   1.424   1.132  1.00  0.00     0.018 C 
ENDROOT
BRANCH   1  19
HETATM   19  C2  UNL     1      -3.992  -0.929   1.934  1.00  0.00    -0.010 C 
HETATM   20  C1  UNL     1      -4.439  -2.310   2.451  1.00  0.00     0.010 C 
BRANCH  19  21
HETATM   21  C3  UNL     1      -5.306  -0.242   1.555  1.00  0.00     0.034 C 
BRANCH  21  22
HETATM   22  C4  UNL     1      -5.979  -1.052   0.555  1.00  0.00     0.005 C 
BRANCH  22  23
HETATM   23  C5  UNL     1      -6.423  -0.885  -0.631  1.00  0.00     0.055 C 
BRANCH  23  24
HETATM   24  C6  UNL     1      -6.398   0.279  -1.444  1.00  0.00     0.072 C 
BRANCH  24  25
HETATM   25  O1  UNL     1      -6.952   0.127  -2.621  1.00  0.00    -0.363 OA
ATOM     26  H1  UNL     1      -6.935   0.906  -3.165  1.00  0.00     0.217 HD
ENDBRANCH  24  25
BRANCH  24  27
HETATM   27  C7  UNL     1      -5.877   1.618  -1.232  1.00  0.00     0.110 C 
BRANCH  27  28
HETATM   28  C8  UNL     1      -6.850   2.592  -0.596  1.00  0.00     0.289 C 
BRANCH  28  29
HETATM   29  N1  UNL     1      -8.028   2.789  -1.369  1.00  0.00    -0.065 N 
ATOM     30  H13 UNL     1      -7.795   3.076  -2.320  1.00  0.00     0.275 HD
ATOM     31  H12 UNL     1      -8.484   1.899  -1.570  1.00  0.00     0.275 HD
ATOM     32  H11 UNL     1      -8.682   3.444  -0.941  1.00  0.00     0.275 HD
ENDBRANCH  28  29
BRANCH  28  33
HETATM   33  C9  UNL     1      -6.172   3.890  -0.381  1.00  0.00     0.204 C 
HETATM   34  O2  UNL     1      -5.129   3.972   0.298  1.00  0.00    -0.646 OA
HETATM   35  O3  UNL     1      -6.715   5.029  -0.950  1.00  0.00    -0.646 OA
ENDBRANCH  28  33
ENDBRANCH  27  28
ENDBRANCH  24  27
ENDBRANCH  23  24
BRANCH  23  36
HETATM   36  N2  UNL     1      -7.051  -2.061  -1.252  1.00  0.00    -0.388 N 
HETATM   37  C10 UNL     1      -8.486  -2.230  -1.233  1.00  0.00     0.149 C 
HETATM   38  C11 UNL     1      -6.260  -3.082  -1.898  1.00  0.00     0.149 C 
ENDBRANCH  23  36
ENDBRANCH  22  23
ENDBRANCH  21  22
ENDBRANCH  19  21
ENDBRANCH   1  19
BRANCH  16  39
HETATM   39  O6  UNL     1      -2.258  -0.820  -1.610  1.00  0.00    -0.395 OA
ATOM     40  H6  UNL     1      -3.181  -0.630  -1.493  1.00  0.00     0.210 HD
ENDBRANCH  16  39
BRANCH  12  41
HETATM   41  C24 UNL     1       5.369  -0.535   0.201  1.00  0.00     0.233 C 
HETATM   42  O5  UNL     1       5.158  -1.291  -0.773  1.00  0.00    -0.272 OA
HETATM   43  N3  UNL     1       6.662   0.009   0.378  1.00  0.00    -0.360 N 
ATOM     44  H3  UNL     1       6.841   0.626   1.170  1.00  0.00     0.162 HD
BRANCH  43  45
HETATM   45  C25 UNL     1       7.744  -0.296  -0.551  1.00  0.00     0.122 C 
BRANCH  45  46
HETATM   46  C26 UNL     1       8.996   0.416  -0.111  1.00  0.00     0.020 C 
BRANCH  46  47
HETATM   47  C27 UNL     1      10.113   0.128  -1.042  1.00  0.00     0.003 C 
BRANCH  47  48
HETATM   48  C28 UNL     1       9.902   0.559  -2.433  1.00  0.00     0.027 C 
BRANCH  48  49
HETATM   49  C29 UNL     1       9.762   2.032  -2.589  1.00  0.00     0.229 C 
BRANCH  49  50
HETATM   50  N4  UNL     1       8.672   2.658  -1.935  1.00  0.00    -0.079 N 
ATOM     51  H43 UNL     1       7.803   2.205  -2.218  1.00  0.00     0.274 HD
ATOM     52  H42 UNL     1       8.695   2.425  -0.942  1.00  0.00     0.274 HD
ATOM     53  H41 UNL     1       8.576   3.668  -2.042  1.00  0.00     0.274 HD
ENDBRANCH  49  50
ENDBRANCH  48  49
ENDBRANCH  47  48
ENDBRANCH  46  47
ENDBRANCH  45  46
ENDBRANCH  43  45
ENDBRANCH  12  41
TORSDOF 19
