REMARK  18 active torsions:
REMARK  status: ('A' for Active; 'I' for Inactive)
REMARK    1  A    between atoms: C2_2  and  C3_3 
REMARK    2  A    between atoms: C3_3  and  C4_4 
REMARK    3  A    between atoms: C4_4  and  C5_5 
REMARK    4  A    between atoms: C5_5  and  O1_6 
REMARK    5  A    between atoms: C5_5  and  N1_8 
REMARK    6  A    between atoms: N1_8  and  C6_9 
REMARK    7  A    between atoms: C6_9  and  C8_11 
REMARK       I    between atoms: C8_11  and  N2_13 
REMARK    8  A    between atoms: N2_13  and  C9_15 
REMARK    9  A    between atoms: C9_15  and  N3_16 
REMARK   10  A    between atoms: C9_15  and  C19_30 
REMARK       I    between atoms: N3_16  and  C10_18 
REMARK       I    between atoms: C10_18  and  N4_20 
REMARK   11  A    between atoms: N4_20  and  C11_22 
REMARK   12  A    between atoms: C11_22  and  C13_24 
REMARK   13  A    between atoms: C19_30  and  O4_31 
REMARK   14  A    between atoms: C19_30  and  C20_33 
REMARK   15  A    between atoms: C20_33  and  O5_34 
REMARK   16  A    between atoms: C20_33  and  C21_36 
REMARK   17  A    between atoms: C21_36  and  C22_37 
REMARK   18  A    between atoms: C22_37  and  C23_38 
ROOT
HETATM    1  C9  UNL     1       0.573  -0.157  -0.870  1.00  0.00     0.220 C 
ENDROOT
BRANCH   1   2
HETATM    2  N2  UNL     1       0.679   1.263  -1.028  1.00  0.00    -0.331 N 
HETATM    3  C8  UNL     1       1.342   2.088  -0.115  1.00  0.00     0.279 C 
HETATM    4  O2  UNL     1       1.885   1.634   0.901  1.00  0.00    -0.265 OA
ATOM      5  H2  UNL     1       0.249   1.693  -1.847  1.00  0.00     0.165 HD
BRANCH   3   6
HETATM    6  C6  UNL     1       1.407   3.550  -0.359  1.00  0.00     0.150 C 
HETATM    7  C7  UNL     1       0.709   4.075  -1.599  1.00  0.00     0.091 C 
BRANCH   6   8
HETATM    8  N1  UNL     1       1.962   4.289   0.364  1.00  0.00    -0.384 NA
BRANCH   8   9
HETATM    9  C5  UNL     1       2.582   5.082   1.179  1.00  0.00     0.190 C 
BRANCH   9  10
HETATM   10  C4  UNL     1       2.647   6.588   1.037  1.00  0.00     0.100 C 
BRANCH  10  11
HETATM   11  C3  UNL     1       3.677   7.098   2.007  1.00  0.00     0.009 C 
BRANCH  11  12
HETATM   12  C2  UNL     1       3.753   8.602   1.876  1.00  0.00    -0.004 C 
HETATM   13  C1  UNL     1       2.400   9.171   2.212  1.00  0.00     0.005 C 
ENDBRANCH  11  12
ENDBRANCH  10  11
ENDBRANCH   9  10
BRANCH   9  14
HETATM   14  O1  UNL     1       3.225   4.658   2.229  1.00  0.00    -0.339 OA
ATOM     15  H1  UNL     1       3.184   3.713   2.318  1.00  0.00     0.220 HD
ENDBRANCH   9  14
ENDBRANCH   8   9
ENDBRANCH   6   8
ENDBRANCH   3   6
ENDBRANCH   1   2
BRANCH   1  16
HETATM   16  N3  UNL     1       1.570  -0.725  -1.779  1.00  0.00    -0.319 N 
HETATM   17  C10 UNL     1       2.645  -1.562  -1.299  1.00  0.00     0.321 C 
HETATM   18  O3  UNL     1       2.608  -1.758  -0.065  1.00  0.00    -0.247 OA
HETATM   19  N4  UNL     1       3.613  -2.087  -2.132  1.00  0.00    -0.316 N 
ATOM     20  H4  UNL     1       3.470  -1.763  -3.089  1.00  0.00     0.170 HD
ATOM     21  H3  UNL     1       1.504  -0.525  -2.777  1.00  0.00     0.166 HD
BRANCH  19  22
HETATM   22  C11 UNL     1       4.727  -2.925  -2.066  1.00  0.00    -0.009 C 
HETATM   23  C12 UNL     1       5.762  -2.684  -3.109  1.00  0.00     0.064 C 
BRANCH  22  24
HETATM   24  C13 UNL     1       5.284  -3.333  -0.716  1.00  0.00     0.031 C 
HETATM   25  C14 UNL     1       4.343  -4.192   0.034  1.00  0.00     0.010 C 
HETATM   26  C15 UNL     1       4.764  -5.645   0.198  1.00  0.00     0.001 C 
HETATM   27  C16 UNL     1       6.220  -5.719   0.537  1.00  0.00     0.000 C 
HETATM   28  C17 UNL     1       6.963  -5.224  -0.702  1.00  0.00     0.001 C 
HETATM   29  C18 UNL     1       6.708  -3.729  -0.750  1.00  0.00     0.010 C 
ENDBRANCH  22  24
ENDBRANCH  19  22
ENDBRANCH   1  16
BRANCH   1  30
HETATM   30  C19 UNL     1      -0.763  -0.758  -1.239  1.00  0.00     0.192 C 
BRANCH  30  31
HETATM   31  O4  UNL     1      -0.497  -2.135  -0.974  1.00  0.00    -0.389 OA
ATOM     32  H4  UNL     1      -1.337  -2.513  -1.206  1.00  0.00     0.210 HD
ENDBRANCH  30  31
BRANCH  30  33
HETATM   33  C20 UNL     1      -1.844  -0.216  -0.428  1.00  0.00     0.189 C 
BRANCH  33  34
HETATM   34  O5  UNL     1      -1.897   1.155  -0.687  1.00  0.00    -0.390 OA
ATOM     35  H5  UNL     1      -2.602   1.509  -0.158  1.00  0.00     0.210 HD
ENDBRANCH  33  34
BRANCH  33  36
HETATM   36  C21 UNL     1      -3.265  -0.726  -0.524  1.00  0.00     0.138 A 
HETATM   37  O8  UNL     1      -3.583  -0.176  -1.904  1.00  0.00    -0.359 OA
HETATM   38  C32 UNL     1      -3.884  -1.490  -1.572  1.00  0.00     0.090 A 
HETATM   39  C33 UNL     1      -3.170  -2.626  -2.303  1.00  0.00     0.049 C 
HETATM   40  C34 UNL     1      -5.371  -1.625  -1.881  1.00  0.00     0.049 C 
BRANCH  36  41
HETATM   41  C22 UNL     1      -4.068  -0.087   0.609  1.00  0.00     0.090 C 
HETATM   42  C29 UNL     1      -4.567   1.290   0.179  1.00  0.00     0.050 C 
HETATM   43  C30 UNL     1      -4.040   2.321   1.103  1.00  0.00     0.180 C 
HETATM   44  O6  UNL     1      -3.186   1.648   1.965  1.00  0.00    -0.321 OA
HETATM   45  C31 UNL     1      -3.315   0.244   1.807  1.00  0.00     0.271 C 
HETATM   46  O7  UNL     1      -2.760  -0.451   2.723  1.00  0.00    -0.264 OA
BRANCH  41  47
HETATM   47  C23 UNL     1      -5.266  -0.900   1.051  1.00  0.00     0.007 C 
HETATM   48  C24 UNL     1      -5.907  -0.264   2.317  1.00  0.00     0.006 C 
HETATM   49  C25 UNL     1      -7.323  -0.780   2.419  1.00  0.00     0.000 C 
HETATM   50  C26 UNL     1      -7.414  -2.121   1.779  1.00  0.00     0.000 C 
HETATM   51  C27 UNL     1      -6.204  -2.997   1.939  1.00  0.00     0.000 C 
HETATM   52  C28 UNL     1      -4.908  -2.287   1.531  1.00  0.00     0.006 C 
ENDBRANCH  41  47
ENDBRANCH  36  41
ENDBRANCH  33  36
ENDBRANCH  30  33
ENDBRANCH   1  30
TORSDOF 18
