REMARK  3 active torsions:
REMARK  status: ('A' for Active; 'I' for Inactive)
REMARK    1  A    between atoms: C2_2  and  O1_3 
REMARK    2  A    between atoms: O1_3  and  C3_4 
REMARK    3  A    between atoms: N1_8  and  O2_9 
ROOT
HETATM    1  C3  UNL     1      -0.352   0.618  -0.302  1.00  0.00     0.278 A 
HETATM    2  C4  UNL     1      -0.390  -0.838  -0.516  1.00  0.00     0.030 A 
HETATM    3  C5  UNL     1      -1.528  -1.266  -0.016  1.00  0.00     0.020 A 
HETATM    4  C6  UNL     1      -2.279  -0.126   0.541  1.00  0.00     0.120 A 
HETATM    5  N1  UNL     1      -1.605   0.953   0.377  1.00  0.00    -0.238 N 
ENDROOT
BRANCH   1   6
HETATM    6  O1  UNL     1       0.687   1.032   0.556  1.00  0.00    -0.333 OA
BRANCH   6   7
HETATM    7  C2  UNL     1       1.988   0.748   0.187  1.00  0.00     0.127 C 
HETATM    8  C1  UNL     1       2.535  -0.376   0.599  1.00  0.00     0.037 C 
ENDBRANCH   6   7
ENDBRANCH   1   6
BRANCH   5   9
HETATM    9  O2  UNL     1      -1.979   2.211   0.765  1.00  0.00    -0.285 OA
ATOM     10  H2  UNL     1      -2.792   2.428   1.206  1.00  0.00     0.245 HD
ENDBRANCH   5   9
TORSDOF 3
