REMARK  1 active torsions:
REMARK  status: ('A' for Active; 'I' for Inactive)
REMARK    1  A    between atoms: C2_2  and  C3_3 
ROOT
HETATM    1  C3  UNL     1      -0.147  -0.165  -0.013  1.00  0.00     0.061 A 
HETATM    2  C4  UNL     1      -1.288  -0.955  -0.061  1.00  0.00     0.135 A 
HETATM    3  N1  UNL     1      -2.337  -0.125   0.055  1.00  0.00    -0.293 N 
ATOM      4  H1  UNL     1      -3.315  -0.416   0.053  1.00  0.00     0.183 HD
HETATM    5  N2  UNL     1      -1.919   1.125   0.172  1.00  0.00    -0.023 NA
HETATM    6  N3  UNL     1      -0.584   1.096   0.130  1.00  0.00    -0.283 N 
ATOM      7  H3  UNL     1       0.018   1.916   0.197  1.00  0.00     0.184 HD
ENDROOT
BRANCH   1   8
HETATM    8  C2  UNL     1       1.239  -0.635  -0.102  1.00  0.00     0.022 C 
HETATM    9  C1  UNL     1       2.206   0.243  -0.039  1.00  0.00     0.013 C 
ENDBRANCH   1   8
TORSDOF 1
