REMARK  12 active torsions:
REMARK  status: ('A' for Active; 'I' for Inactive)
REMARK    1  A    between atoms: O1_2  and  C2_3 
REMARK    2  A    between atoms: C2_3  and  C3_5 
REMARK    3  A    between atoms: C3_5  and  O4_7 
REMARK    4  A    between atoms: O4_7  and  C4_8 
REMARK    5  A    between atoms: C4_8  and  C5_9 
REMARK    6  A    between atoms: C4_8  and  C10_16 
REMARK    7  A    between atoms: C5_9  and  O6_11 
REMARK    8  A    between atoms: O6_11  and  C6_12 
REMARK    9  A    between atoms: C19_27  and  S1_28 
REMARK   10  A    between atoms: S1_28  and  C20_30 
REMARK   11  A    between atoms: C20_30  and  C21_31 
REMARK   12  A    between atoms: C21_31  and  C22_32 
ROOT
HETATM    1  C10 UNL     1      -0.101  -1.066   0.314  1.00  0.00     0.021 A 
HETATM    2  C11 UNL     1       0.073  -2.158  -0.410  1.00  0.00     0.003 A 
HETATM    3  C12 UNL     1      -0.832  -2.950  -1.127  1.00  0.00     0.021 A 
HETATM    4  C13 UNL     1      -0.445  -4.063  -1.825  1.00  0.00    -0.061 A 
HETATM    5  C14 UNL     1      -1.464  -4.854  -2.563  1.00  0.00     0.048 C 
HETATM    6  C15 UNL     1       0.900  -4.404  -1.812  1.00  0.00     0.009 A 
HETATM    7  C16 UNL     1       1.814  -3.642  -1.115  1.00  0.00     0.031 A 
HETATM    8  C17 UNL     1       1.402  -2.525  -0.418  1.00  0.00     0.043 A 
HETATM    9  N1  UNL     1       2.109  -1.704   0.281  1.00  0.00    -0.355 N 
ATOM     10  H1  UNL     1       3.116  -1.754   0.433  1.00  0.00     0.166 HD
HETATM   11  C18 UNL     1       1.231  -0.720   0.800  1.00  0.00     0.051 A 
HETATM   12  C19 UNL     1       1.532   0.290   1.556  1.00  0.00     0.108 C 
ENDROOT
BRANCH   1  13
HETATM   13  C4  UNL     1      -1.386  -0.398   0.536  1.00  0.00     0.268 C 
BRANCH  13  14
HETATM   14  O4  UNL     1      -1.788  -0.418   1.894  1.00  0.00    -0.293 OA
BRANCH  14  15
HETATM   15  C3  UNL     1      -2.910  -1.039   2.379  1.00  0.00     0.360 C 
HETATM   16  O3  UNL     1      -3.649  -1.640   1.583  1.00  0.00    -0.253 OA
BRANCH  15  17
HETATM   17  C2  UNL     1      -3.211  -0.987   3.787  1.00  0.00     0.358 C 
HETATM   18  O2  UNL     1      -2.441  -0.365   4.596  1.00  0.00    -0.253 OA
BRANCH  17  19
HETATM   19  O1  UNL     1      -4.348  -1.617   4.272  1.00  0.00    -0.318 OA
HETATM   20  C1  UNL     1      -4.599  -1.534   5.675  1.00  0.00     0.213 C 
ENDBRANCH  17  19
ENDBRANCH  15  17
ENDBRANCH  14  15
ENDBRANCH  13  14
BRANCH  13  21
HETATM   21  C5  UNL     1      -1.418   0.997   0.043  1.00  0.00     0.294 C 
HETATM   22  O5  UNL     1      -1.771   1.904   0.832  1.00  0.00    -0.262 OA
BRANCH  21  23
HETATM   23  O6  UNL     1      -1.078   1.372  -1.247  1.00  0.00    -0.309 OA
BRANCH  23  24
HETATM   24  C6  UNL     1      -1.105   2.697  -1.728  1.00  0.00     0.060 C 
HETATM   25  C7  UNL     1      -0.654   2.615  -3.193  1.00  0.00     0.045 C 
HETATM   26  C8  UNL     1      -2.473   3.297  -1.734  1.00  0.00     0.045 C 
HETATM   27  C9  UNL     1      -0.158   3.609  -1.025  1.00  0.00     0.045 C 
ENDBRANCH  23  24
ENDBRANCH  21  23
ENDBRANCH  13  21
ENDBRANCH   1  13
BRANCH  12  28
HETATM   28  S1  UNL     1       3.161   0.584   2.062  1.00  0.00     0.041 S 
HETATM   29  O7  UNL     1       3.301   2.028   2.812  1.00  0.00    -0.253 OA
BRANCH  28  30
HETATM   30  C20 UNL     1       4.390   0.271   0.888  1.00  0.00     0.122 C 
BRANCH  30  31
HETATM   31  C21 UNL     1       4.320   1.048  -0.396  1.00  0.00     0.112 C 
BRANCH  31  32
HETATM   32  C22 UNL     1       4.466   2.479  -0.244  1.00  0.00     0.232 C 
HETATM   33  N2  UNL     1       4.106   3.331  -1.334  1.00  0.00    -0.062 NA
HETATM   34  O8  UNL     1       4.894   3.025   0.786  1.00  0.00    -0.277 OA
ENDBRANCH  31  32
ENDBRANCH  30  31
ENDBRANCH  28  30
ENDBRANCH  12  28
TORSDOF 12
