REMARK  8 active torsions:
REMARK  status: ('A' for Active; 'I' for Inactive)
REMARK    1  A    between atoms: N3_5  and  C2_6 
REMARK    2  A    between atoms: C2_6  and  C3_7 
REMARK    3  A    between atoms: C3_7  and  O1_8 
REMARK    4  A    between atoms: C3_7  and  C4_10 
REMARK    5  A    between atoms: C4_10  and  O2_11 
REMARK    6  A    between atoms: C4_10  and  O3_13 
REMARK    7  A    between atoms: C7_19  and  C8_20 
REMARK    8  A    between atoms: C9_23  and  N5_24 
ROOT
HETATM    1  C8  UNL     1      -1.778   0.151   0.151  1.00  0.00     0.083 A 
HETATM    2  N4  UNL     1      -2.373   1.355   0.192  1.00  0.00    -0.186 N 
ATOM      3  H4  UNL     1      -1.787   2.188   0.249  1.00  0.00     0.184 HD
HETATM    4  C9  UNL     1      -3.709   1.508   0.161  1.00  0.00     0.722 A 
HETATM    5  N9  UNL     1      -4.470   0.403   0.084  1.00  0.00    -0.172 N 
ATOM      6  H9  UNL     1      -5.483   0.518   0.060  1.00  0.00     0.186 HD
HETATM    7  C11 UNL     1      -3.971  -0.850   0.037  1.00  0.00     0.137 A 
HETATM    8  N10 UNL     1      -4.474  -2.080  -0.038  1.00  0.00    -0.326 N 
ATOM      9  H10 UNL     1      -5.469  -2.300  -0.078  1.00  0.00     0.169 HD
HETATM   10  C12 UNL     1      -3.473  -3.003  -0.054  1.00  0.00     0.132 A 
HETATM   11  C13 UNL     1      -2.267  -2.310   0.016  1.00  0.00     0.090 A 
HETATM   12  C14 UNL     1      -2.582  -0.963   0.073  1.00  0.00     0.067 A 
HETATM   13  N11 UNL     1      -1.211  -3.256   0.001  1.00  0.00    -0.370 N 
ATOM     14  H11 UNL     1      -0.219  -3.037  -0.095  1.00  0.00     0.161 HD
HETATM   15  C15 UNL     1      -1.769  -4.579   0.144  1.00  0.00     0.245 C 
HETATM   16  N12 UNL     1      -3.159  -4.383  -0.113  1.00  0.00    -0.358 N 
ATOM     17  H12 UNL     1      -3.828  -5.127  -0.310  1.00  0.00     0.162 HD
ENDROOT
BRANCH   1  18
HETATM   18  C7  UNL     1      -0.314   0.075   0.190  1.00  0.00     0.090 A 
HETATM   19  C1  UNL     1       0.387   0.100  -1.009  1.00  0.00     0.147 A 
HETATM   20  N1  UNL     1      -0.316   0.198  -2.242  1.00  0.00    -0.080 NA
HETATM   21  N2  UNL     1       1.733   0.029  -0.969  1.00  0.00    -0.282 N 
HETATM   22  N3  UNL     1       2.393  -0.062   0.161  1.00  0.00    -0.250 N 
ATOM     23  H2  UNL     1       2.255   0.047  -1.845  1.00  0.00     0.188 HD
HETATM   24  C5  UNL     1       1.756  -0.089   1.344  1.00  0.00     0.313 A 
HETATM   25  O4  UNL     1       2.428  -0.178   2.430  1.00  0.00    -0.262 OA
HETATM   26  C6  UNL     1       0.387  -0.020   1.359  1.00  0.00     0.256 A 
HETATM   27  O5  UNL     1      -0.227  -0.044   2.455  1.00  0.00    -0.281 OA
BRANCH  22  28
HETATM   28  C2  UNL     1       3.846  -0.134   0.130  1.00  0.00     0.189 C 
BRANCH  28  29
HETATM   29  C3  UNL     1       4.385   1.289   0.193  1.00  0.00     0.192 C 
BRANCH  29  30
HETATM   30  O1  UNL     1       3.881   1.957  -0.921  1.00  0.00    -0.389 OA
ATOM     31  H1  UNL     1       4.217   2.845  -0.882  1.00  0.00     0.210 HD
ENDBRANCH  29  30
BRANCH  29  32
HETATM   32  C4  UNL     1       5.896   1.193   0.122  1.00  0.00     0.284 C 
BRANCH  32  33
HETATM   33  O2  UNL     1       6.427   2.486   0.082  1.00  0.00    -0.369 OA
ATOM     34  H2  UNL     1       7.374   2.426   0.037  1.00  0.00     0.212 HD
ENDBRANCH  32  33
BRANCH  32  35
HETATM   35  O3  UNL     1       6.284   0.468  -0.991  1.00  0.00    -0.369 OA
ATOM     36  H3  UNL     1       7.231   0.408  -1.036  1.00  0.00     0.212 HD
ENDBRANCH  32  35
ENDBRANCH  29  32
ENDBRANCH  28  29
ENDBRANCH  22  28
ENDBRANCH   1  18
BRANCH   4  37
HETATM   37  N5  UNL     1      -4.320   2.797   0.206  1.00  0.00    -0.004 N 
HETATM   38  N6  UNL     1      -3.887   3.819  -0.514  1.00  0.00    -0.258 N 
HETATM   39  C10 UNL     1      -4.657   4.902  -0.264  1.00  0.00     0.218 A 
ATOM     40  H6  UNL     1      -3.096   3.794  -1.157  1.00  0.00     0.190 HD
HETATM   41  N7  UNL     1      -5.568   4.483   0.636  1.00  0.00    -0.279 N 
HETATM   42  N8  UNL     1      -5.348   3.212   0.906  1.00  0.00    -0.205 N 
ATOM     43  H7  UNL     1      -6.307   5.056   1.042  1.00  0.00     0.189 HD
ATOM     44  H8  UNL     1      -5.890   2.642   1.555  1.00  0.00     0.211 HD
ENDBRANCH   4  37
TORSDOF 8
