REMARK  5 active torsions:
REMARK  status: ('A' for Active; 'I' for Inactive)
REMARK       I    between atoms: C1_2  and  N2_4 
REMARK    1  A    between atoms: N2_4  and  C2_6 
REMARK    2  A    between atoms: C7_11  and  C8_12 
REMARK       I    between atoms: C8_12  and  N3_14 
REMARK    3  A    between atoms: N3_14  and  C9_16 
REMARK    4  A    between atoms: C19_26  and  O3_27 
REMARK    5  A    between atoms: O3_27  and  C20_28 
ROOT
HETATM    1  C9  UNL     1      -1.056  -0.309  -1.871  1.00  0.00     0.035 A 
HETATM    2  C10 UNL     1      -0.525  -0.399  -3.172  1.00  0.00     0.029 A 
HETATM    3  C11 UNL     1       0.721   0.093  -3.482  1.00  0.00     0.003 A 
HETATM    4  C12 UNL     1       1.515   0.699  -2.532  1.00  0.00     0.012 A 
HETATM    5  C13 UNL     1       1.017   0.798  -1.254  1.00  0.00    -0.021 A 
HETATM    6  C14 UNL     1       1.822   1.423  -0.243  1.00  0.00     0.008 A 
HETATM    7  C15 UNL     1       1.308   2.358   0.627  1.00  0.00     0.015 A 
HETATM    8  C16 UNL     1       2.090   2.953   1.593  1.00  0.00     0.001 A 
HETATM    9  C17 UNL     1       3.440   2.624   1.721  1.00  0.00     0.003 A 
HETATM   10  C18 UNL     1       3.960   1.695   0.861  1.00  0.00     0.038 A 
HETATM   11  C19 UNL     1       3.176   1.100  -0.105  1.00  0.00     0.087 A 
HETATM   12  C26 UNL     1      -0.261   0.290  -0.949  1.00  0.00     0.042 A 
ENDROOT
BRANCH   1  13
HETATM   13  N3  UNL     1      -2.348  -0.866  -1.637  1.00  0.00    -0.323 N 
HETATM   14  C8  UNL     1      -3.195  -0.567  -0.545  1.00  0.00     0.258 C 
HETATM   15  O2  UNL     1      -2.826   0.254   0.316  1.00  0.00    -0.267 OA
ATOM     16  H3  UNL     1      -2.692  -1.541  -2.319  1.00  0.00     0.169 HD
BRANCH  14  17
HETATM   17  C7  UNL     1      -4.492  -1.222  -0.436  1.00  0.00     0.059 A 
HETATM   18  C2  UNL     1      -5.326  -1.032   0.678  1.00  0.00     0.051 A 
HETATM   19  C3  UNL     1      -6.614  -1.597   0.678  1.00  0.00     0.030 A 
HETATM   20  C4  UNL     1      -7.090  -2.337  -0.382  1.00  0.00     0.002 A 
HETATM   21  C5  UNL     1      -6.285  -2.530  -1.469  1.00  0.00     0.001 A 
HETATM   22  C6  UNL     1      -5.001  -1.970  -1.477  1.00  0.00     0.019 A 
BRANCH  18  23
HETATM   23  N2  UNL     1      -4.809  -0.402   1.817  1.00  0.00    -0.310 N 
HETATM   24  C1  UNL     1      -5.601   0.236   2.787  1.00  0.00     0.333 C 
HETATM   25  N1  UNL     1      -4.981   0.846   3.940  1.00  0.00    -0.040 NA
HETATM   26  O1  UNL     1      -6.836   0.304   2.702  1.00  0.00    -0.251 OA
ATOM     27  H2  UNL     1      -3.798  -0.406   1.950  1.00  0.00     0.170 HD
ENDBRANCH  18  23
ENDBRANCH  14  17
ENDBRANCH   1  13
BRANCH  11  28
HETATM   28  O3  UNL     1       3.780   0.173  -0.931  1.00  0.00    -0.310 OA
BRANCH  28  29
HETATM   29  C20 UNL     1       5.119  -0.123  -0.768  1.00  0.00     0.076 A 
HETATM   30  C21 UNL     1       5.577  -1.127   0.063  1.00  0.00     0.037 A 
HETATM   31  C22 UNL     1       6.925  -1.374   0.183  1.00  0.00     0.003 A 
HETATM   32  C23 UNL     1       7.854  -0.644  -0.508  1.00  0.00     0.000 A 
HETATM   33  C24 UNL     1       7.421   0.364  -1.344  1.00  0.00     0.003 A 
HETATM   34  C25 UNL     1       6.076   0.598  -1.454  1.00  0.00     0.037 A 
ENDBRANCH  28  29
ENDBRANCH  11  28
TORSDOF 5
