REMARK  8 active torsions:
REMARK  status: ('A' for Active; 'I' for Inactive)
REMARK    1  A    between atoms: N2_5  and  C3_6 
REMARK    2  A    between atoms: N5_14  and  C7_16 
REMARK    3  A    between atoms: C7_16  and  O1_17 
REMARK    4  A    between atoms: C7_16  and  C8_19 
REMARK    5  A    between atoms: C8_19  and  N6_20 
REMARK    6  A    between atoms: C8_19  and  C9_24 
REMARK    7  A    between atoms: C11_26  and  N7_27 
REMARK    8  A    between atoms: N7_27  and  N8_29 
ROOT
HETATM    1  C3  UNL     1      -2.696  -1.556  -0.011  1.00  0.00     0.170 A 
HETATM    2  N3  UNL     1      -3.311  -2.663  -0.376  1.00  0.00    -0.282 N 
ATOM      3  H3  UNL     1      -4.291  -2.595  -0.649  1.00  0.00     0.188 HD
HETATM    4  N4  UNL     1      -2.742  -3.858  -0.412  1.00  0.00    -0.310 N 
ATOM      5  H4  UNL     1      -3.285  -4.669  -0.708  1.00  0.00     0.186 HD
HETATM    6  C4  UNL     1      -1.455  -4.009  -0.062  1.00  0.00     0.109 A 
HETATM    7  C5  UNL     1      -0.775  -2.855   0.330  1.00  0.00     0.052 A 
HETATM    8  C6  UNL     1      -1.338  -1.606   0.376  1.00  0.00     0.079 A 
HETATM    9  N5  UNL     1      -0.776  -0.521   0.722  1.00  0.00    -0.359 N 
ATOM     10  H5  UNL     1      -1.385   0.296   0.682  1.00  0.00     0.162 HD
ENDROOT
BRANCH   9  11
HETATM   11  C7  UNL     1       0.536  -0.242   1.151  1.00  0.00     0.251 C 
BRANCH  11  12
HETATM   12  O1  UNL     1       1.190  -1.228   1.864  1.00  0.00    -0.375 OA
ATOM     13  H1  UNL     1       2.075  -1.040   2.153  1.00  0.00     0.212 HD
ENDBRANCH  11  12
BRANCH  11  14
HETATM   14  C8  UNL     1       1.452   0.230   0.031  1.00  0.00     0.263 C 
BRANCH  14  15
HETATM   15  N6  UNL     1       1.781  -0.843  -0.847  1.00  0.00    -0.068 N 
ATOM     16  H63 UNL     1       2.182  -1.633  -0.341  1.00  0.00     0.275 HD
ATOM     17  H62 UNL     1       0.945  -1.300  -1.212  1.00  0.00     0.275 HD
ATOM     18  H61 UNL     1       2.395  -0.527  -1.598  1.00  0.00     0.275 HD
ENDBRANCH  14  15
BRANCH  14  19
HETATM   19  C9  UNL     1       2.700   0.820   0.675  1.00  0.00     0.194 C 
HETATM   20  C10 UNL     1       3.726   1.236  -0.323  1.00  0.00     0.116 C 
HETATM   21  C11 UNL     1       5.005   0.850   0.312  1.00  0.00     0.118 C 
HETATM   22  N9  UNL     1       4.742   0.067   1.291  1.00  0.00    -0.253 N 
HETATM   23  O2  UNL     1       3.401  -0.159   1.436  1.00  0.00    -0.271 OA
ATOM     24  H9  UNL     1       5.454  -0.343   1.896  1.00  0.00     0.195 HD
BRANCH  21  25
HETATM   25  N7  UNL     1       6.312   1.271  -0.088  1.00  0.00    -0.294 N 
ATOM     26  H7  UNL     1       7.078   1.221   0.583  1.00  0.00     0.187 HD
BRANCH  25  27
HETATM   27  N8  UNL     1       6.561   1.742  -1.356  1.00  0.00    -0.344 N 
ATOM     28  H82 UNL     1       5.784   1.786  -2.015  1.00  0.00     0.176 HD
ATOM     29  H81 UNL     1       7.493   2.042  -1.641  1.00  0.00     0.176 HD
ENDBRANCH  25  27
ENDBRANCH  21  25
ENDBRANCH  14  19
ENDBRANCH  11  14
ENDBRANCH   9  11
BRANCH   1  30
HETATM   30  N2  UNL     1      -3.344  -0.270   0.016  1.00  0.00    -0.216 N 
HETATM   31  N1  UNL     1      -3.100   0.758   0.801  1.00  0.00    -0.293 N 
HETATM   32  C2  UNL     1      -3.940   1.780   0.498  1.00  0.00     0.054 A 
ATOM     33  H1  UNL     1      -2.386   0.783   1.529  1.00  0.00     0.187 HD
HETATM   34  C1  UNL     1      -4.005   3.118   1.137  1.00  0.00     0.072 C 
HETATM   35  C13 UNL     1      -4.761   1.367  -0.541  1.00  0.00     0.116 A 
HETATM   36  C12 UNL     1      -4.350   0.069  -0.812  1.00  0.00     0.172 A 
HETATM   37  N12 UNL     1      -5.765   1.704  -1.369  1.00  0.00    -0.279 N 
HETATM   38  N10 UNL     1      -5.145  -0.337  -1.821  1.00  0.00    -0.266 N 
HETATM   39  N11 UNL     1      -5.973   0.645  -2.133  1.00  0.00    -0.020 NA
ATOM     40  H10 UNL     1      -5.113  -1.252  -2.270  1.00  0.00     0.186 HD
ATOM     41  H12 UNL     1      -6.264   2.593  -1.401  1.00  0.00     0.184 HD
ENDBRANCH   1  30
TORSDOF 8
