REMARK  6 active torsions:
REMARK  status: ('A' for Active; 'I' for Inactive)
REMARK    1  A    between atoms: C2_2  and  C3_3 
REMARK    2  A    between atoms: C3_3  and  N1_4 
REMARK    3  A    between atoms: N1_4  and  C4_6 
REMARK    4  A    between atoms: N3_10  and  C6_12 
REMARK    5  A    between atoms: C9_17  and  N5_18 
REMARK    6  A    between atoms: N5_18  and  C10_20 
ROOT
HETATM    1  C4  UNL     1      -0.218   0.869  -0.332  1.00  0.00     0.707 A 
HETATM    2  N2  UNL     1      -0.878  -0.292  -0.337  1.00  0.00    -0.021 N 
ATOM      3  H2  UNL     1      -1.895  -0.291  -0.409  1.00  0.00     0.203 HD
HETATM    4  C5  UNL     1      -0.224  -1.460  -0.249  1.00  0.00     0.707 A 
HETATM    5  N3  UNL     1      -0.869  -2.559  -0.256  1.00  0.00    -0.221 N 
ATOM      6  H3  UNL     1      -0.330  -3.422  -0.189  1.00  0.00     0.178 HD
HETATM    7  N4  UNL     1       1.139  -1.438  -0.155  1.00  0.00    -0.021 N 
ATOM      8  H4  UNL     1       1.642  -2.323  -0.089  1.00  0.00     0.203 HD
HETATM    9  C9  UNL     1       1.841  -0.293  -0.146  1.00  0.00     0.707 A 
HETATM   10  N6  UNL     1       1.147   0.854  -0.236  1.00  0.00    -0.021 N 
ATOM     11  H6  UNL     1       1.653   1.740  -0.233  1.00  0.00     0.203 HD
ENDROOT
BRANCH   1  12
HETATM   12  N1  UNL     1      -0.836   1.992  -0.415  1.00  0.00    -0.222 N 
ATOM     13  H1  UNL     1      -0.324   2.874  -0.411  1.00  0.00     0.178 HD
BRANCH  12  14
HETATM   14  C3  UNL     1      -2.281   1.968  -0.515  1.00  0.00     0.164 C 
BRANCH  14  15
HETATM   15  C2  UNL     1      -2.756   3.371  -0.581  1.00  0.00    -0.017 C 
HETATM   16  C1  UNL     1      -3.435   3.799  -1.617  1.00  0.00     0.008 C 
ENDBRANCH  14  15
ENDBRANCH  12  14
ENDBRANCH   1  12
BRANCH   9  17
HETATM   17  N5  UNL     1       3.124  -0.335  -0.054  1.00  0.00    -0.221 N 
ATOM     18  H5  UNL     1       3.563  -1.253   0.010  1.00  0.00     0.178 HD
BRANCH  17  19
HETATM   19  C10 UNL     1       3.980   0.811  -0.035  1.00  0.00     0.091 C 
HETATM   20  C11 UNL     1       3.945   1.578   1.243  1.00  0.00     0.032 C 
HETATM   21  C12 UNL     1       5.404   0.483  -0.426  1.00  0.00     0.032 C 
ENDBRANCH  17  19
ENDBRANCH   9  17
BRANCH   5  22
HETATM   22  C6  UNL     1      -2.304  -2.675  -0.352  1.00  0.00     0.091 C 
HETATM   23  C7  UNL     1      -2.697  -4.103  -0.697  1.00  0.00     0.032 C 
HETATM   24  C8  UNL     1      -2.914  -2.330   1.009  1.00  0.00     0.032 C 
ENDBRANCH   5  22
TORSDOF 6
