REMARK  7 active torsions:
REMARK  status: ('A' for Active; 'I' for Inactive)
REMARK    1  A    between atoms: C2_2  and  N1_3 
REMARK    2  A    between atoms: C2_2  and  C3_7 
REMARK    3  A    between atoms: C3_7  and  N2_8 
REMARK    4  A    between atoms: N2_8  and  C4_10 
REMARK    5  A    between atoms: C9_15  and  C10_16 
REMARK    6  A    between atoms: C11_17  and  S1_18 
REMARK    7  A    between atoms: S1_18  and  N3_19 
ROOT
HETATM    1  C4  UNL     1      -0.241  -1.076   0.036  1.00  0.00     0.038 A 
HETATM    2  C5  UNL     1      -1.046  -2.135   0.422  1.00  0.00     0.030 A 
HETATM    3  C6  UNL     1      -0.529  -3.122   1.231  1.00  0.00     0.002 A 
HETATM    4  C7  UNL     1       0.770  -3.090   1.671  1.00  0.00     0.001 A 
HETATM    5  C8  UNL     1       1.552  -2.014   1.265  1.00  0.00     0.014 A 
HETATM    6  C9  UNL     1       1.061  -1.008   0.454  1.00  0.00    -0.009 A 
ENDROOT
BRANCH   1   7
HETATM    7  N2  UNL     1      -0.782  -0.086  -0.820  1.00  0.00    -0.387 N 
ATOM      8  H2  UNL     1      -0.142   0.611  -1.202  1.00  0.00     0.159 HD
BRANCH   7   9
HETATM    9  C3  UNL     1      -2.178   0.008  -1.192  1.00  0.00     0.152 C 
BRANCH   9  10
HETATM   10  C2  UNL     1      -3.041   0.501  -0.056  1.00  0.00     0.197 C 
HETATM   11  C1  UNL     1      -2.508   1.897   0.313  1.00  0.00     0.041 C 
BRANCH  10  12
HETATM   12  N1  UNL     1      -4.384   0.674  -0.576  1.00  0.00    -0.074 N 
ATOM     13  H13 UNL     1      -4.997   1.178   0.064  1.00  0.00     0.274 HD
ATOM     14  H12 UNL     1      -4.429   1.335  -1.351  1.00  0.00     0.274 HD
ATOM     15  H11 UNL     1      -4.737  -0.251  -0.821  1.00  0.00     0.274 HD
ENDBRANCH  10  12
ENDBRANCH   9  10
ENDBRANCH   7   9
ENDBRANCH   1   7
BRANCH   6  16
HETATM   16  C10 UNL     1       1.966   0.067   0.100  1.00  0.00     0.027 C 
HETATM   17  C11 UNL     1       3.222   0.178   0.466  1.00  0.00     0.132 C 
BRANCH  17  18
HETATM   18  S1  UNL     1       4.213   1.552  -0.043  1.00  0.00     0.246 S 
HETATM   19  O1  UNL     1       5.606   1.072  -0.279  1.00  0.00    -0.202 OA
HETATM   20  O2  UNL     1       4.256   2.608   1.021  1.00  0.00    -0.202 OA
BRANCH  18  21
HETATM   21  N3  UNL     1       3.522   2.228  -1.475  1.00  0.00    -0.325 N 
ATOM     22  H32 UNL     1       2.682   1.881  -1.938  1.00  0.00     0.169 HD
ATOM     23  H31 UNL     1       4.093   3.020  -1.769  1.00  0.00     0.169 HD
ENDBRANCH  18  21
ENDBRANCH  17  18
ENDBRANCH   6  16
TORSDOF 7
