REMARK  8 active torsions:
REMARK  status: ('A' for Active; 'I' for Inactive)
REMARK    1  A    between atoms: C2_2  and  C3_3 
REMARK    2  A    between atoms: C3_3  and  N1_4 
REMARK    3  A    between atoms: N1_4  and  C4_6 
REMARK    4  A    between atoms: C4_6  and  N2_8 
REMARK    5  A    between atoms: N2_8  and  N3_10 
REMARK    6  A    between atoms: N3_10  and  C5_11 
REMARK    7  A    between atoms: C5_11  and  C6_12 
REMARK    8  A    between atoms: C5_11  and  C7_14 
ROOT
HETATM    1  N2  UNL     1       0.434  -0.213   0.268  1.00  0.00    -0.279 N 
ATOM      2  H2  UNL     1       0.825   0.685  -0.016  1.00  0.00     0.184 HD
ENDROOT
BRANCH   1   3
HETATM    3  C4  UNL     1       1.261  -1.365   0.346  1.00  0.00     0.183 C 
HETATM    4  S1  UNL     1       0.631  -2.796   0.800  1.00  0.00    -0.040 SA
BRANCH   3   5
HETATM    5  N1  UNL     1       2.639  -1.296   0.035  1.00  0.00    -0.363 N 
ATOM      6  H1  UNL     1       3.205  -2.142   0.102  1.00  0.00     0.162 HD
BRANCH   5   7
HETATM    7  C3  UNL     1       3.268  -0.061  -0.375  1.00  0.00     0.148 C 
BRANCH   7   8
HETATM    8  C2  UNL     1       4.711  -0.229  -0.648  1.00  0.00    -0.018 C 
HETATM    9  C1  UNL     1       5.663   0.417  -0.008  1.00  0.00     0.008 C 
ENDBRANCH   7   8
ENDBRANCH   5   7
ENDBRANCH   3   5
ENDBRANCH   1   3
BRANCH   1  10
HETATM   10  N3  UNL     1      -0.917  -0.326   0.584  1.00  0.00    -0.120 NA
BRANCH  10  11
HETATM   11  C5  UNL     1      -1.635   0.647  -0.208  1.00  0.00     0.217 C 
BRANCH  11  12
HETATM   12  C6  UNL     1      -1.424   0.381  -1.658  1.00  0.00     0.261 C 
HETATM   13  O1  UNL     1      -0.738  -0.537  -2.073  1.00  0.00    -0.305 OA
ENDBRANCH  11  12
BRANCH  11  14
HETATM   14  C7  UNL     1      -3.102   0.634   0.123  1.00  0.00     0.080 A 
HETATM   15  C8  UNL     1      -3.903  -0.479   0.278  1.00  0.00     0.037 A 
HETATM   16  C9  UNL     1      -5.193  -0.064   0.579  1.00  0.00     0.027 A 
HETATM   17  C10 UNL     1      -5.098   1.328   0.592  1.00  0.00     0.142 A 
HETATM   18  O2  UNL     1      -3.871   1.678   0.322  1.00  0.00    -0.325 OA
ENDBRANCH  11  14
ENDBRANCH  10  11
ENDBRANCH   1  10
TORSDOF 8
