REMARK  14 active torsions:
REMARK  status: ('A' for Active; 'I' for Inactive)
REMARK    1  A    between atoms: C2_2  and  C3_3 
REMARK    2  A    between atoms: C3_3  and  C4_4 
REMARK    3  A    between atoms: C4_4  and  C5_5 
REMARK    4  A    between atoms: C8_8  and  O1_9 
REMARK    5  A    between atoms: C9_11  and  S1_12 
REMARK    6  A    between atoms: S1_12  and  C10_13 
REMARK    7  A    between atoms: C10_13  and  C11_14 
REMARK    8  A    between atoms: C12_16  and  C13_17 
REMARK    9  A    between atoms: C13_17  and  N1_18 
REMARK   10  A    between atoms: C15_20  and  O3_21 
REMARK   11  A    between atoms: C16_23  and  O4_24 
REMARK   12  A    between atoms: C17_26  and  O5_27 
REMARK   13  A    between atoms: C18_29  and  C19_30 
REMARK   14  A    between atoms: C19_30  and  O6_31 
ROOT
HETATM    1  C11 UNL     1       0.572  -2.222  -0.860  1.00  0.00     0.087 A 
HETATM    2  O2  UNL     1       0.996  -1.190  -0.171  1.00  0.00    -0.294 OA
HETATM    3  C12 UNL     1       2.220  -1.360   0.221  1.00  0.00     0.163 A 
HETATM    4  N2  UNL     1       2.625  -2.546  -0.222  1.00  0.00    -0.337 N 
ATOM      5  H2  UNL     1       3.546  -2.957  -0.070  1.00  0.00     0.168 HD
HETATM    6  C20 UNL     1       1.622  -3.109  -0.900  1.00  0.00     0.038 A 
HETATM    7  C21 UNL     1       1.639  -4.461  -1.578  1.00  0.00     0.071 C 
ENDROOT
BRANCH   3   8
HETATM    8  C13 UNL     1       3.030  -0.428   1.011  1.00  0.00     0.143 C 
BRANCH   8   9
HETATM    9  N1  UNL     1       3.869   0.451   0.316  1.00  0.00    -0.374 N 
HETATM   10  C14 UNL     1       3.288   1.318  -0.640  1.00  0.00     0.157 C 
HETATM   11  C15 UNL     1       3.996   2.631  -0.654  1.00  0.00     0.167 C 
HETATM   12  C16 UNL     1       5.496   2.494  -0.748  1.00  0.00     0.179 C 
HETATM   13  C17 UNL     1       6.038   1.376   0.071  1.00  0.00     0.174 C 
HETATM   14  C18 UNL     1       5.181   0.101  -0.016  1.00  0.00     0.138 C 
BRANCH  11  15
HETATM   15  O3  UNL     1       3.583   3.401   0.404  1.00  0.00    -0.391 OA
ATOM     16  H3  UNL     1       4.034   4.237   0.395  1.00  0.00     0.210 HD
ENDBRANCH  11  15
BRANCH  12  17
HETATM   17  O4  UNL     1       6.063   3.685  -0.300  1.00  0.00    -0.390 OA
ATOM     18  H4  UNL     1       7.007   3.599  -0.359  1.00  0.00     0.210 HD
ENDBRANCH  12  17
BRANCH  13  19
HETATM   19  O5  UNL     1       6.201   1.748   1.420  1.00  0.00    -0.391 OA
ATOM     20  H5  UNL     1       6.547   1.034   1.943  1.00  0.00     0.210 HD
ENDBRANCH  13  19
BRANCH  14  21
HETATM   21  C19 UNL     1       5.839  -0.938   0.852  1.00  0.00     0.192 C 
BRANCH  21  22
HETATM   22  O6  UNL     1       7.135  -1.127   0.342  1.00  0.00    -0.399 OA
ATOM     23  H6  UNL     1       7.550  -1.783   0.890  1.00  0.00     0.209 HD
ENDBRANCH  21  22
ENDBRANCH  14  21
ENDBRANCH   8   9
ENDBRANCH   3   8
BRANCH   1  24
HETATM   24  C10 UNL     1      -0.751  -2.443  -1.489  1.00  0.00     0.143 C 
BRANCH  24  25
HETATM   25  S1  UNL     1      -1.897  -1.093  -1.248  1.00  0.00    -0.128 SA
BRANCH  25  26
HETATM   26  C9  UNL     1      -2.376  -0.881   0.481  1.00  0.00     0.212 C 
HETATM   27  C8  UNL     1      -3.168  -2.059   1.001  1.00  0.00     0.157 C 
HETATM   28  C7  UNL     1      -4.417  -2.166   0.193  1.00  0.00     0.037 C 
HETATM   29  C6  UNL     1      -4.898  -0.877  -0.375  1.00  0.00     0.034 C 
HETATM   30  C5  UNL     1      -4.330   0.353   0.207  1.00  0.00     0.123 C 
HETATM   31  O7  UNL     1      -3.066   0.257   0.728  1.00  0.00    -0.368 OA
BRANCH  27  32
HETATM   32  O1  UNL     1      -3.469  -1.832   2.328  1.00  0.00    -0.392 OA
ATOM     33  H1  UNL     1      -2.673  -1.764   2.843  1.00  0.00     0.210 HD
ENDBRANCH  27  32
BRANCH  30  34
HETATM   34  C4  UNL     1      -5.208   1.035   1.232  1.00  0.00     0.032 C 
BRANCH  34  35
HETATM   35  C3  UNL     1      -6.534   1.470   0.740  1.00  0.00     0.002 C 
BRANCH  35  36
HETATM   36  C2  UNL     1      -6.465   2.464  -0.401  1.00  0.00    -0.004 C 
HETATM   37  C1  UNL     1      -5.751   3.722  -0.039  1.00  0.00     0.005 C 
ENDBRANCH  35  36
ENDBRANCH  34  35
ENDBRANCH  30  34
ENDBRANCH  25  26
ENDBRANCH  24  25
ENDBRANCH   1  24
TORSDOF 14
