REMARK  11 active torsions:
REMARK  status: ('A' for Active; 'I' for Inactive)
REMARK       I    between atoms: C2_2  and  N1_4 
REMARK    1  A    between atoms: N1_4  and  C3_6 
REMARK    2  A    between atoms: C3_6  and  C4_7 
REMARK    3  A    between atoms: C4_7  and  N2_8 
REMARK    4  A    between atoms: N2_8  and  C5_10 
REMARK    5  A    between atoms: C6_13  and  C7_14 
REMARK    6  A    between atoms: C7_14  and  O2_15 
REMARK    7  A    between atoms: C7_14  and  N4_17 
REMARK    8  A    between atoms: N4_17  and  N5_19 
REMARK    9  A    between atoms: C10_26  and  N8_27 
REMARK   10  A    between atoms: C11_32  and  N10_33 
REMARK   11  A    between atoms: N10_33  and  C12_35 
ROOT
HETATM    1  C5  UNL     1       1.314  -0.046  -0.376  1.00  0.00     0.679 A 
HETATM    2  N3  UNL     1       1.366   1.279  -0.478  1.00  0.00    -0.185 N 
ATOM      3  H3  UNL     1       2.287   1.714  -0.531  1.00  0.00     0.184 HD
HETATM    4  C6  UNL     1       0.266   2.106  -0.517  1.00  0.00     0.131 A 
HETATM    5  C9  UNL     1      -0.961   1.521  -0.449  1.00  0.00     0.112 A 
HETATM    6  N7  UNL     1      -2.100   2.231  -0.510  1.00  0.00    -0.187 N 
ATOM      7  H7  UNL     1      -2.061   3.247  -0.593  1.00  0.00     0.184 HD
HETATM    8  C10 UNL     1      -3.298   1.604  -0.462  1.00  0.00     0.678 A 
HETATM    9  N9  UNL     1      -3.358   0.262  -0.354  1.00  0.00    -0.175 N 
ATOM     10  H9  UNL     1      -4.267  -0.199  -0.318  1.00  0.00     0.186 HD
HETATM   11  C11 UNL     1      -2.245  -0.474  -0.294  1.00  0.00     0.148 A 
HETATM   12  C16 UNL     1      -0.991   0.125  -0.340  1.00  0.00     0.123 A 
HETATM   13  N12 UNL     1       0.118  -0.643  -0.304  1.00  0.00    -0.186 N 
ATOM     14  H12 UNL     1       0.046  -1.657  -0.224  1.00  0.00     0.184 HD
ENDROOT
BRANCH   1  15
HETATM   15  N2  UNL     1       2.424  -0.748  -0.347  1.00  0.00    -0.224 N 
ATOM     16  H2  UNL     1       2.387  -1.764  -0.269  1.00  0.00     0.177 HD
BRANCH  15  17
HETATM   17  C4  UNL     1       3.684  -0.078  -0.425  1.00  0.00     0.157 C 
BRANCH  17  18
HETATM   18  C3  UNL     1       4.755  -0.707   0.412  1.00  0.00     0.143 C 
BRANCH  18  19
HETATM   19  N1  UNL     1       5.003  -2.091   0.011  1.00  0.00    -0.360 N 
HETATM   20  C2  UNL     1       5.985  -2.869   0.680  1.00  0.00     0.213 C 
HETATM   21  C1  UNL     1       6.227  -4.273   0.263  1.00  0.00     0.117 C 
HETATM   22  O1  UNL     1       6.669  -2.412   1.628  1.00  0.00    -0.274 OA
ATOM     23  H1  UNL     1       4.467  -2.500  -0.754  1.00  0.00     0.162 HD
ENDBRANCH  18  19
ENDBRANCH  17  18
ENDBRANCH  15  17
ENDBRANCH   1  15
BRANCH   4  24
HETATM   24  C7  UNL     1       0.469   3.522  -0.645  1.00  0.00     0.185 C 
BRANCH  24  25
HETATM   25  O2  UNL     1       1.413   3.832  -1.489  1.00  0.00    -0.343 OA
ATOM     26  H2  UNL     1       1.547   4.769  -1.574  1.00  0.00     0.219 HD
ENDBRANCH  24  25
BRANCH  24  27
HETATM   27  N4  UNL     1      -0.141   4.613  -0.036  1.00  0.00    -0.278 N 
ATOM     28  H4  UNL     1      -0.881   4.456   0.648  1.00  0.00     0.189 HD
BRANCH  27  29
HETATM   29  N5  UNL     1       0.244   5.923  -0.346  1.00  0.00    -0.297 N 
HETATM   30  C8  UNL     1       0.142   6.908   0.438  1.00  0.00     0.207 C 
HETATM   31  N6  UNL     1       0.558   8.187   0.032  1.00  0.00    -0.095 NA
ATOM     32  H5  UNL     1       0.635   6.094  -1.272  1.00  0.00     0.187 HD
ENDBRANCH  27  29
ENDBRANCH  24  27
ENDBRANCH   4  24
BRANCH  11  33
HETATM   33  N10 UNL     1      -2.286  -1.761  -0.191  1.00  0.00    -0.346 N 
ATOM     34  H10 UNL     1      -1.415  -2.291  -0.147  1.00  0.00     0.163 HD
BRANCH  33  35
HETATM   35  C12 UNL     1      -3.544  -2.457  -0.138  1.00  0.00     0.285 C 
HETATM   36  C13 UNL     1      -4.162  -2.371   1.214  1.00  0.00     0.056 C 
HETATM   37  C14 UNL     1      -4.049  -3.736   1.804  1.00  0.00     0.031 C 
HETATM   38  C15 UNL     1      -3.859  -4.642   0.610  1.00  0.00     0.235 C 
HETATM   39  N11 UNL     1      -3.292  -3.850  -0.436  1.00  0.00    -0.054 N 
ATOM     40 2H11 UNL     1      -3.628  -4.121  -1.360  1.00  0.00     0.279 HD
ATOM     41 1H11 UNL     1      -2.302  -4.047  -0.585  1.00  0.00     0.279 HD
ENDBRANCH  33  35
ENDBRANCH  11  33
BRANCH   8  42
HETATM   42  N8  UNL     1      -4.353   2.329  -0.523  1.00  0.00    -0.234 N 
ATOM     43  H82 UNL     1      -4.308   3.345  -0.605  1.00  0.00     0.174 HD
ATOM     44  H81 UNL     1      -5.256   1.856  -0.487  1.00  0.00     0.174 HD
ENDBRANCH   8  42
TORSDOF 11
