REMARK  11 active torsions:
REMARK  status: ('A' for Active; 'I' for Inactive)
REMARK    1  A    between atoms: C2_2  and  N1_3 
REMARK       I    between atoms: C3_5  and  N2_6 
REMARK       I    between atoms: C3_5  and  N3_11 
REMARK    2  A    between atoms: N2_6  and  C4_7 
REMARK    3  A    between atoms: C4_7  and  O1_9 
REMARK    4  A    between atoms: N3_11  and  N4_13 
REMARK    5  A    between atoms: N4_13  and  C6_14 
REMARK    6  A    between atoms: N4_13  and  C10_28 
REMARK    7  A    between atoms: C6_14  and  C7_15 
REMARK    8  A    between atoms: C7_15  and  C8_16 
REMARK    9  A    between atoms: C8_16  and  N5_17 
REMARK       I    between atoms: N5_17  and  C9_19 
REMARK       I    between atoms: C9_19  and  N7_23 
REMARK   10  A    between atoms: N7_23  and  N8_25 
REMARK       I    between atoms: N10_32  and  C12_33 
REMARK   11  A    between atoms: C13_38  and  N13_39 
ROOT
HETATM    1  N4  UNL     1      -0.518   0.045   0.504  1.00  0.00    -0.274 N 
ENDROOT
BRANCH   1   2
HETATM    2  N3  UNL     1      -1.535   0.981   0.639  1.00  0.00    -0.256 N 
HETATM    3  C3  UNL     1      -1.840   1.884  -0.397  1.00  0.00     0.272 C 
HETATM    4  N1  UNL     1      -1.696   3.169  -0.070  1.00  0.00    -0.350 N 
HETATM    5  N2  UNL     1      -2.273   1.584  -1.662  1.00  0.00    -0.350 NA
ATOM      6  H1  UNL     1      -1.908   3.890  -0.759  1.00  0.00     0.163 HD
ATOM      7  H3  UNL     1      -2.072   1.015   1.506  1.00  0.00     0.191 HD
BRANCH   4   8
HETATM    8  C2  UNL     1      -1.251   3.547   1.225  1.00  0.00     0.119 C 
HETATM    9  C1  UNL     1      -2.174   4.666   1.715  1.00  0.00     0.026 C 
ENDBRANCH   4   8
BRANCH   5  10
HETATM   10  C4  UNL     1      -2.693   1.292  -2.890  1.00  0.00     0.189 C 
HETATM   11  C5  UNL     1      -2.988   2.475  -3.845  1.00  0.00     0.114 C 
BRANCH  10  12
HETATM   12  O1  UNL     1      -2.916   0.152  -3.474  1.00  0.00    -0.339 OA
ATOM     13  H1  UNL     1      -3.216  -0.057  -4.351  1.00  0.00     0.220 HD
ENDBRANCH  10  12
ENDBRANCH   5  10
ENDBRANCH   1   2
BRANCH   1  14
HETATM   14  C6  UNL     1       0.855   0.405   0.506  1.00  0.00     0.152 C 
BRANCH  14  15
HETATM   15  C7  UNL     1       1.490   0.118  -0.834  1.00  0.00     0.042 C 
BRANCH  15  16
HETATM   16  C8  UNL     1       2.966   0.499  -0.666  1.00  0.00     0.140 C 
BRANCH  16  17
HETATM   17  N5  UNL     1       3.646   0.220  -1.894  1.00  0.00    -0.225 N 
HETATM   18  C9  UNL     1       5.074   0.407  -1.898  1.00  0.00     0.691 C 
HETATM   19  N6  UNL     1       5.567   1.238  -2.715  1.00  0.00    -0.233 N 
HETATM   20  N7  UNL     1       5.791  -0.383  -0.973  1.00  0.00    -0.072 N 
ATOM     21  H62 UNL     1       5.049   1.809  -3.383  1.00  0.00     0.174 HD
ATOM     22  H61 UNL     1       6.578   1.370  -2.718  1.00  0.00     0.174 HD
ATOM     23  H7  UNL     1       5.558  -1.372  -0.880  1.00  0.00     0.212 HD
ATOM     24  H5  UNL     1       3.145  -0.095  -2.724  1.00  0.00     0.177 HD
BRANCH  20  25
HETATM   25  N8  UNL     1       6.799   0.145  -0.190  1.00  0.00    -0.024 N 
HETATM   26  O2  UNL     1       6.649   1.229   0.429  1.00  0.00    -0.516 OA
HETATM   27  O3  UNL     1       8.022  -0.474  -0.038  1.00  0.00    -0.516 OA
ENDBRANCH  20  25
ENDBRANCH  16  17
ENDBRANCH  15  16
ENDBRANCH  14  15
ENDBRANCH   1  14
BRANCH   1  28
HETATM   28  C10 UNL     1      -0.965  -1.324   0.408  1.00  0.00     0.146 C 
HETATM   29  N9  UNL     1      -0.745  -2.169  -0.502  1.00  0.00    -0.359 N 
HETATM   30  C11 UNL     1      -1.389  -3.449  -0.209  1.00  0.00     0.253 C 
ATOM     31  H9  UNL     1      -0.189  -1.983  -1.336  1.00  0.00     0.162 HD
HETATM   32  N10 UNL     1      -1.913  -3.319   1.125  1.00  0.00    -0.305 N 
HETATM   33  C12 UNL     1      -2.449  -4.316   1.981  1.00  0.00     0.187 C 
HETATM   34  C13 UNL     1      -1.795  -1.917   1.488  1.00  0.00     0.357 C 
HETATM   35  N11 UNL     1      -3.620  -4.806   1.785  1.00  0.00    -0.374 N 
HETATM   36  N12 UNL     1      -1.703  -4.813   3.090  1.00  0.00    -0.064 NA
ATOM     37 2H11 UNL     1      -4.154  -4.450   0.992  1.00  0.00     0.158 HD
ATOM     38 1H11 UNL     1      -4.005  -5.523   2.400  1.00  0.00     0.158 HD
BRANCH  34  39
HETATM   39  N13 UNL     1      -1.024  -1.839   2.702  1.00  0.00    -0.051 N 
ATOM     40 3H13 UNL     1      -0.104  -2.271   2.621  1.00  0.00     0.277 HD
ATOM     41 2H13 UNL     1      -0.705  -0.894   2.915  1.00  0.00     0.277 HD
ATOM     42 1H13 UNL     1      -1.594  -2.246   3.444  1.00  0.00     0.277 HD
ENDBRANCH  34  39
ENDBRANCH   1  28
TORSDOF 11
