REMARK  8 active torsions:
REMARK  status: ('A' for Active; 'I' for Inactive)
REMARK    1  A    between atoms: S1_2  and  C1_4 
REMARK    2  A    between atoms: S1_2  and  C9_16 
REMARK    3  A    between atoms: C1_4  and  C2_5 
REMARK    4  A    between atoms: C2_5  and  C3_6 
REMARK    5  A    between atoms: C3_6  and  C4_7 
REMARK    6  A    between atoms: C4_7  and  C5_8 
REMARK    7  A    between atoms: C5_8  and  C6_9 
REMARK    8  A    between atoms: C13_21  and  O4_22 
ROOT
HETATM    1  C1  UNL     1      -0.287  -0.666   2.094  1.00  0.00     0.141 C 
ENDROOT
BRANCH   1   2
HETATM    2  S1  UNL     1      -1.291  -1.437   0.875  1.00  0.00     0.153 S 
HETATM    3  O1  UNL     1      -0.627  -1.319  -0.485  1.00  0.00    -0.227 OA
HETATM    4  O2  UNL     1      -1.305  -2.943   1.154  1.00  0.00    -0.227 OA
BRANCH   2   5
HETATM    5  C9  UNL     1      -2.953  -0.925   0.809  1.00  0.00     0.161 C 
HETATM    6  C10 UNL     1      -3.655  -1.899  -0.177  1.00  0.00     0.190 C 
HETATM    7  O3  UNL     1      -5.005  -1.710   0.027  1.00  0.00    -0.390 OA
HETATM    8  C11 UNL     1      -5.390  -0.543  -0.626  1.00  0.00     0.170 C 
HETATM    9  C12 UNL     1      -4.301   0.450  -0.770  1.00  0.00     0.059 C 
HETATM   10  C13 UNL     1      -3.258   0.435   0.329  1.00  0.00     0.140 C 
BRANCH  10  11
HETATM   11  O4  UNL     1      -3.855   1.232   1.351  1.00  0.00    -0.394 OA
ATOM     12  H4  UNL     1      -4.052   2.108   1.042  1.00  0.00     0.210 HD
ENDBRANCH  10  11
ENDBRANCH   2   5
ENDBRANCH   1   2
BRANCH   1  13
HETATM   13  C2  UNL     1      -0.085   0.793   1.969  1.00  0.00     0.015 C 
BRANCH  13  14
HETATM   14  C3  UNL     1       0.620   1.237   0.712  1.00  0.00     0.001 C 
BRANCH  14  15
HETATM   15  C4  UNL     1       2.005   0.647   0.585  1.00  0.00     0.007 C 
BRANCH  15  16
HETATM   16  C5  UNL     1       2.570   1.198  -0.733  1.00  0.00     0.076 C 
BRANCH  16  17
HETATM   17  C6  UNL     1       3.926   0.707  -0.998  1.00  0.00     0.072 A 
HETATM   18  N1  UNL     1       4.951   1.488  -1.129  1.00  0.00    -0.378 N 
HETATM   19  C7  UNL     1       6.127   0.719  -1.380  1.00  0.00     0.140 A 
ATOM     20  H1  UNL     1       4.922   2.505  -1.062  1.00  0.00     0.160 HD
HETATM   21  C8  UNL     1       5.727  -0.738  -1.297  1.00  0.00     0.140 A 
HETATM   22  N2  UNL     1       4.290  -0.640  -1.144  1.00  0.00    -0.378 N 
ATOM     23  H2  UNL     1       3.643  -1.428  -1.143  1.00  0.00     0.160 HD
ENDBRANCH  16  17
ENDBRANCH  15  16
ENDBRANCH  14  15
ENDBRANCH  13  14
ENDBRANCH   1  13
TORSDOF 8
