REMARK  13 active torsions:
REMARK  status: ('A' for Active; 'I' for Inactive)
REMARK    1  A    between atoms: C4_4  and  O1_5 
REMARK    2  A    between atoms: C8_10  and  C9_11 
REMARK    3  A    between atoms: C9_11  and  C10_12 
REMARK    4  A    between atoms: C10_12  and  N1_13 
REMARK    5  A    between atoms: C10_12  and  C23_35 
REMARK       I    between atoms: N1_13  and  C11_15 
REMARK    6  A    between atoms: C11_15  and  C12_17 
REMARK    7  A    between atoms: C12_17  and  N2_18 
REMARK    8  A    between atoms: C12_17  and  C18_27 
REMARK       I    between atoms: N2_18  and  C13_20 
REMARK    9  A    between atoms: C13_20  and  O4_22 
REMARK   10  A    between atoms: O4_22  and  C14_23 
REMARK   11  A    between atoms: C18_27  and  O5_28 
REMARK   12  A    between atoms: C18_27  and  N3_30 
REMARK       I    between atoms: C23_35  and  N4_37 
REMARK   13  A    between atoms: N4_37  and  C24_39 
ROOT
HETATM    1  C10 UNL     1       1.228  -0.184   0.496  1.00  0.00     0.180 C 
ENDROOT
BRANCH   1   2
HETATM    2  C9  UNL     1       2.307   0.662   1.000  1.00  0.00     0.074 C 
BRANCH   2   3
HETATM    3  C8  UNL     1       2.177   1.343   2.274  1.00  0.00    -0.044 A 
HETATM    4  C2  UNL     1       2.256   0.603   3.438  1.00  0.00    -0.052 A 
HETATM    5  C1  UNL     1       2.424  -0.849   3.501  1.00  0.00     0.049 C 
HETATM    6  C3  UNL     1       2.170   1.295   4.631  1.00  0.00     0.043 A 
HETATM    7  C4  UNL     1       2.013   2.663   4.697  1.00  0.00     0.066 A 
HETATM    8  C5  UNL     1       1.938   3.373   3.523  1.00  0.00     0.043 A 
HETATM    9  C6  UNL     1       2.019   2.722   2.290  1.00  0.00    -0.052 A 
HETATM   10  C7  UNL     1       1.947   3.556   1.063  1.00  0.00     0.049 C 
BRANCH   7  11
HETATM   11  O1  UNL     1       1.926   3.375   5.879  1.00  0.00    -0.361 OA
ATOM     12  H1  UNL     1       1.818   4.318   5.924  1.00  0.00     0.217 HD
ENDBRANCH   7  11
ENDBRANCH   2   3
ENDBRANCH   1   2
BRANCH   1  13
HETATM   13  N1  UNL     1      -0.060   0.360   0.269  1.00  0.00    -0.345 N 
HETATM   14  C11 UNL     1      -1.293  -0.300   0.432  1.00  0.00     0.249 C 
HETATM   15  O2  UNL     1      -1.391  -1.513   0.823  1.00  0.00    -0.271 OA
ATOM     16  H1  UNL     1      -0.098   1.330  -0.045  1.00  0.00     0.163 HD
BRANCH  14  17
HETATM   17  C12 UNL     1      -2.597   0.357   0.153  1.00  0.00     0.253 C 
BRANCH  17  18
HETATM   18  N2  UNL     1      -3.372  -0.640  -0.638  1.00  0.00    -0.316 N 
HETATM   19  C13 UNL     1      -3.836  -0.374  -1.943  1.00  0.00     0.362 C 
HETATM   20  O3  UNL     1      -3.646   0.703  -2.555  1.00  0.00    -0.238 OA
ATOM     21  H2  UNL     1      -3.574  -1.548  -0.220  1.00  0.00     0.166 HD
BRANCH  19  22
HETATM   22  O4  UNL     1      -4.569  -1.349  -2.649  1.00  0.00    -0.294 OA
BRANCH  22  23
HETATM   23  C14 UNL     1      -5.057  -1.136  -3.950  1.00  0.00     0.061 C 
HETATM   24  C15 UNL     1      -5.788  -2.377  -4.400  1.00  0.00     0.046 C 
HETATM   25  C16 UNL     1      -3.937  -0.852  -4.938  1.00  0.00     0.046 C 
HETATM   26  C17 UNL     1      -6.065   0.003  -3.973  1.00  0.00     0.046 C 
ENDBRANCH  22  23
ENDBRANCH  19  22
ENDBRANCH  17  18
BRANCH  17  27
HETATM   27  C18 UNL     1      -3.358   0.609   1.397  1.00  0.00     0.146 C 
BRANCH  27  28
HETATM   28  O5  UNL     1      -4.450  -0.117   1.471  1.00  0.00    -0.347 OA
ATOM     29  H5  UNL     1      -4.939   0.045   2.270  1.00  0.00     0.219 HD
ENDBRANCH  27  28
BRANCH  27  30
HETATM   30  N3  UNL     1      -3.094   1.470   2.453  1.00  0.00    -0.363 N 
HETATM   31  C19 UNL     1      -4.001   1.580   3.630  1.00  0.00     0.124 C 
HETATM   32  C20 UNL     1      -3.100   1.869   4.780  1.00  0.00     0.021 C 
HETATM   33  C21 UNL     1      -1.752   2.079   4.197  1.00  0.00     0.021 C 
HETATM   34  C22 UNL     1      -2.041   2.394   2.724  1.00  0.00     0.124 C 
ENDBRANCH  27  30
ENDBRANCH  17  27
ENDBRANCH  14  17
ENDBRANCH   1  13
BRANCH   1  35
HETATM   35  C23 UNL     1       1.698  -0.724  -0.843  1.00  0.00     0.241 C 
HETATM   36  O6  UNL     1       0.925  -0.598  -1.814  1.00  0.00    -0.271 OA
HETATM   37  N4  UNL     1       2.946  -1.350  -1.033  1.00  0.00    -0.355 N 
ATOM     38  H4  UNL     1       3.585  -1.458  -0.246  1.00  0.00     0.162 HD
BRANCH  37  39
HETATM   39  C24 UNL     1       3.328  -1.846  -2.356  1.00  0.00     0.084 C 
HETATM   40  C25 UNL     1       3.537  -3.331  -2.343  1.00  0.00     0.025 C 
HETATM   41  C26 UNL     1       4.670  -3.677  -3.280  1.00  0.00     0.002 C 
HETATM   42  C27 UNL     1       5.950  -3.098  -2.777  1.00  0.00     0.000 C 
HETATM   43  C28 UNL     1       5.840  -1.642  -2.461  1.00  0.00     0.002 C 
HETATM   44  C29 UNL     1       4.508  -1.051  -2.829  1.00  0.00     0.025 C 
ENDBRANCH  37  39
ENDBRANCH   1  35
TORSDOF 13
