REMARK  15 active torsions:
REMARK  status: ('A' for Active; 'I' for Inactive)
REMARK    1  A    between atoms: N3_6  and  C4_7 
REMARK    2  A    between atoms: C5_9  and  N4_10 
REMARK    3  A    between atoms: N4_10  and  C6_12 
REMARK    4  A    between atoms: C7_13  and  O2_14 
REMARK    5  A    between atoms: N5_16  and  C8_17 
REMARK    6  A    between atoms: C8_17  and  C9_18 
REMARK    7  A    between atoms: C10_21  and  O5_22 
REMARK    8  A    between atoms: C11_24  and  C12_25 
REMARK    9  A    between atoms: N6_26  and  C13_28 
REMARK   10  A    between atoms: C13_28  and  C14_29 
REMARK       I    between atoms: C14_29  and  N7_31 
REMARK   11  A    between atoms: N7_31  and  N8_33 
REMARK   12  A    between atoms: C15_35  and  C16_36 
REMARK   13  A    between atoms: C17_37  and  O7_38 
REMARK   14  A    between atoms: C21_43  and  N9_44 
REMARK   15  A    between atoms: N10_50  and  O11_51 
ROOT
HETATM    1  N1  UNL     1      10.355   4.514   1.261  1.00  0.00    -0.191 NA
HETATM    2  C1  UNL     1       9.785   3.522   1.095  1.00  0.00     0.108 C 
HETATM    3  C2  UNL     1       9.055   2.288   0.895  1.00  0.00     0.153 A 
HETATM    4  C3  UNL     1       7.678   2.288   0.882  1.00  0.00     0.152 A 
HETATM    5  N2  UNL     1       6.985   3.503   1.068  1.00  0.00    -0.080 NA
HETATM    6  N3  UNL     1       6.951   1.148   0.696  1.00  0.00    -0.243 N 
HETATM    7  C24 UNL     1       7.641   0.029   0.529  1.00  0.00     0.333 A 
HETATM    8  O12 UNL     1       7.021  -1.047   0.356  1.00  0.00    -0.246 OA
HETATM    9  N11 UNL     1       8.993  -0.014   0.536  1.00  0.00    -0.274 N 
ATOM     10  H11 UNL     1       9.470  -0.906   0.402  1.00  0.00     0.173 HD
HETATM   11  C25 UNL     1       9.713   1.102   0.717  1.00  0.00     0.273 A 
HETATM   12  O13 UNL     1      10.973   1.079   0.726  1.00  0.00    -0.266 OA
ENDROOT
BRANCH   6  13
HETATM   13  C4  UNL     1       5.506   1.262   0.694  1.00  0.00     0.341 C 
HETATM   14  O1  UNL     1       4.839   0.188   1.183  1.00  0.00    -0.326 OA
HETATM   15  C5  UNL     1       3.848  -0.183   0.307  1.00  0.00     0.240 C 
HETATM   16  C23 UNL     1       3.644   1.077  -0.504  1.00  0.00     0.179 C 
HETATM   17  N10 UNL     1       5.022   1.609  -0.621  1.00  0.00    -0.147 NA
BRANCH  15  18
HETATM   18  N4  UNL     1       2.648  -0.670   0.946  1.00  0.00    -0.356 N 
ATOM     19  H4  UNL     1       2.557  -0.634   1.961  1.00  0.00     0.162 HD
BRANCH  18  20
HETATM   20  C6  UNL     1       1.599  -1.197   0.157  1.00  0.00     0.133 A 
HETATM   21  C7  UNL     1       1.595  -2.551  -0.215  1.00  0.00     0.176 A 
HETATM   22  N5  UNL     1       0.614  -3.079  -0.962  1.00  0.00    -0.296 N 
HETATM   23  C10 UNL     1      -0.410  -2.309  -1.381  1.00  0.00     0.160 A 
HETATM   24  C11 UNL     1      -0.476  -0.972  -1.056  1.00  0.00     0.083 A 
HETATM   25  C22 UNL     1       0.542  -0.450  -0.287  1.00  0.00     0.218 A 
HETATM   26  O10 UNL     1       0.460   0.767  -0.002  1.00  0.00    -0.285 OA
BRANCH  21  27
HETATM   27  O2  UNL     1       2.622  -3.393   0.185  1.00  0.00    -0.344 OA
ATOM     28  H2  UNL     1       2.619  -4.309  -0.067  1.00  0.00     0.219 HD
ENDBRANCH  21  27
BRANCH  22  29
HETATM   29  C8  UNL     1       0.575  -4.471  -1.365  1.00  0.00     0.246 C 
BRANCH  29  30
HETATM   30  C9  UNL     1      -0.134  -5.331  -0.433  1.00  0.00     0.192 C 
HETATM   31  O3  UNL     1      -0.251  -6.554  -0.663  1.00  0.00    -0.647 OA
HETATM   32  O4  UNL     1      -0.691  -4.814   0.720  1.00  0.00    -0.647 OA
ENDBRANCH  29  30
ENDBRANCH  22  29
BRANCH  23  33
HETATM   33  O5  UNL     1      -1.444  -2.840  -2.162  1.00  0.00    -0.345 OA
ATOM     34  H5  UNL     1      -2.166  -2.297  -2.457  1.00  0.00     0.219 HD
ENDBRANCH  23  33
BRANCH  24  35
HETATM   35  C12 UNL     1      -1.560  -0.121  -1.494  1.00  0.00     0.103 C 
HETATM   36  N6  UNL     1      -1.672   1.133  -1.218  1.00  0.00    -0.389 N 
ATOM     37  H6  UNL     1      -0.980   1.625  -0.652  1.00  0.00     0.159 HD
BRANCH  36  38
HETATM   38  C13 UNL     1      -2.842   1.807  -1.760  1.00  0.00     0.223 C 
BRANCH  38  39
HETATM   39  C14 UNL     1      -4.063   1.506  -0.947  1.00  0.00     0.253 C 
HETATM   40  O6  UNL     1      -3.909   0.785   0.052  1.00  0.00    -0.270 OA
HETATM   41  N7  UNL     1      -5.299   2.035  -1.341  1.00  0.00    -0.269 N 
ATOM     42  H7  UNL     1      -5.327   2.620  -2.176  1.00  0.00     0.190 HD
BRANCH  41  43
HETATM   43  N8  UNL     1      -6.465   1.814  -0.674  1.00  0.00    -0.308 N 
HETATM   44  C15 UNL     1      -6.778   0.756  -0.046  1.00  0.00     0.124 C 
ATOM     45  H8  UNL     1      -7.151   2.569  -0.679  1.00  0.00     0.186 HD
BRANCH  44  46
HETATM   46  C16 UNL     1      -8.078   0.726   0.603  1.00  0.00     0.047 A 
HETATM   47  C17 UNL     1      -8.901   1.840   0.499  1.00  0.00     0.079 A 
HETATM   48  C18 UNL     1     -10.145   1.846   1.081  1.00  0.00     0.037 A 
HETATM   49  C19 UNL     1     -10.566   0.730   1.771  1.00  0.00     0.005 A 
HETATM   50  C20 UNL     1      -9.769  -0.373   1.882  1.00  0.00     0.037 A 
HETATM   51  C21 UNL     1      -8.500  -0.373   1.287  1.00  0.00     0.117 A 
BRANCH  47  52
HETATM   52  O7  UNL     1      -8.487   2.963  -0.191  1.00  0.00    -0.360 OA
ATOM     53  H7  UNL     1      -9.050   3.725  -0.262  1.00  0.00     0.217 HD
ENDBRANCH  47  52
BRANCH  51  54
HETATM   54  N9  UNL     1      -7.772  -1.569   1.469  1.00  0.00    -0.115 N 
HETATM   55  O8  UNL     1      -6.554  -1.567   1.613  1.00  0.00    -0.532 OA
HETATM   56  O9  UNL     1      -8.478  -2.772   1.519  1.00  0.00    -0.532 OA
ENDBRANCH  51  54
ENDBRANCH  44  46
ENDBRANCH  41  43
ENDBRANCH  38  39
ENDBRANCH  36  38
ENDBRANCH  24  35
ENDBRANCH  18  20
ENDBRANCH  15  18
BRANCH  17  57
HETATM   57  O11 UNL     1       5.638   0.906  -1.598  1.00  0.00    -0.309 OA
ATOM     58  H11 UNL     1       5.319   1.134  -2.463  1.00  0.00     0.237 HD
ENDBRANCH  17  57
ENDBRANCH   6  13
TORSDOF 15
