REMARK  5 active torsions:
REMARK  status: ('A' for Active; 'I' for Inactive)
REMARK    1  A    between atoms: N3_6  and  N4_8 
REMARK    2  A    between atoms: N4_8  and  C4_10 
REMARK    3  A    between atoms: C7_13  and  N5_14 
REMARK    4  A    between atoms: N5_14  and  O1_15 
REMARK    5  A    between atoms: N5_14  and  O2_17 
ROOT
HETATM    1  N1  UNL     1       5.493   1.940   1.240  1.00  0.00    -0.189 NA
HETATM    2  C1  UNL     1       4.714   1.246   0.740  1.00  0.00     0.130 C 
HETATM    3  C2  UNL     1       3.726   0.375   0.134  1.00  0.00     0.209 C 
HETATM    4  C3  UNL     1       3.925  -0.086  -1.197  1.00  0.00     0.130 C 
HETATM    5  N2  UNL     1       4.070  -0.461  -2.300  1.00  0.00    -0.189 NA
HETATM    6  N3  UNL     1       2.688   0.038   0.818  1.00  0.00    -0.282 N 
ATOM      7  H3  UNL     1       2.563   0.379   1.771  1.00  0.00     0.188 HD
ENDROOT
BRANCH   6   8
HETATM    8  N4  UNL     1       1.747  -0.791   0.242  1.00  0.00    -0.299 N 
ATOM      9  H4  UNL     1       2.045  -1.691  -0.133  1.00  0.00     0.187 HD
BRANCH   8  10
HETATM   10  C4  UNL     1       0.368  -0.428   0.154  1.00  0.00     0.049 A 
HETATM   11  C5  UNL     1      -0.072   0.765   0.642  1.00  0.00     0.033 A 
HETATM   12  C6  UNL     1      -1.385   1.120   0.563  1.00  0.00     0.032 A 
HETATM   13  C7  UNL     1      -2.290   0.238  -0.032  1.00  0.00     0.083 A 
HETATM   14  C8  UNL     1      -1.869  -0.980  -0.535  1.00  0.00     0.040 A 
HETATM   15  S1  UNL     1      -3.029  -2.130  -1.306  1.00  0.00    -0.051 SA
HETATM   16  C9  UNL     1      -0.529  -1.295  -0.432  1.00  0.00     0.052 A 
BRANCH  13  17
HETATM   17  N5  UNL     1      -3.661   0.578  -0.129  1.00  0.00    -0.035 NA
BRANCH  17  18
HETATM   18  O1  UNL     1      -4.349  -0.394  -0.725  1.00  0.00    -0.284 OA
ATOM     19  H1  UNL     1      -5.269  -0.166  -0.790  1.00  0.00     0.240 HD
ENDBRANCH  17  18
BRANCH  17  20
HETATM   20  O2  UNL     1      -3.854   1.717  -0.842  1.00  0.00    -0.284 OA
ATOM     21  H2  UNL     1      -4.774   1.945  -0.907  1.00  0.00     0.240 HD
ENDBRANCH  17  20
ENDBRANCH  13  17
ENDBRANCH   8  10
ENDBRANCH   6   8
TORSDOF 5
