REMARK  4 active torsions:
REMARK  status: ('A' for Active; 'I' for Inactive)
REMARK       I    between atoms: C1_4  and  N2_5 
REMARK       I    between atoms: C1_4  and  N5_17 
REMARK    1  A    between atoms: N2_5  and  C2_7 
REMARK    2  A    between atoms: C6_11  and  N3_12 
REMARK    3  A    between atoms: N5_17  and  N6_19 
REMARK       I    between atoms: N6_19  and  C7_21 
REMARK    4  A    between atoms: C7_21  and  C8_23 
ROOT
HETATM    1  N1  UNL     1       1.159  -2.531  -0.275  1.00  0.00    -0.233 N 
ATOM      2  H11 UNL     1       1.871  -2.932  -0.885  1.00  0.00     0.174 HD
ATOM      3  H12 UNL     1       0.547  -3.052   0.353  1.00  0.00     0.174 HD
HETATM    4  C1  UNL     1       1.016  -1.236  -0.289  1.00  0.00     0.692 C 
HETATM    5  N2  UNL     1       0.038  -0.685   0.549  1.00  0.00    -0.176 N 
ATOM      6  H2  UNL     1       0.227  -0.659   1.551  1.00  0.00     0.186 HD
HETATM    7  N5  UNL     1       1.857  -0.520  -1.152  1.00  0.00    -0.129 N 
ATOM      8  H5  UNL     1       1.573  -0.373  -2.121  1.00  0.00     0.205 HD
ENDROOT
BRANCH   5   9
HETATM    9  C2  UNL     1      -1.087  -0.208   0.133  1.00  0.00     0.122 A 
HETATM   10  C3  UNL     1      -1.463  -0.182  -1.192  1.00  0.00     0.049 A 
HETATM   11  C4  UNL     1      -2.668   0.327  -1.636  1.00  0.00     0.008 A 
HETATM   12  C5  UNL     1      -3.525   0.835  -0.652  1.00  0.00     0.055 A 
HETATM   13  C6  UNL     1      -3.150   0.811   0.678  1.00  0.00     0.175 A 
HETATM   14  N4  UNL     1      -1.960   0.299   1.033  1.00  0.00    -0.323 N 
ATOM     15  H4  UNL     1      -1.705   0.292   2.020  1.00  0.00     0.169 HD
BRANCH  13  16
HETATM   16  N3  UNL     1      -4.047   1.336   1.639  1.00  0.00    -0.098 N 
HETATM   17  O1  UNL     1      -5.146   1.807   1.317  1.00  0.00    -0.531 OA
HETATM   18  O2  UNL     1      -3.680   1.317   2.958  1.00  0.00    -0.531 OA
ENDBRANCH  13  16
ENDBRANCH   5   9
BRANCH   7  19
HETATM   19  N6  UNL     1       3.065  -0.010  -0.712  1.00  0.00    -0.250 N 
HETATM   20  C7  UNL     1       3.506  -0.203   0.618  1.00  0.00     0.297 C 
HETATM   21  O3  UNL     1       2.867  -0.832   1.496  1.00  0.00    -0.263 OA
ATOM     22  H6  UNL     1       3.650   0.517  -1.360  1.00  0.00     0.191 HD
BRANCH  20  23
HETATM   23  C8  UNL     1       4.805   0.364   1.035  1.00  0.00     0.334 C 
HETATM   24  O4  UNL     1       5.522   1.017   0.213  1.00  0.00    -0.296 OA
ENDBRANCH  20  23
ENDBRANCH   7  19
TORSDOF 4
