REMARK  3 active torsions:
REMARK  status: ('A' for Active; 'I' for Inactive)
REMARK    1  A    between atoms: C2_2  and  C3_3 
REMARK    2  A    between atoms: C3_3  and  C5_5 
REMARK    3  A    between atoms: N5_21  and  O2_22 
ROOT
HETATM    1  C5  UNL     1      -0.474  -0.282   0.529  1.00  0.00     0.078 A 
HETATM    2  C6  UNL     1       0.842  -0.162   0.093  1.00  0.00     0.107 A 
HETATM    3  N1  UNL     1       1.159  -0.030  -1.177  1.00  0.00    -0.188 N 
ATOM      4  H1  UNL     1       0.374   0.026  -1.826  1.00  0.00     0.184 HD
HETATM    5  C7  UNL     1       2.386   0.041  -1.732  1.00  0.00     0.679 A 
HETATM    6  N2  UNL     1       2.755   0.116  -2.921  1.00  0.00    -0.234 N 
ATOM      7  H21 UNL     1       3.683   0.170  -3.341  1.00  0.00     0.174 HD
ATOM      8  H22 UNL     1       2.007   0.167  -3.613  1.00  0.00     0.174 HD
HETATM    9  N3  UNL     1       3.418  -0.030  -0.778  1.00  0.00    -0.154 N 
ATOM     10  H3  UNL     1       4.388   0.021  -1.090  1.00  0.00     0.187 HD
HETATM   11  C8  UNL     1       3.164  -0.160   0.504  1.00  0.00     0.288 A 
HETATM   12  O1  UNL     1       4.173  -0.212   1.312  1.00  0.00    -0.265 OA
HETATM   13  C9  UNL     1       1.885  -0.237   1.015  1.00  0.00     0.132 A 
HETATM   14  N4  UNL     1       1.624  -0.428   2.320  1.00  0.00    -0.344 N 
ATOM     15  H4  UNL     1       2.387  -0.487   2.995  1.00  0.00     0.167 HD
HETATM   16  C10 UNL     1       0.350  -0.540   2.726  1.00  0.00     0.214 A 
HETATM   17  N5  UNL     1      -0.684  -0.469   1.846  1.00  0.00    -0.222 N 
ENDROOT
BRANCH   1  18
HETATM   18  C3  UNL     1      -1.547  -0.106  -0.388  1.00  0.00     0.058 C 
HETATM   19  C4  UNL     1      -2.498  -1.340  -0.236  1.00  0.00     0.021 C 
BRANCH  18  20
HETATM   20  C2  UNL     1      -2.501   1.011   0.112  1.00  0.00    -0.026 C 
HETATM   21  C1  UNL     1      -2.218   2.292  -0.215  1.00  0.00     0.007 C 
ENDBRANCH  18  20
ENDBRANCH   1  18
BRANCH  17  22
HETATM   22  O2  UNL     1      -1.906  -0.523   2.434  1.00  0.00    -0.282 OA
ATOM     23  H2  UNL     1      -2.054  -0.655   3.363  1.00  0.00     0.245 HD
ENDBRANCH  17  22
TORSDOF 3
