REMARK  4 active torsions:
REMARK  status: ('A' for Active; 'I' for Inactive)
REMARK    1  A    between atoms: C9_10  and  C10_11 
REMARK    2  A    between atoms: C10_11  and  C11_12 
REMARK    3  A    between atoms: C11_12  and  C12_13 
REMARK    4  A    between atoms: C14_15  and  O2_16 
ROOT
HETATM    1  C1  UNL     1      -3.764  -1.359  -0.761  1.00  0.00     0.018 C 
HETATM    2  C2  UNL     1      -2.686  -0.537  -0.119  1.00  0.00    -0.013 C 
HETATM    3  C3  UNL     1      -2.294  -1.220   1.177  1.00  0.00     0.014 C 
HETATM    4  C4  UNL     1      -1.186  -0.441   1.833  1.00  0.00     0.033 C 
HETATM    5  C5  UNL     1      -0.925   0.783   0.966  1.00  0.00     0.126 C 
HETATM    6  O1  UNL     1      -2.093   1.511   0.860  1.00  0.00    -0.374 OA
HETATM    7  C6  UNL     1      -3.118   0.861   0.221  1.00  0.00     0.061 C 
HETATM    8  C7  UNL     1      -4.380   0.809   1.085  1.00  0.00     0.046 C 
HETATM    9  C8  UNL     1      -3.480   1.661  -1.017  1.00  0.00     0.046 C 
HETATM   10  C9  UNL     1      -0.449   0.402  -0.401  1.00  0.00     0.015 C 
HETATM   11  C16 UNL     1      -1.508  -0.489  -1.041  1.00  0.00     0.019 C 
ENDROOT
BRANCH  10  12
HETATM   12  C10 UNL     1       0.837  -0.360  -0.399  1.00  0.00     0.009 C 
BRANCH  12  13
HETATM   13  C11 UNL     1       1.967   0.423   0.223  1.00  0.00     0.033 C 
BRANCH  13  14
HETATM   14  C12 UNL     1       3.208  -0.443   0.170  1.00  0.00     0.188 C 
HETATM   15  C13 UNL     1       4.357   0.294   0.777  1.00  0.00     0.066 C 
HETATM   16  C14 UNL     1       5.508   0.071  -0.188  1.00  0.00     0.145 C 
HETATM   17  C15 UNL     1       4.958  -0.939  -1.149  1.00  0.00     0.264 C 
HETATM   18  N1  UNL     1       3.546  -0.594  -1.253  1.00  0.00    -0.068 N 
ATOM     19  H12 UNL     1       2.967  -1.249  -1.779  1.00  0.00     0.277 HD
ATOM     20  H11 UNL     1       3.328   0.206  -1.848  1.00  0.00     0.277 HD
BRANCH  16  21
HETATM   21  O2  UNL     1       5.841   1.276  -0.801  1.00  0.00    -0.394 OA
ATOM     22  H2  UNL     1       6.561   1.136  -1.405  1.00  0.00     0.210 HD
ENDBRANCH  16  21
ENDBRANCH  13  14
ENDBRANCH  12  13
ENDBRANCH  10  12
TORSDOF 4
