REMARK  10 active torsions:
REMARK  status: ('A' for Active; 'I' for Inactive)
REMARK    1  A    between atoms: N1_1  and  C1_4 
REMARK    2  A    between atoms: C2_7  and  N3_8 
REMARK    3  A    between atoms: N4_15  and  C7_16 
REMARK    4  A    between atoms: C7_16  and  C8_17 
REMARK    5  A    between atoms: C8_17  and  C9_18 
REMARK    6  A    between atoms: C10_19  and  C11_20 
REMARK    7  A    between atoms: C11_20  and  C12_21 
REMARK    8  A    between atoms: C13_22  and  C14_23 
REMARK    9  A    between atoms: C14_23  and  C15_24 
REMARK   10  A    between atoms: C15_24  and  N5_25 
ROOT
HETATM    1  C1  UNL     1      -5.722   1.589   1.099  1.00  0.00     0.679 A 
HETATM    2  N2  UNL     1      -6.890   1.312   0.510  1.00  0.00    -0.176 N 
ATOM      3  H2  UNL     1      -7.730   1.808   0.806  1.00  0.00     0.186 HD
HETATM    4  C2  UNL     1      -6.978   0.376  -0.482  1.00  0.00     0.128 A 
HETATM    5  C3  UNL     1      -5.809  -0.265  -0.841  1.00  0.00     0.053 A 
HETATM    6  C4  UNL     1      -5.882  -1.224  -1.842  1.00  0.00     0.020 A 
HETATM    7  C5  UNL     1      -4.728  -1.879  -2.211  1.00  0.00     0.018 A 
HETATM    8  C6  UNL     1      -3.574  -1.533  -1.556  1.00  0.00     0.092 A 
HETATM    9  N4  UNL     1      -3.501  -0.600  -0.582  1.00  0.00    -0.341 N 
HETATM   10  C19 UNL     1      -4.605   0.041  -0.213  1.00  0.00     0.137 A 
HETATM   11  N7  UNL     1      -4.588   0.984   0.768  1.00  0.00    -0.176 N 
ATOM     12  H7  UNL     1      -3.717   1.222   1.242  1.00  0.00     0.186 HD
ENDROOT
BRANCH   9  13
HETATM   13  C7  UNL     1      -2.229  -0.301   0.026  1.00  0.00     0.142 C 
BRANCH  13  14
HETATM   14  C8  UNL     1      -1.959  -1.109   1.278  1.00  0.00     0.114 C 
BRANCH  14  15
HETATM   15  C9  UNL     1      -0.645  -0.700   1.776  1.00  0.00    -0.104 C 
HETATM   16  C10 UNL     1       0.440  -0.352   2.209  1.00  0.00    -0.095 C 
BRANCH  16  17
HETATM   17  C11 UNL     1       1.732   0.073   2.751  1.00  0.00     0.187 C 
BRANCH  17  18
HETATM   18  C12 UNL     1       2.766   0.106   1.724  1.00  0.00    -0.095 C 
HETATM   19  C13 UNL     1       3.633   0.130   0.892  1.00  0.00    -0.104 C 
BRANCH  19  20
HETATM   20  C14 UNL     1       4.701   0.151  -0.099  1.00  0.00     0.114 C 
BRANCH  20  21
HETATM   21  C15 UNL     1       6.071   0.260   0.574  1.00  0.00     0.141 C 
BRANCH  21  22
HETATM   22  N5  UNL     1       7.125   0.281  -0.397  1.00  0.00    -0.351 N 
HETATM   23  C16 UNL     1       7.787  -0.797  -0.902  1.00  0.00     0.108 A 
HETATM   24  C17 UNL     1       8.727  -0.363  -1.808  1.00  0.00     0.106 A 
HETATM   25  N6  UNL     1       8.628   0.967  -1.844  1.00  0.00    -0.361 N 
HETATM   26  C18 UNL     1       7.671   1.356  -1.002  1.00  0.00     0.182 A 
ATOM     27  H6  UNL     1       9.194   1.587  -2.423  1.00  0.00     0.166 HD
ENDBRANCH  21  22
ENDBRANCH  20  21
ENDBRANCH  19  20
ENDBRANCH  17  18
ENDBRANCH  16  17
ENDBRANCH  14  15
ENDBRANCH  13  14
ENDBRANCH   9  13
BRANCH   4  28
HETATM   28  N3  UNL     1      -8.114   0.161  -0.999  1.00  0.00    -0.384 N 
ATOM     29  H32 UNL     1      -8.978   0.635  -0.734  1.00  0.00     0.157 HD
ATOM     30  H31 UNL     1      -8.180  -0.538  -1.739  1.00  0.00     0.157 HD
ENDBRANCH   4  28
BRANCH   1  31
HETATM   31  N1  UNL     1      -5.686   2.489   2.040  1.00  0.00    -0.234 N 
ATOM     32  H12 UNL     1      -6.557   2.954   2.294  1.00  0.00     0.174 HD
ATOM     33  H11 UNL     1      -4.795   2.700   2.489  1.00  0.00     0.174 HD
ENDBRANCH   1  31
TORSDOF 10
