REMARK  14 active torsions:
REMARK  status: ('A' for Active; 'I' for Inactive)
REMARK    1  A    between atoms: C2_7  and  N3_8 
REMARK    2  A    between atoms: N3_8  and  C3_10 
REMARK    3  A    between atoms: C3_10  and  C4_11 
REMARK    4  A    between atoms: C11_22  and  C12_23 
REMARK       I    between atoms: C12_23  and  N5_25 
REMARK    5  A    between atoms: N5_25  and  C13_27 
REMARK    6  A    between atoms: C13_27  and  C14_28 
REMARK    7  A    between atoms: C14_28  and  C15_29 
REMARK    8  A    between atoms: C15_29  and  S1_30 
REMARK    9  A    between atoms: S1_30  and  C16_31 
REMARK   10  A    between atoms: S1_30  and  C18_34 
REMARK   11  A    between atoms: C16_31  and  C17_32 
REMARK   12  A    between atoms: C18_34  and  C19_35 
REMARK   13  A    between atoms: C19_35  and  C20_36 
REMARK   14  A    between atoms: C20_36  and  O2_37 
ROOT
HETATM    1  N1  UNL     1       0.219  -1.515  -1.372  1.00  0.00    -0.384 N 
ATOM      2  H11 UNL     1      -0.492  -0.855  -1.687  1.00  0.00     0.157 HD
ATOM      3  H12 UNL     1       0.220  -2.472  -1.726  1.00  0.00     0.157 HD
HETATM    4  C1  UNL     1       1.113  -1.082  -0.578  1.00  0.00     0.132 A 
HETATM    5  N2  UNL     1       2.078  -1.978  -0.150  1.00  0.00    -0.176 N 
ATOM      6  H2  UNL     1       2.075  -2.933  -0.509  1.00  0.00     0.186 HD
HETATM    7  C2  UNL     1       3.012  -1.607   0.727  1.00  0.00     0.679 A 
HETATM    8  N4  UNL     1       3.026  -0.355   1.207  1.00  0.00    -0.201 N 
ATOM      9  H4  UNL     1       3.746  -0.089   1.879  1.00  0.00     0.183 HD
HETATM   10  C10 UNL     1       2.122   0.553   0.829  1.00  0.00     0.127 A 
HETATM   11  C11 UNL     1       1.112   0.201  -0.103  1.00  0.00     0.091 A 
ENDROOT
BRANCH  11  12
HETATM   12  C12 UNL     1       0.212   1.251  -0.543  1.00  0.00     0.256 C 
HETATM   13  O1  UNL     1      -0.116   2.118   0.353  1.00  0.00    -0.267 OA
HETATM   14  N5  UNL     1      -0.342   1.453  -1.804  1.00  0.00    -0.357 N 
ATOM     15  H5  UNL     1      -0.092   0.799  -2.545  1.00  0.00     0.162 HD
BRANCH  14  16
HETATM   16  C13 UNL     1      -1.251   2.532  -2.132  1.00  0.00     0.123 C 
BRANCH  16  17
HETATM   17  C14 UNL     1      -2.530   2.526  -1.354  1.00  0.00     0.029 C 
BRANCH  17  18
HETATM   18  C15 UNL     1      -3.218   1.199  -1.646  1.00  0.00     0.065 C 
BRANCH  18  19
HETATM   19  S1  UNL     1      -4.788   1.086  -0.752  1.00  0.00    -0.219 SA
BRANCH  19  20
HETATM   20  C16 UNL     1      -4.373   1.212   0.943  1.00  0.00     0.078 C 
BRANCH  20  21
HETATM   21  C17 UNL     1      -3.412   0.115   1.411  1.00  0.00     0.124 C 
HETATM   22 CL3  UNL     1      -3.093   0.355   3.137  1.00  0.00    -0.130 Cl
ENDBRANCH  20  21
ENDBRANCH  19  20
BRANCH  19  23
HETATM   23  C18 UNL     1      -5.573  -0.360  -1.283  1.00  0.00     0.065 C 
BRANCH  23  24
HETATM   24  C19 UNL     1      -6.901  -0.707  -0.748  1.00  0.00     0.035 C 
BRANCH  24  25
HETATM   25  C20 UNL     1      -7.082  -0.962   0.691  1.00  0.00     0.165 C 
BRANCH  25  26
HETATM   26  O2  UNL     1      -6.301  -2.048   1.085  1.00  0.00    -0.401 OA
ATOM     27  H2  UNL     1      -6.418  -2.213   2.013  1.00  0.00     0.209 HD
ENDBRANCH  25  26
ENDBRANCH  24  25
ENDBRANCH  23  24
ENDBRANCH  19  23
ENDBRANCH  18  19
ENDBRANCH  17  18
ENDBRANCH  16  17
ENDBRANCH  14  16
ENDBRANCH  11  12
BRANCH   7  28
HETATM   28  N3  UNL     1       3.892  -2.468   1.097  1.00  0.00    -0.222 N 
ATOM     29  H3  UNL     1       3.860  -3.413   0.715  1.00  0.00     0.178 HD
BRANCH  28  30
HETATM   30  C3  UNL     1       4.924  -2.119   2.044  1.00  0.00     0.176 C 
BRANCH  30  31
HETATM   31  C4  UNL     1       5.975  -1.355   1.332  1.00  0.00    -0.038 A 
HETATM   32  C5  UNL     1       6.971  -0.787   2.134  1.00  0.00     0.010 A 
HETATM   33  C6  UNL     1       7.993  -0.060   1.559  1.00  0.00     0.026 A 
HETATM   34  C7  UNL     1       8.026   0.106   0.178  1.00  0.00     0.055 A 
HETATM   35 CL1  UNL     1       9.348   1.041  -0.509  1.00  0.00    -0.083 Cl
HETATM   36  C8  UNL     1       7.054  -0.447  -0.625  1.00  0.00     0.056 A 
HETATM   37 CL2  UNL     1       7.151  -0.205  -2.346  1.00  0.00    -0.083 Cl
HETATM   38  C9  UNL     1       6.047  -1.169  -0.013  1.00  0.00     0.034 A 
ENDBRANCH  30  31
ENDBRANCH  28  30
ENDBRANCH   7  28
TORSDOF 14
