REMARK  11 active torsions:
REMARK  status: ('A' for Active; 'I' for Inactive)
REMARK    1  A    between atoms: C3_3  and  N1_4 
REMARK    2  A    between atoms: N1_4  and  C4_5 
REMARK    3  A    between atoms: C5_8  and  N3_9 
REMARK    4  A    between atoms: N3_9  and  C6_11 
REMARK    5  A    between atoms: C6_11  and  C7_12 
REMARK    6  A    between atoms: C7_12  and  C8_13 
REMARK    7  A    between atoms: C11_18  and  N5_19 
REMARK    8  A    between atoms: N5_19  and  C12_20 
REMARK    9  A    between atoms: C12_20  and  C13_21 
REMARK   10  A    between atoms: C13_21  and  N6_22 
REMARK   11  A    between atoms: C19_33  and  C20_34 
ROOT
HETATM    1  C4  UNL     1       1.507   0.366  -0.185  1.00  0.00     0.277 A 
HETATM    2  N2  UNL     1       1.055   1.619   0.105  1.00  0.00    -0.149 N 
ATOM      3  H2  UNL     1       1.728   2.383   0.176  1.00  0.00     0.188 HD
HETATM    4  C5  UNL     1      -0.263   1.883   0.303  1.00  0.00     0.685 A 
HETATM    5  N4  UNL     1      -1.129   0.898   0.213  1.00  0.00    -0.149 N 
ATOM      6  H4  UNL     1      -2.117   1.103   0.363  1.00  0.00     0.188 HD
HETATM    7  C11 UNL     1      -0.765  -0.388  -0.072  1.00  0.00     0.276 A 
HETATM    8  N7  UNL     1       0.573  -0.598  -0.263  1.00  0.00    -0.275 N 
ATOM      9  H7  UNL     1       0.882  -1.546  -0.478  1.00  0.00     0.174 HD
ENDROOT
BRANCH   1  10
HETATM   10  N1  UNL     1       2.650   0.155  -0.351  1.00  0.00    -0.367 NA
BRANCH  10  11
HETATM   11  C3  UNL     1       3.934  -0.091  -0.539  1.00  0.00     0.159 A 
HETATM   12  C2  UNL     1       4.723  -0.520   0.554  1.00  0.00     0.000 A 
HETATM   13  C1  UNL     1       4.036  -0.641   1.864  1.00  0.00     0.052 C 
HETATM   14  C19 UNL     1       6.048  -0.810   0.476  1.00  0.00     0.099 A 
HETATM   15  C18 UNL     1       6.654  -0.672  -0.755  1.00  0.00     0.173 A 
HETATM   16  C17 UNL     1       5.949  -0.259  -1.864  1.00  0.00     0.197 A 
HETATM   17  F3  UNL     1       7.969  -0.950  -0.873  1.00  0.00    -0.202 F 
HETATM   18  C16 UNL     1       4.618   0.025  -1.754  1.00  0.00     0.199 A 
HETATM   19  F2  UNL     1       6.613  -0.146  -3.048  1.00  0.00    -0.199 F 
HETATM   20  F1  UNL     1       3.894   0.433  -2.822  1.00  0.00    -0.199 F 
BRANCH  14  21
HETATM   21  C20 UNL     1       6.877  -1.279   1.631  1.00  0.00     0.421 C 
HETATM   22  F4  UNL     1       6.838  -0.337   2.649  1.00  0.00    -0.166 F 
HETATM   23  F5  UNL     1       8.228  -1.281   1.228  1.00  0.00    -0.166 F 
HETATM   24  F6  UNL     1       6.544  -2.517   2.082  1.00  0.00    -0.166 F 
ENDBRANCH  14  21
ENDBRANCH  10  11
ENDBRANCH   1  10
BRANCH   4  25
HETATM   25  N3  UNL     1      -0.627   3.086   0.577  1.00  0.00    -0.226 N 
ATOM     26  H3  UNL     1       0.107   3.792   0.632  1.00  0.00     0.177 HD
BRANCH  25  27
HETATM   27  C6  UNL     1      -1.967   3.520   0.811  1.00  0.00     0.138 C 
BRANCH  27  28
HETATM   28  C7  UNL     1      -2.610   3.952  -0.511  1.00  0.00     0.025 C 
BRANCH  28  29
HETATM   29  C8  UNL     1      -4.017   4.410  -0.236  1.00  0.00    -0.013 A 
HETATM   30  C9  UNL     1      -4.869   4.885  -1.342  1.00  0.00     0.005 A 
HETATM   31  C10 UNL     1      -4.291   5.917  -0.458  1.00  0.00     0.005 A 
ENDBRANCH  28  29
ENDBRANCH  27  28
ENDBRANCH  25  27
ENDBRANCH   4  25
BRANCH   7  32
HETATM   32  N5  UNL     1      -1.553  -1.246  -0.142  1.00  0.00    -0.386 NA
BRANCH  32  33
HETATM   33  C12 UNL     1      -2.434  -2.231  -0.224  1.00  0.00     0.189 C 
BRANCH  33  34
HETATM   34  C13 UNL     1      -1.844  -3.654  -0.179  1.00  0.00     0.330 C 
BRANCH  34  35
HETATM   35  N6  UNL     1      -2.826  -4.676  -0.267  1.00  0.00     0.085 N 
HETATM   36  C14 UNL     1      -3.706  -4.804   0.844  1.00  0.00     0.309 C 
HETATM   37  C15 UNL     1      -3.492  -4.699  -1.528  1.00  0.00     0.309 C 
ENDBRANCH  34  35
ENDBRANCH  33  34
ENDBRANCH  32  33
ENDBRANCH   7  32
TORSDOF 11
