REMARK  2 active torsions:
REMARK  status: ('A' for Active; 'I' for Inactive)
REMARK    1  A    between atoms: C4_6  and  C5_7 
REMARK    2  A    between atoms: C5_7  and  O2_8 
ROOT
HETATM    1  C1  UNL     1      -1.258  -0.313   1.241  1.00  0.00     0.278 C 
HETATM    2  N1  UNL     1      -0.517   0.028   0.025  1.00  0.00    -0.026 N 
HETATM    3  C2  UNL     1      -0.586   1.398  -0.250  1.00  0.00     0.278 C 
HETATM    4  C3  UNL     1      -1.109  -0.749  -1.083  1.00  0.00     0.409 C 
HETATM    5  O1  UNL     1       0.206  -0.770  -1.608  1.00  0.00    -0.329 OA
HETATM    6  C4  UNL     1       0.601  -0.759  -0.269  1.00  0.00     0.352 C 
ENDROOT
BRANCH   6   7
HETATM    7  C5  UNL     1       1.975  -0.339   0.030  1.00  0.00     0.226 C 
BRANCH   7   8
HETATM    8  O2  UNL     1       2.422   0.816  -0.559  1.00  0.00    -0.397 OA
ATOM      9  H2  UNL     1       3.311   1.088  -0.365  1.00  0.00     0.209 HD
ENDBRANCH   7   8
ENDBRANCH   6   7
TORSDOF 2
