REMARK  3 active torsions:
REMARK  status: ('A' for Active; 'I' for Inactive)
REMARK    1  A    between atoms: C7_7  and  O1_8 
REMARK    2  A    between atoms: C8_10  and  O2_11 
REMARK    3  A    between atoms: C9_13  and  O3_14 
ROOT
HETATM    1  C1  UNL     1      -2.416  -0.916  -0.711  1.00  0.00     0.015 C 
HETATM    2  C2  UNL     1      -1.578   0.109  -0.028  1.00  0.00    -0.037 A 
HETATM    3  C3  UNL     1      -2.249   1.483   0.068  1.00  0.00     0.015 C 
HETATM    4  C4  UNL     1      -0.935  -0.408   1.280  1.00  0.00     0.022 A 
HETATM    5  C5  UNL     1      -0.153   0.071   0.125  1.00  0.00    -0.002 A 
HETATM    6  C6  UNL     1       0.657   1.312   0.324  1.00  0.00     0.047 C 
HETATM    7  C7  UNL     1       2.062   0.783   0.544  1.00  0.00     0.150 C 
HETATM    8  C8  UNL     1       2.039  -0.681   0.272  1.00  0.00     0.176 C 
HETATM    9  C9  UNL     1       0.788  -0.838  -0.597  1.00  0.00     0.158 C 
ENDROOT
BRANCH   9  10
HETATM   10  O3  UNL     1       0.374  -2.141  -0.689  1.00  0.00    -0.392 OA
ATOM     11  H3  UNL     1       0.972  -2.719  -1.148  1.00  0.00     0.210 HD
ENDBRANCH   9  10
BRANCH   7  12
HETATM   12  O1  UNL     1       2.980   1.398  -0.292  1.00  0.00    -0.393 OA
ATOM     13  H1  UNL     1       3.860   1.067  -0.154  1.00  0.00     0.210 HD
ENDBRANCH   7  12
BRANCH   8  14
HETATM   14  O2  UNL     1       3.159  -1.186  -0.324  1.00  0.00    -0.390 OA
ATOM     15  H2  UNL     1       3.144  -2.120  -0.498  1.00  0.00     0.210 HD
ENDBRANCH   8  14
TORSDOF 3
