REMARK  19 active torsions:
REMARK  status: ('A' for Active; 'I' for Inactive)
REMARK       I    between atoms: N1_1  and  C1_4 
REMARK       I    between atoms: C1_4  and  N3_6 
REMARK    1  A    between atoms: N3_6  and  C2_8 
REMARK    2  A    between atoms: C2_8  and  C3_9 
REMARK    3  A    between atoms: C3_9  and  C4_10 
REMARK    4  A    between atoms: C4_10  and  N4_11 
REMARK       I    between atoms: N4_11  and  C5_12 
REMARK    5  A    between atoms: C5_12  and  C6_14 
REMARK    6  A    between atoms: C6_14  and  C7_15 
REMARK    7  A    between atoms: C8_17  and  N5_18 
REMARK    8  A    between atoms: N5_18  and  C9_20 
REMARK    9  A    between atoms: C9_20  and  O2_21 
REMARK   10  A    between atoms: C9_20  and  N6_23 
REMARK   11  A    between atoms: N6_23  and  C10_25 
REMARK   12  A    between atoms: C10_25  and  C11_26 
REMARK   13  A    between atoms: C11_26  and  N7_27 
REMARK   14  A    between atoms: C11_26  and  C12_30 
REMARK   15  A    between atoms: C20_40  and  C21_41 
REMARK   16  A    between atoms: C21_41  and  C22_42 
REMARK   17  A    between atoms: C22_42  and  C23_43 
REMARK   18  A    between atoms: C23_43  and  C24_44 
REMARK   19  A    between atoms: C24_44  and  N8_45 
ROOT
HETATM    1  C7  UNL     1      -1.415   0.513  -0.480  1.00  0.00     0.004 A 
HETATM    2  S1  UNL     1      -0.560  -0.946  -0.218  1.00  0.00    -0.076 SA
HETATM    3  C8  UNL     1       1.079  -0.803   0.079  1.00  0.00     0.080 A 
HETATM    4  C18 UNL     1       1.530   0.526   0.045  1.00  0.00     0.080 A 
HETATM    5  C19 UNL     1       0.768   1.623  -0.214  1.00  0.00     0.126 A 
HETATM    6  F1  UNL     1       1.388   2.869  -0.173  1.00  0.00    -0.205 F 
HETATM    7  C20 UNL     1      -0.565   1.688  -0.468  1.00  0.00    -0.006 A 
ENDROOT
BRANCH   3   8
HETATM    8  N5  UNL     1       1.847  -1.732   0.347  1.00  0.00    -0.317 N 
ATOM      9  H5  UNL     1       1.441  -2.667   0.367  1.00  0.00     0.170 HD
BRANCH   8  10
HETATM   10  C9  UNL     1       3.192  -1.640   0.621  1.00  0.00     0.217 C 
BRANCH  10  11
HETATM   11  O2  UNL     1       3.553  -1.865   1.858  1.00  0.00    -0.333 OA
ATOM     12  H2  UNL     1       4.482  -1.801   2.047  1.00  0.00     0.220 HD
ENDBRANCH  10  11
BRANCH  10  13
HETATM   13  N6  UNL     1       4.201  -1.369  -0.276  1.00  0.00    -0.354 N 
ATOM     14  H6  UNL     1       4.043  -1.151  -1.260  1.00  0.00     0.163 HD
BRANCH  13  15
HETATM   15  C10 UNL     1       5.501  -1.428   0.331  1.00  0.00     0.152 C 
BRANCH  15  16
HETATM   16  C11 UNL     1       6.685  -1.242  -0.691  1.00  0.00     0.125 C 
BRANCH  16  17
HETATM   17  N7  UNL     1       6.721   0.019  -1.228  1.00  0.00    -0.421 N 
ATOM     18  H72 UNL     1       5.967   0.548  -1.666  1.00  0.00     0.150 HD
ATOM     19  H71 UNL     1       7.488   0.139  -1.890  1.00  0.00     0.150 HD
ENDBRANCH  16  17
BRANCH  16  20
HETATM   20  C12 UNL     1       7.762  -1.998  -0.066  1.00  0.00    -0.034 A 
HETATM   21  C13 UNL     1       8.358  -1.610   1.093  1.00  0.00     0.011 A 
HETATM   22  C14 UNL     1       9.313  -2.403   1.735  1.00  0.00     0.019 A 
HETATM   23  C15 UNL     1       9.686  -3.628   1.243  1.00  0.00     0.011 A 
HETATM   24 BR1  UNL     1      10.927  -4.695   2.159  1.00  0.00    -0.051 Br
HETATM   25  C16 UNL     1       9.071  -4.045   0.041  1.00  0.00     0.019 A 
HETATM   26  C17 UNL     1       8.160  -3.233  -0.573  1.00  0.00     0.011 A 
ENDBRANCH  16  20
ENDBRANCH  15  16
ENDBRANCH  13  15
ENDBRANCH  10  13
ENDBRANCH   8  10
ENDBRANCH   3   8
BRANCH   1  27
HETATM   27  C6  UNL     1      -2.820   0.567  -0.257  1.00  0.00     0.165 C 
BRANCH  27  28
HETATM   28  C5  UNL     1      -2.715  -0.498   1.060  1.00  0.00     0.291 C 
HETATM   29  N4  UNL     1      -2.949  -1.684   0.364  1.00  0.00    -0.415 NA
HETATM   30  O1  UNL     1      -2.543  -0.137   2.086  1.00  0.00    -0.257 OA
BRANCH  29  31
HETATM   31  C4  UNL     1      -3.167  -2.803  -0.277  1.00  0.00     0.223 C 
BRANCH  31  32
HETATM   32  C3  UNL     1      -4.647  -2.992   0.229  1.00  0.00     0.053 C 
BRANCH  32  33
HETATM   33  C2  UNL     1      -5.296  -4.147  -0.249  1.00  0.00     0.125 C 
BRANCH  33  34
HETATM   34  N3  UNL     1      -6.534  -4.219   0.582  1.00  0.00    -0.365 N 
HETATM   35  C1  UNL     1      -7.295  -5.263   0.107  1.00  0.00     0.181 C 
HETATM   36  N1  UNL     1      -7.681  -5.077  -1.193  1.00  0.00    -0.374 N 
HETATM   37  N2  UNL     1      -7.601  -6.436   0.772  1.00  0.00    -0.064 NA
ATOM     38  H12 UNL     1      -8.245  -5.851  -1.545  1.00  0.00     0.158 HD
ATOM     39  H11 UNL     1      -7.455  -4.212  -1.684  1.00  0.00     0.158 HD
ATOM     40  H3  UNL     1      -6.773  -3.605   1.361  1.00  0.00     0.162 HD
ENDBRANCH  33  34
ENDBRANCH  32  33
ENDBRANCH  31  32
ENDBRANCH  29  31
ENDBRANCH  27  28
ENDBRANCH   1  27
BRANCH   7  41
HETATM   41  C21 UNL     1      -1.296   2.885  -0.912  1.00  0.00     0.043 C 
BRANCH  41  42
HETATM   42  C22 UNL     1      -1.920   3.797   0.063  1.00  0.00     0.010 C 
BRANCH  42  43
HETATM   43  C23 UNL     1      -2.861   4.660  -0.765  1.00  0.00     0.047 C 
BRANCH  43  44
HETATM   44  C24 UNL     1      -3.649   5.685  -0.134  1.00  0.00     0.088 C 
BRANCH  44  45
HETATM   45  N8  UNL     1      -3.023   6.893   0.273  1.00  0.00    -0.283 N 
HETATM   46  C25 UNL     1      -2.876   7.909  -0.674  1.00  0.00     0.116 A 
HETATM   47  C26 UNL     1      -2.389   8.996  -0.063  1.00  0.00     0.038 A 
HETATM   48  C27 UNL     1      -2.240   8.643   1.272  1.00  0.00     0.109 A 
HETATM   49  N9  UNL     1      -2.628   7.374   1.408  1.00  0.00    -0.306 N 
ATOM     50  H9  UNL     1      -2.615   6.854   2.286  1.00  0.00     0.186 HD
ENDBRANCH  44  45
ENDBRANCH  43  44
ENDBRANCH  42  43
ENDBRANCH  41  42
ENDBRANCH   7  41
TORSDOF 19
