REMARK  6 active torsions:
REMARK  status: ('A' for Active; 'I' for Inactive)
REMARK    1  A    between atoms: C4_4  and  C5_5 
REMARK    2  A    between atoms: C5_5  and  C6_6 
REMARK    3  A    between atoms: C6_6  and  C7_7 
REMARK    4  A    between atoms: C7_7  and  C8_8 
REMARK    5  A    between atoms: C7_7  and  C13_15 
REMARK    6  A    between atoms: C8_8  and  C9_9 
ROOT
HETATM    1  C7  UNL     1      -0.683  -0.329  -0.216  1.00  0.00     0.025 C 
ENDROOT
BRANCH   1   2
HETATM    2  C6  UNL     1       0.717  -0.456   0.346  1.00  0.00     0.014 C 
BRANCH   2   3
HETATM    3  C5  UNL     1       1.603   0.393  -0.534  1.00  0.00     0.039 C 
BRANCH   3   4
HETATM    4  C4  UNL     1       3.017   0.366  -0.076  1.00  0.00    -0.058 A 
HETATM    5  C3  UNL     1       3.375   1.338   0.839  1.00  0.00     0.007 A 
HETATM    6  C2  UNL     1       4.641   1.450   1.361  1.00  0.00     0.001 A 
HETATM    7  C1  UNL     1       5.600   0.538   0.942  1.00  0.00     0.000 A 
HETATM    8  C23 UNL     1       5.241  -0.429   0.031  1.00  0.00     0.001 A 
HETATM    9  C22 UNL     1       3.952  -0.535  -0.494  1.00  0.00     0.007 A 
ENDBRANCH   3   4
ENDBRANCH   2   3
ENDBRANCH   1   2
BRANCH   1  10
HETATM   10  C8  UNL     1      -1.641  -1.195   0.617  1.00  0.00     0.066 C 
BRANCH  10  11
HETATM   11  C9  UNL     1      -1.277  -2.625   0.599  1.00  0.00     0.009 A 
HETATM   12  C10 UNL     1      -0.450  -3.288   1.477  1.00  0.00     0.026 A 
HETATM   13  C11 UNL     1      -0.376  -4.619   1.104  1.00  0.00     0.019 A 
HETATM   14  C12 UNL     1      -1.176  -4.743  -0.017  1.00  0.00     0.088 A 
HETATM   15  N1  UNL     1      -1.706  -3.534  -0.300  1.00  0.00    -0.369 N 
ATOM     16  H1  UNL     1      -2.336  -3.338  -1.077  1.00  0.00     0.165 HD
ENDBRANCH  10  11
ENDBRANCH   1  10
BRANCH   1  17
HETATM   17  C13 UNL     1      -1.163   1.041  -0.004  1.00  0.00    -0.040 A 
HETATM   18  C14 UNL     1      -0.608   1.826   0.970  1.00  0.00     0.025 A 
HETATM   19  C15 UNL     1      -1.109   3.111   1.221  1.00  0.00     0.089 A 
HETATM   20  N2  UNL     1      -2.131   3.627   0.539  1.00  0.00    -0.365 N 
HETATM   21  C16 UNL     1      -2.694   2.873  -0.426  1.00  0.00     0.042 A 
ATOM     22  H2  UNL     1      -2.477   4.565   0.741  1.00  0.00     0.165 HD
HETATM   23  C17 UNL     1      -3.759   3.382  -1.166  1.00  0.00     0.030 A 
HETATM   24  C21 UNL     1      -2.226   1.593  -0.706  1.00  0.00    -0.003 A 
HETATM   25  C18 UNL     1      -4.313   2.596  -2.154  1.00  0.00     0.002 A 
HETATM   26  C19 UNL     1      -3.857   1.333  -2.437  1.00  0.00     0.001 A 
HETATM   27  C20 UNL     1      -2.794   0.825  -1.698  1.00  0.00     0.014 A 
ENDBRANCH   1  17
TORSDOF 6
