REMARK  9 active torsions:
REMARK  status: ('A' for Active; 'I' for Inactive)
REMARK    1  A    between atoms: C2_2  and  C3_3 
REMARK    2  A    between atoms: C3_3  and  C4_4 
REMARK    3  A    between atoms: C4_4  and  C5_5 
REMARK    4  A    between atoms: N4_13  and  C8_14 
REMARK    5  A    between atoms: C8_14  and  C9_15 
REMARK       I    between atoms: C9_15  and  N5_17 
REMARK    6  A    between atoms: N5_17  and  C10_19 
REMARK    7  A    between atoms: C10_19  and  C11_20 
REMARK    8  A    between atoms: C11_20  and  N6_21 
REMARK    9  A    between atoms: C14_26  and  N7_27 
ROOT
HETATM    1  C5  UNL     1      -1.792  -2.882   0.754  1.00  0.00     0.056 A 
HETATM    2  N1  UNL     1      -2.554  -3.066   1.862  1.00  0.00    -0.352 N 
ATOM      3  H1  UNL     1      -3.124  -3.890   2.055  1.00  0.00     0.166 HD
HETATM    4  C6  UNL     1      -2.442  -2.007   2.656  1.00  0.00     0.185 A 
HETATM    5  N2  UNL     1      -1.624  -1.112   2.113  1.00  0.00    -0.325 N 
HETATM    6  C7  UNL     1      -1.207  -1.637   0.929  1.00  0.00     0.152 A 
HETATM    7  N3  UNL     1      -0.288  -1.023  -0.028  1.00  0.00    -0.199 N 
ATOM      8  H3  UNL     1      -0.165  -1.569  -0.881  1.00  0.00     0.195 HD
HETATM    9  N4  UNL     1       0.441   0.136  -0.012  1.00  0.00     0.026 N 
HETATM   10  C13 UNL     1       0.013   1.337  -0.658  1.00  0.00     0.299 C 
HETATM   11  C14 UNL     1      -0.063   2.582   0.181  1.00  0.00     0.220 C 
HETATM   12  C21 UNL     1      -0.752   2.460   1.561  1.00  0.00     0.063 C 
HETATM   13  C22 UNL     1      -0.978   1.021   1.666  1.00  0.00     0.094 C 
HETATM   14  C23 UNL     1      -2.142   0.842   0.795  1.00  0.00     0.072 C 
HETATM   15  N8  UNL     1      -3.096   0.703   0.123  1.00  0.00    -0.196 NA
HETATM   16  C24 UNL     1      -1.353   0.182   2.806  1.00  0.00     0.158 C 
HETATM   17  C25 UNL     1       0.349   0.510   1.357  1.00  0.00     0.291 C 
ENDROOT
BRANCH  11  18
HETATM   18  N7  UNL     1      -0.489   3.722  -0.567  1.00  0.00    -0.065 N 
HETATM   19  C15 UNL     1      -1.215   3.425  -1.786  1.00  0.00     0.273 C 
HETATM   20  C16 UNL     1       0.659   4.513  -1.069  1.00  0.00     0.237 C 
HETATM   21  C17 UNL     1       1.193   5.444  -0.027  1.00  0.00     0.028 C 
HETATM   22  C18 UNL     1       0.248   6.654  -0.012  1.00  0.00     0.003 C 
HETATM   23  C19 UNL     1      -1.130   6.095  -0.301  1.00  0.00     0.028 C 
HETATM   24  C20 UNL     1      -1.242   4.680   0.237  1.00  0.00     0.237 C 
ENDBRANCH  11  18
BRANCH   9  25
HETATM   25  C8  UNL     1       1.823  -0.150  -0.320  1.00  0.00     0.367 C 
BRANCH  25  26
HETATM   26  C9  UNL     1       2.386  -1.415   0.138  1.00  0.00     0.246 C 
HETATM   27  O1  UNL     1       1.718  -2.246   0.775  1.00  0.00    -0.272 OA
HETATM   28  N5  UNL     1       3.752  -1.759  -0.129  1.00  0.00    -0.358 N 
ATOM     29  H5  UNL     1       4.343  -1.107  -0.645  1.00  0.00     0.162 HD
BRANCH  28  30
HETATM   30  C10 UNL     1       4.297  -3.000   0.317  1.00  0.00     0.150 C 
BRANCH  30  31
HETATM   31  C11 UNL     1       3.639  -4.231  -0.242  1.00  0.00     0.251 C 
BRANCH  31  32
HETATM   32  N6  UNL     1       4.356  -5.371   0.344  1.00  0.00    -0.077 N 
HETATM   33  C12 UNL     1       5.701  -5.411  -0.185  1.00  0.00     0.267 C 
ATOM     34  H62 UNL     1       4.342  -5.354   1.364  1.00  0.00     0.276 HD
ATOM     35  H61 UNL     1       3.860  -6.252   0.207  1.00  0.00     0.276 HD
ENDBRANCH  31  32
ENDBRANCH  30  31
ENDBRANCH  28  30
ENDBRANCH  25  26
ENDBRANCH   9  25
BRANCH   1  36
HETATM   36  C4  UNL     1      -1.649  -3.812  -0.373  1.00  0.00     0.061 C 
BRANCH  36  37
HETATM   37  C3  UNL     1      -2.468  -3.390  -1.555  1.00  0.00     0.006 C 
BRANCH  37  38
HETATM   38  C2  UNL     1      -3.952  -3.326  -1.209  1.00  0.00    -0.004 C 
HETATM   39  C1  UNL     1      -4.735  -2.893  -2.432  1.00  0.00     0.005 C 
ENDBRANCH  37  38
ENDBRANCH  36  37
ENDBRANCH   1  36
TORSDOF 9
