REMARK  9 active torsions:
REMARK  status: ('A' for Active; 'I' for Inactive)
REMARK       I    between atoms: C2_2  and  N1_4 
REMARK    1  A    between atoms: C3_5  and  C4_6 
REMARK       I    between atoms: C4_6  and  N2_8 
REMARK    2  A    between atoms: N2_8  and  C5_10 
REMARK    3  A    between atoms: C5_10  and  C6_11 
REMARK    4  A    between atoms: C6_11  and  C7_12 
REMARK    5  A    between atoms: C7_12  and  C8_13 
REMARK    6  A    between atoms: C8_13  and  N3_14 
REMARK       I    between atoms: N3_14  and  C9_16 
REMARK    7  A    between atoms: C14_23  and  N5_24 
REMARK    8  A    between atoms: N5_24  and  C15_25 
REMARK    9  A    between atoms: C15_25  and  C16_26 
ROOT
HETATM    1  C1  UNL     1       0.028  -2.561   2.593  1.00  0.00     0.117 C 
HETATM    2  C2  UNL     1      -0.903  -2.023   1.578  1.00  0.00     0.217 C 
HETATM    3  O1  UNL     1      -1.945  -2.715   1.405  1.00  0.00    -0.274 OA
HETATM    4  N1  UNL     1      -0.606  -0.812   0.878  1.00  0.00    -0.332 N 
HETATM    5  C3  UNL     1       0.658  -0.148   1.128  1.00  0.00     0.180 C 
HETATM    6  C10 UNL     1       0.621   1.128   0.395  1.00  0.00     0.042 C 
HETATM    7  C11 UNL     1      -0.799   1.302  -0.023  1.00  0.00     0.013 C 
HETATM    8  C12 UNL     1      -1.595   1.998   1.053  1.00  0.00     0.009 C 
HETATM    9  C13 UNL     1      -2.814   1.136   1.282  1.00  0.00     0.036 C 
HETATM   10  C14 UNL     1      -2.827   0.046   0.269  1.00  0.00     0.214 C 
HETATM   11  C23 UNL     1      -1.390  -0.076  -0.098  1.00  0.00     0.123 C 
ENDROOT
BRANCH   5  12
HETATM   12  C4  UNL     1       1.798  -1.015   0.659  1.00  0.00     0.240 C 
HETATM   13  O2  UNL     1       1.642  -2.080   0.038  1.00  0.00    -0.271 OA
HETATM   14  N2  UNL     1       3.105  -0.576   0.951  1.00  0.00    -0.359 N 
ATOM     15  H2  UNL     1       3.248   0.296   1.461  1.00  0.00     0.162 HD
BRANCH  14  16
HETATM   16  C5  UNL     1       4.235  -1.356   0.531  1.00  0.00     0.122 C 
BRANCH  16  17
HETATM   17  C6  UNL     1       5.506  -0.671   0.957  1.00  0.00     0.021 C 
BRANCH  17  18
HETATM   18  C7  UNL     1       5.661   0.698   0.354  1.00  0.00     0.021 C 
BRANCH  18  19
HETATM   19  C8  UNL     1       6.935   1.371   0.785  1.00  0.00     0.124 C 
BRANCH  19  20
HETATM   20  N3  UNL     1       8.132   0.660   0.432  1.00  0.00    -0.345 N 
HETATM   21  C9  UNL     1       8.468   0.382  -0.912  1.00  0.00     0.328 C 
HETATM   22  N4  UNL     1       9.666  -0.329  -1.216  1.00  0.00    -0.040 NA
HETATM   23  O3  UNL     1       7.771   0.722  -1.897  1.00  0.00    -0.251 OA
ATOM     24  H3  UNL     1       8.758   0.346   1.174  1.00  0.00     0.163 HD
ENDBRANCH  19  20
ENDBRANCH  18  19
ENDBRANCH  17  18
ENDBRANCH  16  17
ENDBRANCH  14  16
ENDBRANCH   5  12
BRANCH  10  25
HETATM   25  N5  UNL     1      -3.761   0.157  -0.812  1.00  0.00    -0.047 N 
HETATM   26  C17 UNL     1      -3.933  -1.227  -1.316  1.00  0.00     0.243 C 
HETATM   27  C18 UNL     1      -5.238  -1.735  -0.811  1.00  0.00     0.014 C 
HETATM   28  C19 UNL     1      -6.290  -1.157  -1.777  1.00  0.00     0.008 C 
HETATM   29  C22 UNL     1      -5.526  -0.831   0.364  1.00  0.00     0.039 C 
HETATM   30  C20 UNL     1      -6.103   0.327  -1.513  1.00  0.00     0.034 C 
HETATM   31  C21 UNL     1      -5.088   0.444  -0.373  1.00  0.00     0.192 C 
BRANCH  25  32
HETATM   32  C15 UNL     1      -3.392   0.920  -1.940  1.00  0.00     0.351 C 
BRANCH  32  33
HETATM   33  C16 UNL     1      -3.683   2.347  -1.974  1.00  0.00     0.199 C 
HETATM   34  O4  UNL     1      -3.272   2.946  -3.032  1.00  0.00    -0.647 OA
HETATM   35  O5  UNL     1      -4.318   3.138  -1.070  1.00  0.00    -0.647 OA
ENDBRANCH  32  33
ENDBRANCH  25  32
ENDBRANCH  10  25
TORSDOF 9
