REMARK  9 active torsions:
REMARK  status: ('A' for Active; 'I' for Inactive)
REMARK    1  A    between atoms: C2_2  and  N1_3 
REMARK    2  A    between atoms: N1_3  and  C5_6 
REMARK    3  A    between atoms: C5_6  and  C6_7 
REMARK    4  A    between atoms: C6_7  and  C7_8 
REMARK    5  A    between atoms: C7_8  and  N2_9 
REMARK    6  A    between atoms: C10_12  and  C11_13 
REMARK    7  A    between atoms: C11_13  and  C12_14 
REMARK    8  A    between atoms: C13_17  and  C14_18 
REMARK    9  A    between atoms: C14_18  and  C15_19 
ROOT
HETATM    1  C12 UNL     1       2.035   0.991   0.281  1.00  0.00     0.082 A 
HETATM    2  N3  UNL     1       3.207   0.401   0.164  1.00  0.00    -0.366 N 
ATOM      3  H3  UNL     1       3.402  -0.542   0.500  1.00  0.00     0.161 HD
HETATM    4  C13 UNL     1       4.175   1.227  -0.485  1.00  0.00     0.180 A 
HETATM    5  C21 UNL     1       3.416   2.436  -0.842  1.00  0.00     0.247 A 
HETATM    6  O1  UNL     1       3.825   3.441  -1.482  1.00  0.00    -0.271 OA
HETATM    7  N8  UNL     1       2.093   2.264  -0.320  1.00  0.00    -0.310 N 
HETATM    8  C22 UNL     1       1.027   3.286  -0.394  1.00  0.00     0.160 C 
ENDROOT
BRANCH   1   9
HETATM    9  C11 UNL     1       0.932   0.281   0.927  1.00  0.00     0.081 C 
BRANCH   9  10
HETATM   10  C10 UNL     1       0.029  -0.542   0.105  1.00  0.00    -0.004 C 
HETATM   11  C9  UNL     1      -0.978  -1.177   1.106  1.00  0.00     0.035 C 
HETATM   12  C8  UNL     1      -2.204  -0.314   1.127  1.00  0.00     0.272 C 
HETATM   13  N2  UNL     1      -2.963  -0.448  -0.096  1.00  0.00     0.088 N 
HETATM   14  C24 UNL     1      -2.065  -0.541  -1.235  1.00  0.00     0.272 C 
HETATM   15  C23 UNL     1      -0.760   0.208  -0.934  1.00  0.00     0.035 C 
BRANCH  13  16
HETATM   16  C7  UNL     1      -3.811  -1.629  -0.123  1.00  0.00     0.274 C 
BRANCH  16  17
HETATM   17  C6  UNL     1      -4.934  -1.571   0.838  1.00  0.00     0.058 C 
BRANCH  17  18
HETATM   18  C5  UNL     1      -5.923  -0.480   0.687  1.00  0.00     0.238 C 
BRANCH  18  19
HETATM   19  N1  UNL     1      -6.726  -0.419  -0.477  1.00  0.00    -0.075 N 
HETATM   20  C3  UNL     1      -6.705  -1.540  -1.361  1.00  0.00     0.272 C 
HETATM   21  C4  UNL     1      -8.142  -0.175  -0.107  1.00  0.00     0.272 C 
BRANCH  19  22
HETATM   22  C2  UNL     1      -6.340   0.768  -1.259  1.00  0.00     0.232 C 
HETATM   23  C1  UNL     1      -6.388   2.035  -0.473  1.00  0.00     0.034 C 
ENDBRANCH  19  22
ENDBRANCH  18  19
ENDBRANCH  17  18
ENDBRANCH  16  17
ENDBRANCH  13  16
ENDBRANCH   9  10
ENDBRANCH   1   9
BRANCH   4  24
HETATM   24  C14 UNL     1       5.169   1.655   0.589  1.00  0.00     0.077 C 
BRANCH  24  25
HETATM   25  C15 UNL     1       5.829   0.500   1.219  1.00  0.00    -0.009 A 
HETATM   26  C16 UNL     1       5.533  -0.029   2.457  1.00  0.00     0.099 A 
HETATM   27  N4  UNL     1       6.339  -1.090   2.701  1.00  0.00    -0.349 N 
HETATM   28  C17 UNL     1       7.159  -1.258   1.632  1.00  0.00     0.149 A 
ATOM     29  H4  UNL     1       6.331  -1.665   3.544  1.00  0.00     0.166 HD
HETATM   30  N5  UNL     1       8.151  -1.986   1.103  1.00  0.00    -0.174 N 
HETATM   31  C20 UNL     1       6.843  -0.273   0.716  1.00  0.00     0.101 A 
HETATM   32  C18 UNL     1       8.457  -1.484  -0.108  1.00  0.00     0.679 A 
ATOM     33  H5  UNL     1       8.600  -2.788   1.545  1.00  0.00     0.186 HD
HETATM   34  N6  UNL     1       9.355  -1.912  -0.921  1.00  0.00    -0.230 N 
HETATM   35  N7  UNL     1       7.656  -0.436  -0.343  1.00  0.00    -0.188 N 
HETATM   36  C19 UNL     1       9.543  -1.237  -2.192  1.00  0.00     0.165 C 
ATOM     37  H6  UNL     1       9.930  -2.718  -0.676  1.00  0.00     0.177 HD
ATOM     38  H7  UNL     1       7.662   0.141  -1.184  1.00  0.00     0.184 HD
ENDBRANCH  24  25
ENDBRANCH   4  24
TORSDOF 9
