REMARK  6 active torsions:
REMARK  status: ('A' for Active; 'I' for Inactive)
REMARK    1  A    between atoms: C3_6  and  N2_7 
REMARK    2  A    between atoms: N2_7  and  C4_10 
REMARK    3  A    between atoms: C4_10  and  C5_11 
REMARK    4  A    between atoms: C5_11  and  N3_12 
REMARK    5  A    between atoms: N3_12  and  C6_15 
REMARK    6  A    between atoms: C6_15  and  C7_16 
ROOT
HETATM    1  N2  UNL     1      -1.478  -0.570  -0.768  1.00  0.00    -0.045 N 
ATOM      2  H21 UNL     1      -1.217  -1.357  -1.363  1.00  0.00     0.279 HD
ATOM      3  H22 UNL     1      -1.701  -1.095   0.077  1.00  0.00     0.279 HD
ENDROOT
BRANCH   1   4
HETATM    4  C3  UNL     1      -2.606   0.141  -1.276  1.00  0.00     0.382 C 
HETATM    5  N1  UNL     1      -3.787  -0.730  -1.420  1.00  0.00    -0.046 N 
HETATM    6  C2  UNL     1      -4.430  -0.753  -0.123  1.00  0.00     0.235 C 
ATOM      7  H12 UNL     1      -3.566  -1.658  -1.780  1.00  0.00     0.279 HD
ATOM      8  H11 UNL     1      -4.410  -0.448  -2.177  1.00  0.00     0.279 HD
HETATM    9  C1  UNL     1      -3.962   0.442   0.635  1.00  0.00     0.031 C 
HETATM   10  C10 UNL     1      -3.167   1.209  -0.395  1.00  0.00     0.064 C 
ENDBRANCH   1   4
BRANCH   1  11
HETATM   11  C4  UNL     1      -0.388   0.347  -0.568  1.00  0.00     0.262 C 
BRANCH  11  12
HETATM   12  C5  UNL     1       0.819  -0.318   0.119  1.00  0.00     0.259 C 
BRANCH  12  13
HETATM   13  N3  UNL     1       1.787   0.749   0.319  1.00  0.00    -0.073 N 
ATOM     14  H32 UNL     1       2.131   1.102  -0.574  1.00  0.00     0.277 HD
ATOM     15  H31 UNL     1       1.332   1.593   0.667  1.00  0.00     0.277 HD
BRANCH  13  16
HETATM   16  C6  UNL     1       2.863   0.368   1.162  1.00  0.00     0.237 C 
BRANCH  16  17
HETATM   17  C7  UNL     1       3.791  -0.624   0.560  1.00  0.00     0.011 A 
HETATM   18  C8  UNL     1       4.570  -0.389  -0.665  1.00  0.00     0.007 A 
HETATM   19  C9  UNL     1       5.303  -0.360   0.636  1.00  0.00     0.007 A 
ENDBRANCH  16  17
ENDBRANCH  13  16
ENDBRANCH  12  13
ENDBRANCH  11  12
ENDBRANCH   1  11
TORSDOF 6
