REMARK  7 active torsions:
REMARK  status: ('A' for Active; 'I' for Inactive)
REMARK       I    between atoms: N1_2  and  C2_4 
REMARK    1  A    between atoms: C2_4  and  C3_6 
REMARK    2  A    between atoms: C3_6  and  N2_7 
REMARK    3  A    between atoms: C3_6  and  C13_23 
REMARK       I    between atoms: N2_7  and  C4_9 
REMARK    4  A    between atoms: C4_9  and  C5_11 
REMARK    5  A    between atoms: N3_16  and  C10_17 
REMARK       I    between atoms: C13_23  and  N5_25 
REMARK    6  A    between atoms: C17_29  and  C18_30 
REMARK       I    between atoms: C18_30  and  N6_32 
REMARK    7  A    between atoms: N6_32  and  C19_34 
ROOT
HETATM    1  C3  UNL     1      -0.071   0.363  -1.227  1.00  0.00     0.269 C 
ENDROOT
BRANCH   1   2
HETATM    2  C2  UNL     1       0.079   1.631  -2.008  1.00  0.00     0.249 C 
HETATM    3  N1  UNL     1      -0.876   1.995  -2.969  1.00  0.00    -0.363 N 
HETATM    4  C1  UNL     1      -0.731   3.246  -3.743  1.00  0.00     0.149 C 
ATOM      5  H1  UNL     1      -1.680   1.389  -3.136  1.00  0.00     0.162 HD
HETATM    6  O1  UNL     1       1.098   2.353  -1.763  1.00  0.00    -0.271 OA
ENDBRANCH   1   2
BRANCH   1   7
HETATM    7  N2  UNL     1       1.072   0.310  -0.292  1.00  0.00    -0.339 N 
HETATM    8  C4  UNL     1       2.033  -0.712  -0.387  1.00  0.00     0.228 C 
HETATM    9  O2  UNL     1       1.887  -1.588  -1.303  1.00  0.00    -0.273 OA
ATOM     10  H2  UNL     1       1.165   1.023   0.431  1.00  0.00     0.163 HD
BRANCH   8  11
HETATM   11  C5  UNL     1       3.202  -0.826   0.515  1.00  0.00     0.053 C 
HETATM   12  C6  UNL     1       2.760  -0.984   1.963  1.00  0.00     0.027 C 
HETATM   13  C7  UNL     1       4.059  -1.980   0.111  1.00  0.00     0.022 C 
HETATM   14  C8  UNL     1       5.262  -2.161   0.976  1.00  0.00     0.021 C 
HETATM   15  C9  UNL     1       6.005  -0.873   1.228  1.00  0.00     0.124 C 
HETATM   16  N3  UNL     1       5.426   0.233   0.476  1.00  0.00    -0.370 N 
HETATM   17  C12 UNL     1       3.984   0.445   0.400  1.00  0.00     0.142 C 
BRANCH  16  18
HETATM   18  C10 UNL     1       6.254   1.158  -0.222  1.00  0.00     0.068 C 
HETATM   19  C11 UNL     1       7.234   0.614  -1.211  1.00  0.00     0.088 C 
HETATM   20  N4  UNL     1       6.168   2.417  -0.016  1.00  0.00    -0.389 N 
ATOM     21  H42 UNL     1       5.499   2.788   0.659  1.00  0.00     0.157 HD
ATOM     22  H41 UNL     1       6.761   3.079  -0.516  1.00  0.00     0.157 HD
ENDBRANCH  16  18
ENDBRANCH   8  11
ENDBRANCH   1   7
BRANCH   1  23
HETATM   23  C13 UNL     1      -1.338   0.449  -0.436  1.00  0.00     0.252 C 
HETATM   24  O3  UNL     1      -1.350   1.254   0.504  1.00  0.00    -0.270 OA
HETATM   25  N5  UNL     1      -2.439  -0.355  -0.761  1.00  0.00    -0.337 N 
HETATM   26  C14 UNL     1      -2.349  -1.331  -1.882  1.00  0.00     0.127 C 
HETATM   27  C17 UNL     1      -3.762  -0.475  -0.258  1.00  0.00     0.179 C 
HETATM   28  C15 UNL     1      -3.503  -2.285  -1.704  1.00  0.00     0.022 C 
HETATM   29  C16 UNL     1      -3.969  -2.023  -0.295  1.00  0.00     0.037 C 
BRANCH  27  30
HETATM   30  C18 UNL     1      -4.080  -0.004   1.082  1.00  0.00     0.240 C 
HETATM   31  O4  UNL     1      -3.303   0.297   2.010  1.00  0.00    -0.271 OA
HETATM   32  N6  UNL     1      -5.477   0.145   1.408  1.00  0.00    -0.355 N 
ATOM     33  H6  UNL     1      -6.170  -0.084   0.696  1.00  0.00     0.162 HD
BRANCH  32  34
HETATM   34  C19 UNL     1      -5.938   0.602   2.694  1.00  0.00     0.076 C 
HETATM   35  C20 UNL     1      -6.751   1.872   2.566  1.00  0.00     0.032 C 
HETATM   36  C21 UNL     1      -6.842  -0.427   3.353  1.00  0.00     0.032 C 
ENDBRANCH  32  34
ENDBRANCH  27  30
ENDBRANCH   1  23
TORSDOF 7
