REMARK  11 active torsions:
REMARK  status: ('A' for Active; 'I' for Inactive)
REMARK    1  A    between atoms: C2_2  and  C3_3 
REMARK    2  A    between atoms: C3_3  and  C4_4 
REMARK    3  A    between atoms: C8_13  and  O2_14 
REMARK    4  A    between atoms: C9_16  and  C10_17 
REMARK    5  A    between atoms: C10_17  and  C11_18 
REMARK    6  A    between atoms: C14_23  and  O3_24 
REMARK    7  A    between atoms: C16_28  and  C17_29 
REMARK    8  A    between atoms: C17_29  and  C18_30 
REMARK    9  A    between atoms: C18_30  and  C19_31 
REMARK   10  A    between atoms: C19_31  and  O6_33 
REMARK   11  A    between atoms: C21_37  and  O7_38 
ROOT
HETATM    1  C4  UNL     1      -1.990   2.161   0.022  1.00  0.00     0.159 C 
HETATM    2  N1  UNL     1      -0.700   2.748   0.360  1.00  0.00    -0.347 N 
ATOM      3  H1  UNL     1      -0.732   3.476   1.074  1.00  0.00     0.163 HD
HETATM    4  C5  UNL     1       0.578   2.468  -0.143  1.00  0.00     0.240 C 
HETATM    5  O1  UNL     1       1.550   2.911   0.584  1.00  0.00    -0.271 OA
HETATM    6  C6  UNL     1       1.015   1.766  -1.341  1.00  0.00     0.171 C 
HETATM    7  C7  UNL     1       1.516   2.925  -2.253  1.00  0.00     0.042 C 
HETATM    8  N2  UNL     1       1.987   0.715  -1.255  1.00  0.00    -0.360 N 
ATOM      9  H2  UNL     1       2.704   0.814  -1.974  1.00  0.00     0.162 HD
HETATM   10  C8  UNL     1       2.219  -0.401  -0.460  1.00  0.00     0.135 C 
HETATM   11  C9  UNL     1       2.687  -0.693   0.898  1.00  0.00     0.158 C 
HETATM   12  N3  UNL     1       1.655  -0.894   1.914  1.00  0.00    -0.356 N 
ATOM     13  H3  UNL     1       1.967  -1.433   2.722  1.00  0.00     0.162 HD
HETATM   14  C14 UNL     1       0.311  -0.481   1.984  1.00  0.00     0.185 C 
HETATM   15  C15 UNL     1      -0.956  -0.736   1.438  1.00  0.00     0.222 C 
HETATM   16  O4  UNL     1      -1.008  -0.770   0.148  1.00  0.00    -0.286 OA
HETATM   17  C16 UNL     1      -2.364  -0.991   1.759  1.00  0.00     0.162 C 
HETATM   18  N4  UNL     1      -3.168   0.217   1.398  1.00  0.00    -0.361 N 
ATOM     19  H4  UNL     1      -4.176   0.081   1.324  1.00  0.00     0.162 HD
HETATM   20  C21 UNL     1      -2.698   1.518   1.149  1.00  0.00     0.135 C 
ENDROOT
BRANCH  17  21
HETATM   21  C17 UNL     1      -2.903  -2.062   0.806  1.00  0.00     0.043 C 
BRANCH  21  22
HETATM   22  C18 UNL     1      -2.147  -3.357   0.926  1.00  0.00     0.113 C 
BRANCH  22  23
HETATM   23  C19 UNL     1      -2.715  -4.343  -0.018  1.00  0.00     0.258 C 
HETATM   24  O5  UNL     1      -3.791  -4.946   0.298  1.00  0.00    -0.265 OA
BRANCH  23  25
HETATM   25  O6  UNL     1      -2.077  -4.596  -1.217  1.00  0.00    -0.326 OA
HETATM   26  C20 UNL     1      -2.628  -5.537  -2.110  1.00  0.00     0.213 C 
ENDBRANCH  23  25
ENDBRANCH  22  23
ENDBRANCH  21  22
ENDBRANCH  17  21
BRANCH  14  27
HETATM   27  O3  UNL     1       0.298   0.512   2.911  1.00  0.00    -0.344 OA
ATOM     28  H3  UNL     1      -0.609   0.791   2.958  1.00  0.00     0.219 HD
ENDBRANCH  14  27
BRANCH  20  29
HETATM   29  O7  UNL     1      -2.915   2.392   2.100  1.00  0.00    -0.348 OA
ATOM     30  H7  UNL     1      -3.370   1.979   2.824  1.00  0.00     0.219 HD
ENDBRANCH  20  29
BRANCH   1  31
HETATM   31  C3  UNL     1      -2.822   3.307  -0.586  1.00  0.00     0.033 C 
BRANCH  31  32
HETATM   32  C2  UNL     1      -3.069   4.478   0.247  1.00  0.00    -0.002 C 
HETATM   33  C1  UNL     1      -3.886   5.464  -0.632  1.00  0.00     0.005 C 
ENDBRANCH  31  32
ENDBRANCH   1  31
BRANCH  11  34
HETATM   34  C10 UNL     1       3.603  -1.878   0.964  1.00  0.00     0.037 C 
BRANCH  34  35
HETATM   35  C11 UNL     1       4.882  -1.842   0.255  1.00  0.00    -0.020 C 
HETATM   36  C12 UNL     1       4.946  -1.667  -1.208  1.00  0.00     0.009 C 
HETATM   37  C13 UNL     1       5.905  -0.890   0.858  1.00  0.00     0.009 C 
ENDBRANCH  34  35
ENDBRANCH  11  34
BRANCH  10  38
HETATM   38  O2  UNL     1       1.958  -1.539  -1.062  1.00  0.00    -0.348 OA
ATOM     39  H2  UNL     1       2.117  -2.302  -0.519  1.00  0.00     0.219 HD
ENDBRANCH  10  38
TORSDOF 11
