REMARK  11 active torsions:
REMARK  status: ('A' for Active; 'I' for Inactive)
REMARK    1  A    between atoms: C3_3  and  C4_4 
REMARK    2  A    between atoms: C4_4  and  N1_5 
REMARK    3  A    between atoms: C8_9  and  N2_10 
REMARK       I    between atoms: N2_10  and  C9_12 
REMARK    4  A    between atoms: C9_12  and  C10_14 
REMARK    5  A    between atoms: C10_14  and  C11_15 
REMARK    6  A    between atoms: C11_15  and  C12_16 
REMARK    7  A    between atoms: C12_16  and  C13_17 
REMARK    8  A    between atoms: C13_17  and  N3_18 
REMARK       I    between atoms: C14_20  and  N5_22 
REMARK    9  A    between atoms: N5_22  and  C15_24 
REMARK   10  A    between atoms: C15_24  and  C16_25 
REMARK   11  A    between atoms: C22_32  and  O2_33 
ROOT
HETATM    1  C1  UNL     1      10.364   3.148   1.718  1.00  0.00     0.112 C 
HETATM    2  C2  UNL     1       9.789   2.320   0.644  1.00  0.00    -0.109 C 
HETATM    3  C3  UNL     1       9.337   1.633  -0.237  1.00  0.00    -0.087 C 
ENDROOT
BRANCH   3   4
HETATM    4  C4  UNL     1       8.812   0.786  -1.306  1.00  0.00     0.217 C 
BRANCH   4   5
HETATM    5  N1  UNL     1       7.911  -0.175  -0.685  1.00  0.00    -0.363 N 
HETATM    6  C5  UNL     1       8.437  -1.203   0.195  1.00  0.00     0.124 C 
HETATM    7  C6  UNL     1       7.511  -2.371   0.357  1.00  0.00     0.022 C 
HETATM    8  C7  UNL     1       6.568  -2.544  -0.789  1.00  0.00     0.034 C 
HETATM    9  C8  UNL     1       5.636  -1.348  -0.892  1.00  0.00     0.146 C 
HETATM   10  C23 UNL     1       6.510  -0.148  -0.915  1.00  0.00     0.099 C 
HETATM   11  S1  UNL     1       5.813   1.317  -1.231  1.00  0.00    -0.063 SA
BRANCH   9  12
HETATM   12  N2  UNL     1       4.643  -1.329   0.118  1.00  0.00    -0.350 N 
HETATM   13  C9  UNL     1       3.256  -1.423  -0.246  1.00  0.00     0.218 C 
HETATM   14  O1  UNL     1       2.943  -1.521  -1.469  1.00  0.00    -0.274 OA
ATOM     15  H2  UNL     1       4.911  -1.249   1.099  1.00  0.00     0.163 HD
BRANCH  13  16
HETATM   16  C10 UNL     1       2.188  -1.407   0.759  1.00  0.00     0.103 C 
BRANCH  16  17
HETATM   17  C11 UNL     1       0.816  -1.355   0.169  1.00  0.00     0.011 C 
BRANCH  17  18
HETATM   18  C12 UNL     1       0.518  -0.130  -0.634  1.00  0.00     0.020 C 
BRANCH  18  19
HETATM   19  C13 UNL     1      -0.912  -0.240  -1.143  1.00  0.00     0.122 C 
BRANCH  19  20
HETATM   20  N3  UNL     1      -1.779  -0.323  -0.001  1.00  0.00    -0.365 N 
HETATM   21  C14 UNL     1      -2.677   0.584   0.181  1.00  0.00     0.183 C 
HETATM   22  N4  UNL     1      -2.761   1.633  -0.777  1.00  0.00    -0.064 NA
HETATM   23  N5  UNL     1      -3.515   0.520   1.311  1.00  0.00    -0.364 N 
ATOM     24  H5  UNL     1      -3.089   0.329   2.218  1.00  0.00     0.162 HD
ATOM     25  H3  UNL     1      -1.685  -1.093   0.661  1.00  0.00     0.162 HD
BRANCH  23  26
HETATM   26  C15 UNL     1      -4.918   0.707   1.255  1.00  0.00     0.131 C 
BRANCH  26  27
HETATM   27  C16 UNL     1      -5.721  -0.352   0.605  1.00  0.00     0.060 C 
HETATM   28  C17 UNL     1      -5.488  -0.661  -0.820  1.00  0.00     0.012 C 
HETATM   29  C18 UNL     1      -6.168   0.389  -1.676  1.00  0.00     0.029 C 
HETATM   30  C19 UNL     1      -7.633   0.399  -1.392  1.00  0.00     0.239 C 
HETATM   31  N6  UNL     1      -7.936   0.600   0.009  1.00  0.00    -0.048 N 
HETATM   32  C20 UNL     1      -9.357   0.266   0.165  1.00  0.00     0.275 C 
HETATM   33  C21 UNL     1      -7.820   2.011   0.295  1.00  0.00     0.275 C 
HETATM   34  C22 UNL     1      -7.200  -0.240   0.884  1.00  0.00     0.328 C 
BRANCH  34  35
HETATM   35  O2  UNL     1      -7.307   0.322   2.178  1.00  0.00    -0.369 OA
ATOM     36  H2  UNL     1      -8.238   0.392   2.354  1.00  0.00     0.212 HD
ENDBRANCH  34  35
ENDBRANCH  26  27
ENDBRANCH  23  26
ENDBRANCH  19  20
ENDBRANCH  18  19
ENDBRANCH  17  18
ENDBRANCH  16  17
ENDBRANCH  13  16
ENDBRANCH   9  12
ENDBRANCH   4   5
ENDBRANCH   3   4
TORSDOF 11
