REMARK  12 active torsions:
REMARK  status: ('A' for Active; 'I' for Inactive)
REMARK    1  A    between atoms: C4_4  and  C5_5 
REMARK    2  A    between atoms: C5_5  and  C6_6 
REMARK    3  A    between atoms: C5_5  and  C8_12 
REMARK       I    between atoms: N1_7  and  C7_9 
REMARK    4  A    between atoms: C14_18  and  C15_19 
REMARK    5  A    between atoms: C15_19  and  C16_20 
REMARK    6  A    between atoms: C15_19  and  O3_26 
REMARK    7  A    between atoms: C16_20  and  C17_21 
REMARK    8  A    between atoms: C17_21  and  C18_22 
REMARK    9  A    between atoms: C18_22  and  O2_24 
REMARK   10  A    between atoms: O3_26  and  C20_27 
REMARK   11  A    between atoms: C22_31  and  O5_32 
REMARK   12  A    between atoms: C24_35  and  O6_36 
ROOT
HETATM    1  C8  UNL     1      -3.295   0.573  -0.556  1.00  0.00     0.021 C 
HETATM    2  C9  UNL     1      -2.109   1.169  -1.211  1.00  0.00    -0.018 C 
HETATM    3  C10 UNL     1      -1.038   0.414  -1.400  1.00  0.00    -0.072 C 
HETATM    4  C11 UNL     1       0.150   1.068  -2.074  1.00  0.00     0.035 C 
HETATM    5  C12 UNL     1       1.377   0.870  -1.139  1.00  0.00     0.012 C 
HETATM    6  C13 UNL     1       1.571  -0.621  -1.047  1.00  0.00     0.028 C 
HETATM    7  C14 UNL     1       2.892  -1.147  -0.788  1.00  0.00     0.025 C 
HETATM    8  C21 UNL     1       2.925  -2.389   0.095  1.00  0.00     0.039 C 
HETATM    9  C22 UNL     1       1.784  -3.269  -0.445  1.00  0.00     0.121 C 
HETATM   10  C23 UNL     1       0.518  -2.633   0.062  1.00  0.00     0.071 C 
HETATM   11  C24 UNL     1       0.418  -1.170  -0.231  1.00  0.00     0.075 C 
HETATM   12  C25 UNL     1      -0.889  -1.001  -1.022  1.00  0.00     0.011 C 
HETATM   13  C26 UNL     1      -0.935  -1.838  -2.260  1.00  0.00     0.023 C 
HETATM   14  C27 UNL     1      -1.969  -1.493  -0.082  1.00  0.00     0.017 C 
HETATM   15  C28 UNL     1      -2.797  -0.369   0.499  1.00  0.00     0.010 C 
ENDROOT
BRANCH   1  16
HETATM   16  C5  UNL     1      -4.164   1.619   0.145  1.00  0.00     0.054 C 
BRANCH  16  17
HETATM   17  C4  UNL     1      -4.667   2.620  -0.763  1.00  0.00    -0.014 C 
HETATM   18  C2  UNL     1      -5.893   2.914  -1.055  1.00  0.00    -0.091 C 
HETATM   19  C1  UNL     1      -7.119   2.288  -0.526  1.00  0.00     0.042 C 
HETATM   20  C3  UNL     1      -6.059   4.052  -2.079  1.00  0.00     0.042 C 
ENDBRANCH  16  17
BRANCH  16  21
HETATM   21  C6  UNL     1      -5.076   0.888   1.018  1.00  0.00     0.074 C 
HETATM   22  N1  UNL     1      -5.176   1.098   2.296  1.00  0.00    -0.324 N 
HETATM   23  C7  UNL     1      -6.065   0.379   3.123  1.00  0.00     0.332 C 
ATOM     24  H1  UNL     1      -4.586   1.814   2.720  1.00  0.00     0.169 HD
HETATM   25  N2  UNL     1      -6.756  -0.763   2.656  1.00  0.00    -0.040 NA
HETATM   26  O1  UNL     1      -6.247   0.761   4.297  1.00  0.00    -0.251 OA
ENDBRANCH  16  21
ENDBRANCH   1  16
BRANCH  11  27
HETATM   27  O6  UNL     1       0.205  -0.474   0.956  1.00  0.00    -0.388 OA
ATOM     28  H6  UNL     1      -0.518  -0.818   1.468  1.00  0.00     0.210 HD
ENDBRANCH  11  27
BRANCH   7  29
HETATM   29  C15 UNL     1       4.003  -0.244  -0.253  1.00  0.00     0.138 C 
BRANCH  29  30
HETATM   30  C16 UNL     1       3.732   0.337   1.052  1.00  0.00     0.035 C 
BRANCH  30  31
HETATM   31  C17 UNL     1       4.714   1.253   1.706  1.00  0.00     0.034 C 
BRANCH  31  32
HETATM   32  C18 UNL     1       6.032   0.663   2.082  1.00  0.00     0.114 C 
HETATM   33  C19 UNL     1       6.893   1.740   2.750  1.00  0.00     0.039 C 
BRANCH  32  34
HETATM   34  O2  UNL     1       5.748  -0.350   3.031  1.00  0.00    -0.396 OA
ATOM     35  H2  UNL     1       6.587  -0.726   3.270  1.00  0.00     0.210 HD
ENDBRANCH  32  34
ENDBRANCH  31  32
ENDBRANCH  30  31
ENDBRANCH  29  30
BRANCH  29  36
HETATM   36  O3  UNL     1       5.121  -1.107  -0.267  1.00  0.00    -0.301 OA
BRANCH  36  37
HETATM   37  C20 UNL     1       6.122  -1.001  -1.252  1.00  0.00     0.373 C 
HETATM   38  N3  UNL     1       7.213  -1.881  -1.223  1.00  0.00    -0.032 NA
HETATM   39  O4  UNL     1       5.958  -0.101  -2.106  1.00  0.00    -0.242 OA
ENDBRANCH  36  37
ENDBRANCH  29  36
ENDBRANCH   7  29
BRANCH   9  40
HETATM   40  O5  UNL     1       1.992  -4.530   0.094  1.00  0.00    -0.395 OA
ATOM     41  H5  UNL     1       1.288  -5.073  -0.239  1.00  0.00     0.210 HD
ENDBRANCH   9  40
TORSDOF 12
