REMARK  4 active torsions:
REMARK  status: ('A' for Active; 'I' for Inactive)
REMARK    1  A    between atoms: C2_2  and  O1_3 
REMARK    2  A    between atoms: C5_7  and  O2_8 
REMARK    3  A    between atoms: C6_10  and  O3_11 
REMARK    4  A    between atoms: C8_14  and  O4_15 
ROOT
HETATM    1  C1  UNL     1      -3.125   0.370  -0.486  1.00  0.00     0.046 C 
HETATM    2  C2  UNL     1      -1.898   0.070   0.293  1.00  0.00     0.057 C 
HETATM    3  C3  UNL     1      -1.045  -1.034  -0.351  1.00  0.00     0.047 C 
HETATM    4  C4  UNL     1       0.169  -0.312  -0.741  1.00  0.00     0.054 C 
HETATM    5  C5  UNL     1       1.465  -0.992  -0.737  1.00  0.00     0.154 C 
HETATM    6  C6  UNL     1       2.437   0.127  -0.334  1.00  0.00     0.150 C 
HETATM    7  C7  UNL     1       1.547   1.319   0.065  1.00  0.00     0.072 C 
HETATM    8  C8  UNL     1       0.336   0.602   0.497  1.00  0.00     0.069 C 
HETATM    9  C9  UNL     1      -0.966   1.290   0.414  1.00  0.00     0.075 C 
ENDROOT
BRANCH   2  10
HETATM   10  O1  UNL     1      -2.150  -0.339   1.603  1.00  0.00    -0.390 OA
ATOM     11  H1  UNL     1      -1.365  -0.531   2.102  1.00  0.00     0.210 HD
ENDBRANCH   2  10
BRANCH   8  12
HETATM   12  O4  UNL     1       0.493  -0.184   1.624  1.00  0.00    -0.389 OA
ATOM     13  H4  UNL     1       0.595   0.377   2.384  1.00  0.00     0.210 HD
ENDBRANCH   8  12
BRANCH   5  14
HETATM   14  O2  UNL     1       1.541  -2.069   0.120  1.00  0.00    -0.393 OA
ATOM     15  H2  UNL     1       2.382  -2.510   0.123  1.00  0.00     0.210 HD
ENDBRANCH   5  14
BRANCH   6  16
HETATM   16  O3  UNL     1       3.306   0.450  -1.344  1.00  0.00    -0.393 OA
ATOM     17  H3  UNL     1       3.907   1.142  -1.095  1.00  0.00     0.210 HD
ENDBRANCH   6  16
TORSDOF 4
