REMARK  3 active torsions:
REMARK  status: ('A' for Active; 'I' for Inactive)
REMARK    1  A    between atoms: C8_8  and  O1_9 
REMARK    2  A    between atoms: C9_11  and  O2_12 
REMARK    3  A    between atoms: C10_14  and  O3_15 
ROOT
HETATM    1  C1  UNL     1       3.576  -0.700   1.278  1.00  0.00     0.012 C 
HETATM    2  C2  UNL     1       2.685  -0.427   0.508  1.00  0.00    -0.110 C 
HETATM    3  C3  UNL     1       1.584  -0.081  -0.416  1.00  0.00     0.095 C 
HETATM    4  C4  UNL     1       0.823  -1.330  -0.751  1.00  0.00     0.020 C 
HETATM    5  C5  UNL     1       0.062  -1.886   0.412  1.00  0.00     0.001 C 
HETATM    6  C6  UNL     1      -1.412  -1.689   0.338  1.00  0.00     0.003 C 
HETATM    7  C7  UNL     1      -1.834  -0.257   0.671  1.00  0.00     0.034 C 
HETATM    8  C8  UNL     1      -1.649   0.679  -0.455  1.00  0.00     0.149 C 
HETATM    9  C9  UNL     1      -0.400   1.458  -0.488  1.00  0.00     0.176 C 
HETATM   10  C10 UNL     1       0.745   0.955   0.293  1.00  0.00     0.165 C 
ENDROOT
BRANCH  10  11
HETATM   11  O3  UNL     1       1.623   2.054   0.483  1.00  0.00    -0.392 OA
ATOM     12  H3  UNL     1       1.095   2.706   0.929  1.00  0.00     0.210 HD
ENDBRANCH  10  11
BRANCH   9  13
HETATM   13  O2  UNL     1      -0.633   2.797  -0.092  1.00  0.00    -0.390 OA
ATOM     14  H2  UNL     1       0.173   3.300  -0.113  1.00  0.00     0.210 HD
ENDBRANCH   9  13
BRANCH   8  15
HETATM   15  O1  UNL     1      -2.730   1.598  -0.468  1.00  0.00    -0.393 OA
ATOM     16  H1  UNL     1      -2.611   2.200  -1.193  1.00  0.00     0.210 HD
ENDBRANCH   8  15
TORSDOF 3
