REMARK  5 active torsions:
REMARK  status: ('A' for Active; 'I' for Inactive)
REMARK    1  A    between atoms: C4_5  and  C5_6 
REMARK    2  A    between atoms: C5_6  and  N1_7 
REMARK    3  A    between atoms: N2_11  and  C9_12 
REMARK    4  A    between atoms: C9_12  and  N3_14 
REMARK    5  A    between atoms: N3_14  and  C10_16 
ROOT
HETATM    1  C1  UNL     1      -0.767   4.144  -1.006  1.00  0.00     0.014 C 
HETATM    2  C2  UNL     1      -0.458   2.804  -0.391  1.00  0.00     0.023 C 
HETATM    3  C3  UNL     1      -1.520   1.797  -0.679  1.00  0.00     0.174 C 
HETATM    4  O1  UNL     1      -1.639   0.736   0.141  1.00  0.00    -0.382 OA
HETATM    5  C4  UNL     1      -1.036  -0.440  -0.259  1.00  0.00     0.167 C 
HETATM    6  C8  UNL     1       0.219  -0.195  -1.069  1.00  0.00     0.159 C 
HETATM    7  N2  UNL     1       0.965   0.936  -0.572  1.00  0.00    -0.355 N 
HETATM    8  C13 UNL     1       0.835   2.305  -1.056  1.00  0.00     0.131 C 
ENDROOT
BRANCH   7   9
HETATM    9  C9  UNL     1       1.889   0.742   0.468  1.00  0.00     0.170 C 
HETATM   10  S1  UNL     1       2.733   2.021   1.026  1.00  0.00    -0.041 SA
BRANCH   9  11
HETATM   11  N3  UNL     1       2.074  -0.551   1.017  1.00  0.00    -0.363 N 
ATOM     12  H3  UNL     1       1.541  -1.349   0.669  1.00  0.00     0.162 HD
BRANCH  11  13
HETATM   13  C10 UNL     1       3.045  -0.711   2.091  1.00  0.00     0.075 C 
HETATM   14  C11 UNL     1       3.086  -2.136   2.577  1.00  0.00     0.032 C 
HETATM   15  C12 UNL     1       4.409  -0.311   1.528  1.00  0.00     0.032 C 
ENDBRANCH  11  13
ENDBRANCH   9  11
ENDBRANCH   7   9
BRANCH   5  16
HETATM   16  C5  UNL     1      -2.006  -1.161  -1.175  1.00  0.00     0.304 C 
BRANCH  16  17
HETATM   17  N1  UNL     1      -3.254  -1.464  -0.502  1.00  0.00     0.082 N 
HETATM   18  C6  UNL     1      -4.092  -2.151  -1.488  1.00  0.00     0.309 C 
HETATM   19  C7  UNL     1      -2.946  -2.453   0.518  1.00  0.00     0.309 C 
ENDBRANCH  16  17
ENDBRANCH   5  16
TORSDOF 5
