REMARK  10 active torsions:
REMARK  status: ('A' for Active; 'I' for Inactive)
REMARK    1  A    between atoms: C2_2  and  N1_4 
REMARK    2  A    between atoms: N1_4  and  C4_5 
REMARK    3  A    between atoms: N1_4  and  C11_22 
REMARK    4  A    between atoms: C4_5  and  C5_6 
REMARK    5  A    between atoms: C5_6  and  N2_7 
REMARK    6  A    between atoms: N2_7  and  C6_9 
REMARK    7  A    between atoms: C6_9  and  C9_12 
REMARK    8  A    between atoms: C9_12  and  C10_13 
REMARK    9  A    between atoms: C11_22  and  C12_23 
REMARK       I    between atoms: C12_23  and  N7_25 
REMARK   10  A    between atoms: N7_25  and  C13_27 
ROOT
HETATM    1  N1  UNL     1       0.138  -1.228  -0.267  1.00  0.00    -0.379 N 
ENDROOT
BRANCH   1   2
HETATM    2  C2  UNL     1       0.669  -1.360  -1.541  1.00  0.00     0.075 C 
HETATM    3  C1  UNL     1      -0.194  -0.873  -2.679  1.00  0.00     0.032 C 
HETATM    4  C3  UNL     1       1.140  -2.746  -1.951  1.00  0.00     0.032 C 
ENDBRANCH   1   2
BRANCH   1   5
HETATM    5  C4  UNL     1       0.833  -1.572   0.883  1.00  0.00     0.078 C 
BRANCH   5   6
HETATM    6  C5  UNL     1       1.974  -0.690   1.276  1.00  0.00     0.159 C 
BRANCH   6   7
HETATM    7  N2  UNL     1       3.052  -0.589   0.344  1.00  0.00    -0.409 N 
ATOM      8  H2  UNL     1       3.055  -1.092  -0.543  1.00  0.00     0.154 HD
BRANCH   7   9
HETATM    9  C6  UNL     1       4.125   0.266   0.741  1.00  0.00     0.025 C 
HETATM   10  C7  UNL     1       3.713   1.707   0.933  1.00  0.00     0.038 C 
HETATM   11  C8  UNL     1       4.835  -0.198   1.991  1.00  0.00     0.038 C 
BRANCH   9  12
HETATM   12  C9  UNL     1       5.165   0.201  -0.391  1.00  0.00     0.109 C 
BRANCH  12  13
HETATM   13  C10 UNL     1       6.340   1.054  -0.109  1.00  0.00     0.115 A 
HETATM   14  N3  UNL     1       7.483   0.757   0.525  1.00  0.00    -0.272 N 
HETATM   15  N4  UNL     1       8.250   1.832   0.537  1.00  0.00    -0.227 N 
ATOM     16  H3  UNL     1       7.721  -0.148   0.931  1.00  0.00     0.190 HD
HETATM   17  N5  UNL     1       7.646   2.822  -0.069  1.00  0.00    -0.227 N 
ATOM     18  H4  UNL     1       9.178   1.883   0.957  1.00  0.00     0.210 HD
HETATM   19  N6  UNL     1       6.471   2.362  -0.473  1.00  0.00    -0.272 N 
ATOM     20  H5  UNL     1       8.009   3.765  -0.204  1.00  0.00     0.210 HD
ATOM     21  H6  UNL     1       5.771   2.904  -0.979  1.00  0.00     0.190 HD
ENDBRANCH  12  13
ENDBRANCH   9  12
ENDBRANCH   7   9
ENDBRANCH   6   7
ENDBRANCH   5   6
ENDBRANCH   1   5
BRANCH   1  22
HETATM   22  C11 UNL     1      -1.234  -0.863  -0.089  1.00  0.00     0.225 C 
BRANCH  22  23
HETATM   23  C12 UNL     1      -2.236  -1.865  -0.437  1.00  0.00     0.241 C 
HETATM   24  O1  UNL     1      -1.741  -2.991  -0.857  1.00  0.00    -0.271 OA
HETATM   25  N7  UNL     1      -3.598  -1.819  -0.393  1.00  0.00    -0.307 N 
ATOM     26  H7  UNL     1      -3.977  -2.753  -0.548  1.00  0.00     0.170 HD
BRANCH  25  27
HETATM   27  C13 UNL     1      -4.523  -1.018  -0.227  1.00  0.00     0.178 A 
HETATM   28  N8  UNL     1      -4.471   0.300   0.006  1.00  0.00    -0.336 N 
HETATM   29  C14 UNL     1      -5.576   1.051   0.156  1.00  0.00     0.060 A 
ATOM     30  H8  UNL     1      -3.559   0.751   0.072  1.00  0.00     0.168 HD
HETATM   31  C15 UNL     1      -5.418   2.424   0.392  1.00  0.00     0.032 A 
HETATM   32  C19 UNL     1      -6.822   0.517   0.081  1.00  0.00     0.062 A 
HETATM   33  C16 UNL     1      -6.512   3.247   0.551  1.00  0.00     0.002 A 
HETATM   34  C17 UNL     1      -7.777   2.678   0.470  1.00  0.00     0.002 A 
HETATM   35  C18 UNL     1      -7.928   1.322   0.236  1.00  0.00     0.032 A 
HETATM   36  N9  UNL     1      -6.916  -0.807  -0.152  1.00  0.00    -0.318 N 
HETATM   37  C20 UNL     1      -5.824  -1.563  -0.302  1.00  0.00     0.290 A 
ATOM     38  H9  UNL     1      -7.837  -1.240  -0.215  1.00  0.00     0.169 HD
HETATM   39  O2  UNL     1      -5.986  -2.796  -0.518  1.00  0.00    -0.264 OA
ENDBRANCH  25  27
ENDBRANCH  22  23
ENDBRANCH   1  22
TORSDOF 10
