REMARK  18 active torsions:
REMARK  status: ('A' for Active; 'I' for Inactive)
REMARK    1  A    between atoms: C2_3  and  O1_4 
REMARK    2  A    between atoms: C3_6  and  C4_7 
REMARK    3  A    between atoms: C4_7  and  N2_8 
REMARK       I    between atoms: N2_8  and  C5_10 
REMARK    4  A    between atoms: C5_10  and  C6_12 
REMARK    5  A    between atoms: C6_12  and  C7_13 
REMARK    6  A    between atoms: C7_13  and  N3_14 
REMARK    7  A    between atoms: C7_13  and  C8_18 
REMARK    8  A    between atoms: C8_18  and  C9_19 
REMARK    9  A    between atoms: C9_19  and  C10_20 
REMARK   10  A    between atoms: C10_20  and  C11_21 
REMARK   11  A    between atoms: C11_21  and  N4_22 
REMARK   12  A    between atoms: C15_29  and  O3_30 
REMARK   13  A    between atoms: C21_38  and  O4_39 
REMARK   14  A    between atoms: C22_41  and  C23_42 
REMARK   15  A    between atoms: C23_42  and  C24_43 
REMARK   16  A    between atoms: C24_43  and  C25_44 
REMARK   17  A    between atoms: C25_44  and  C26_45 
REMARK   18  A    between atoms: C26_45  and  N6_46 
ROOT
HETATM    1  C1  UNL     1      -1.837  -3.431  -1.047  1.00  0.00     0.152 C 
HETATM    2  N1  UNL     1      -1.789  -1.938  -1.094  1.00  0.00    -0.354 N 
HETATM    3  C2  UNL     1      -0.708  -1.343  -0.431  1.00  0.00     0.146 C 
HETATM    4  C3  UNL     1      -0.427  -0.156   0.324  1.00  0.00     0.007 C 
HETATM    5  C12 UNL     1      -1.274   0.502   1.277  1.00  0.00    -0.009 C 
HETATM    6  C13 UNL     1      -2.673   0.062   1.525  1.00  0.00     0.013 C 
HETATM    7  C14 UNL     1      -3.359   0.925   2.608  1.00  0.00     0.040 C 
HETATM    8  C15 UNL     1      -4.829   0.879   2.537  1.00  0.00     0.124 C 
HETATM    9  C16 UNL     1      -5.569  -0.276   2.087  1.00  0.00     0.034 C 
HETATM   10  C17 UNL     1      -5.173  -1.654   2.415  1.00  0.00     0.034 C 
HETATM   11  C18 UNL     1      -4.095  -1.892   1.330  1.00  0.00     0.087 C 
HETATM   12  C19 UNL     1      -2.867  -1.320   1.966  1.00  0.00     0.034 C 
HETATM   13  N5  UNL     1      -4.604  -1.286   0.144  1.00  0.00    -0.359 N 
HETATM   14  C20 UNL     1      -5.730  -0.428   0.582  1.00  0.00     0.132 C 
HETATM   15  C21 UNL     1      -4.203  -1.450  -1.189  1.00  0.00     0.137 C 
HETATM   16  C22 UNL     1      -2.874  -1.367  -1.830  1.00  0.00     0.160 C 
ENDROOT
BRANCH   4  17
HETATM   17  C4  UNL     1       1.008  -0.144   0.906  1.00  0.00     0.165 C 
BRANCH  17  18
HETATM   18  N2  UNL     1       2.025  -0.201  -0.057  1.00  0.00    -0.357 N 
HETATM   19  C5  UNL     1       3.387  -0.217   0.311  1.00  0.00     0.219 C 
HETATM   20  O2  UNL     1       3.669  -0.180   1.537  1.00  0.00    -0.274 OA
ATOM     21  H2  UNL     1       1.775  -0.232  -1.045  1.00  0.00     0.162 HD
BRANCH  19  22
HETATM   22  C6  UNL     1       4.495  -0.277  -0.676  1.00  0.00     0.135 C 
BRANCH  22  23
HETATM   23  C7  UNL     1       5.825  -0.328   0.044  1.00  0.00     0.192 C 
BRANCH  23  24
HETATM   24  N3  UNL     1       5.923  -1.489   0.900  1.00  0.00    -0.075 N 
ATOM     25  H33 UNL     1       5.143  -1.536   1.555  1.00  0.00     0.274 HD
ATOM     26  H32 UNL     1       5.747  -2.350   0.382  1.00  0.00     0.274 HD
ATOM     27  H31 UNL     1       6.819  -1.523   1.385  1.00  0.00     0.274 HD
ENDBRANCH  23  24
BRANCH  23  28
HETATM   28  C8  UNL     1       6.976  -0.321  -0.908  1.00  0.00     0.033 C 
BRANCH  28  29
HETATM   29  C9  UNL     1       8.268  -0.375  -0.140  1.00  0.00     0.004 C 
BRANCH  29  30
HETATM   30  C10 UNL     1       8.460   0.774   0.795  1.00  0.00     0.027 C 
BRANCH  30  31
HETATM   31  C11 UNL     1       8.473   2.114   0.115  1.00  0.00     0.229 C 
BRANCH  31  32
HETATM   32  N4  UNL     1       9.518   2.254  -0.859  1.00  0.00    -0.079 N 
ATOM     33  H43 UNL     1      10.427   2.052  -0.444  1.00  0.00     0.274 HD
ATOM     34  H42 UNL     1       9.474   1.501  -1.546  1.00  0.00     0.274 HD
ATOM     35  H41 UNL     1       9.527   3.164  -1.321  1.00  0.00     0.274 HD
ENDBRANCH  31  32
ENDBRANCH  30  31
ENDBRANCH  29  30
ENDBRANCH  28  29
ENDBRANCH  23  28
ENDBRANCH  22  23
ENDBRANCH  19  22
ENDBRANCH  17  18
ENDBRANCH   4  17
BRANCH   3  36
HETATM   36  O1  UNL     1       0.356  -2.103  -0.539  1.00  0.00    -0.346 OA
ATOM     37  H1  UNL     1       1.089  -1.699  -0.089  1.00  0.00     0.219 HD
ENDBRANCH   3  36
BRANCH  16  38
HETATM   38  C23 UNL     1      -2.584   0.009  -2.400  1.00  0.00     0.034 C 
BRANCH  38  39
HETATM   39  C24 UNL     1      -3.767   0.543  -3.168  1.00  0.00     0.004 C 
BRANCH  39  40
HETATM   40  C25 UNL     1      -3.460   1.903  -3.738  1.00  0.00     0.027 C 
BRANCH  40  41
HETATM   41  C26 UNL     1      -3.127   2.920  -2.682  1.00  0.00     0.229 C 
BRANCH  41  42
HETATM   42  N6  UNL     1      -4.222   3.103  -1.741  1.00  0.00    -0.079 N 
ATOM     43  H63 UNL     1      -5.090   3.339  -2.223  1.00  0.00     0.274 HD
ATOM     44  H62 UNL     1      -4.506   2.216  -1.325  1.00  0.00     0.274 HD
ATOM     45  H61 UNL     1      -3.996   3.793  -1.025  1.00  0.00     0.274 HD
ENDBRANCH  41  42
ENDBRANCH  40  41
ENDBRANCH  39  40
ENDBRANCH  38  39
ENDBRANCH  16  38
BRANCH  15  46
HETATM   46  O4  UNL     1      -5.172  -1.722  -2.014  1.00  0.00    -0.348 OA
ATOM     47  H4  UNL     1      -4.900  -1.833  -2.917  1.00  0.00     0.219 HD
ENDBRANCH  15  46
BRANCH   8  48
HETATM   48  O3  UNL     1      -5.305   1.237   3.826  1.00  0.00    -0.395 OA
ATOM     49  H3  UNL     1      -6.253   1.207   3.780  1.00  0.00     0.210 HD
ENDBRANCH   8  48
TORSDOF 18
