REMARK  2 active torsions:
REMARK  status: ('A' for Active; 'I' for Inactive)
REMARK    1  A    between atoms: N1_6  and  C7_8 
REMARK    2  A    between atoms: C7_8  and  O1_9 
ROOT
HETATM    1  C1  UNL     1       2.356   0.929   1.825  1.00  0.00     0.014 C 
HETATM    2  C2  UNL     1       1.610   0.797   0.897  1.00  0.00    -0.084 C 
HETATM    3  C3  UNL     1       0.730   0.636  -0.236  1.00  0.00     0.271 C 
HETATM    4  C4  UNL     1       1.248  -0.379  -1.265  1.00  0.00     0.074 C 
HETATM    5  C5  UNL     1      -0.249  -0.601  -1.470  1.00  0.00     0.244 C 
HETATM    6  N1  UNL     1      -0.417  -0.194  -0.072  1.00  0.00    -0.036 N 
HETATM    7  C6  UNL     1      -0.291  -1.308   0.839  1.00  0.00     0.276 C 
ENDROOT
BRANCH   6   8
HETATM    8  C7  UNL     1      -1.673   0.479   0.196  1.00  0.00     0.402 C 
BRANCH   8   9
HETATM    9  O1  UNL     1      -1.806   1.673  -0.481  1.00  0.00    -0.374 OA
ATOM     10  H1  UNL     1      -2.629   2.114  -0.305  1.00  0.00     0.211 HD
ENDBRANCH   8   9
ENDBRANCH   6   8
TORSDOF 2
