REMARK  5 active torsions:
REMARK  status: ('A' for Active; 'I' for Inactive)
REMARK    1  A    between atoms: O1_1  and  C1_3 
REMARK    2  A    between atoms: C2_6  and  C3_7 
REMARK    3  A    between atoms: C4_9  and  O2_10 
REMARK    4  A    between atoms: C5_12  and  O3_13 
REMARK    5  A    between atoms: C6_15  and  O4_16 
ROOT
HETATM    1  C1  UNL     1      -0.870  -1.506   0.009  1.00  0.00     0.245 C 
HETATM    2  N1  UNL     1       0.490  -1.394  -0.340  1.00  0.00    -0.387 N 
ATOM      3  H1  UNL     1       1.061  -2.235  -0.421  1.00  0.00     0.156 HD
HETATM    4  C2  UNL     1       1.061  -0.152  -0.574  1.00  0.00     0.120 C 
HETATM    5  C4  UNL     1       0.585   0.843   0.458  1.00  0.00     0.172 C 
HETATM    6  C5  UNL     1      -0.910   0.997   0.163  1.00  0.00     0.181 C 
HETATM    7  C6  UNL     1      -1.529  -0.318   0.571  1.00  0.00     0.197 C 
ENDROOT
BRANCH   1   8
HETATM    8  O1  UNL     1      -1.566  -2.021  -1.111  1.00  0.00    -0.374 OA
ATOM      9  H1  UNL     1      -2.483  -2.097  -0.876  1.00  0.00     0.212 HD
ENDBRANCH   1   8
BRANCH   7  10
HETATM   10  O4  UNL     1      -2.895  -0.361   0.247  1.00  0.00    -0.389 OA
ATOM     11  H4  UNL     1      -3.321   0.407   0.610  1.00  0.00     0.210 HD
ENDBRANCH   7  10
BRANCH   4  12
HETATM   12  C3  UNL     1       2.572  -0.271  -0.584  1.00  0.00     0.112 C 
HETATM   13 BR1  UNL     1       3.182  -0.939   1.127  1.00  0.00    -0.094 Br
ENDBRANCH   4  12
BRANCH   6  14
HETATM   14  O3  UNL     1      -1.460   2.059   0.812  1.00  0.00    -0.390 OA
ATOM     15  H3  UNL     1      -2.387   2.155   0.629  1.00  0.00     0.210 HD
ENDBRANCH   6  14
BRANCH   5  16
HETATM   16  O2  UNL     1       1.249   2.044   0.411  1.00  0.00    -0.391 OA
ATOM     17  H2  UNL     1       0.950   2.670   1.060  1.00  0.00     0.210 HD
ENDBRANCH   5  16
TORSDOF 5
