REMARK  6 active torsions:
REMARK  status: ('A' for Active; 'I' for Inactive)
REMARK    1  A    between atoms: C2_2  and  C3_3 
REMARK    2  A    between atoms: C2_2  and  C10_13 
REMARK       I    between atoms: C3_3  and  N1_5 
REMARK    3  A    between atoms: N1_5  and  C4_7 
REMARK    4  A    between atoms: C12_15  and  C13_16 
REMARK    5  A    between atoms: C13_16  and  C14_17 
REMARK    6  A    between atoms: C14_17  and  C15_18 
ROOT
HETATM    1  C10 UNL     1       1.440   1.380  -0.188  1.00  0.00    -0.003 A 
HETATM    2  C11 UNL     1       0.163   0.919  -0.345  1.00  0.00     0.036 A 
HETATM    3  C12 UNL     1      -0.768   1.368   0.523  1.00  0.00     0.025 A 
HETATM    4  C25 UNL     1      -0.344   2.249   1.486  1.00  0.00     0.070 A 
HETATM    5  S1  UNL     1       1.317   2.420   1.153  1.00  0.00    -0.104 SA
ENDROOT
BRANCH   1   6
HETATM    6  C2  UNL     1       2.664   1.048  -1.006  1.00  0.00     0.113 C 
HETATM    7  C1  UNL     1       3.145   2.334  -1.635  1.00  0.00     0.025 C 
BRANCH   6   8
HETATM    8  C3  UNL     1       3.714   0.456  -0.137  1.00  0.00     0.226 C 
HETATM    9  O1  UNL     1       3.544   0.285   1.093  1.00  0.00    -0.273 OA
HETATM   10  N1  UNL     1       4.947   0.074  -0.717  1.00  0.00    -0.356 N 
ATOM     11  H1  UNL     1       5.086   0.214  -1.718  1.00  0.00     0.162 HD
BRANCH  10  12
HETATM   12  C4  UNL     1       6.018  -0.509   0.064  1.00  0.00     0.084 C 
HETATM   13  C5  UNL     1       7.294   0.336  -0.061  1.00  0.00     0.025 C 
HETATM   14  C6  UNL     1       8.276  -0.224   0.927  1.00  0.00     0.002 C 
HETATM   15  C7  UNL     1       8.615  -1.666   0.675  1.00  0.00     0.000 C 
HETATM   16  C8  UNL     1       7.430  -2.524   0.363  1.00  0.00     0.002 C 
HETATM   17  C9  UNL     1       6.390  -1.873  -0.475  1.00  0.00     0.025 C 
ENDBRANCH  10  12
ENDBRANCH   6   8
ENDBRANCH   1   6
BRANCH   3  18
HETATM   18  C13 UNL     1      -2.178   0.935   0.447  1.00  0.00    -0.066 C 
BRANCH  18  19
HETATM   19  C14 UNL     1      -3.337   0.595   0.402  1.00  0.00    -0.091 C 
BRANCH  19  20
HETATM   20  C15 UNL     1      -4.739   0.209   0.350  1.00  0.00     0.025 C 
HETATM   21  C16 UNL     1      -5.573   0.989   1.355  1.00  0.00     0.027 C 
HETATM   22  C17 UNL     1      -7.003   0.596   1.191  1.00  0.00    -0.012 C 
HETATM   23  C18 UNL     1      -7.172  -0.862   1.523  1.00  0.00     0.009 C 
HETATM   24  C22 UNL     1      -7.523   0.833  -0.202  1.00  0.00     0.009 C 
HETATM   25  C19 UNL     1      -6.315  -1.675   0.589  1.00  0.00    -0.012 C 
HETATM   26  C20 UNL     1      -6.837  -1.440  -0.817  1.00  0.00     0.009 C 
HETATM   27  C24 UNL     1      -4.847  -1.245   0.671  1.00  0.00     0.027 C 
HETATM   28  C21 UNL     1      -6.689   0.011  -1.165  1.00  0.00    -0.012 C 
HETATM   29  C23 UNL     1      -5.261   0.476  -1.036  1.00  0.00     0.027 C 
ENDBRANCH  19  20
ENDBRANCH  18  19
ENDBRANCH   3  18
TORSDOF 6
