REMARK  4 active torsions:
REMARK  status: ('A' for Active; 'I' for Inactive)
REMARK       I    between atoms: C1_2  and  N1_3 
REMARK    1  A    between atoms: C1_2  and  O2_23 
REMARK    2  A    between atoms: C7_12  and  C8_13 
REMARK    3  A    between atoms: C8_13  and  C9_14 
REMARK    4  A    between atoms: O2_23  and  C18_24 
ROOT
HETATM    1  O1  UNL     1      -3.178   0.894   2.272  1.00  0.00    -0.238 OA
HETATM    2  C1  UNL     1      -2.797   0.994   1.075  1.00  0.00     0.366 C 
HETATM    3  N1  UNL     1      -1.484   1.369   0.698  1.00  0.00    -0.292 N 
ATOM      4  H1  UNL     1      -1.230   2.356   0.645  1.00  0.00     0.172 HD
HETATM    5  C2  UNL     1      -0.615   0.468   0.423  1.00  0.00     0.086 C 
HETATM    6  N2  UNL     1      -1.089  -0.862   0.533  1.00  0.00    -0.379 N 
ATOM      7  H2  UNL     1      -1.925  -1.002   1.101  1.00  0.00     0.160 HD
HETATM    8  C3  UNL     1      -0.509  -2.057  -0.080  1.00  0.00     0.121 C 
HETATM    9  C4  UNL     1       0.969  -1.840  -0.399  1.00  0.00     0.020 C 
HETATM   10  C5  UNL     1       1.729  -1.320   0.797  1.00  0.00     0.007 C 
HETATM   11  C6  UNL     1       1.715   0.148   0.947  1.00  0.00     0.001 C 
HETATM   12  C7  UNL     1       2.995   0.858   0.715  1.00  0.00    -0.009 C 
HETATM   13  C15 UNL     1       2.584   2.292   0.367  1.00  0.00     0.006 C 
HETATM   14  C16 UNL     1       1.065   2.311   0.381  1.00  0.00     0.013 C 
HETATM   15  C17 UNL     1       0.758   0.870   0.029  1.00  0.00     0.058 C 
ENDROOT
BRANCH   2  16
HETATM   16  O2  UNL     1      -3.717   0.719   0.084  1.00  0.00    -0.298 OA
BRANCH  16  17
HETATM   17  C18 UNL     1      -5.054   0.335   0.324  1.00  0.00     0.133 C 
HETATM   18  C19 UNL     1      -5.926   1.390  -0.369  1.00  0.00     0.032 C 
HETATM   19  C20 UNL     1      -7.357   1.132   0.010  1.00  0.00     0.002 C 
HETATM   20  C21 UNL     1      -7.857  -0.180  -0.539  1.00  0.00     0.000 C 
HETATM   21  C22 UNL     1      -7.619  -1.326   0.394  1.00  0.00     0.000 C 
HETATM   22  C23 UNL     1      -6.231  -1.877   0.349  1.00  0.00     0.002 C 
HETATM   23  C24 UNL     1      -5.261  -0.993  -0.386  1.00  0.00     0.032 C 
ENDBRANCH  16  17
ENDBRANCH   2  16
BRANCH  12  24
HETATM   24  C8  UNL     1       3.817   0.341  -0.408  1.00  0.00     0.009 C 
BRANCH  24  25
HETATM   25  C9  UNL     1       5.084   1.127  -0.552  1.00  0.00    -0.014 C 
HETATM   26  C10 UNL     1       5.951   1.082   0.678  1.00  0.00     0.005 C 
HETATM   27  C11 UNL     1       6.267  -0.368   1.033  1.00  0.00     0.000 C 
HETATM   28  C12 UNL     1       7.015  -0.976  -0.112  1.00  0.00     0.000 C 
HETATM   29  C13 UNL     1       6.323  -0.863  -1.430  1.00  0.00     0.000 C 
HETATM   30  C14 UNL     1       5.938   0.581  -1.698  1.00  0.00     0.005 C 
ENDBRANCH  24  25
ENDBRANCH  12  24
TORSDOF 4
