REMARK  3 active torsions:
REMARK  status: ('A' for Active; 'I' for Inactive)
REMARK    1  A    between atoms: N1_1  and  C1_4 
REMARK    2  A    between atoms: C5_15  and  C6_16 
REMARK    3  A    between atoms: C7_20  and  C8_21 
ROOT
HETATM    1  C1  UNL     1      -3.378   1.436  -0.526  1.00  0.00     0.146 A 
HETATM    2  N2  UNL     1      -4.683   1.104  -0.483  1.00  0.00    -0.335 N 
ATOM      3  H2  UNL     1      -5.411   1.814  -0.557  1.00  0.00     0.168 HD
HETATM    4  C2  UNL     1      -4.991  -0.198  -0.339  1.00  0.00     0.199 A 
HETATM    5  N3  UNL     1      -4.041  -1.161  -0.238  1.00  0.00    -0.285 N 
ATOM      6  H3  UNL     1      -4.319  -2.136  -0.129  1.00  0.00     0.188 HD
HETATM    7  N4  UNL     1      -2.749  -0.844  -0.280  1.00  0.00    -0.197 N 
HETATM    8  C3  UNL     1      -1.833  -1.836  -0.176  1.00  0.00     0.294 A 
HETATM    9  O1  UNL     1      -2.158  -3.036  -0.043  1.00  0.00    -0.264 OA
HETATM   10  C4  UNL     1      -0.487  -1.488  -0.221  1.00  0.00     0.141 A 
HETATM   11  N5  UNL     1       0.551  -2.450  -0.122  1.00  0.00    -0.094 NA
HETATM   12  C5  UNL     1      -0.139  -0.165  -0.368  1.00  0.00     0.081 A 
HETATM   13  N8  UNL     1      -1.082   0.782  -0.467  1.00  0.00    -0.337 N 
ATOM     14  H8  UNL     1      -0.810   1.759  -0.575  1.00  0.00     0.167 HD
HETATM   15  C10 UNL     1      -2.392   0.450  -0.424  1.00  0.00     0.175 A 
ENDROOT
BRANCH  12  16
HETATM   16  C6  UNL     1       1.269   0.239  -0.419  1.00  0.00     0.331 C 
HETATM   17  N6  UNL     1       2.212  -0.744   0.004  1.00  0.00    -0.026 N 
HETATM   18  C7  UNL     1       3.179  -0.119   0.863  1.00  0.00     0.389 C 
ATOM     19  H62 UNL     1       1.765  -1.550   0.442  1.00  0.00     0.281 HD
ATOM     20  H61 UNL     1       2.645  -1.231  -0.780  1.00  0.00     0.281 HD
HETATM   21  N7  UNL     1       2.880   1.299   0.873  1.00  0.00    -0.323 N 
HETATM   22  C9  UNL     1       1.534   1.439   0.435  1.00  0.00     0.256 C 
ATOM     23  H7  UNL     1       3.513   2.052   1.142  1.00  0.00     0.165 HD
HETATM   24  O4  UNL     1       0.749   2.388   0.721  1.00  0.00    -0.271 OA
BRANCH  18  25
HETATM   25  C8  UNL     1       4.564  -0.278   0.388  1.00  0.00     0.225 C 
HETATM   26  O2  UNL     1       4.791  -0.905  -0.662  1.00  0.00    -0.645 OA
HETATM   27  O3  UNL     1       5.604   0.264   1.103  1.00  0.00    -0.645 OA
ENDBRANCH  18  25
ENDBRANCH  12  16
BRANCH   1  28
HETATM   28  N1  UNL     1      -3.012   2.666  -0.663  1.00  0.00    -0.382 N 
ATOM     29  H12 UNL     1      -3.731   3.385  -0.737  1.00  0.00     0.157 HD
ATOM     30  H11 UNL     1      -2.024   2.917  -0.696  1.00  0.00     0.157 HD
ENDBRANCH   1  28
TORSDOF 3
