REMARK  4 active torsions:
REMARK  status: ('A' for Active; 'I' for Inactive)
REMARK    1  A    between atoms: C8_8  and  C9_9 
REMARK    2  A    between atoms: C17_19  and  O3_20 
REMARK    3  A    between atoms: C18_23  and  C19_24 
REMARK    4  A    between atoms: C19_24  and  O5_25 
ROOT
HETATM    1  C9  UNL     1      -0.716  -0.078  -0.437  1.00  0.00     0.196 C 
HETATM    2  O1  UNL     1      -0.061  -1.301  -0.145  1.00  0.00    -0.229 OA
HETATM    3  O2  UNL     1       1.137  -0.988   0.207  1.00  0.00    -0.197 OA
HETATM    4  C10 UNL     1       1.850  -0.164  -0.612  1.00  0.00     0.223 C 
HETATM    5  C11 UNL     1       2.242   1.147   0.093  1.00  0.00     0.074 C 
HETATM    6  C12 UNL     1       2.395   0.994   1.566  1.00  0.00     0.006 C 
HETATM    7  C13 UNL     1       3.799   0.930   2.058  1.00  0.00     0.000 C 
HETATM    8  C14 UNL     1       4.674  -0.050   1.350  1.00  0.00     0.000 C 
HETATM    9  C15 UNL     1       3.963  -1.363   1.261  1.00  0.00     0.003 C 
HETATM   10  C16 UNL     1       3.673  -1.827  -0.122  1.00  0.00     0.037 C 
HETATM   11  C17 UNL     1       3.162  -0.808  -1.071  1.00  0.00     0.183 C 
HETATM   12  O4  UNL     1       1.229   0.232  -1.782  1.00  0.00    -0.340 OA
HETATM   13  C18 UNL     1      -0.135   0.312  -1.775  1.00  0.00     0.181 C 
ENDROOT
BRANCH  11  14
HETATM   14  O3  UNL     1       2.888  -1.474  -2.281  1.00  0.00    -0.390 OA
ATOM     15  H3  UNL     1       3.702  -1.873  -2.566  1.00  0.00     0.210 HD
ENDBRANCH  11  14
BRANCH  13  16
HETATM   16  C19 UNL     1      -0.588  -0.655  -2.880  1.00  0.00     0.199 C 
BRANCH  16  17
HETATM   17  O5  UNL     1       0.008  -0.155  -4.062  1.00  0.00    -0.398 OA
ATOM     18  H5  UNL     1      -0.272  -0.753  -4.745  1.00  0.00     0.209 HD
ENDBRANCH  16  17
ENDBRANCH  13  16
BRANCH   1  19
HETATM   19  C8  UNL     1      -2.198  -0.234  -0.403  1.00  0.00     0.028 C 
HETATM   20  C2  UNL     1      -2.571  -0.747   0.965  1.00  0.00    -0.012 C 
HETATM   21  C1  UNL     1      -1.759  -0.234   2.094  1.00  0.00     0.010 C 
HETATM   22  C3  UNL     1      -4.045  -0.560   1.162  1.00  0.00     0.005 C 
HETATM   23  C4  UNL     1      -4.402   0.904   1.251  1.00  0.00     0.001 C 
HETATM   24  C5  UNL     1      -3.531   1.765   0.394  1.00  0.00     0.005 C 
HETATM   25  C6  UNL     1      -2.945   1.008  -0.778  1.00  0.00    -0.012 C 
HETATM   26  C7  UNL     1      -4.142   0.705  -1.694  1.00  0.00     0.010 C 
ENDBRANCH   1  19
TORSDOF 4
