REMARK  11 active torsions:
REMARK  status: ('A' for Active; 'I' for Inactive)
REMARK    1  A    between atoms: C3_3  and  C4_4 
REMARK    2  A    between atoms: C14_14  and  C15_15 
REMARK    3  A    between atoms: C14_14  and  C21_25 
REMARK       I    between atoms: C15_15  and  N1_17 
REMARK    4  A    between atoms: N1_17  and  C16_19 
REMARK    5  A    between atoms: C16_19  and  C17_20 
REMARK    6  A    between atoms: C17_20  and  N2_21 
REMARK       I    between atoms: C21_25  and  N3_27 
REMARK    7  A    between atoms: N3_27  and  C22_29 
REMARK    8  A    between atoms: C22_29  and  C23_30 
REMARK    9  A    between atoms: C22_29  and  C26_38 
REMARK       I    between atoms: C23_30  and  N4_32 
REMARK   10  A    between atoms: N4_32  and  C24_34 
REMARK   11  A    between atoms: C24_34  and  C25_35 
ROOT
HETATM    1  C1  UNL     1      -2.449   6.604  -0.777  1.00  0.00     0.012 C 
HETATM    2  C2  UNL     1      -2.862   5.475  -0.649  1.00  0.00    -0.117 C 
HETATM    3  C3  UNL     1      -3.347   4.089  -0.483  1.00  0.00     0.103 C 
ENDROOT
BRANCH   3   4
HETATM    4  C4  UNL     1      -2.431   3.122  -1.145  1.00  0.00    -0.027 C 
HETATM    5  C5  UNL     1      -2.416   3.502  -2.622  1.00  0.00     0.017 C 
HETATM    6  C6  UNL     1      -2.904   1.710  -1.034  1.00  0.00    -0.004 C 
HETATM    7  C7  UNL     1      -2.912   1.144   0.355  1.00  0.00     0.011 C 
HETATM    8  C13 UNL     1      -1.913   0.814  -1.796  1.00  0.00     0.011 C 
HETATM    9  C8  UNL     1      -1.516   1.223   0.951  1.00  0.00     0.014 C 
HETATM   10  C9  UNL     1      -1.159   2.697   0.881  1.00  0.00     0.011 C 
HETATM   11  C14 UNL     1      -0.504   0.450   0.184  1.00  0.00     0.129 C 
HETATM   12  C10 UNL     1      -1.065   3.203  -0.545  1.00  0.00    -0.004 C 
HETATM   13  C11 UNL     1      -0.073   2.362  -1.289  1.00  0.00     0.011 C 
HETATM   14  C12 UNL     1      -0.532   0.914  -1.258  1.00  0.00     0.014 C 
BRANCH  11  15
HETATM   15  C15 UNL     1      -0.701  -1.042   0.242  1.00  0.00     0.236 C 
HETATM   16  O1  UNL     1      -0.677  -1.656  -0.848  1.00  0.00    -0.272 OA
HETATM   17  N1  UNL     1      -0.896  -1.721   1.486  1.00  0.00    -0.358 N 
ATOM     18  H1  UNL     1      -0.917  -1.167   2.342  1.00  0.00     0.162 HD
BRANCH  17  19
HETATM   19  C16 UNL     1      -1.061  -3.125   1.589  1.00  0.00     0.150 C 
BRANCH  19  20
HETATM   20  C17 UNL     1      -2.209  -3.756   0.899  1.00  0.00     0.255 C 
BRANCH  20  21
HETATM   21  N2  UNL     1      -3.514  -3.364   1.298  1.00  0.00    -0.077 N 
HETATM   22  C18 UNL     1      -4.250  -4.581   1.708  1.00  0.00     0.271 C 
HETATM   23  C19 UNL     1      -3.591  -2.450   2.393  1.00  0.00     0.271 C 
HETATM   24  C20 UNL     1      -4.308  -2.826   0.201  1.00  0.00     0.271 C 
ENDBRANCH  20  21
ENDBRANCH  19  20
ENDBRANCH  17  19
ENDBRANCH  11  15
BRANCH  11  25
HETATM   25  C21 UNL     1       0.839   0.635   0.793  1.00  0.00     0.237 C 
HETATM   26  O2  UNL     1       0.952   1.110   1.926  1.00  0.00    -0.272 OA
HETATM   27  N3  UNL     1       1.977   0.256   0.061  1.00  0.00    -0.346 N 
ATOM     28  H3  UNL     1       1.844  -0.133  -0.873  1.00  0.00     0.163 HD
BRANCH  27  29
HETATM   29  C22 UNL     1       3.345   0.391   0.570  1.00  0.00     0.180 C 
BRANCH  29  30
HETATM   30  C23 UNL     1       4.023  -0.929   0.452  1.00  0.00     0.241 C 
HETATM   31  O3  UNL     1       3.377  -1.857  -0.138  1.00  0.00    -0.271 OA
HETATM   32  N4  UNL     1       5.312  -1.226   0.943  1.00  0.00    -0.351 N 
ATOM     33  H4  UNL     1       5.829  -0.491   1.426  1.00  0.00     0.163 HD
BRANCH  32  34
HETATM   34  C24 UNL     1       5.934  -2.517   0.796  1.00  0.00     0.222 C 
BRANCH  34  35
HETATM   35  C25 UNL     1       6.146  -2.917  -0.609  1.00  0.00     0.248 C 
HETATM   36  N5  UNL     1       6.729  -4.154  -0.958  1.00  0.00    -0.061 NA
HETATM   37  O4  UNL     1       5.810  -2.159  -1.548  1.00  0.00    -0.275 OA
ENDBRANCH  34  35
ENDBRANCH  32  34
ENDBRANCH  29  30
BRANCH  29  38
HETATM   38  C26 UNL     1       4.005   1.361  -0.384  1.00  0.00     0.009 C 
HETATM   39  C27 UNL     1       5.437   1.673  -0.054  1.00  0.00     0.012 C 
HETATM   40  C28 UNL     1       3.841   0.929  -1.825  1.00  0.00     0.012 C 
ENDBRANCH  29  38
ENDBRANCH  27  29
ENDBRANCH  11  25
ENDBRANCH   3   4
TORSDOF 11
