REMARK  12 active torsions:
REMARK  status: ('A' for Active; 'I' for Inactive)
REMARK    1  A    between atoms: C3_3  and  C4_4 
REMARK       I    between atoms: C4_4  and  N1_6 
REMARK    2  A    between atoms: N1_6  and  C5_8 
REMARK    3  A    between atoms: C5_8  and  C6_9 
REMARK    4  A    between atoms: C5_8  and  C24_38 
REMARK       I    between atoms: C6_9  and  N2_11 
REMARK    5  A    between atoms: N2_11  and  C7_13 
REMARK    6  A    between atoms: C7_13  and  C8_14 
REMARK    7  A    between atoms: C7_13  and  C12_22 
REMARK    8  A    between atoms: C8_14  and  N3_15 
REMARK       I    between atoms: C12_22  and  N5_24 
REMARK    9  A    between atoms: N5_24  and  C13_26 
REMARK   10  A    between atoms: C13_26  and  C14_27 
REMARK   11  A    between atoms: C16_29  and  C17_30 
REMARK   12  A    between atoms: C24_38  and  C26_40 
ROOT
HETATM    1  C1  UNL     1      -6.917   4.750  -1.495  1.00  0.00     0.112 C 
HETATM    2  C2  UNL     1      -6.743   3.290  -1.373  1.00  0.00    -0.101 C 
HETATM    3  C3  UNL     1      -6.556   2.079  -1.271  1.00  0.00    -0.006 C 
ENDROOT
BRANCH   3   4
HETATM    4  C4  UNL     1      -6.278   0.649  -1.142  1.00  0.00     0.300 C 
HETATM    5  O1  UNL     1      -6.717  -0.082  -2.050  1.00  0.00    -0.258 OA
HETATM    6  N1  UNL     1      -5.560   0.177  -0.065  1.00  0.00    -0.315 N 
ATOM      7  H1  UNL     1      -5.290   0.916   0.584  1.00  0.00     0.169 HD
BRANCH   6   8
HETATM    8  C5  UNL     1      -5.115  -1.094   0.342  1.00  0.00     0.085 C 
BRANCH   8   9
HETATM    9  C6  UNL     1      -3.693  -1.295  -0.192  1.00  0.00     0.269 C 
HETATM   10  O2  UNL     1      -3.615  -2.231  -1.023  1.00  0.00    -0.266 OA
HETATM   11  N2  UNL     1      -2.674  -0.452   0.256  1.00  0.00    -0.316 N 
ATOM     12  H2  UNL     1      -3.042   0.219   0.930  1.00  0.00     0.169 HD
BRANCH  11  13
HETATM   13  C7  UNL     1      -1.297  -0.243   0.064  1.00  0.00     0.127 C 
BRANCH  13  14
HETATM   14  C8  UNL     1      -0.757   0.599  -0.997  1.00  0.00     0.241 C 
BRANCH  14  15
HETATM   15  N3  UNL     1      -0.851   0.450  -2.366  1.00  0.00    -0.001 N 
HETATM   16  C9  UNL     1      -1.534  -0.604  -3.030  1.00  0.00     0.283 C 
HETATM   17  C10 UNL     1      -1.192   1.686  -3.054  1.00  0.00     0.477 C 
HETATM   18  N4  UNL     1      -0.160   1.427  -4.055  1.00  0.00    -0.026 N 
HETATM   19  C11 UNL     1       0.507   0.638  -3.054  1.00  0.00     0.477 C 
ATOM     20  H42 UNL     1      -0.393   1.037  -4.968  1.00  0.00     0.281 HD
ATOM     21  H41 UNL     1       0.318   2.191  -4.533  1.00  0.00     0.281 HD
ENDBRANCH  14  15
ENDBRANCH  13  14
BRANCH  13  22
HETATM   22  C12 UNL     1      -0.414  -1.458   0.332  1.00  0.00     0.269 C 
HETATM   23  O3  UNL     1      -0.915  -2.561   0.331  1.00  0.00    -0.266 OA
HETATM   24  N5  UNL     1       0.937  -1.254   0.569  1.00  0.00    -0.353 N 
ATOM     25  H5  UNL     1       1.272  -0.291   0.561  1.00  0.00     0.162 HD
BRANCH  24  26
HETATM   26  C13 UNL     1       1.896  -2.276   0.822  1.00  0.00     0.155 C 
BRANCH  26  27
HETATM   27  C14 UNL     1       3.269  -1.752   1.083  1.00  0.00     0.139 C 
HETATM   28  C15 UNL     1       3.790  -0.799   0.009  1.00  0.00     0.040 C 
HETATM   29  C16 UNL     1       4.975  -0.225   0.740  1.00  0.00     0.016 C 
HETATM   30  C23 UNL     1       4.750  -0.595   2.138  1.00  0.00     0.173 C 
HETATM   31  O4  UNL     1       3.361  -0.929   2.212  1.00  0.00    -0.384 OA
BRANCH  29  32
HETATM   32  C17 UNL     1       6.235  -0.355   0.056  1.00  0.00    -0.008 C 
HETATM   33  C18 UNL     1       6.505   0.731  -1.006  1.00  0.00     0.005 C 
HETATM   34  C19 UNL     1       7.477   1.777  -0.414  1.00  0.00     0.000 C 
HETATM   35  C20 UNL     1       8.865   1.188  -0.297  1.00  0.00     0.000 C 
HETATM   36  C21 UNL     1       8.702  -0.314  -0.075  1.00  0.00     0.000 C 
HETATM   37  C22 UNL     1       7.498  -0.550   0.850  1.00  0.00     0.005 C 
ENDBRANCH  29  32
ENDBRANCH  26  27
ENDBRANCH  24  26
ENDBRANCH  13  22
ENDBRANCH  11  13
ENDBRANCH   8   9
BRANCH   8  38
HETATM   38  C24 UNL     1      -5.447  -1.753   1.580  1.00  0.00     0.037 C 
HETATM   39  C25 UNL     1      -6.966  -1.982   1.627  1.00  0.00     0.016 C 
BRANCH  38  40
HETATM   40  C26 UNL     1      -5.013  -1.139   2.890  1.00  0.00     0.006 C 
HETATM   41  C27 UNL     1      -5.550   0.208   3.192  1.00  0.00     0.006 C 
ENDBRANCH  38  40
ENDBRANCH   8  38
ENDBRANCH   6   8
ENDBRANCH   3   4
TORSDOF 12
