REMARK  5 active torsions:
REMARK  status: ('A' for Active; 'I' for Inactive)
REMARK    1  A    between atoms: C2_2  and  C3_3 
REMARK    2  A    between atoms: C3_3  and  C4_4 
REMARK    3  A    between atoms: C4_4  and  N1_5 
REMARK    4  A    between atoms: C8_9  and  N2_10 
REMARK    5  A    between atoms: C16_21  and  O1_22 
ROOT
HETATM    1  N1  UNL     1       2.117   0.215  -0.154  1.00  0.00     0.091 N 
HETATM    2  C5  UNL     1       1.309   0.365  -1.317  1.00  0.00     0.273 C 
HETATM    3  C6  UNL     1      -0.151   0.043  -1.124  1.00  0.00     0.040 C 
HETATM    4  C7  UNL     1      -0.683   0.687   0.126  1.00  0.00     0.057 C 
HETATM    5  C8  UNL     1      -1.977   0.062   0.623  1.00  0.00     0.234 C 
HETATM    6  C13 UNL     1      -1.408  -1.026   1.460  1.00  0.00     0.027 A 
HETATM    7  C14 UNL     1      -1.116  -1.219   2.814  1.00  0.00     0.015 A 
HETATM    8  C15 UNL     1      -0.614   0.013   2.359  1.00  0.00     0.029 A 
HETATM    9  C16 UNL     1       0.297   0.437   1.294  1.00  0.00     0.094 C 
HETATM   10  C17 UNL     1       1.426  -0.440   0.942  1.00  0.00     0.310 C 
ENDROOT
BRANCH   5  11
HETATM   11  N2  UNL     1      -2.782  -0.325  -0.462  1.00  0.00     0.097 N 
HETATM   12  C9  UNL     1      -3.210   0.822  -1.222  1.00  0.00     0.300 C 
HETATM   13  C10 UNL     1      -4.589   1.211  -0.680  1.00  0.00     0.262 C 
HETATM   14  N3  UNL     1      -5.545   0.284  -1.221  1.00  0.00    -0.072 N 
HETATM   15  C11 UNL     1      -4.933  -1.024  -1.297  1.00  0.00     0.262 C 
ATOM     16  H32 UNL     1      -6.420   0.275  -0.696  1.00  0.00     0.277 HD
ATOM     17  H31 UNL     1      -5.921   0.591  -2.118  1.00  0.00     0.277 HD
HETATM   18  C12 UNL     1      -3.875  -1.204  -0.199  1.00  0.00     0.300 C 
ENDBRANCH   5  11
BRANCH   9  19
HETATM   19  O1  UNL     1       0.847   1.701   1.590  1.00  0.00    -0.387 OA
ATOM     20  H1  UNL     1       1.450   1.547   2.308  1.00  0.00     0.210 HD
ENDBRANCH   9  19
BRANCH   1  21
HETATM   21  C4  UNL     1       3.420  -0.327  -0.388  1.00  0.00     0.272 C 
BRANCH  21  22
HETATM   22  C3  UNL     1       4.228   0.689  -1.168  1.00  0.00     0.030 C 
BRANCH  22  23
HETATM   23  C2  UNL     1       5.600   0.076  -1.397  1.00  0.00    -0.003 C 
HETATM   24  C1  UNL     1       6.213  -0.195  -0.023  1.00  0.00     0.005 C 
ENDBRANCH  22  23
ENDBRANCH  21  22
ENDBRANCH   1  21
TORSDOF 5
