REMARK  5 active torsions:
REMARK  status: ('A' for Active; 'I' for Inactive)
REMARK    1  A    between atoms: N1_2  and  C2_4 
REMARK    2  A    between atoms: C2_4  and  N2_6 
REMARK    3  A    between atoms: C5_9  and  N3_10 
REMARK       I    between atoms: N3_10  and  C6_12 
REMARK    4  A    between atoms: C6_12  and  C7_14 
REMARK    5  A    between atoms: C11_18  and  O2_19 
ROOT
HETATM    1  N2  UNL     1       2.590  -0.137   0.594  1.00  0.00    -0.356 N 
HETATM    2  C3  UNL     1       2.077  -1.445   1.080  1.00  0.00     0.127 C 
HETATM    3  C4  UNL     1       0.600  -1.372   1.243  1.00  0.00     0.047 C 
HETATM    4  C5  UNL     1      -0.094  -1.069  -0.043  1.00  0.00     0.116 C 
HETATM    5  C11 UNL     1       0.862  -0.520  -1.042  1.00  0.00     0.161 C 
HETATM    6  C13 UNL     1       1.826   0.501  -0.423  1.00  0.00     0.159 C 
ENDROOT
BRANCH   4   7
HETATM    7  N3  UNL     1      -1.206  -0.173   0.108  1.00  0.00    -0.354 N 
HETATM    8  C6  UNL     1      -2.535  -0.529  -0.220  1.00  0.00     0.222 C 
HETATM    9  O1  UNL     1      -2.753  -1.683  -0.665  1.00  0.00    -0.273 OA
ATOM     10  H3  UNL     1      -1.029   0.764   0.469  1.00  0.00     0.163 HD
BRANCH   8  11
HETATM   11  C7  UNL     1      -3.668   0.407  -0.058  1.00  0.00     0.078 C 
HETATM   12  C8  UNL     1      -3.805   0.832   1.393  1.00  0.00     0.014 C 
HETATM   13  C9  UNL     1      -5.295   0.513   1.357  1.00  0.00     0.002 C 
HETATM   14  C10 UNL     1      -5.024  -0.230   0.051  1.00  0.00     0.014 C 
ENDBRANCH   8  11
ENDBRANCH   4   7
BRANCH   5  15
HETATM   15  O2  UNL     1       1.609  -1.448  -1.718  1.00  0.00    -0.387 OA
HETATM   16  C12 UNL     1       1.454  -1.408  -3.098  1.00  0.00     0.202 C 
ENDBRANCH   5  15
BRANCH   1  17
HETATM   17  C2  UNL     1       3.775   0.371   1.166  1.00  0.00     0.169 C 
HETATM   18  S1  UNL     1       4.516  -0.574   2.361  1.00  0.00    -0.041 SA
BRANCH  17  19
HETATM   19  N1  UNL     1       4.431   1.554   0.884  1.00  0.00    -0.371 N 
HETATM   20  C1  UNL     1       4.068   2.569  -0.061  1.00  0.00     0.148 C 
ATOM     21  H1  UNL     1       5.283   1.727   1.417  1.00  0.00     0.161 HD
ENDBRANCH  17  19
ENDBRANCH   1  17
TORSDOF 5
