REMARK  6 active torsions:
REMARK  status: ('A' for Active; 'I' for Inactive)
REMARK    1  A    between atoms: C2_4  and  N2_5 
REMARK    2  A    between atoms: C2_4  and  C7_11 
REMARK    3  A    between atoms: N2_5  and  C3_7 
REMARK    4  A    between atoms: C7_11  and  N3_12 
REMARK    5  A    between atoms: C7_11  and  C13_21 
REMARK       I    between atoms: N3_12  and  C8_14 
REMARK    6  A    between atoms: C8_14  and  C9_16 
ROOT
HETATM    1  C7  UNL     1      -0.152  -1.267   0.601  1.00  0.00     0.184 C 
ENDROOT
BRANCH   1   2
HETATM    2  C2  UNL     1      -1.308  -0.440   1.012  1.00  0.00     0.099 C 
HETATM    3  N1  UNL     1      -1.853  -0.653   2.146  1.00  0.00    -0.383 N 
HETATM    4  C1  UNL     1      -2.968   0.138   2.579  1.00  0.00     0.147 C 
ATOM      5  H1  UNL     1      -1.493  -1.392   2.750  1.00  0.00     0.160 HD
BRANCH   2   6
HETATM    6  N2  UNL     1      -1.822   0.587   0.191  1.00  0.00    -0.370 N 
ATOM      7  H2  UNL     1      -1.553   1.538   0.441  1.00  0.00     0.161 HD
BRANCH   6   8
HETATM    8  C3  UNL     1      -2.667   0.456  -0.939  1.00  0.00     0.020 C 
HETATM    9  C4  UNL     1      -2.044  -0.359  -2.081  1.00  0.00     0.037 C 
HETATM   10  C5  UNL     1      -2.939   1.826  -1.527  1.00  0.00     0.037 C 
HETATM   11  C6  UNL     1      -4.024  -0.150  -0.653  1.00  0.00     0.037 C 
ENDBRANCH   6   8
ENDBRANCH   2   6
ENDBRANCH   1   2
BRANCH   1  12
HETATM   12  N3  UNL     1       1.055  -0.476   0.390  1.00  0.00    -0.345 N 
HETATM   13  C8  UNL     1       1.843  -0.520  -0.783  1.00  0.00     0.247 C 
HETATM   14  O1  UNL     1       1.509  -1.292  -1.743  1.00  0.00    -0.271 OA
ATOM     15  H3  UNL     1       1.350   0.151   1.139  1.00  0.00     0.163 HD
BRANCH  13  16
HETATM   16  C9  UNL     1       3.042   0.326  -0.886  1.00  0.00     0.213 C 
HETATM   17  C10 UNL     1       4.322  -0.461  -0.952  1.00  0.00     0.043 C 
HETATM   18  C11 UNL     1       5.304   0.446  -0.240  1.00  0.00     0.029 C 
HETATM   19  C12 UNL     1       4.444   1.677   0.059  1.00  0.00     0.168 C 
HETATM   20  O2  UNL     1       3.202   1.077   0.274  1.00  0.00    -0.376 OA
ENDBRANCH  13  16
ENDBRANCH   1  12
BRANCH   1  21
HETATM   21  C13 UNL     1       0.141  -2.352   1.626  1.00  0.00     0.208 C 
HETATM   22 CL1  UNL     1      -1.264  -3.428   1.815  1.00  0.00    -0.106 Cl
HETATM   23 CL2  UNL     1       0.598  -1.683   3.188  1.00  0.00    -0.106 Cl
ENDBRANCH   1  21
TORSDOF 6
