REMARK  10 active torsions:
REMARK  status: ('A' for Active; 'I' for Inactive)
REMARK    1  A    between atoms: C2_2  and  O1_4 
REMARK    2  A    between atoms: C2_2  and  C4_6 
REMARK    3  A    between atoms: C4_6  and  C5_7 
REMARK    4  A    between atoms: C5_7  and  N1_8 
REMARK    5  A    between atoms: N2_11  and  C7_12 
REMARK    6  A    between atoms: C7_12  and  C8_13 
REMARK    7  A    between atoms: C10_19  and  C11_20 
REMARK    8  A    between atoms: C10_19  and  C16_25 
REMARK    9  A    between atoms: C12_21  and  C13_22 
REMARK   10  A    between atoms: C16_25  and  O4_26 
ROOT
HETATM    1  N1  UNL     1       0.187   0.926   0.367  1.00  0.00    -0.300 N 
HETATM    2  C6  UNL     1      -0.141   1.973  -0.559  1.00  0.00     0.329 C 
HETATM    3  O2  UNL     1       0.446   2.278  -1.630  1.00  0.00    -0.246 OA
HETATM    4  N2  UNL     1      -1.295   2.659  -0.062  1.00  0.00    -0.258 N 
HETATM    5  C9  UNL     1      -1.676   2.039   1.160  1.00  0.00     0.275 C 
HETATM    6  O3  UNL     1      -2.421   2.471   2.062  1.00  0.00    -0.269 OA
HETATM    7  C10 UNL     1      -0.983   0.710   1.162  1.00  0.00     0.236 C 
ENDROOT
BRANCH   7   8
HETATM    8  C11 UNL     1      -1.813  -0.272   0.408  1.00  0.00    -0.059 C 
HETATM    9  C12 UNL     1      -2.475  -1.073  -0.191  1.00  0.00    -0.098 C 
BRANCH   9  10
HETATM   10  C13 UNL     1      -3.268  -2.071  -0.916  1.00  0.00     0.065 A 
HETATM   11  C14 UNL     1      -2.751  -2.599  -2.202  1.00  0.00     0.018 A 
HETATM   12  C15 UNL     1      -2.695  -3.440  -0.947  1.00  0.00     0.018 A 
ENDBRANCH   9  10
ENDBRANCH   7   8
BRANCH   7  13
HETATM   13  C16 UNL     1      -0.735   0.236   2.558  1.00  0.00     0.355 C 
HETATM   14  F4  UNL     1      -0.280  -1.048   2.575  1.00  0.00    -0.215 F 
BRANCH  13  15
HETATM   15  O4  UNL     1       0.043   1.156   3.234  1.00  0.00    -0.364 OA
ATOM     16  H4  UNL     1       0.201   0.855   4.121  1.00  0.00     0.213 HD
ENDBRANCH  13  15
ENDBRANCH   7  13
BRANCH   1  17
HETATM   17  C5  UNL     1       1.443   0.243   0.457  1.00  0.00     0.133 C 
BRANCH  17  18
HETATM   18  C4  UNL     1       1.507  -0.994  -0.404  1.00  0.00     0.057 C 
BRANCH  18  19
HETATM   19  C2  UNL     1       2.840  -1.685  -0.283  1.00  0.00     0.052 C 
HETATM   20  C1  UNL     1       3.137  -2.122   1.136  1.00  0.00     0.045 C 
HETATM   21  C3  UNL     1       3.977  -0.788  -0.725  1.00  0.00     0.045 C 
BRANCH  19  22
HETATM   22  O1  UNL     1       2.894  -2.829  -1.076  1.00  0.00    -0.391 OA
ATOM     23  H1  UNL     1       2.708  -2.555  -1.966  1.00  0.00     0.210 HD
ENDBRANCH  19  22
ENDBRANCH  18  19
ENDBRANCH  17  18
ENDBRANCH   1  17
BRANCH   4  24
HETATM   24  C7  UNL     1      -1.990   3.781  -0.644  1.00  0.00     0.254 C 
BRANCH  24  25
HETATM   25  C8  UNL     1      -1.352   5.051  -0.096  1.00  0.00     0.403 C 
HETATM   26  F1  UNL     1      -1.455   5.099   1.259  1.00  0.00    -0.169 F 
HETATM   27  F2  UNL     1      -0.002   5.022  -0.413  1.00  0.00    -0.169 F 
HETATM   28  F3  UNL     1      -1.969   6.171  -0.624  1.00  0.00    -0.169 F 
ENDBRANCH  24  25
ENDBRANCH   4  24
TORSDOF 10
