REMARK  5 active torsions:
REMARK  status: ('A' for Active; 'I' for Inactive)
REMARK    1  A    between atoms: N1_1  and  C1_5 
REMARK    2  A    between atoms: C1_5  and  C2_6 
REMARK    3  A    between atoms: C2_6  and  C3_7 
REMARK    4  A    between atoms: C4_8  and  C5_9 
REMARK    5  A    between atoms: C5_9  and  C6_10 
ROOT
HETATM    1  C2  UNL     1      -2.022  -0.008   0.824  1.00  0.00     0.054 C 
ENDROOT
BRANCH   1   2
HETATM    2  C1  UNL     1      -2.616  -0.902  -0.265  1.00  0.00     0.233 C 
BRANCH   2   3
HETATM    3  N1  UNL     1      -4.012  -0.594  -0.372  1.00  0.00    -0.079 N 
ATOM      4  H13 UNL     1      -4.504  -0.674   0.518  1.00  0.00     0.274 HD
ATOM      5  H12 UNL     1      -4.187   0.398  -0.535  1.00  0.00     0.274 HD
ATOM      6  H11 UNL     1      -4.408  -1.190  -1.098  1.00  0.00     0.274 HD
ENDBRANCH   2   3
ENDBRANCH   1   2
BRANCH   1   7
HETATM    7  C3  UNL     1      -0.586  -0.246   1.014  1.00  0.00    -0.029 C 
HETATM    8  C4  UNL     1       0.275   0.732   0.832  1.00  0.00    -0.030 C 
BRANCH   8   9
HETATM    9  C5  UNL     1       1.754   0.551   1.010  1.00  0.00     0.031 C 
BRANCH   9  10
HETATM   10  C6  UNL     1       2.398   0.871  -0.307  1.00  0.00    -0.011 A 
HETATM   11  C7  UNL     1       2.022   0.057  -1.516  1.00  0.00     0.005 A 
HETATM   12  C8  UNL     1       3.422  -0.016  -0.907  1.00  0.00     0.005 A 
ENDBRANCH   9  10
ENDBRANCH   8   9
ENDBRANCH   1   7
TORSDOF 5
