REMARK  4 active torsions:
REMARK  status: ('A' for Active; 'I' for Inactive)
REMARK    1  A    between atoms: O1_2  and  C2_3 
REMARK    2  A    between atoms: C6_7  and  N1_8 
REMARK    3  A    between atoms: N1_8  and  C7_10 
REMARK    4  A    between atoms: C10_19  and  N5_20 
ROOT
HETATM    1  C7  UNL     1      -1.254  -0.687  -0.168  1.00  0.00     0.138 A 
HETATM    2  N2  UNL     1      -0.731  -1.722  -0.827  1.00  0.00    -0.337 N 
ATOM      3  H2  UNL     1       0.259  -1.948  -0.733  1.00  0.00     0.168 HD
HETATM    4  C8  UNL     1      -1.530  -2.464  -1.618  1.00  0.00     0.183 A 
HETATM    5  N3  UNL     1      -2.835  -2.155  -1.733  1.00  0.00    -0.336 N 
ATOM      6  H3  UNL     1      -3.424  -2.729  -2.337  1.00  0.00     0.168 HD
HETATM    7  C9  UNL     1      -3.390  -1.122  -1.084  1.00  0.00     0.153 A 
HETATM    8  N4  UNL     1      -4.630  -0.610  -1.024  1.00  0.00    -0.174 N 
ATOM      9  H4  UNL     1      -5.451  -0.960  -1.517  1.00  0.00     0.186 HD
HETATM   10  C10 UNL     1      -4.591   0.450  -0.193  1.00  0.00     0.680 A 
HETATM   11  N6  UNL     1      -3.343   0.623   0.280  1.00  0.00    -0.180 N 
HETATM   12  C11 UNL     1      -2.903   1.638   1.185  1.00  0.00     0.176 C 
HETATM   13  C12 UNL     1      -2.586  -0.343  -0.263  1.00  0.00     0.139 A 
ENDROOT
BRANCH   1  14
HETATM   14  N1  UNL     1      -0.518   0.045   0.598  1.00  0.00    -0.340 N 
ATOM     15  H1  UNL     1      -0.935   0.833   1.094  1.00  0.00     0.167 HD
BRANCH  14  16
HETATM   16  C6  UNL     1       0.887  -0.237   0.761  1.00  0.00     0.042 A 
HETATM   17  C5  UNL     1       1.312  -1.243   1.607  1.00  0.00     0.030 A 
HETATM   18  C4  UNL     1       2.671  -1.452   1.710  1.00  0.00     0.005 A 
HETATM   19  C3  UNL     1       3.601  -0.707   1.013  1.00  0.00     0.037 A 
HETATM   20  C2  UNL     1       3.179   0.300   0.167  1.00  0.00     0.076 A 
HETATM   21  C13 UNL     1       1.819   0.508   0.064  1.00  0.00    -0.002 A 
HETATM   22  C14 UNL     1       1.363   1.593  -0.847  1.00  0.00     0.053 C 
BRANCH  20  23
HETATM   23  O1  UNL     1       4.088   1.077  -0.557  1.00  0.00    -0.355 OA
HETATM   24  C1  UNL     1       5.468   0.803  -0.399  1.00  0.00     0.210 C 
ENDBRANCH  20  23
ENDBRANCH  14  16
ENDBRANCH   1  14
BRANCH  10  25
HETATM   25  N5  UNL     1      -5.617   1.170   0.087  1.00  0.00    -0.234 N 
ATOM     26  H52 UNL     1      -6.563   1.039  -0.271  1.00  0.00     0.174 HD
ATOM     27  H51 UNL     1      -5.587   1.972   0.716  1.00  0.00     0.174 HD
ENDBRANCH  10  25
TORSDOF 4
