REMARK  3 active torsions:
REMARK  status: ('A' for Active; 'I' for Inactive)
REMARK    1  A    between atoms: C2_2  and  N1_3 
REMARK       I    between atoms: N1_3  and  C3_5 
REMARK       I    between atoms: C3_5  and  N2_7 
REMARK    2  A    between atoms: N2_7  and  C4_9 
REMARK       I    between atoms: N3_13  and  C8_14 
REMARK       I    between atoms: C8_14  and  N5_18 
REMARK    3  A    between atoms: N5_18  and  C9_20 
ROOT
HETATM    1  C4  UNL     1       1.531   0.485  -0.468  1.00  0.00     0.104 C 
HETATM    2  C5  UNL     1       1.338   1.708  -1.315  1.00  0.00     0.028 C 
HETATM    3  C6  UNL     1      -0.016   2.348  -1.151  1.00  0.00     0.022 C 
HETATM    4  C7  UNL     1      -1.055   1.224  -1.263  1.00  0.00     0.141 C 
HETATM    5  N3  UNL     1      -0.819   0.333  -0.151  1.00  0.00    -0.216 N 
HETATM    6  C8  UNL     1      -1.854  -0.606   0.190  1.00  0.00     0.670 C 
HETATM    7  N4  UNL     1      -1.600  -1.826  -0.133  1.00  0.00    -0.235 N 
ATOM      8  H41 UNL     1      -2.334  -2.492   0.109  1.00  0.00     0.174 HD
ATOM      9  H42 UNL     1      -0.746  -2.135  -0.597  1.00  0.00     0.174 HD
HETATM   10  N5  UNL     1      -3.048  -0.174   0.838  1.00  0.00    -0.218 N 
ATOM     11  H5  UNL     1      -2.934   0.392   1.679  1.00  0.00     0.178 HD
HETATM   12  C13 UNL     1       0.438   0.424   0.563  1.00  0.00     0.166 C 
ENDROOT
BRANCH  10  13
HETATM   13  C9  UNL     1      -4.380  -0.451   0.432  1.00  0.00     0.036 C 
HETATM   14  C10 UNL     1      -5.340   0.234   1.402  1.00  0.00     0.038 C 
HETATM   15  C11 UNL     1      -4.722  -1.922   0.326  1.00  0.00     0.038 C 
HETATM   16  C12 UNL     1      -4.729   0.137  -0.943  1.00  0.00     0.038 C 
ENDBRANCH  10  13
BRANCH   1  17
HETATM   17  N2  UNL     1       2.848   0.492   0.087  1.00  0.00    -0.337 N 
HETATM   18  C3  UNL     1       3.817  -0.523  -0.139  1.00  0.00     0.316 C 
HETATM   19  N1  UNL     1       5.097  -0.429   0.456  1.00  0.00    -0.343 N 
HETATM   20  O1  UNL     1       3.583  -1.524  -0.860  1.00  0.00    -0.247 OA
ATOM     21  H1  UNL     1       5.316   0.373   1.047  1.00  0.00     0.164 HD
ATOM     22  H2  UNL     1       3.110   1.276   0.684  1.00  0.00     0.164 HD
BRANCH  19  23
HETATM   23  C2  UNL     1       6.100  -1.445   0.243  1.00  0.00     0.120 C 
HETATM   24  C1  UNL     1       7.375  -1.137   0.970  1.00  0.00     0.026 C 
ENDBRANCH  19  23
ENDBRANCH   1  17
TORSDOF 3
