REMARK  20 active torsions:
REMARK  status: ('A' for Active; 'I' for Inactive)
REMARK    1  A    between atoms: C2_3  and  C3_4 
REMARK    2  A    between atoms: C3_4  and  C4_5 
REMARK    3  A    between atoms: C11_12  and  C12_13 
REMARK       I    between atoms: C12_13  and  N2_15 
REMARK       I    between atoms: N2_15  and  C13_17 
REMARK       I    between atoms: C13_17  and  N4_21 
REMARK    4  A    between atoms: N4_21  and  C14_23 
REMARK    5  A    between atoms: C14_23  and  C15_24 
REMARK    6  A    between atoms: C15_24  and  C16_25 
REMARK    7  A    between atoms: C16_25  and  C17_26 
REMARK    8  A    between atoms: C17_26  and  N5_27 
REMARK    9  A    between atoms: N5_27  and  C18_29 
REMARK   10  A    between atoms: C18_29  and  C19_30 
REMARK   11  A    between atoms: C19_30  and  C20_31 
REMARK   12  A    between atoms: C20_31  and  N6_32 
REMARK       I    between atoms: N6_32  and  C21_34 
REMARK   13  A    between atoms: C21_34  and  C22_36 
REMARK   14  A    between atoms: C22_36  and  C23_37 
REMARK   15  A    between atoms: C23_37  and  N7_38 
REMARK       I    between atoms: N7_38  and  C24_40 
REMARK   16  A    between atoms: C24_40  and  C25_42 
REMARK   17  A    between atoms: C25_42  and  C26_43 
REMARK   18  A    between atoms: C26_43  and  N8_44 
REMARK   19  A    between atoms: N8_44  and  N9_46 
REMARK   20  A    between atoms: N11_51  and  O4_52 
ROOT
HETATM    1  C14 UNL     1      -2.139   1.550   0.996  1.00  0.00     0.079 C 
ENDROOT
BRANCH   1   2
HETATM    2  N4  UNL     1      -2.300   2.028  -0.294  1.00  0.00    -0.206 N 
HETATM    3  C13 UNL     1      -2.524   1.409  -1.511  1.00  0.00     0.678 C 
HETATM    4  N2  UNL     1      -3.806   1.043  -2.024  1.00  0.00    -0.158 N 
HETATM    5  N3  UNL     1      -1.481   1.166  -2.278  1.00  0.00    -0.234 N 
HETATM    6  C12 UNL     1      -5.039   1.242  -1.401  1.00  0.00     0.261 C 
ATOM      7  H2  UNL     1      -3.822   0.590  -2.938  1.00  0.00     0.187 HD
HETATM    8  O1  UNL     1      -5.065   1.812  -0.264  1.00  0.00    -0.270 OA
ATOM      9  H32 UNL     1      -1.646   0.710  -3.175  1.00  0.00     0.174 HD
ATOM     10  H31 UNL     1      -0.566   1.427  -1.912  1.00  0.00     0.174 HD
ATOM     11  H4  UNL     1      -2.241   3.044  -0.360  1.00  0.00     0.183 HD
BRANCH   6  12
HETATM   12  C11 UNL     1      -6.308   0.847  -1.967  1.00  0.00     0.217 C 
HETATM   13  C10 UNL     1      -7.397   0.530  -0.937  1.00  0.00     0.090 C 
HETATM   14  C2  UNL     1      -8.678   0.443  -1.689  1.00  0.00    -0.000 C 
HETATM   15  N1  UNL     1      -8.782   0.016  -2.883  1.00  0.00    -0.309 N 
HETATM   16  C1  UNL     1     -10.039  -0.090  -3.598  1.00  0.00     0.161 C 
HETATM   17  C27 UNL     1      -7.616  -0.363  -3.605  1.00  0.00     0.348 C 
HETATM   18  N11 UNL     1      -6.355  -0.227  -2.911  1.00  0.00    -0.196 N 
HETATM   19  O5  UNL     1      -7.620  -0.804  -4.786  1.00  0.00    -0.244 OA
BRANCH  14  20
HETATM   20  C3  UNL     1      -9.907   0.857  -0.995  1.00  0.00     0.091 C 
BRANCH  20  21
HETATM   21  C4  UNL     1     -10.210   0.007   0.211  1.00  0.00    -0.053 A 
HETATM   22  C5  UNL     1     -11.038  -1.086   0.108  1.00  0.00     0.007 A 
HETATM   23  C6  UNL     1     -11.296  -1.839   1.226  1.00  0.00     0.001 A 
HETATM   24  C7  UNL     1     -10.754  -1.543   2.463  1.00  0.00     0.000 A 
HETATM   25  C8  UNL     1      -9.931  -0.440   2.517  1.00  0.00     0.001 A 
HETATM   26  C9  UNL     1      -9.658   0.333   1.401  1.00  0.00     0.007 A 
ENDBRANCH  20  21
ENDBRANCH  14  20
BRANCH  18  27
HETATM   27  O4  UNL     1      -5.366  -1.089  -3.168  1.00  0.00    -0.283 OA
ATOM     28  H4  UNL     1      -5.397  -1.802  -3.795  1.00  0.00     0.245 HD
ENDBRANCH  18  27
ENDBRANCH   6  12
ENDBRANCH   1   2
BRANCH   1  29
HETATM   29  C15 UNL     1      -0.902   0.778   1.367  1.00  0.00     0.050 C 
BRANCH  29  30
HETATM   30  C16 UNL     1      -0.776  -0.549   0.774  1.00  0.00     0.049 C 
BRANCH  30  31
HETATM   31  C17 UNL     1       0.437  -1.328   1.169  1.00  0.00     0.056 C 
BRANCH  31  32
HETATM   32  N5  UNL     1       1.714  -0.913   0.898  1.00  0.00    -0.402 N 
ATOM     33  H5  UNL     1       2.214  -1.422   0.169  1.00  0.00     0.158 HD
BRANCH  32  34
HETATM   34  C18 UNL     1       2.401   0.129   1.512  1.00  0.00     0.120 C 
BRANCH  34  35
HETATM   35  C19 UNL     1       3.824   0.276   0.937  1.00  0.00     0.039 C 
BRANCH  35  36
HETATM   36  C20 UNL     1       4.557  -0.996   1.206  1.00  0.00     0.124 C 
BRANCH  36  37
HETATM   37  N6  UNL     1       5.906  -1.001   0.691  1.00  0.00    -0.361 N 
HETATM   38  C21 UNL     1       6.852  -0.059   1.116  1.00  0.00     0.219 C 
HETATM   39  O2  UNL     1       6.627   0.834   1.950  1.00  0.00    -0.274 OA
ATOM     40  H6  UNL     1       6.176  -1.705   0.004  1.00  0.00     0.162 HD
BRANCH  38  41
HETATM   41  C22 UNL     1       8.239  -0.133   0.517  1.00  0.00     0.122 C 
BRANCH  41  42
HETATM   42  C23 UNL     1       9.035   1.038   0.992  1.00  0.00     0.132 C 
BRANCH  42  43
HETATM   43  N7  UNL     1      10.356   1.013   0.441  1.00  0.00    -0.361 N 
HETATM   44  C24 UNL     1      11.255  -0.025   0.701  1.00  0.00     0.219 C 
HETATM   45  O3  UNL     1      10.941  -1.004   1.451  1.00  0.00    -0.274 OA
ATOM     46  H7  UNL     1      10.652   1.780  -0.163  1.00  0.00     0.162 HD
BRANCH  44  47
HETATM   47  C25 UNL     1      12.611  -0.001   0.095  1.00  0.00     0.124 C 
BRANCH  47  48
HETATM   48  C26 UNL     1      13.407  -1.183   0.577  1.00  0.00     0.150 C 
BRANCH  48  49
HETATM   49  N8  UNL     1      14.725  -1.159  -0.014  1.00  0.00    -0.322 N 
ATOM     50  H8  UNL     1      15.013  -1.947  -0.595  1.00  0.00     0.181 HD
BRANCH  49  51
HETATM   51  N9  UNL     1      15.614  -0.116   0.172  1.00  0.00    -0.254 N 
HETATM   52  N10 UNL     1      16.551   0.089  -0.669  1.00  0.00    -0.331 N 
ATOM     53 2H10 UNL     1      16.631  -0.528  -1.477  1.00  0.00     0.178 HD
ATOM     54 1H10 UNL     1      17.207   0.858  -0.532  1.00  0.00     0.178 HD
ATOM     55  H9  UNL     1      15.520   0.492   0.985  1.00  0.00     0.207 HD
ENDBRANCH  49  51
ENDBRANCH  48  49
ENDBRANCH  47  48
ENDBRANCH  44  47
ENDBRANCH  42  43
ENDBRANCH  41  42
ENDBRANCH  38  41
ENDBRANCH  36  37
ENDBRANCH  35  36
ENDBRANCH  34  35
ENDBRANCH  32  34
ENDBRANCH  31  32
ENDBRANCH  30  31
ENDBRANCH  29  30
ENDBRANCH   1  29
TORSDOF 20
