REMARK  21 active torsions:
REMARK  status: ('A' for Active; 'I' for Inactive)
REMARK       I    between atoms: C1_4  and  N3_6 
REMARK    1  A    between atoms: N3_6  and  C2_8 
REMARK    2  A    between atoms: C2_8  and  C3_9 
REMARK    3  A    between atoms: C3_9  and  C4_10 
REMARK    4  A    between atoms: C4_10  and  C5_11 
REMARK    5  A    between atoms: C5_11  and  C6_12 
REMARK    6  A    between atoms: C5_11  and  N8_36 
REMARK    7  A    between atoms: C6_12  and  C7_13 
REMARK    8  A    between atoms: N4_16  and  C10_17 
REMARK    9  A    between atoms: C10_17  and  C11_18 
REMARK   10  A    between atoms: C11_18  and  C12_19 
REMARK   11  A    between atoms: C12_19  and  C13_20 
REMARK   12  A    between atoms: C13_20  and  C14_21 
REMARK   13  A    between atoms: C14_21  and  N5_22 
REMARK   14  A    between atoms: C18_26  and  S1_27 
REMARK   15  A    between atoms: S1_27  and  N6_28 
REMARK       I    between atoms: N8_36  and  C20_38 
REMARK   16  A    between atoms: C20_38  and  C21_40 
REMARK   17  A    between atoms: C21_40  and  N9_41 
REMARK       I    between atoms: N9_41  and  C22_43 
REMARK   18  A    between atoms: C22_43  and  C23_45 
REMARK   19  A    between atoms: C23_45  and  N10_46 
REMARK       I    between atoms: N10_46  and  C24_48 
REMARK   20  A    between atoms: C24_48  and  C25_50 
REMARK   21  A    between atoms: C25_50  and  N11_51 
ROOT
HETATM    1  C5  UNL     1      -2.547   0.374  -2.701  1.00  0.00     0.090 C 
ENDROOT
BRANCH   1   2
HETATM    2  C4  UNL     1      -3.291   0.116  -4.016  1.00  0.00     0.027 C 
BRANCH   2   3
HETATM    3  C3  UNL     1      -2.696  -0.971  -4.820  1.00  0.00     0.022 C 
BRANCH   3   4
HETATM    4  C2  UNL     1      -2.600  -2.336  -4.264  1.00  0.00     0.122 C 
BRANCH   4   5
HETATM    5  N3  UNL     1      -3.783  -3.045  -3.946  1.00  0.00    -0.365 N 
HETATM    6  C1  UNL     1      -4.692  -2.801  -2.895  1.00  0.00     0.181 C 
HETATM    7  N1  UNL     1      -5.865  -2.335  -3.132  1.00  0.00    -0.374 N 
HETATM    8  N2  UNL     1      -4.336  -3.088  -1.549  1.00  0.00    -0.064 NA
ATOM      9  H12 UNL     1      -6.522  -2.159  -2.372  1.00  0.00     0.158 HD
ATOM     10  H11 UNL     1      -6.120  -2.129  -4.098  1.00  0.00     0.158 HD
ATOM     11  H3  UNL     1      -4.007  -3.833  -4.554  1.00  0.00     0.162 HD
ENDBRANCH   4   5
ENDBRANCH   3   4
ENDBRANCH   2   3
ENDBRANCH   1   2
BRANCH   1  12
HETATM   12  C6  UNL     1      -1.115   0.737  -2.956  1.00  0.00     0.083 C 
BRANCH  12  13
HETATM   13  C7  UNL     1      -0.403   0.998  -1.684  1.00  0.00     0.029 A 
HETATM   14  C8  UNL     1      -0.301   2.225  -1.023  1.00  0.00     0.045 A 
HETATM   15  C9  UNL     1       0.487   1.970   0.086  1.00  0.00     0.112 A 
HETATM   16  N4  UNL     1       0.843   0.673   0.102  1.00  0.00    -0.303 N 
HETATM   17  N7  UNL     1       0.306   0.107  -0.955  1.00  0.00    -0.303 N 
ATOM     18  H7  UNL     1       0.411  -0.879  -1.195  1.00  0.00     0.186 HD
BRANCH  16  19
HETATM   19  C10 UNL     1       1.709  -0.005   1.091  1.00  0.00     0.148 C 
BRANCH  19  20
HETATM   20  C11 UNL     1       3.143   0.045   0.608  1.00  0.00     0.022 C 
BRANCH  20  21
HETATM   21  C12 UNL     1       4.038  -0.629   1.597  1.00  0.00     0.003 C 
BRANCH  21  22
HETATM   22  C13 UNL     1       5.464  -0.587   1.074  1.00  0.00     0.020 C 
BRANCH  22  23
HETATM   23  C14 UNL     1       6.411  -1.250   2.054  1.00  0.00     0.128 C 
BRANCH  23  24
HETATM   24  N5  UNL     1       7.734  -1.164   1.417  1.00  0.00    -0.365 N 
HETATM   25  C15 UNL     1       8.099  -2.190   0.632  1.00  0.00     0.090 A 
HETATM   26  C16 UNL     1       9.326  -2.203  -0.024  1.00  0.00     0.019 A 
HETATM   27  C17 UNL     1      10.182  -1.133   0.142  1.00  0.00     0.028 A 
HETATM   28  C18 UNL     1       9.808  -0.074   0.952  1.00  0.00     0.094 A 
HETATM   29  C19 UNL     1       8.569  -0.136   1.572  1.00  0.00     0.115 A 
BRANCH  28  30
HETATM   30  S1  UNL     1      10.903   1.275   1.147  1.00  0.00     0.258 S 
HETATM   31  O1  UNL     1      12.340   0.866   1.070  1.00  0.00    -0.201 OA
HETATM   32  O2  UNL     1      10.639   1.929   2.458  1.00  0.00    -0.201 OA
BRANCH  30  33
HETATM   33  N6  UNL     1      10.502   2.404  -0.130  1.00  0.00    -0.324 N 
ATOM     34  H62 UNL     1       9.775   2.285  -0.836  1.00  0.00     0.169 HD
ATOM     35  H61 UNL     1      11.141   3.191  -0.016  1.00  0.00     0.169 HD
ENDBRANCH  30  33
ENDBRANCH  28  30
ENDBRANCH  23  24
ENDBRANCH  22  23
ENDBRANCH  21  22
ENDBRANCH  20  21
ENDBRANCH  19  20
ENDBRANCH  16  19
ENDBRANCH  12  13
ENDBRANCH   1  12
BRANCH   1  36
HETATM   36  N8  UNL     1      -3.145   1.528  -2.042  1.00  0.00    -0.355 N 
HETATM   37  C20 UNL     1      -3.932   1.355  -0.888  1.00  0.00     0.235 C 
HETATM   38  O3  UNL     1      -4.101   0.194  -0.444  1.00  0.00    -0.272 OA
ATOM     39  H8  UNL     1      -2.993   2.464  -2.418  1.00  0.00     0.162 HD
BRANCH  37  40
HETATM   40  C21 UNL     1      -4.559   2.532  -0.206  1.00  0.00     0.225 C 
BRANCH  40  41
HETATM   41  N9  UNL     1      -5.317   2.045   0.920  1.00  0.00    -0.351 N 
HETATM   42  C22 UNL     1      -4.723   1.401   2.001  1.00  0.00     0.235 C 
HETATM   43  O4  UNL     1      -3.441   1.241   2.032  1.00  0.00    -0.272 OA
ATOM     44  H9  UNL     1      -6.328   2.178   0.924  1.00  0.00     0.163 HD
BRANCH  42  45
HETATM   45  C23 UNL     1      -5.458   0.857   3.163  1.00  0.00     0.225 C 
BRANCH  45  46
HETATM   46  N10 UNL     1      -6.877   1.028   3.111  1.00  0.00    -0.351 N 
HETATM   47  C24 UNL     1      -7.697   0.517   4.188  1.00  0.00     0.243 C 
HETATM   48  O5  UNL     1      -7.159  -0.061   5.146  1.00  0.00    -0.272 OA
ATOM     49  H10 UNL     1      -7.308   1.507   2.320  1.00  0.00     0.163 HD
BRANCH  47  50
HETATM   50  C25 UNL     1      -9.175   0.692   4.132  1.00  0.00     0.332 C 
BRANCH  50  51
HETATM   51  N11 UNL     1      -9.764   0.094   5.298  1.00  0.00    -0.071 N 
ATOM     52 3H11 UNL     1      -9.493  -0.883   5.412  1.00  0.00     0.274 HD
ATOM     53 2H11 UNL     1      -9.363   0.455   6.164  1.00  0.00     0.274 HD
ATOM     54 1H11 UNL     1     -10.776   0.214   5.260  1.00  0.00     0.274 HD
ENDBRANCH  50  51
ENDBRANCH  47  50
ENDBRANCH  45  46
ENDBRANCH  42  45
ENDBRANCH  40  41
ENDBRANCH  37  40
ENDBRANCH   1  36
TORSDOF 21
