REMARK  17 active torsions:
REMARK  status: ('A' for Active; 'I' for Inactive)
REMARK    1  A    between atoms: N1_1  and  N2_4 
REMARK    2  A    between atoms: C2_7  and  N3_8 
REMARK    3  A    between atoms: C5_14  and  N5_15 
REMARK    4  A    between atoms: N5_15  and  N6_17 
REMARK    5  A    between atoms: N6_17  and  C6_19 
REMARK    6  A    between atoms: N9_27  and  C10_28 
REMARK    7  A    between atoms: C11_30  and  C12_31 
REMARK    8  A    between atoms: C12_31  and  O4_32 
REMARK    9  A    between atoms: C13_34  and  O5_35 
REMARK   10  A    between atoms: C14_37  and  O6_38 
REMARK   11  A    between atoms: N10_42  and  C16_43 
REMARK   12  A    between atoms: C17_45  and  C18_46 
REMARK   13  A    between atoms: C18_46  and  O9_47 
REMARK   14  A    between atoms: C19_49  and  O10_50 
REMARK   15  A    between atoms: C20_52  and  O11_53 
REMARK   16  A    between atoms: C23_62  and  C24_63 
REMARK   17  A    between atoms: C24_63  and  O13_64 
ROOT
HETATM    1  C6  UNL     1      -0.887  -1.148   0.510  1.00  0.00     0.152 A 
HETATM    2  N7  UNL     1      -0.656  -2.448   0.723  1.00  0.00    -0.336 N 
ATOM      3  H7  UNL     1       0.307  -2.784   0.726  1.00  0.00     0.168 HD
HETATM    4  C7  UNL     1      -1.650  -3.324   0.933  1.00  0.00     0.183 A 
HETATM    5  N8  UNL     1      -2.926  -2.928   0.938  1.00  0.00    -0.336 N 
ATOM      6  H8  UNL     1      -3.672  -3.604   1.100  1.00  0.00     0.168 HD
HETATM    7  C8  UNL     1      -3.219  -1.640   0.730  1.00  0.00     0.146 A 
HETATM    8  C9  UNL     1      -2.191  -0.705   0.508  1.00  0.00     0.131 A 
HETATM    9  N9  UNL     1      -2.757   0.496   0.332  1.00  0.00    -0.262 N 
HETATM   10  C15 UNL     1      -4.093   0.312   0.441  1.00  0.00     0.335 A 
HETATM   11  O7  UNL     1      -4.918   1.247   0.326  1.00  0.00    -0.246 OA
HETATM   12  N10 UNL     1      -4.370  -0.970   0.680  1.00  0.00    -0.252 N 
ENDROOT
BRANCH   1  13
HETATM   13  N6  UNL     1       0.071  -0.333   0.313  1.00  0.00    -0.282 N 
ATOM     14  H6  UNL     1      -0.159   0.648   0.156  1.00  0.00     0.188 HD
BRANCH  13  15
HETATM   15  N5  UNL     1       1.410  -0.699   0.299  1.00  0.00    -0.282 N 
ATOM     16  H5  UNL     1       1.632  -1.694   0.341  1.00  0.00     0.188 HD
BRANCH  15  17
HETATM   17  C5  UNL     1       2.377   0.121   0.237  1.00  0.00     0.152 A 
HETATM   18  C4  UNL     1       3.681  -0.364   0.230  1.00  0.00     0.127 A 
HETATM   19  N4  UNL     1       4.169  -1.623   0.279  1.00  0.00    -0.302 N 
HETATM   20  C22 UNL     1       4.775   0.470   0.164  1.00  0.00     0.146 A 
HETATM   21  C3  UNL     1       5.493  -1.547   0.244  1.00  0.00     0.331 A 
ATOM     22  H4  UNL     1       3.618  -2.479   0.333  1.00  0.00     0.171 HD
HETATM   23  N3  UNL     1       5.912  -0.267   0.173  1.00  0.00    -0.246 N 
HETATM   24  O2  UNL     1       6.271  -2.539   0.274  1.00  0.00    -0.246 OA
HETATM   25  N12 UNL     1       4.546   1.784   0.105  1.00  0.00    -0.336 N 
HETATM   26  C21 UNL     1       3.293   2.267   0.111  1.00  0.00     0.183 A 
ATOM     27  H12 UNL     1       5.334   2.430   0.055  1.00  0.00     0.168 HD
HETATM   28  N11 UNL     1       2.233   1.447   0.176  1.00  0.00    -0.336 N 
ATOM     29  H11 UNL     1       1.294   1.846   0.179  1.00  0.00     0.168 HD
BRANCH  23  30
HETATM   30  C2  UNL     1       7.293   0.221   0.117  1.00  0.00     0.331 C 
HETATM   31  C1  UNL     1       7.646   0.754  -1.201  1.00  0.00     0.289 C 
HETATM   32  N2  UNL     1       8.785   0.048  -1.648  1.00  0.00    -0.232 N 
HETATM   33  O1  UNL     1       7.058   1.660  -1.818  1.00  0.00    -0.267 OA
HETATM   34  C23 UNL     1       9.084  -0.926  -0.618  1.00  0.00     0.273 C 
HETATM   35  O12 UNL     1       8.115  -0.852   0.342  1.00  0.00    -0.329 OA
BRANCH  32  36
HETATM   36  N1  UNL     1       9.532   0.183  -2.809  1.00  0.00    -0.338 N 
ATOM     37  H12 UNL     1       9.321   0.869  -3.534  1.00  0.00     0.177 HD
ATOM     38  H11 UNL     1      10.354  -0.327  -3.132  1.00  0.00     0.177 HD
ENDBRANCH  32  36
BRANCH  34  39
HETATM   39  C24 UNL     1      10.438  -0.677   0.012  1.00  0.00     0.219 C 
BRANCH  39  40
HETATM   40  O13 UNL     1      10.652  -1.650   0.987  1.00  0.00    -0.397 OA
ATOM     41  H13 UNL     1      11.502  -1.494   1.382  1.00  0.00     0.209 HD
ENDBRANCH  39  40
ENDBRANCH  34  39
ENDBRANCH  23  30
ENDBRANCH  15  17
ENDBRANCH  13  15
ENDBRANCH   1  13
BRANCH   9  42
HETATM   42  C10 UNL     1      -2.095   1.753   0.075  1.00  0.00     0.265 C 
HETATM   43  O3  UNL     1      -2.980   2.603  -0.589  1.00  0.00    -0.353 OA
HETATM   44  C11 UNL     1      -2.953   3.840  -0.020  1.00  0.00     0.179 C 
HETATM   45  C13 UNL     1      -1.786   3.924   0.907  1.00  0.00     0.182 C 
HETATM   46  C14 UNL     1      -1.657   2.452   1.328  1.00  0.00     0.198 C 
BRANCH  44  47
HETATM   47  C12 UNL     1      -2.937   4.911  -1.089  1.00  0.00     0.198 C 
BRANCH  47  48
HETATM   48  O4  UNL     1      -1.857   4.835  -1.926  1.00  0.00    -0.398 OA
ATOM     49  H4  UNL     1      -1.847   5.507  -2.597  1.00  0.00     0.209 HD
ENDBRANCH  47  48
ENDBRANCH  44  47
BRANCH  45  50
HETATM   50  O5  UNL     1      -0.598   4.275   0.276  1.00  0.00    -0.390 OA
ATOM     51  H5  UNL     1       0.145   4.328   0.866  1.00  0.00     0.210 HD
ENDBRANCH  45  50
BRANCH  46  52
HETATM   52  O6  UNL     1      -2.460   2.174   2.417  1.00  0.00    -0.388 OA
ATOM     53  H6  UNL     1      -2.183   2.617   3.210  1.00  0.00     0.210 HD
ENDBRANCH  46  52
ENDBRANCH   9  42
BRANCH  12  54
HETATM   54  C16 UNL     1      -5.714  -1.497   0.850  1.00  0.00     0.266 C 
HETATM   55  O8  UNL     1      -5.774  -2.871   0.598  1.00  0.00    -0.353 OA
HETATM   56  C17 UNL     1      -7.127  -3.122   0.583  1.00  0.00     0.179 C 
HETATM   57  C19 UNL     1      -7.780  -2.019  -0.178  1.00  0.00     0.182 C 
HETATM   58  C20 UNL     1      -6.670  -0.960  -0.200  1.00  0.00     0.198 C 
BRANCH  56  59
HETATM   59  C18 UNL     1      -7.460  -4.493   0.043  1.00  0.00     0.198 C 
BRANCH  59  60
HETATM   60  O9  UNL     1      -8.807  -4.750   0.025  1.00  0.00    -0.398 OA
ATOM     61  H9  UNL     1      -9.016  -5.612  -0.315  1.00  0.00     0.209 HD
ENDBRANCH  59  60
ENDBRANCH  56  59
BRANCH  57  62
HETATM   62  O10 UNL     1      -8.081  -2.317  -1.484  1.00  0.00    -0.390 OA
ATOM     63  H10 UNL     1      -8.497  -1.614  -1.969  1.00  0.00     0.210 HD
ENDBRANCH  57  62
BRANCH  58  64
HETATM   64  O11 UNL     1      -5.996  -0.974  -1.417  1.00  0.00    -0.388 OA
ATOM     65  H11 UNL     1      -6.594  -0.638  -2.074  1.00  0.00     0.210 HD
ENDBRANCH  58  64
ENDBRANCH  12  54
TORSDOF 17
