REMARK  1 active torsions:
REMARK  status: ('A' for Active; 'I' for Inactive)
REMARK       I    between atoms: N3_4  and  C2_6 
REMARK    1  A    between atoms: C2_6  and  C3_8 
ROOT
HETATM    1  C3  UNL     1       0.408  -0.487  -0.305  1.00  0.00     0.046 C 
HETATM    2  C4  UNL     1      -0.061  -0.323   1.124  1.00  0.00     0.024 C 
HETATM    3  C5  UNL     1      -1.533  -0.404   1.272  1.00  0.00    -0.013 C 
HETATM    4  C6  UNL     1      -2.232   0.936   1.149  1.00  0.00     0.009 C 
HETATM    5  C7  UNL     1      -2.108   1.539  -0.208  1.00  0.00    -0.013 C 
HETATM    6  C8  UNL     1      -2.698   0.688  -1.300  1.00  0.00     0.010 C 
HETATM    7  C9  UNL     1      -1.543  -0.203  -1.679  1.00  0.00    -0.005 C 
HETATM    8  C10 UNL     1      -1.586  -1.526  -0.972  1.00  0.00    -0.009 C 
HETATM    9  C11 UNL     1      -2.185  -1.453   0.398  1.00  0.00     0.010 C 
HETATM   10  C12 UNL     1      -0.103  -1.826  -0.788  1.00  0.00     0.024 C 
HETATM   11  C13 UNL     1      -0.287   0.478  -1.238  1.00  0.00     0.008 C 
HETATM   12  C14 UNL     1      -0.660   1.767  -0.588  1.00  0.00     0.011 C 
ENDROOT
BRANCH   1  13
HETATM   13  C2  UNL     1       1.859  -0.456  -0.418  1.00  0.00     0.233 C 
HETATM   14  N3  UNL     1       2.652   0.675  -0.009  1.00  0.00    -0.303 N 
HETATM   15  C1  UNL     1       3.827   0.510   0.463  1.00  0.00     0.203 C 
ATOM     16  H3  UNL     1       2.271   1.617  -0.097  1.00  0.00     0.171 HD
HETATM   17  N1  UNL     1       4.586   1.632   0.858  1.00  0.00    -0.066 NA
HETATM   18  N2  UNL     1       4.361  -0.791   0.588  1.00  0.00    -0.066 NA
HETATM   19  O1  UNL     1       2.473  -1.445  -0.889  1.00  0.00    -0.272 OA
ENDBRANCH   1  13
TORSDOF 1
