REMARK  7 active torsions:
REMARK  status: ('A' for Active; 'I' for Inactive)
REMARK    1  A    between atoms: C2_5  and  N3_6 
REMARK    2  A    between atoms: C4_12  and  C5_13 
REMARK    3  A    between atoms: C5_13  and  C6_14 
REMARK    4  A    between atoms: C6_14  and  C7_15 
REMARK    5  A    between atoms: C7_15  and  C8_16 
REMARK    6  A    between atoms: C8_16  and  O1_17 
REMARK    7  A    between atoms: O1_17  and  N5_18 
ROOT
HETATM    1  C1  UNL     1      -1.777  -0.115   2.147  1.00  0.00     0.178 C 
HETATM    2  N1  UNL     1      -2.265  -0.136   0.790  1.00  0.00    -0.285 N 
HETATM    3  N2  UNL     1      -3.495   0.313   0.507  1.00  0.00    -0.130 N 
ATOM      4  H2  UNL     1      -4.075   0.669   1.267  1.00  0.00     0.206 HD
HETATM    5  C2  UNL     1      -3.989   0.312  -0.733  1.00  0.00     0.690 A 
HETATM    6  N4  UNL     1      -3.218  -0.159  -1.730  1.00  0.00    -0.199 N 
ATOM      7  H4  UNL     1      -3.570  -0.172  -2.687  1.00  0.00     0.183 HD
HETATM    8  C3  UNL     1      -1.970  -0.617  -1.457  1.00  0.00     0.132 A 
HETATM    9  C4  UNL     1      -1.463  -0.614  -0.174  1.00  0.00     0.044 A 
ENDROOT
BRANCH   9  10
HETATM   10  C5  UNL     1      -0.105  -1.108   0.138  1.00  0.00     0.060 C 
BRANCH  10  11
HETATM   11  C6  UNL     1       0.950  -0.024   0.048  1.00  0.00     0.008 C 
BRANCH  11  12
HETATM   12  C7  UNL     1       2.274  -0.666   0.390  1.00  0.00     0.029 C 
BRANCH  12  13
HETATM   13  C8  UNL     1       3.417   0.300   0.340  1.00  0.00     0.200 C 
BRANCH  13  14
HETATM   14  O1  UNL     1       3.581   0.873  -0.919  1.00  0.00    -0.287 OA
BRANCH  14  15
HETATM   15  N5  UNL     1       4.612   1.724  -0.907  1.00  0.00    -0.311 N 
ATOM     16  H52 UNL     1       5.186   1.915  -0.086  1.00  0.00     0.184 HD
ATOM     17  H51 UNL     1       4.732   2.144  -1.829  1.00  0.00     0.184 HD
ENDBRANCH  14  15
ENDBRANCH  13  14
ENDBRANCH  12  13
ENDBRANCH  11  12
ENDBRANCH  10  11
ENDBRANCH   9  10
BRANCH   5  18
HETATM   18  N3  UNL     1      -5.172   0.740  -1.026  1.00  0.00    -0.233 N 
ATOM     19  H32 UNL     1      -5.756   1.097  -0.270  1.00  0.00     0.174 HD
ATOM     20  H31 UNL     1      -5.550   0.739  -1.974  1.00  0.00     0.174 HD
ENDBRANCH   5  18
TORSDOF 7
