REMARK  2 active torsions:
REMARK  status: ('A' for Active; 'I' for Inactive)
REMARK    1  A    between atoms: C2_2  and  C4_4 
REMARK    2  A    between atoms: C8_8  and  N1_9 
ROOT
HETATM    1  C4  UNL     1      -0.147  -0.156   0.903  1.00  0.00     0.019 C 
HETATM    2  C5  UNL     1      -0.987  -1.380   0.619  1.00  0.00     0.007 C 
HETATM    3  C6  UNL     1      -1.756  -1.119  -0.638  1.00  0.00     0.002 C 
HETATM    4  C7  UNL     1      -1.749   0.363  -0.846  1.00  0.00     0.033 C 
HETATM    5  C8  UNL     1      -0.873   0.938   0.259  1.00  0.00     0.188 C 
ENDROOT
BRANCH   5   6
HETATM    6  N1  UNL     1      -0.110   2.020  -0.255  1.00  0.00    -0.075 N 
ATOM      7  H13 UNL     1       0.481   2.398   0.486  1.00  0.00     0.274 HD
ATOM      8  H12 UNL     1       0.595   1.660  -0.897  1.00  0.00     0.274 HD
ATOM      9  H11 UNL     1      -0.616   2.783  -0.704  1.00  0.00     0.274 HD
ENDBRANCH   5   6
BRANCH   1  10
HETATM   10  C2  UNL     1       1.252  -0.418   0.449  1.00  0.00    -0.017 C 
HETATM   11  C1  UNL     1       1.369  -0.718  -1.018  1.00  0.00     0.010 C 
HETATM   12  C3  UNL     1       2.243   0.629   0.889  1.00  0.00     0.010 C 
ENDBRANCH   1  10
TORSDOF 2
