REMARK  4 active torsions:
REMARK  status: ('A' for Active; 'I' for Inactive)
REMARK    1  A    between atoms: C2_2  and  N1_3 
REMARK    2  A    between atoms: C4_8  and  N2_9 
REMARK    3  A    between atoms: C5_13  and  C6_14 
REMARK    4  A    between atoms: C6_14  and  C7_15 
ROOT
HETATM    1  C1  UNL     1      -2.049  -0.531   1.345  1.00  0.00     0.046 C 
HETATM    2  C2  UNL     1      -1.361  -0.523   0.003  1.00  0.00     0.122 C 
HETATM    3  C3  UNL     1      -1.420   0.837  -0.654  1.00  0.00     0.071 C 
HETATM    4  C4  UNL     1      -0.035   1.417  -0.464  1.00  0.00     0.190 C 
HETATM    5  C5  UNL     1       0.826   0.181  -0.582  1.00  0.00     0.019 C 
HETATM    6  C8  UNL     1       0.106  -0.855   0.184  1.00  0.00     0.045 C 
ENDROOT
BRANCH   2   7
HETATM    7  N1  UNL     1      -1.937  -1.526  -0.868  1.00  0.00    -0.071 N 
ATOM      8  H13 UNL     1      -1.924  -2.452  -0.441  1.00  0.00     0.275 HD
ATOM      9  H12 UNL     1      -2.947  -1.415  -0.959  1.00  0.00     0.275 HD
ATOM     10  H11 UNL     1      -1.472  -1.521  -1.776  1.00  0.00     0.275 HD
ENDBRANCH   2   7
BRANCH   4  11
HETATM   11  N2  UNL     1       0.117   2.097   0.784  1.00  0.00    -0.075 N 
ATOM     12  H23 UNL     1      -0.598   2.816   0.897  1.00  0.00     0.274 HD
ATOM     13  H22 UNL     1      -0.134   1.489   1.564  1.00  0.00     0.274 HD
ATOM     14  H21 UNL     1       1.050   2.488   0.912  1.00  0.00     0.274 HD
ENDBRANCH   4  11
BRANCH   5  15
HETATM   15  C6  UNL     1       2.226   0.414  -0.183  1.00  0.00     0.022 C 
BRANCH  15  16
HETATM   16  C7  UNL     1       3.070  -0.812  -0.315  1.00  0.00     0.115 C 
HETATM   17 CL1  UNL     1       2.626  -2.169   0.706  1.00  0.00    -0.130 Cl
ENDBRANCH  15  16
ENDBRANCH   5  15
TORSDOF 4
