REMARK  8 active torsions:
REMARK  status: ('A' for Active; 'I' for Inactive)
REMARK       I    between atoms: N1_1  and  C1_5 
REMARK       I    between atoms: C1_5  and  N2_6 
REMARK       I    between atoms: C1_5  and  N3_10 
REMARK    1  A    between atoms: C4_18  and  S1_19 
REMARK    2  A    between atoms: C6_26  and  C7_27 
REMARK    3  A    between atoms: C7_27  and  O4_28 
REMARK    4  A    between atoms: C7_27  and  O5_30 
REMARK    5  A    between atoms: O5_30  and  C8_31 
REMARK    6  A    between atoms: C9_35  and  O7_36 
REMARK    7  A    between atoms: C9_35  and  O8_38 
REMARK    8  A    between atoms: C10_40  and  O9_41 
ROOT
HETATM    1  N1  UNL     1       2.544  -3.176  -1.242  1.00  0.00    -0.032 N 
ATOM      2  H11 UNL     1       2.734  -2.928  -2.213  1.00  0.00     0.278 HD
ATOM      3  H12 UNL     1       1.634  -2.834  -0.933  1.00  0.00     0.278 HD
ATOM      4  H13 UNL     1       2.375  -4.176  -1.130  1.00  0.00     0.278 HD
HETATM    5  C1  UNL     1       3.612  -2.712  -0.390  1.00  0.00     0.494 C 
HETATM    6  N2  UNL     1       3.341  -3.066   0.998  1.00  0.00    -0.032 N 
ATOM      7  H21 UNL     1       4.096  -2.738   1.600  1.00  0.00     0.278 HD
ATOM      8  H22 UNL     1       3.172  -4.066   1.110  1.00  0.00     0.278 HD
ATOM      9  H23 UNL     1       2.431  -2.724   1.307  1.00  0.00     0.278 HD
HETATM   10  N3  UNL     1       3.833  -1.308  -0.468  1.00  0.00    -0.173 N 
ATOM     11  H3  UNL     1       4.761  -1.020  -0.779  1.00  0.00     0.181 HD
HETATM   12  C2  UNL     1       3.018  -0.363  -0.198  1.00  0.00     0.683 A 
HETATM   13  N4  UNL     1       3.505   0.903  -0.365  1.00  0.00    -0.174 N 
ATOM     14  H4  UNL     1       4.466   1.020  -0.687  1.00  0.00     0.186 HD
HETATM   15  C3  UNL     1       2.771   1.995  -0.122  1.00  0.00     0.152 A 
HETATM   16  N5  UNL     1       2.891   3.327  -0.166  1.00  0.00    -0.314 N 
ATOM     17  H5  UNL     1       3.737   3.820  -0.451  1.00  0.00     0.170 HD
HETATM   18  C4  UNL     1       1.741   3.936   0.218  1.00  0.00     0.227 A 
HETATM   19  N6  UNL     1       0.826   2.973   0.527  1.00  0.00    -0.326 N 
ATOM     20  H6  UNL     1      -0.129   3.138   0.846  1.00  0.00     0.168 HD
HETATM   21  C5  UNL     1       1.393   1.774   0.340  1.00  0.00     0.108 A 
HETATM   22  C6  UNL     1       0.935   0.494   0.498  1.00  0.00     0.111 A 
HETATM   23  N9  UNL     1       1.757  -0.551   0.225  1.00  0.00    -0.188 N 
ATOM     24  H9  UNL     1       1.409  -1.502   0.344  1.00  0.00     0.184 HD
ENDROOT
BRANCH  22  25
HETATM   25  C7  UNL     1      -0.439   0.270   0.958  1.00  0.00     0.313 C 
BRANCH  25  26
HETATM   26  O4  UNL     1      -0.643   1.162   2.038  1.00  0.00    -0.366 OA
ATOM     27  H4  UNL     1      -1.533   1.017   2.336  1.00  0.00     0.213 HD
ENDBRANCH  25  26
BRANCH  25  28
HETATM   28  O5  UNL     1      -1.397   0.498   0.004  1.00  0.00    -0.330 OA
BRANCH  28  29
HETATM   29  C8  UNL     1      -2.158  -0.657  -0.143  1.00  0.00     0.272 C 
HETATM   30  N7  UNL     1      -1.990  -1.125  -1.515  1.00  0.00    -0.084 NA
HETATM   31  N8  UNL     1      -2.727  -2.289  -1.730  1.00  0.00     0.019 NA
HETATM   32  O6  UNL     1      -4.032  -2.148  -1.497  1.00  0.00    -0.200 OA
HETATM   33  C9  UNL     1      -4.341  -1.727  -0.219  1.00  0.00     0.328 C 
HETATM   34  C10 UNL     1      -3.634  -0.410   0.053  1.00  0.00     0.258 C 
BRANCH  33  35
HETATM   35  O7  UNL     1      -5.708  -1.479  -0.167  1.00  0.00    -0.340 OA
ATOM     36  H7  UNL     1      -5.921  -1.189   0.712  1.00  0.00     0.215 HD
ENDBRANCH  33  35
BRANCH  33  37
HETATM   37  O8  UNL     1      -3.932  -2.667   0.721  1.00  0.00    -0.340 OA
ATOM     38  H8  UNL     1      -4.145  -2.377   1.600  1.00  0.00     0.215 HD
ENDBRANCH  33  37
BRANCH  34  39
HETATM   39  O9  UNL     1      -3.852  -0.000   1.372  1.00  0.00    -0.383 OA
ATOM     40  H9  UNL     1      -4.781   0.155   1.495  1.00  0.00     0.210 HD
ENDBRANCH  34  39
ENDBRANCH  28  29
ENDBRANCH  25  28
ENDBRANCH  22  25
BRANCH  18  41
HETATM   41  S1  UNL     1       1.555   5.664   0.275  1.00  0.00     0.172 S 
HETATM   42  O1  UNL     1       2.853   6.350   0.591  1.00  0.00    -0.589 OA
HETATM   43  O2  UNL     1       0.574   6.077   1.340  1.00  0.00    -0.589 OA
HETATM   44  O3  UNL     1       0.996   6.267  -1.180  1.00  0.00    -0.589 OA
ENDBRANCH  18  41
TORSDOF 8
