REMARK  3 active torsions:
REMARK  status: ('A' for Active; 'I' for Inactive)
REMARK       I    between atoms: N1_2  and  C2_4 
REMARK       I    between atoms: C2_4  and  N2_6 
REMARK    1  A    between atoms: N2_6  and  C3_8 
REMARK    2  A    between atoms: C6_11  and  N3_12 
REMARK    3  A    between atoms: C8_16  and  N4_17 
ROOT
HETATM    1  C3  UNL     1      -0.314  -0.130  -0.016  1.00  0.00     0.069 A 
HETATM    2  C4  UNL     1      -0.700   1.133  -0.387  1.00  0.00     0.034 A 
HETATM    3  C5  UNL     1      -2.037   1.509  -0.463  1.00  0.00     0.038 A 
HETATM    4  C6  UNL     1      -3.014   0.589  -0.157  1.00  0.00     0.105 A 
HETATM    5  C7  UNL     1      -2.629  -0.675   0.215  1.00  0.00     0.074 A 
HETATM    6  C8  UNL     1      -1.307  -1.060   0.295  1.00  0.00     0.132 A 
ENDROOT
BRANCH   1   7
HETATM    7  N2  UNL     1       1.043  -0.495  -0.005  1.00  0.00    -0.307 N 
HETATM    8  C2  UNL     1       2.185   0.310  -0.115  1.00  0.00     0.320 C 
HETATM    9  N1  UNL     1       3.492  -0.319  -0.086  1.00  0.00    -0.347 N 
HETATM   10  O1  UNL     1       2.124   1.544  -0.236  1.00  0.00    -0.247 OA
HETATM   11  C1  UNL     1       4.662   0.526  -0.199  1.00  0.00     0.151 C 
ATOM     12  H1  UNL     1       3.584  -1.330   0.011  1.00  0.00     0.163 HD
ATOM     13  H2  UNL     1       1.224  -1.494   0.098  1.00  0.00     0.170 HD
ENDBRANCH   1   7
BRANCH   6  14
HETATM   14  N4  UNL     1      -1.067  -2.382   0.696  1.00  0.00    -0.113 N 
HETATM   15  O4  UNL     1      -0.129  -2.785   1.393  1.00  0.00    -0.532 OA
HETATM   16  O5  UNL     1      -1.972  -3.396   0.331  1.00  0.00    -0.532 OA
ENDBRANCH   6  14
BRANCH   4  17
HETATM   17  N3  UNL     1      -4.383   0.968  -0.234  1.00  0.00    -0.116 N 
HETATM   18  O2  UNL     1      -5.250   0.126   0.046  1.00  0.00    -0.532 OA
HETATM   19  O3  UNL     1      -4.754   2.237  -0.609  1.00  0.00    -0.532 OA
ENDBRANCH   4  17
TORSDOF 3
