REMARK  6 active torsions:
REMARK  status: ('A' for Active; 'I' for Inactive)
REMARK    1  A    between atoms: C2_2  and  C3_3 
REMARK    2  A    between atoms: C3_3  and  N1_4 
REMARK    3  A    between atoms: C6_12  and  N4_13 
REMARK    4  A    between atoms: N5_21  and  O3_23 
REMARK    5  A    between atoms: O3_23  and  C12_24 
REMARK    6  A    between atoms: C12_24  and  C13_25 
ROOT
HETATM    1  N1  UNL     1      -2.059  -0.298   0.429  1.00  0.00    -0.177 N 
HETATM    2  C4  UNL     1      -2.889  -0.898   1.345  1.00  0.00     0.679 A 
HETATM    3  N2  UNL     1      -4.170  -0.727   1.362  1.00  0.00    -0.234 N 
ATOM      4  H21 UNL     1      -4.786  -1.172   2.042  1.00  0.00     0.174 HD
ATOM      5  H22 UNL     1      -4.702  -0.154   0.707  1.00  0.00     0.174 HD
HETATM    6  N3  UNL     1      -2.196  -1.644   2.199  1.00  0.00    -0.187 N 
ATOM      7  H3  UNL     1      -2.590  -2.188   2.966  1.00  0.00     0.184 HD
HETATM    8  C5  UNL     1      -0.917  -1.566   1.893  1.00  0.00     0.110 A 
HETATM    9  C6  UNL     1       0.257  -2.120   2.365  1.00  0.00     0.133 A 
HETATM   10  C7  UNL     1       1.505  -1.871   1.806  1.00  0.00     0.049 A 
HETATM   11  C8  UNL     1       1.552  -1.027   0.743  1.00  0.00    -0.014 A 
HETATM   12  C9  UNL     1       0.364  -0.443   0.243  1.00  0.00     0.030 A 
HETATM   13  C10 UNL     1      -0.849  -0.694   0.768  1.00  0.00     0.094 A 
HETATM   14  C11 UNL     1       0.565   0.691  -0.682  1.00  0.00     0.072 C 
HETATM   15  N5  UNL     1       0.162   1.820  -0.350  1.00  0.00    -0.267 N 
ATOM     16  H5  UNL     1       0.369   2.486  -1.094  1.00  0.00     0.194 HD
HETATM   17  C14 UNL     1       1.449   0.387  -1.849  1.00  0.00     0.064 C 
HETATM   18  C15 UNL     1       2.013   1.662  -2.454  1.00  0.00     0.044 C 
HETATM   19  C16 UNL     1       0.624  -0.282  -2.896  1.00  0.00     0.044 C 
HETATM   20  N6  UNL     1       2.495  -0.534  -1.450  1.00  0.00    -0.396 N 
ATOM     21  H6  UNL     1       3.021  -1.079  -2.133  1.00  0.00     0.155 HD
HETATM   22  C17 UNL     1       2.752  -0.638  -0.039  1.00  0.00     0.047 C 
HETATM   23  C18 UNL     1       3.744  -1.799   0.113  1.00  0.00     0.043 C 
HETATM   24  C19 UNL     1       3.389   0.562   0.572  1.00  0.00     0.043 C 
ENDROOT
BRANCH  15  25
HETATM   25  O3  UNL     1      -0.438   2.439   0.634  1.00  0.00    -0.273 OA
BRANCH  25  26
HETATM   26  C12 UNL     1      -0.970   3.755   0.416  1.00  0.00     0.270 C 
BRANCH  26  27
HETATM   27  C13 UNL     1      -1.594   4.229   1.680  1.00  0.00     0.259 C 
HETATM   28  O4  UNL     1      -2.113   5.324   1.731  1.00  0.00    -0.304 OA
ENDBRANCH  26  27
ENDBRANCH  25  26
ENDBRANCH  15  25
BRANCH   1  29
HETATM   29  C3  UNL     1      -2.631   0.401  -0.677  1.00  0.00     0.174 C 
BRANCH  29  30
HETATM   30  C2  UNL     1      -3.021  -0.625  -1.763  1.00  0.00    -0.016 C 
HETATM   31  C1  UNL     1      -4.253  -0.759  -2.183  1.00  0.00     0.008 C 
ENDBRANCH  29  30
ENDBRANCH   1  29
BRANCH   9  32
HETATM   32  N4  UNL     1       0.162  -3.008   3.500  1.00  0.00    -0.113 N 
HETATM   33  O1  UNL     1      -0.703  -2.814   4.364  1.00  0.00    -0.532 OA
HETATM   34  O2  UNL     1       1.014  -4.070   3.671  1.00  0.00    -0.532 OA
ENDBRANCH   9  32
TORSDOF 6
