REMARK  13 active torsions:
REMARK  status: ('A' for Active; 'I' for Inactive)
REMARK    1  A    between atoms: C2_2  and  C4_4 
REMARK    2  A    between atoms: C4_4  and  N1_5 
REMARK       I    between atoms: N1_5  and  C5_7 
REMARK    3  A    between atoms: C5_7  and  C6_9 
REMARK    4  A    between atoms: C6_9  and  N2_10 
REMARK    5  A    between atoms: C6_9  and  C24_36 
REMARK       I    between atoms: N2_10  and  C7_12 
REMARK    6  A    between atoms: C7_12  and  C8_14 
REMARK    7  A    between atoms: C8_14  and  C9_15 
REMARK    8  A    between atoms: C8_14  and  N5_23 
REMARK    9  A    between atoms: C9_15  and  C10_16 
REMARK       I    between atoms: N5_23  and  C14_25 
REMARK   10  A    between atoms: C14_25  and  C15_27 
REMARK   11  A    between atoms: C15_27  and  C16_28 
REMARK   12  A    between atoms: C16_28  and  C17_29 
REMARK   13  A    between atoms: C17_29  and  C18_30 
ROOT
HETATM    1  C8  UNL     1       0.162   0.048   0.359  1.00  0.00     0.182 C 
ENDROOT
BRANCH   1   2
HETATM    2  C7  UNL     1      -1.022   0.941   0.332  1.00  0.00     0.241 C 
HETATM    3  N2  UNL     1      -2.119   0.613   1.132  1.00  0.00    -0.346 N 
ATOM      4  H2  UNL     1      -2.081  -0.225   1.712  1.00  0.00     0.163 HD
HETATM    5  O2  UNL     1      -1.082   1.978  -0.380  1.00  0.00    -0.271 OA
BRANCH   3   6
HETATM    6  C6  UNL     1      -3.337   1.458   1.156  1.00  0.00     0.180 C 
BRANCH   6   7
HETATM    7  C5  UNL     1      -4.443   0.732   0.519  1.00  0.00     0.240 C 
HETATM    8  N1  UNL     1      -5.709   1.228   0.243  1.00  0.00    -0.359 N 
ATOM      9  H1  UNL     1      -5.917   2.193   0.501  1.00  0.00     0.162 HD
HETATM   10  O1  UNL     1      -4.212  -0.484   0.183  1.00  0.00    -0.271 OA
BRANCH   8  11
HETATM   11  C4  UNL     1      -6.762   0.439  -0.399  1.00  0.00     0.126 C 
BRANCH  11  12
HETATM   12  C2  UNL     1      -6.410  -0.009  -1.783  1.00  0.00    -0.005 C 
HETATM   13  C1  UNL     1      -7.599  -0.817  -2.315  1.00  0.00     0.011 C 
HETATM   14  C3  UNL     1      -6.304   1.195  -2.730  1.00  0.00     0.011 C 
ENDBRANCH  11  12
ENDBRANCH   8  11
ENDBRANCH   6   7
BRANCH   6  15
HETATM   15  C24 UNL     1      -3.581   1.917   2.558  1.00  0.00     0.009 C 
HETATM   16  C25 UNL     1      -4.719   2.852   2.659  1.00  0.00     0.012 C 
HETATM   17  C26 UNL     1      -3.842   0.757   3.500  1.00  0.00     0.012 C 
ENDBRANCH   6  15
ENDBRANCH   3   6
ENDBRANCH   1   2
BRANCH   1  18
HETATM   18  C9  UNL     1      -0.198  -1.388   0.173  1.00  0.00     0.093 C 
BRANCH  18  19
HETATM   19  C10 UNL     1       0.990  -2.269   0.212  1.00  0.00     0.029 A 
HETATM   20  C11 UNL     1       1.544  -2.822   1.378  1.00  0.00     0.114 A 
HETATM   21  N3  UNL     1       2.603  -3.591   1.073  1.00  0.00    -0.360 N 
HETATM   22  C12 UNL     1       2.720  -3.529  -0.252  1.00  0.00     0.182 A 
ATOM     23  H3  UNL     1       3.193  -4.113   1.721  1.00  0.00     0.166 HD
HETATM   24  N4  UNL     1       1.751  -2.733  -0.784  1.00  0.00    -0.350 N 
HETATM   25  C13 UNL     1       1.561  -2.443  -2.199  1.00  0.00     0.156 C 
ENDBRANCH  18  19
ENDBRANCH   1  18
BRANCH   1  26
HETATM   26  N5  UNL     1       1.208   0.432  -0.526  1.00  0.00    -0.347 N 
HETATM   27  C14 UNL     1       2.553   0.695  -0.137  1.00  0.00     0.218 C 
HETATM   28  O3  UNL     1       2.841   0.583   1.056  1.00  0.00    -0.274 OA
ATOM     29  H5  UNL     1       0.977   0.526  -1.515  1.00  0.00     0.163 HD
BRANCH  27  30
HETATM   30  C15 UNL     1       3.534   1.084  -1.159  1.00  0.00     0.103 C 
BRANCH  30  31
HETATM   31  C16 UNL     1       4.957   1.166  -0.702  1.00  0.00     0.014 C 
BRANCH  31  32
HETATM   32  C17 UNL     1       5.450  -0.161  -0.246  1.00  0.00     0.039 C 
BRANCH  32  33
HETATM   33  C18 UNL     1       6.868  -0.108   0.215  1.00  0.00    -0.058 A 
HETATM   34  C19 UNL     1       7.227   0.176   1.516  1.00  0.00     0.007 A 
HETATM   35  C20 UNL     1       8.562   0.207   1.866  1.00  0.00     0.001 A 
HETATM   36  C21 UNL     1       9.562  -0.045   0.929  1.00  0.00     0.000 A 
HETATM   37  C22 UNL     1       9.210  -0.328  -0.365  1.00  0.00     0.001 A 
HETATM   38  C23 UNL     1       7.855  -0.352  -0.690  1.00  0.00     0.007 A 
ENDBRANCH  32  33
ENDBRANCH  31  32
ENDBRANCH  30  31
ENDBRANCH  27  30
ENDBRANCH   1  26
TORSDOF 13
