REMARK  18 active torsions:
REMARK  status: ('A' for Active; 'I' for Inactive)
REMARK    1  A    between atoms: C2_2  and  C3_7 
REMARK    2  A    between atoms: N1_3  and  O1_5 
REMARK       I    between atoms: C3_7  and  N2_9 
REMARK    3  A    between atoms: N2_9  and  S1_11 
REMARK    4  A    between atoms: S1_11  and  N3_14 
REMARK       I    between atoms: N3_14  and  C4_16 
REMARK    5  A    between atoms: C4_16  and  C5_18 
REMARK    6  A    between atoms: C5_18  and  O6_19 
REMARK    7  A    between atoms: C5_18  and  C6_21 
REMARK    8  A    between atoms: C6_21  and  N4_23 
REMARK    9  A    between atoms: N4_23  and  C8_25 
REMARK   10  A    between atoms: C8_25  and  N5_26 
REMARK   11  A    between atoms: C8_25  and  C16_40 
REMARK   12  A    between atoms: N5_26  and  O7_27 
REMARK   13  A    between atoms: O7_27  and  C9_28 
REMARK   14  A    between atoms: C9_28  and  C10_30 
REMARK   15  A    between atoms: C18_42  and  O10_43 
REMARK   16  A    between atoms: C19_45  and  O11_46 
REMARK   17  A    between atoms: C20_48  and  O12_49 
REMARK   18  A    between atoms: O12_49  and  S2_50 
ROOT
HETATM    1  C8  UNL     1       1.163  -1.353   0.756  1.00  0.00     0.219 C 
ENDROOT
BRANCH   1   2
HETATM    2  N4  UNL     1      -0.075  -1.736   1.349  1.00  0.00    -0.355 N 
ATOM      3  H4  UNL     1      -0.083  -2.543   1.973  1.00  0.00     0.162 HD
BRANCH   2   4
HETATM    4  C6  UNL     1      -1.323  -1.040   1.113  1.00  0.00     0.118 C 
HETATM    5  C7  UNL     1      -1.243   0.404   1.566  1.00  0.00     0.035 C 
BRANCH   4   6
HETATM    6  C5  UNL     1      -1.621  -1.082  -0.377  1.00  0.00     0.233 C 
BRANCH   6   7
HETATM    7  C4  UNL     1      -2.947  -0.420  -0.653  1.00  0.00     0.263 C 
HETATM    8  N3  UNL     1      -3.980  -1.191  -1.227  1.00  0.00    -0.235 N 
ATOM      9  H3  UNL     1      -3.817  -2.173  -1.451  1.00  0.00     0.183 HD
HETATM   10  O5  UNL     1      -3.131   0.775  -0.383  1.00  0.00    -0.270 OA
BRANCH   8  11
HETATM   11  S1  UNL     1      -5.501  -0.487  -1.548  1.00  0.00     0.328 S 
HETATM   12  O3  UNL     1      -5.475   0.484  -2.696  1.00  0.00    -0.182 OA
HETATM   13  O4  UNL     1      -6.461  -1.587  -1.974  1.00  0.00    -0.182 OA
BRANCH  11  14
HETATM   14  N2  UNL     1      -6.170   0.255  -0.148  1.00  0.00    -0.232 N 
HETATM   15  C3  UNL     1      -6.856   1.512  -0.167  1.00  0.00     0.280 C 
HETATM   16  O2  UNL     1      -7.011   2.158  -1.236  1.00  0.00    -0.265 OA
ATOM     17  H2  UNL     1      -6.073  -0.227   0.746  1.00  0.00     0.183 HD
BRANCH  15  18
HETATM   18  C2  UNL     1      -7.398   2.079   1.062  1.00  0.00     0.096 C 
HETATM   19  C1  UNL     1      -8.109   3.369   1.020  1.00  0.00     0.076 C 
HETATM   20  N1  UNL     1      -7.263   1.462   2.176  1.00  0.00    -0.268 N 
ATOM     21  H1  UNL     1      -6.771   0.570   2.214  1.00  0.00     0.194 HD
BRANCH  20  22
HETATM   22  O1  UNL     1      -7.786   2.012   3.314  1.00  0.00    -0.290 OA
ATOM     23  H1  UNL     1      -7.686   1.554   4.140  1.00  0.00     0.244 HD
ENDBRANCH  20  22
ENDBRANCH  15  18
ENDBRANCH  11  14
ENDBRANCH   8  11
ENDBRANCH   6   7
BRANCH   6  24
HETATM   24  O6  UNL     1      -1.688  -2.432  -0.778  1.00  0.00    -0.384 OA
ATOM     25  H6  UNL     1      -0.852  -2.849  -0.604  1.00  0.00     0.210 HD
ENDBRANCH   6  24
ENDBRANCH   4   6
ENDBRANCH   2   4
ENDBRANCH   1   2
BRANCH   1  26
HETATM   26  N5  UNL     1       1.750  -0.385   1.165  1.00  0.00    -0.253 NA
BRANCH  26  27
HETATM   27  O7  UNL     1       2.626   0.513   1.296  1.00  0.00    -0.122 OA
BRANCH  27  28
HETATM   28  C9  UNL     1       3.922   0.742   0.948  1.00  0.00     0.325 C 
HETATM   29  O8  UNL     1       4.484  -0.195   0.288  1.00  0.00    -0.259 OA
BRANCH  28  30
HETATM   30  C10 UNL     1       4.715   1.932   1.252  1.00  0.00     0.237 C 
HETATM   31  C11 UNL     1       5.222   2.679   0.035  1.00  0.00     0.104 C 
HETATM   32  C12 UNL     1       5.441   4.041   0.639  1.00  0.00     0.065 A 
HETATM   33  C13 UNL     1       4.710   4.122   1.805  1.00  0.00     0.111 A 
HETATM   34  N7  UNL     1       6.088   5.210   0.458  1.00  0.00    -0.298 N 
HETATM   35  C14 UNL     1       4.945   5.383   2.314  1.00  0.00     0.146 A 
HETATM   36  O9  UNL     1       4.020   2.909   2.017  1.00  0.00    -0.332 OA
HETATM   37  N6  UNL     1       5.774   5.996   1.476  1.00  0.00    -0.307 N 
ATOM     38  H6  UNL     1       6.122   6.947   1.601  1.00  0.00     0.186 HD
HETATM   39  C15 UNL     1       6.975   5.529  -0.673  1.00  0.00     0.177 C 
ENDBRANCH  28  30
ENDBRANCH  27  28
ENDBRANCH  26  27
ENDBRANCH   1  26
BRANCH   1  40
HETATM   40  C16 UNL     1       1.620  -2.188  -0.346  1.00  0.00     0.030 A 
HETATM   41  C17 UNL     1       1.900  -1.765  -1.604  1.00  0.00     0.056 A 
HETATM   42  C18 UNL     1       2.349  -2.642  -2.564  1.00  0.00     0.102 A 
HETATM   43  C19 UNL     1       2.537  -3.976  -2.303  1.00  0.00     0.134 A 
HETATM   44  C20 UNL     1       2.263  -4.450  -1.032  1.00  0.00     0.129 A 
HETATM   45  C21 UNL     1       1.815  -3.546  -0.096  1.00  0.00     0.057 A 
BRANCH  42  46
HETATM   46  O10 UNL     1       2.643  -2.214  -3.870  1.00  0.00    -0.358 OA
ATOM     47  H10 UNL     1       2.953  -2.820  -4.533  1.00  0.00     0.217 HD
ENDBRANCH  42  46
BRANCH  43  48
HETATM   48  O11 UNL     1       2.997  -4.865  -3.286  1.00  0.00    -0.356 OA
ATOM     49  H11 UNL     1       3.127  -5.789  -3.105  1.00  0.00     0.218 HD
ENDBRANCH  43  48
BRANCH  44  50
HETATM   50  O12 UNL     1       2.444  -5.794  -0.730  1.00  0.00    -0.211 OA
BRANCH  50  51
HETATM   51  S2  UNL     1       1.156  -6.871  -0.936  1.00  0.00     0.257 S 
HETATM   52  O13 UNL     1       1.369  -7.708  -2.170  1.00  0.00    -0.572 OA
HETATM   53  O14 UNL     1       1.031  -7.767   0.290  1.00  0.00    -0.572 OA
HETATM   54  O15 UNL     1      -0.273  -5.999  -1.055  1.00  0.00    -0.572 OA
ENDBRANCH  50  51
ENDBRANCH  44  50
ENDBRANCH   1  40
TORSDOF 18
