REMARK  4 active torsions:
REMARK  status: ('A' for Active; 'I' for Inactive)
REMARK    1  A    between atoms: C4_11  and  C5_12 
REMARK    2  A    between atoms: C5_12  and  C6_13 
REMARK    3  A    between atoms: C6_13  and  C7_14 
REMARK    4  A    between atoms: C7_14  and  C8_15 
ROOT
HETATM    1  C1  UNL     1      -3.359  -1.458  -1.007  1.00  0.00     0.071 C 
HETATM    2  C2  UNL     1      -3.189  -0.193  -0.271  1.00  0.00     0.045 A 
HETATM    3  N1  UNL     1      -3.765   0.991  -0.488  1.00  0.00    -0.194 N 
ATOM      4  H1  UNL     1      -4.433   1.180  -1.235  1.00  0.00     0.184 HD
HETATM    5  C3  UNL     1      -3.348   1.902   0.409  1.00  0.00     0.676 A 
HETATM    6  N2  UNL     1      -3.705   3.139   0.485  1.00  0.00    -0.234 N 
ATOM      7  H21 UNL     1      -3.389   3.830   1.165  1.00  0.00     0.174 HD
ATOM      8  H22 UNL     1      -4.360   3.637  -0.117  1.00  0.00     0.174 HD
HETATM    9  N3  UNL     1      -2.485   1.246   1.202  1.00  0.00    -0.194 N 
ATOM     10  H3  UNL     1      -1.991   1.667   1.989  1.00  0.00     0.184 HD
HETATM   11  C4  UNL     1      -2.358  -0.023   0.829  1.00  0.00     0.049 A 
ENDROOT
BRANCH  11  12
HETATM   12  C5  UNL     1      -1.496  -1.074   1.455  1.00  0.00     0.060 C 
BRANCH  12  13
HETATM   13  C6  UNL     1      -0.257  -1.320   0.599  1.00  0.00     0.008 C 
BRANCH  13  14
HETATM   14  C7  UNL     1       0.484  -0.020   0.517  1.00  0.00     0.034 C 
BRANCH  14  15
HETATM   15  C8  UNL     1       1.753  -0.150  -0.323  1.00  0.00     0.138 C 
HETATM   16  C9  UNL     1       2.413   1.181  -0.342  1.00  0.00     0.145 C 
HETATM   17  N4  UNL     1       3.798   1.206  -0.612  1.00  0.00    -0.417 N 
HETATM   18  C10 UNL     1       4.506  -0.017  -0.567  1.00  0.00     0.140 C 
ATOM     19  H4  UNL     1       4.274   2.081  -0.833  1.00  0.00     0.153 HD
HETATM   20  C11 UNL     1       3.661  -1.259  -0.611  1.00  0.00     0.187 C 
HETATM   21  O1  UNL     1       2.537  -1.155   0.210  1.00  0.00    -0.383 OA
ENDBRANCH  14  15
ENDBRANCH  13  14
ENDBRANCH  12  13
ENDBRANCH  11  12
TORSDOF 4
