REMARK  9 active torsions:
REMARK  status: ('A' for Active; 'I' for Inactive)
REMARK    1  A    between atoms: N1_1  and  C1_5 
REMARK    2  A    between atoms: C1_5  and  C2_6 
REMARK    3  A    between atoms: C2_6  and  N2_7 
REMARK    4  A    between atoms: N2_7  and  C3_9 
REMARK    5  A    between atoms: C4_12  and  N4_13 
REMARK    6  A    between atoms: N8_29  and  C12_30 
REMARK    7  A    between atoms: C12_30  and  C13_31 
REMARK    8  A    between atoms: C13_31  and  O2_32 
REMARK    9  A    between atoms: O2_32  and  C14_33 
ROOT
HETATM    1  C3  UNL     1       2.587  -0.336  -0.725  1.00  0.00     0.681 A 
HETATM    2  N3  UNL     1       1.803   0.704  -0.552  1.00  0.00    -0.174 N 
ATOM      3  H3  UNL     1       2.228   1.628  -0.483  1.00  0.00     0.186 HD
HETATM    4  C4  UNL     1       0.419   0.601  -0.459  1.00  0.00     0.150 A 
HETATM    5  C9  UNL     1      -0.154  -0.618  -0.548  1.00  0.00     0.128 A 
HETATM    6  C10 UNL     1       0.683  -1.705  -0.733  1.00  0.00     0.156 A 
HETATM    7  N6  UNL     1       2.008  -1.539  -0.814  1.00  0.00    -0.174 N 
ATOM      8  H6  UNL     1       2.599  -2.360  -0.949  1.00  0.00     0.186 HD
HETATM    9  N7  UNL     1      -0.097  -2.778  -0.835  1.00  0.00    -0.292 N 
ATOM     10  H7  UNL     1       0.218  -3.738  -0.977  1.00  0.00     0.172 HD
HETATM   11  C11 UNL     1      -1.374  -2.373  -0.717  1.00  0.00     0.328 A 
HETATM   12  O1  UNL     1      -2.286  -3.246  -0.792  1.00  0.00    -0.246 OA
HETATM   13  N8  UNL     1      -1.459  -1.035  -0.534  1.00  0.00    -0.291 N 
ENDROOT
BRANCH   1  14
HETATM   14  N2  UNL     1       3.886  -0.244  -0.812  1.00  0.00    -0.224 N 
ATOM     15  H2  UNL     1       4.299   0.686  -0.741  1.00  0.00     0.177 HD
BRANCH  14  16
HETATM   16  C2  UNL     1       4.768  -1.344  -0.998  1.00  0.00     0.165 C 
BRANCH  16  17
HETATM   17  C1  UNL     1       5.125  -2.038   0.315  1.00  0.00     0.249 C 
BRANCH  17  18
HETATM   18  N1  UNL     1       5.780  -1.086   1.213  1.00  0.00    -0.078 N 
ATOM     19  H13 UNL     1       6.590  -0.644   0.779  1.00  0.00     0.274 HD
ATOM     20  H12 UNL     1       5.217  -0.248   1.362  1.00  0.00     0.274 HD
ATOM     21  H11 UNL     1       6.018  -1.549   2.090  1.00  0.00     0.274 HD
ENDBRANCH  17  18
ENDBRANCH  16  17
ENDBRANCH  14  16
ENDBRANCH   1  14
BRANCH   4  22
HETATM   22  N4  UNL     1      -0.264   1.824  -0.303  1.00  0.00    -0.362 N 
HETATM   23  C5  UNL     1      -0.684   2.337   0.949  1.00  0.00     0.152 C 
HETATM   24  C6  UNL     1      -0.062   3.704   1.142  1.00  0.00     0.252 C 
HETATM   25  N5  UNL     1       0.018   4.456  -0.073  1.00  0.00    -0.072 N 
HETATM   26  C7  UNL     1      -0.954   4.001  -1.061  1.00  0.00     0.252 C 
ATOM     27  H52 UNL     1      -0.074   5.456   0.104  1.00  0.00     0.277 HD
ATOM     28  H51 UNL     1       0.965   4.446  -0.453  1.00  0.00     0.277 HD
HETATM   29  C8  UNL     1      -0.505   2.619  -1.494  1.00  0.00     0.152 C 
ENDBRANCH   4  22
BRANCH  13  30
HETATM   30  C12 UNL     1      -2.657  -0.301  -0.319  1.00  0.00     0.161 C 
BRANCH  30  31
HETATM   31  C13 UNL     1      -3.254  -0.299   1.053  1.00  0.00     0.200 C 
BRANCH  31  32
HETATM   32  O2  UNL     1      -3.775  -1.499   1.548  1.00  0.00    -0.305 OA
BRANCH  32  33
HETATM   33  C14 UNL     1      -4.895  -2.145   1.064  1.00  0.00     0.372 C 
HETATM   34  N9  UNL     1      -5.323  -3.354   1.647  1.00  0.00    -0.032 NA
HETATM   35  O3  UNL     1      -5.524  -1.654   0.109  1.00  0.00    -0.242 OA
ENDBRANCH  32  33
ENDBRANCH  31  32
ENDBRANCH  30  31
ENDBRANCH  13  30
TORSDOF 9
