REMARK  10 active torsions:
REMARK  status: ('A' for Active; 'I' for Inactive)
REMARK    1  A    between atoms: C2_2  and  N1_3 
REMARK    2  A    between atoms: C2_2  and  C14_42 
REMARK    3  A    between atoms: N1_3  and  C3_5 
REMARK    4  A    between atoms: C3_5  and  C4_6 
REMARK    5  A    between atoms: C3_5  and  C8_20 
REMARK       I    between atoms: C4_6  and  N2_8 
REMARK    6  A    between atoms: N7_22  and  C10_23 
REMARK    7  A    between atoms: C12_28  and  N10_29 
REMARK    8  A    between atoms: C13_34  and  N12_35 
REMARK    9  A    between atoms: C14_42  and  N15_43 
REMARK   10  A    between atoms: C14_42  and  O2_47 
ROOT
HETATM    1  C3  UNL     1      -1.499   0.682   0.187  1.00  0.00     0.229 C 
ENDROOT
BRANCH   1   2
HETATM    2  N1  UNL     1      -2.094   1.647   1.032  1.00  0.00    -0.375 N 
ATOM      3  H1  UNL     1      -1.589   1.849   1.895  1.00  0.00     0.160 HD
BRANCH   2   4
HETATM    4  C2  UNL     1      -3.160   2.289   0.864  1.00  0.00     0.035 C 
HETATM    5  C1  UNL     1      -3.583   3.259   1.905  1.00  0.00     0.067 C 
BRANCH   4   6
HETATM    6  C14 UNL     1      -3.980   2.089  -0.342  1.00  0.00     0.362 C 
BRANCH   6   7
HETATM    7  N15 UNL     1      -4.119   3.328  -1.108  1.00  0.00    -0.048 N 
ATOM      8 3H15 UNL     1      -4.484   4.085  -0.530  1.00  0.00     0.277 HD
ATOM      9 2H15 UNL     1      -3.210   3.729  -1.337  1.00  0.00     0.277 HD
ATOM     10 1H15 UNL     1      -4.687   3.189  -1.944  1.00  0.00     0.277 HD
ENDBRANCH   6   7
BRANCH   6  11
HETATM   11  O2  UNL     1      -5.257   1.705   0.065  1.00  0.00    -0.366 OA
ATOM     12  H2  UNL     1      -5.786   1.576  -0.713  1.00  0.00     0.212 HD
ENDBRANCH   6  11
ENDBRANCH   4   6
ENDBRANCH   2   4
ENDBRANCH   1   2
BRANCH   1  13
HETATM   13  C4  UNL     1      -2.195  -0.604   0.358  1.00  0.00     0.273 C 
HETATM   14  O1  UNL     1      -3.129  -0.699   1.177  1.00  0.00    -0.268 OA
HETATM   15  N2  UNL     1      -1.811  -1.738  -0.404  1.00  0.00    -0.202 N 
HETATM   16  N3  UNL     1      -0.856  -1.831  -1.314  1.00  0.00    -0.231 N 
HETATM   17  C7  UNL     1      -2.373  -2.971  -0.335  1.00  0.00     0.124 A 
HETATM   18  N4  UNL     1      -0.790  -3.047  -1.814  1.00  0.00    -0.267 N 
ATOM     19  H3  UNL     1      -0.249  -1.060  -1.593  1.00  0.00     0.209 HD
HETATM   20  C5  UNL     1      -1.728  -3.795  -1.224  1.00  0.00     0.166 A 
ATOM     21  H4  UNL     1      -0.135  -3.364  -2.529  1.00  0.00     0.190 HD
HETATM   22  N5  UNL     1      -2.272  -5.037  -1.174  1.00  0.00    -0.283 N 
HETATM   23  N6  UNL     1      -3.223  -4.977  -0.281  1.00  0.00    -0.308 N 
ATOM     24  H5  UNL     1      -1.995  -5.851  -1.722  1.00  0.00     0.188 HD
HETATM   25  C6  UNL     1      -3.338  -3.762   0.264  1.00  0.00     0.142 A 
ATOM     26  H6  UNL     1      -3.813  -5.770  -0.027  1.00  0.00     0.186 HD
ENDBRANCH   1  13
BRANCH   1  27
HETATM   27  C8  UNL     1      -0.061   0.555   0.558  1.00  0.00     0.076 A 
HETATM   28  C9  UNL     1       1.067   0.512  -0.230  1.00  0.00     0.147 A 
HETATM   29  N7  UNL     1       2.161   0.388   0.569  1.00  0.00    -0.244 N 
HETATM   30  N13 UNL     1       1.681   0.361   1.800  1.00  0.00    -0.236 N 
HETATM   31  N14 UNL     1       0.372   0.458   1.816  1.00  0.00    -0.286 N 
ATOM     32  H13 UNL     1       2.258   0.275   2.637  1.00  0.00     0.209 HD
ATOM     33  H14 UNL     1      -0.215   0.459   2.650  1.00  0.00     0.188 HD
BRANCH  29  34
HETATM   34  C10 UNL     1       3.523   0.308   0.143  1.00  0.00     0.142 A 
HETATM   35  C11 UNL     1       4.274  -0.774   0.558  1.00  0.00     0.164 A 
HETATM   36  N8  UNL     1       3.697  -1.774   1.385  1.00  0.00    -0.080 NA
HETATM   37  N9  UNL     1       5.576  -0.915   0.191  1.00  0.00    -0.177 N 
HETATM   38  C12 UNL     1       6.152   0.011  -0.589  1.00  0.00     0.678 A 
ATOM     39  H9  UNL     1       6.112  -1.723   0.508  1.00  0.00     0.185 HD
HETATM   40  N11 UNL     1       5.425   1.084  -1.007  1.00  0.00    -0.175 N 
HETATM   41  C13 UNL     1       4.131   1.235  -0.649  1.00  0.00     0.147 A 
ATOM     42  H11 UNL     1       5.865   1.786  -1.601  1.00  0.00     0.186 HD
BRANCH  38  43
HETATM   43  N10 UNL     1       7.383  -0.133  -0.929  1.00  0.00    -0.234 N 
ATOM     44 2H10 UNL     1       7.928  -0.937  -0.616  1.00  0.00     0.174 HD
ATOM     45 1H10 UNL     1       7.821   0.571  -1.522  1.00  0.00     0.174 HD
ENDBRANCH  38  43
BRANCH  41  46
HETATM   46  N12 UNL     1       3.445   2.250  -1.044  1.00  0.00    -0.383 N 
ATOM     47 2H12 UNL     1       2.468   2.364  -0.774  1.00  0.00     0.157 HD
ATOM     48 1H12 UNL     1       3.900   2.944  -1.637  1.00  0.00     0.157 HD
ENDBRANCH  41  46
ENDBRANCH  29  34
ENDBRANCH   1  27
TORSDOF 10
