REMARK  3 active torsions:
REMARK  status: ('A' for Active; 'I' for Inactive)
REMARK    1  A    between atoms: C10_18  and  N5_19 
REMARK    2  A    between atoms: N5_19  and  C11_21 
REMARK    3  A    between atoms: C11_21  and  C12_22 
ROOT
HETATM    1  N1  UNL     1      -1.435  -2.407   0.131  1.00  0.00    -0.383 N 
ATOM      2  H11 UNL     1      -0.436  -2.577   0.245  1.00  0.00     0.157 HD
ATOM      3  H12 UNL     1      -2.084  -3.192   0.072  1.00  0.00     0.157 HD
HETATM    4  C1  UNL     1      -1.931  -1.231   0.058  1.00  0.00     0.134 A 
HETATM    5  C2  UNL     1      -3.283  -1.001  -0.096  1.00  0.00     0.035 A 
HETATM    6  C3  UNL     1      -4.191  -2.030  -0.180  1.00  0.00     0.103 A 
HETATM    7  N2  UNL     1      -5.510  -1.818  -0.329  1.00  0.00    -0.374 N 
ATOM      8  H2  UNL     1      -6.134  -2.623  -0.385  1.00  0.00     0.164 HD
HETATM    9  C4  UNL     1      -6.040  -0.578  -0.407  1.00  0.00     0.088 A 
HETATM   10  C5  UNL     1      -5.140   0.470  -0.324  1.00  0.00     0.029 A 
HETATM   11  C6  UNL     1      -3.781   0.283  -0.171  1.00  0.00    -0.017 A 
HETATM   12  C7  UNL     1      -2.885   1.313  -0.088  1.00  0.00     0.047 A 
HETATM   13  C8  UNL     1      -1.537   1.067   0.065  1.00  0.00     0.101 A 
HETATM   14  C9  UNL     1      -0.619   2.123   0.150  1.00  0.00     0.160 A 
HETATM   15  N3  UNL     1      -1.148   3.415   0.071  1.00  0.00    -0.080 NA
HETATM   16  N4  UNL     1       0.672   1.826   0.297  1.00  0.00    -0.175 N 
ATOM     17  H4  UNL     1       1.337   2.597   0.358  1.00  0.00     0.185 HD
HETATM   18  C10 UNL     1       1.151   0.571   0.370  1.00  0.00     0.694 A 
HETATM   19  N6  UNL     1       0.250  -0.419   0.286  1.00  0.00    -0.123 N 
ATOM     20  H6  UNL     1       0.574  -1.385   0.337  1.00  0.00     0.206 HD
HETATM   21  N7  UNL     1      -1.064  -0.183   0.137  1.00  0.00    -0.222 N 
ENDROOT
BRANCH  18  22
HETATM   22  N5  UNL     1       2.407   0.388   0.512  1.00  0.00    -0.220 N 
ATOM     23  H5  UNL     1       2.995   1.220   0.564  1.00  0.00     0.178 HD
BRANCH  22  24
HETATM   24  C11 UNL     1       3.061  -0.875   0.604  1.00  0.00     0.184 C 
BRANCH  24  25
HETATM   25  C12 UNL     1       4.527  -0.715   0.309  1.00  0.00     0.001 A 
HETATM   26  C13 UNL     1       5.221   0.426  -0.010  1.00  0.00     0.017 A 
HETATM   27  C14 UNL     1       6.534   0.302  -0.229  1.00  0.00     0.008 A 
HETATM   28  C15 UNL     1       7.079  -0.948  -0.119  1.00  0.00     0.050 A 
HETATM   29  S1  UNL     1       5.733  -1.915   0.289  1.00  0.00    -0.105 SA
ENDBRANCH  24  25
ENDBRANCH  22  24
ENDBRANCH  18  22
TORSDOF 3
