REMARK  18 active torsions:
REMARK  status: ('A' for Active; 'I' for Inactive)
REMARK    1  A    between atoms: C2_2  and  N1_3 
REMARK    2  A    between atoms: N2_6  and  C5_7 
REMARK    3  A    between atoms: C5_7  and  C6_8 
REMARK       I    between atoms: C6_8  and  N3_10 
REMARK    4  A    between atoms: N3_10  and  C7_12 
REMARK    5  A    between atoms: C7_12  and  C9_14 
REMARK    6  A    between atoms: C15_20  and  O2_21 
REMARK    7  A    between atoms: C17_26  and  N5_27 
REMARK    8  A    between atoms: N5_27  and  C18_29 
REMARK    9  A    between atoms: C18_29  and  C19_30 
REMARK   10  A    between atoms: C19_30  and  C20_31 
REMARK   11  A    between atoms: C20_31  and  C21_32 
REMARK   12  A    between atoms: C21_32  and  C22_33 
REMARK   13  A    between atoms: C22_33  and  C23_34 
REMARK   14  A    between atoms: C23_34  and  C24_35 
REMARK   15  A    between atoms: C24_35  and  C25_36 
REMARK   16  A    between atoms: C25_36  and  C26_37 
REMARK   17  A    between atoms: C26_37  and  C27_38 
REMARK   18  A    between atoms: C27_38  and  N6_39 
ROOT
HETATM    1  C9  UNL     1      -3.613  -1.238  -2.442  1.00  0.00     0.016 C 
HETATM    2  C10 UNL     1      -3.419  -2.719  -2.217  1.00  0.00     0.008 C 
HETATM    3  C11 UNL     1      -2.753  -2.826  -0.888  1.00  0.00     0.006 C 
HETATM    4  C12 UNL     1      -2.298  -1.461  -0.473  1.00  0.00    -0.001 C 
HETATM    5  C13 UNL     1      -0.861  -1.377  -0.059  1.00  0.00    -0.002 C 
HETATM    6  C14 UNL     1       0.035  -2.375  -0.695  1.00  0.00     0.039 C 
HETATM    7  C15 UNL     1       1.466  -2.043  -0.839  1.00  0.00     0.142 C 
HETATM    8  C16 UNL     1       1.987  -0.844  -0.163  1.00  0.00     0.120 C 
HETATM    9  N4  UNL     1       2.820  -0.117  -1.138  1.00  0.00    -0.372 N 
ATOM     10  H4  UNL     1       3.006  -0.540  -2.048  1.00  0.00     0.161 HD
HETATM   11  C17 UNL     1       3.313   1.026  -0.871  1.00  0.00     0.073 C 
HETATM   12  C28 UNL     1       2.984   1.622   0.444  1.00  0.00     0.076 C 
HETATM   13  C29 UNL     1       1.521   1.448   0.745  1.00  0.00     0.019 C 
HETATM   14  C30 UNL     1       1.012   0.059   0.510  1.00  0.00    -0.017 C 
HETATM   15  C31 UNL     1       0.805  -0.524   1.923  1.00  0.00     0.018 C 
HETATM   16  C32 UNL     1      -0.366   0.051  -0.109  1.00  0.00     0.000 C 
HETATM   17  C33 UNL     1      -0.464   0.657  -1.459  1.00  0.00     0.006 C 
HETATM   18  C34 UNL     1      -1.513   0.021  -2.332  1.00  0.00     0.010 C 
HETATM   19  C35 UNL     1      -2.715  -0.484  -1.543  1.00  0.00    -0.035 C 
HETATM   20  C36 UNL     1      -3.373   0.743  -0.975  1.00  0.00     0.016 C 
ENDROOT
BRANCH  11  21
HETATM   21  N5  UNL     1       4.104   1.711  -1.801  1.00  0.00    -0.380 N 
ATOM     22  H5  UNL     1       3.624   1.938  -2.672  1.00  0.00     0.160 HD
BRANCH  21  23
HETATM   23  C18 UNL     1       5.447   2.144  -1.751  1.00  0.00     0.121 C 
BRANCH  23  24
HETATM   24  C19 UNL     1       6.505   1.105  -1.797  1.00  0.00     0.020 C 
BRANCH  24  25
HETATM   25  C20 UNL     1       6.531   0.172  -0.648  1.00  0.00     0.002 C 
BRANCH  25  26
HETATM   26  C21 UNL     1       6.790   0.856   0.684  1.00  0.00     0.000 C 
BRANCH  26  27
HETATM   27  C22 UNL     1       8.138   1.554   0.666  1.00  0.00     0.000 C 
BRANCH  27  28
HETATM   28  C23 UNL     1       9.262   0.601   0.405  1.00  0.00     0.000 C 
BRANCH  28  29
HETATM   29  C24 UNL     1       9.379  -0.492   1.443  1.00  0.00     0.000 C 
BRANCH  29  30
HETATM   30  C25 UNL     1      10.507  -1.434   1.140  1.00  0.00     0.002 C 
BRANCH  30  31
HETATM   31  C26 UNL     1      11.844  -0.774   1.077  1.00  0.00     0.027 C 
BRANCH  31  32
HETATM   32  C27 UNL     1      12.276  -0.088   2.334  1.00  0.00     0.229 C 
BRANCH  32  33
HETATM   33  N6  UNL     1      13.586   0.488   2.072  1.00  0.00    -0.079 N 
ATOM     34  H63 UNL     1      14.264  -0.195   1.734  1.00  0.00     0.274 HD
ATOM     35  H62 UNL     1      13.600   1.100   1.256  1.00  0.00     0.274 HD
ATOM     36  H61 UNL     1      13.881   0.956   2.929  1.00  0.00     0.274 HD
ENDBRANCH  32  33
ENDBRANCH  31  32
ENDBRANCH  30  31
ENDBRANCH  29  30
ENDBRANCH  28  29
ENDBRANCH  27  28
ENDBRANCH  26  27
ENDBRANCH  25  26
ENDBRANCH  24  25
ENDBRANCH  23  24
ENDBRANCH  21  23
ENDBRANCH  11  21
BRANCH   7  37
HETATM   37  O2  UNL     1       2.220  -3.168  -0.394  1.00  0.00    -0.393 OA
ATOM     38  H2  UNL     1       3.141  -2.954  -0.487  1.00  0.00     0.210 HD
ENDBRANCH   7  37
BRANCH   1  39
HETATM   39  C7  UNL     1      -5.071  -0.946  -2.383  1.00  0.00     0.085 C 
HETATM   40  C8  UNL     1      -5.716  -1.890  -3.425  1.00  0.00     0.032 C 
BRANCH  39  41
HETATM   41  N3  UNL     1      -5.725  -1.258  -1.143  1.00  0.00    -0.352 N 
HETATM   42  C6  UNL     1      -6.736  -0.435  -0.566  1.00  0.00     0.256 C 
HETATM   43  O1  UNL     1      -7.064   0.604  -1.181  1.00  0.00    -0.267 OA
ATOM     44  H3  UNL     1      -5.453  -2.109  -0.652  1.00  0.00     0.163 HD
BRANCH  42  45
HETATM   45  C5  UNL     1      -7.396  -0.765   0.710  1.00  0.00     0.160 C 
BRANCH  45  46
HETATM   46  N2  UNL     1      -8.356   0.204   1.064  1.00  0.00    -0.382 N 
HETATM   47  C4  UNL     1      -7.845   1.460   1.462  1.00  0.00     0.141 C 
HETATM   48  C3  UNL     1      -8.863   2.267   2.263  1.00  0.00     0.136 C 
HETATM   49  N1  UNL     1     -10.106   2.295   1.568  1.00  0.00    -0.410 N 
HETATM   50  C38 UNL     1     -10.163   1.614   0.321  1.00  0.00     0.136 C 
HETATM   51  C37 UNL     1      -9.586   0.205   0.352  1.00  0.00     0.141 C 
BRANCH  49  52
HETATM   52  C2  UNL     1     -11.280   2.263   2.371  1.00  0.00     0.112 C 
HETATM   53  C1  UNL     1     -11.504   0.958   3.106  1.00  0.00     0.026 C 
ENDBRANCH  49  52
ENDBRANCH  45  46
ENDBRANCH  42  45
ENDBRANCH  39  41
ENDBRANCH   1  39
TORSDOF 18
