REMARK  12 active torsions:
REMARK  status: ('A' for Active; 'I' for Inactive)
REMARK    1  A    between atoms: O1_2  and  C2_3 
REMARK    2  A    between atoms: C4_5  and  C5_6 
REMARK    3  A    between atoms: C5_6  and  C6_7 
REMARK    4  A    between atoms: C7_8  and  O2_9 
REMARK    5  A    between atoms: O2_9  and  C8_10 
REMARK    6  A    between atoms: C8_10  and  C9_11 
REMARK    7  A    between atoms: C9_11  and  N1_12 
REMARK       I    between atoms: N1_12  and  C10_14 
REMARK    8  A    between atoms: C12_21  and  N4_22 
REMARK    9  A    between atoms: N4_22  and  C13_24 
REMARK   10  A    between atoms: N5_27  and  C16_28 
REMARK   11  A    between atoms: C23_35  and  O4_36 
REMARK   12  A    between atoms: C25_38  and  O5_39 
ROOT
HETATM    1  C6  UNL     1      -0.987   0.624   0.609  1.00  0.00     0.043 A 
HETATM    2  C7  UNL     1      -1.987   1.589   0.349  1.00  0.00     0.167 A 
HETATM    3  N2  UNL     1      -1.370   2.515  -0.411  1.00  0.00    -0.278 N 
ATOM      4  H2  UNL     1      -1.808   3.359  -0.779  1.00  0.00     0.189 HD
HETATM    5  N3  UNL     1      -0.122   2.166  -0.605  1.00  0.00    -0.283 N 
ATOM      6  H3  UNL     1       0.546   2.710  -1.151  1.00  0.00     0.188 HD
HETATM    7  C12 UNL     1       0.169   1.016  -0.003  1.00  0.00     0.127 A 
ENDROOT
BRANCH   1   8
HETATM    8  C5  UNL     1      -1.174  -0.605   1.405  1.00  0.00     0.085 C 
BRANCH   8   9
HETATM    9  C4  UNL     1      -1.882  -1.688   0.724  1.00  0.00    -0.048 A 
HETATM   10  C3  UNL     1      -1.233  -2.579  -0.100  1.00  0.00     0.047 A 
HETATM   11  C2  UNL     1      -1.899  -3.611  -0.743  1.00  0.00     0.104 A 
HETATM   12  C25 UNL     1      -3.277  -3.745  -0.543  1.00  0.00     0.135 A 
HETATM   13  C23 UNL     1      -3.914  -2.867   0.269  1.00  0.00     0.104 A 
HETATM   14  C22 UNL     1      -3.234  -1.845   0.902  1.00  0.00     0.047 A 
BRANCH  11  15
HETATM   15  O1  UNL     1      -1.301  -4.522  -1.571  1.00  0.00    -0.353 OA
HETATM   16  C1  UNL     1       0.107  -4.462  -1.835  1.00  0.00     0.210 C 
ENDBRANCH  11  15
BRANCH  12  17
HETATM   17  O5  UNL     1      -3.982  -4.774  -1.175  1.00  0.00    -0.351 OA
HETATM   18  C26 UNL     1      -4.078  -5.994  -0.459  1.00  0.00     0.210 C 
ENDBRANCH  12  17
BRANCH  13  19
HETATM   19  O4  UNL     1      -5.290  -3.006   0.465  1.00  0.00    -0.353 OA
HETATM   20  C24 UNL     1      -6.057  -2.167   1.275  1.00  0.00     0.210 C 
ENDBRANCH  13  19
ENDBRANCH   8   9
ENDBRANCH   1   8
BRANCH   2  21
HETATM   21  O2  UNL     1      -3.236   1.517   0.796  1.00  0.00    -0.333 OA
BRANCH  21  22
HETATM   22  C8  UNL     1      -4.435   2.008   0.908  1.00  0.00     0.197 C 
BRANCH  22  23
HETATM   23  C9  UNL     1      -4.723   3.306   1.607  1.00  0.00     0.149 C 
BRANCH  23  24
HETATM   24  N1  UNL     1      -4.103   4.460   1.046  1.00  0.00    -0.359 N 
HETATM   25  C10 UNL     1      -4.357   5.706   1.731  1.00  0.00     0.213 C 
HETATM   26  C11 UNL     1      -3.737   6.930   1.188  1.00  0.00     0.117 C 
HETATM   27  O3  UNL     1      -5.070   5.796   2.751  1.00  0.00    -0.274 OA
ATOM     28  H1  UNL     1      -3.517   4.409   0.213  1.00  0.00     0.162 HD
ENDBRANCH  23  24
ENDBRANCH  22  23
ENDBRANCH  21  22
ENDBRANCH   2  21
BRANCH   7  29
HETATM   29  N4  UNL     1       1.237   0.358   0.051  1.00  0.00    -0.368 N 
ATOM     30  H4  UNL     1       1.136  -0.495   0.601  1.00  0.00     0.161 HD
BRANCH  29  31
HETATM   31  C13 UNL     1       2.518   0.506  -0.453  1.00  0.00     0.113 C 
HETATM   32  C14 UNL     1       2.962   1.816  -0.989  1.00  0.00     0.057 C 
HETATM   33  C15 UNL     1       4.473   1.570  -1.119  1.00  0.00     0.275 C 
HETATM   34  N5  UNL     1       4.807   0.765   0.020  1.00  0.00     0.095 N 
HETATM   35  C21 UNL     1       3.636   0.145   0.509  1.00  0.00     0.297 C 
BRANCH  34  36
HETATM   36  C16 UNL     1       5.950  -0.049  -0.133  1.00  0.00     0.223 C 
HETATM   37  C17 UNL     1       5.866  -1.101  -1.207  1.00  0.00     0.036 C 
HETATM   38  C18 UNL     1       7.300  -1.653  -1.143  1.00  0.00     0.002 C 
HETATM   39  C19 UNL     1       8.112  -0.402  -1.051  1.00  0.00     0.002 C 
HETATM   40  C20 UNL     1       7.191   0.705  -0.557  1.00  0.00     0.036 C 
ENDBRANCH  34  36
ENDBRANCH  29  31
ENDBRANCH   7  29
TORSDOF 12
