REMARK  16 active torsions:
REMARK  status: ('A' for Active; 'I' for Inactive)
REMARK    1  A    between atoms: N1_2  and  C3_4 
REMARK    2  A    between atoms: C3_4  and  C4_5 
REMARK    3  A    between atoms: C4_5  and  N2_6 
REMARK       I    between atoms: N2_6  and  C5_8 
REMARK    4  A    between atoms: C5_8  and  C6_10 
REMARK    5  A    between atoms: C6_10  and  C7_11 
REMARK    6  A    between atoms: C7_11  and  C8_12 
REMARK    7  A    between atoms: C8_12  and  C9_13 
REMARK    8  A    between atoms: C8_12  and  N4_50 
REMARK    9  A    between atoms: C9_13  and  O2_14 
REMARK   10  A    between atoms: C9_13  and  C10_16 
REMARK   11  A    between atoms: C10_16  and  C11_17 
REMARK   12  A    between atoms: C11_17  and  C12_18 
REMARK   13  A    between atoms: C12_18  and  O4_20 
REMARK   14  A    between atoms: O4_20  and  C13_21 
REMARK   15  A    between atoms: C25_36  and  O7_37 
REMARK   16  A    between atoms: C32_45  and  O8_46 
ROOT
HETATM    1  C13 UNL     1       0.617  -0.608  -0.278  1.00  0.00     0.261 C 
HETATM    2  C14 UNL     1       0.708   0.375  -1.436  1.00  0.00     0.225 C 
HETATM    3  O5  UNL     1      -0.352   1.269  -1.292  1.00  0.00    -0.361 OA
HETATM    4  C15 UNL     1      -1.006   0.976  -0.106  1.00  0.00     0.239 C 
HETATM    5  N3  UNL     1      -0.789  -0.466   0.050  1.00  0.00    -0.295 N 
HETATM    6  C16 UNL     1      -1.997  -1.072   0.431  1.00  0.00     0.229 C 
HETATM    7  O6  UNL     1      -2.176  -2.309   0.572  1.00  0.00    -0.273 OA
HETATM    8  C17 UNL     1      -2.995  -0.000   0.630  1.00  0.00     0.097 C 
HETATM    9  C18 UNL     1      -4.354  -0.527   0.297  1.00  0.00     0.004 C 
HETATM   10  C19 UNL     1      -5.134  -0.644   1.558  1.00  0.00     0.006 C 
HETATM   11  C20 UNL     1      -6.523  -1.148   1.266  1.00  0.00     0.007 C 
HETATM   12  C21 UNL     1      -7.264  -0.302   0.273  1.00  0.00     0.004 C 
HETATM   13  C22 UNL     1      -8.611  -0.887   0.107  1.00  0.00    -0.017 C 
HETATM   14  C23 UNL     1      -9.735   0.156   0.159  1.00  0.00     0.018 C 
HETATM   15  C24 UNL     1      -8.938  -1.806   1.280  1.00  0.00     0.018 C 
HETATM   16  C25 UNL     1      -8.799  -1.707  -1.140  1.00  0.00     0.126 C 
HETATM   17  C26 UNL     1      -7.514  -2.206  -1.728  1.00  0.00     0.033 C 
HETATM   18  C27 UNL     1      -6.489  -1.162  -1.964  1.00  0.00     0.012 C 
HETATM   19  C28 UNL     1      -6.492  -0.024  -0.977  1.00  0.00    -0.035 C 
HETATM   20  C29 UNL     1      -6.999   1.201  -1.713  1.00  0.00     0.016 C 
HETATM   21  C30 UNL     1      -5.046   0.361  -0.642  1.00  0.00     0.001 C 
HETATM   22  C31 UNL     1      -4.271   0.617  -1.916  1.00  0.00     0.038 C 
HETATM   23  C32 UNL     1      -2.893   1.094  -1.631  1.00  0.00     0.132 C 
HETATM   24  C33 UNL     1      -2.512   1.132  -0.184  1.00  0.00     0.039 C 
HETATM   25  C34 UNL     1      -2.802   2.490   0.429  1.00  0.00     0.023 C 
ENDROOT
BRANCH   1  26
HETATM   26  O4  UNL     1       1.370  -0.049   0.809  1.00  0.00    -0.293 OA
BRANCH  26  27
HETATM   27  C12 UNL     1       2.392  -0.721   1.437  1.00  0.00     0.260 C 
HETATM   28  O3  UNL     1       2.620  -1.895   0.964  1.00  0.00    -0.265 OA
BRANCH  27  29
HETATM   29  C11 UNL     1       3.227  -0.275   2.549  1.00  0.00     0.114 C 
BRANCH  29  30
HETATM   30  C10 UNL     1       3.205   1.154   2.910  1.00  0.00     0.047 C 
BRANCH  30  31
HETATM   31  C9  UNL     1       3.675   2.195   1.991  1.00  0.00     0.163 C 
BRANCH  31  32
HETATM   32  C8  UNL     1       5.076   2.241   1.537  1.00  0.00     0.013 C 
BRANCH  32  33
HETATM   33  C7  UNL     1       5.429   1.328   0.382  1.00  0.00     0.064 C 
BRANCH  33  34
HETATM   34  C6  UNL     1       6.910   1.490   0.016  1.00  0.00     0.108 C 
BRANCH  34  35
HETATM   35  C5  UNL     1       7.174   0.563  -1.118  1.00  0.00     0.217 C 
HETATM   36  N2  UNL     1       8.475   0.490  -1.682  1.00  0.00    -0.359 N 
ATOM     37  H2  UNL     1       9.217   1.079  -1.304  1.00  0.00     0.162 HD
HETATM   38  O1  UNL     1       6.274  -0.165  -1.598  1.00  0.00    -0.274 OA
BRANCH  36  39
HETATM   39  C4  UNL     1       8.765  -0.389  -2.765  1.00  0.00     0.152 C 
BRANCH  39  40
HETATM   40  C3  UNL     1       8.551  -1.834  -2.455  1.00  0.00     0.290 C 
BRANCH  40  41
HETATM   41  N1  UNL     1       9.400  -2.251  -1.338  1.00  0.00     0.081 N 
HETATM   42  C1  UNL     1      10.777  -2.226  -1.751  1.00  0.00     0.309 C 
HETATM   43  C2  UNL     1       9.004  -3.539  -0.815  1.00  0.00     0.309 C 
ENDBRANCH  40  41
ENDBRANCH  39  40
ENDBRANCH  36  39
ENDBRANCH  34  35
ENDBRANCH  33  34
ENDBRANCH  32  33
BRANCH  32  44
HETATM   44  N4  UNL     1       6.034   2.274   2.561  1.00  0.00    -0.394 N 
HETATM   45  C35 UNL     1       6.397   1.142   3.293  1.00  0.00     0.148 C 
HETATM   46  C36 UNL     1       5.970   3.440   3.413  1.00  0.00     0.148 C 
ENDBRANCH  32  44
ENDBRANCH  31  32
BRANCH  31  47
HETATM   47  O2  UNL     1       2.863   2.249   0.828  1.00  0.00    -0.390 OA
ATOM     48  H2  UNL     1       1.960   2.219   1.121  1.00  0.00     0.210 HD
ENDBRANCH  31  47
ENDBRANCH  30  31
ENDBRANCH  29  30
ENDBRANCH  27  29
ENDBRANCH  26  27
ENDBRANCH   1  26
BRANCH  23  49
HETATM   49  O8  UNL     1      -2.737   2.397  -2.167  1.00  0.00    -0.395 OA
ATOM     50  H8  UNL     1      -1.856   2.702  -1.985  1.00  0.00     0.210 HD
ENDBRANCH  23  49
BRANCH  16  51
HETATM   51  O7  UNL     1      -9.448  -0.985  -2.140  1.00  0.00    -0.395 OA
ATOM     52  H7  UNL     1      -9.567  -1.503  -2.928  1.00  0.00     0.210 HD
ENDBRANCH  16  51
TORSDOF 16
