REMARK  14 active torsions:
REMARK  status: ('A' for Active; 'I' for Inactive)
REMARK    1  A    between atoms: C3_3  and  C4_4 
REMARK    2  A    between atoms: C4_4  and  N1_5 
REMARK    3  A    between atoms: C5_7  and  C6_8 
REMARK    4  A    between atoms: C5_7  and  N8_41 
REMARK    5  A    between atoms: C6_8  and  C7_9 
REMARK    6  A    between atoms: C6_8  and  N5_19 
REMARK    7  A    between atoms: C7_9  and  C8_10 
REMARK    8  A    between atoms: C8_10  and  C9_11 
REMARK    9  A    between atoms: C9_11  and  N2_12 
REMARK       I    between atoms: N2_12  and  C10_14 
REMARK       I    between atoms: N5_19  and  C11_21 
REMARK   10  A    between atoms: C11_21  and  C12_23 
REMARK   11  A    between atoms: C13_24  and  C14_25 
REMARK   12  A    between atoms: C14_25  and  C15_29 
REMARK       I    between atoms: C15_29  and  N7_31 
REMARK   13  A    between atoms: C28_45  and  C29_46 
REMARK       I    between atoms: C29_46  and  N9_48 
REMARK   14  A    between atoms: N9_48  and  N10_50 
ROOT
HETATM    1  C1  UNL     1      -1.364  -3.434   5.347  1.00  0.00     0.112 C 
HETATM    2  C2  UNL     1      -1.459  -2.259   4.488  1.00  0.00    -0.109 C 
HETATM    3  C3  UNL     1      -1.547  -1.280   3.798  1.00  0.00    -0.087 C 
ENDROOT
BRANCH   3   4
HETATM    4  C4  UNL     1      -1.653  -0.058   2.969  1.00  0.00     0.215 C 
BRANCH   4   5
HETATM    5  N1  UNL     1      -1.391  -0.400   1.624  1.00  0.00    -0.368 N 
HETATM    6  C5  UNL     1      -2.157  -0.566   0.633  1.00  0.00     0.100 C 
ATOM      7  H1  UNL     1      -0.402  -0.538   1.414  1.00  0.00     0.161 HD
BRANCH   6   8
HETATM    8  C6  UNL     1      -1.528  -0.933  -0.682  1.00  0.00     0.151 C 
BRANCH   8   9
HETATM    9  C7  UNL     1      -2.271  -2.138  -1.199  1.00  0.00     0.034 C 
BRANCH   9  10
HETATM   10  C8  UNL     1      -1.725  -2.616  -2.526  1.00  0.00     0.022 C 
BRANCH  10  11
HETATM   11  C9  UNL     1      -2.499  -3.816  -3.020  1.00  0.00     0.122 C 
BRANCH  11  12
HETATM   12  N2  UNL     1      -2.433  -4.925  -2.101  1.00  0.00    -0.365 N 
HETATM   13  C10 UNL     1      -3.096  -6.124  -2.375  1.00  0.00     0.181 C 
HETATM   14  N3  UNL     1      -3.706  -6.305  -3.517  1.00  0.00    -0.374 N 
HETATM   15  N4  UNL     1      -3.116  -7.163  -1.417  1.00  0.00    -0.064 NA
ATOM     16  H32 UNL     1      -3.692  -5.555  -4.208  1.00  0.00     0.158 HD
ATOM     17  H31 UNL     1      -4.190  -7.180  -3.717  1.00  0.00     0.158 HD
ATOM     18  H2  UNL     1      -1.895  -4.833  -1.239  1.00  0.00     0.162 HD
ENDBRANCH  11  12
ENDBRANCH  10  11
ENDBRANCH   9  10
ENDBRANCH   8   9
BRANCH   8  19
HETATM   19  N5  UNL     1      -0.121  -1.225  -0.490  1.00  0.00    -0.349 N 
HETATM   20  C11 UNL     1       0.918  -0.388  -0.931  1.00  0.00     0.223 C 
HETATM   21  O1  UNL     1       0.670   0.676  -1.520  1.00  0.00    -0.273 OA
ATOM     22  H5  UNL     1       0.129  -2.088  -0.007  1.00  0.00     0.163 HD
BRANCH  20  23
HETATM   23  C12 UNL     1       2.371  -0.762  -0.699  1.00  0.00     0.092 C 
HETATM   24  C13 UNL     1       3.276   0.339  -1.055  1.00  0.00     0.054 C 
HETATM   25  C21 UNL     1       3.804   0.036  -2.442  1.00  0.00     0.017 C 
HETATM   26  C22 UNL     1       3.524  -1.418  -2.706  1.00  0.00    -0.009 A 
HETATM   27  C23 UNL     1       3.973  -2.474  -1.787  1.00  0.00     0.011 A 
HETATM   28  C24 UNL     1       2.608  -1.906  -1.667  1.00  0.00     0.004 A 
BRANCH  24  29
HETATM   29  C14 UNL     1       4.352   0.695  -0.117  1.00  0.00     0.076 C 
HETATM   30  N6  UNL     1       4.565   0.040   0.930  1.00  0.00    -0.398 N 
ATOM     31  H62 UNL     1       3.952  -0.754   1.116  1.00  0.00     0.156 HD
ATOM     32  H61 UNL     1       5.311   0.287   1.580  1.00  0.00     0.156 HD
BRANCH  29  33
HETATM   33  C15 UNL     1       5.236   1.841  -0.386  1.00  0.00     0.266 C 
HETATM   34  O2  UNL     1       4.981   2.478  -1.465  1.00  0.00    -0.266 OA
HETATM   35  N7  UNL     1       6.297   2.294   0.396  1.00  0.00    -0.347 N 
HETATM   36  C16 UNL     1       6.648   1.627   1.632  1.00  0.00     0.126 C 
HETATM   37  C20 UNL     1       7.051   3.464  -0.059  1.00  0.00     0.126 C 
HETATM   38  C17 UNL     1       7.829   2.392   2.235  1.00  0.00     0.020 C 
HETATM   39  C18 UNL     1       8.926   2.377   1.193  1.00  0.00     0.003 C 
HETATM   40  C19 UNL     1       8.542   3.259   0.024  1.00  0.00     0.020 C 
ENDBRANCH  29  33
ENDBRANCH  24  29
ENDBRANCH  20  23
ENDBRANCH   8  19
ENDBRANCH   6   8
BRANCH   6  41
HETATM   41  N8  UNL     1      -3.552  -0.409   0.749  1.00  0.00    -0.356 N 
HETATM   42  C25 UNL     1      -4.408  -1.496   1.277  1.00  0.00     0.125 C 
HETATM   43  C26 UNL     1      -5.362  -0.737   2.177  1.00  0.00     0.022 C 
HETATM   44  C27 UNL     1      -5.378   0.672   1.683  1.00  0.00     0.037 C 
HETATM   45  C28 UNL     1      -4.472   0.638   0.449  1.00  0.00     0.179 C 
BRANCH  45  46
HETATM   46  C29 UNL     1      -3.891   1.956   0.183  1.00  0.00     0.264 C 
HETATM   47  O3  UNL     1      -2.631   2.138   0.243  1.00  0.00    -0.269 OA
HETATM   48  N9  UNL     1      -4.753   3.036  -0.146  1.00  0.00    -0.184 N 
ATOM     49  H9  UNL     1      -5.756   2.857  -0.186  1.00  0.00     0.197 HD
BRANCH  48  50
HETATM   50  N10 UNL     1      -4.303   4.324  -0.417  1.00  0.00     0.003 N 
HETATM   51  C30 UNL     1      -3.670   4.419  -1.719  1.00  0.00     0.301 C 
HETATM   52  C31 UNL     1      -5.413   5.264  -0.427  1.00  0.00     0.301 C 
HETATM   53  C32 UNL     1      -3.334   4.721   0.582  1.00  0.00     0.301 C 
ENDBRANCH  48  50
ENDBRANCH  45  46
ENDBRANCH   6  41
ENDBRANCH   4   5
ENDBRANCH   3   4
TORSDOF 14
