REMARK  11 active torsions:
REMARK  status: ('A' for Active; 'I' for Inactive)
REMARK    1  A    between atoms: C2_2  and  C4_4 
REMARK    2  A    between atoms: C4_4  and  N1_5 
REMARK       I    between atoms: N1_5  and  C5_7 
REMARK    3  A    between atoms: C5_7  and  C6_9 
REMARK       I    between atoms: N2_13  and  C10_14 
REMARK    4  A    between atoms: C10_14  and  C11_16 
REMARK    5  A    between atoms: N3_18  and  C13_20 
REMARK    6  A    between atoms: C13_20  and  N4_22 
REMARK    7  A    between atoms: N4_22  and  C15_25 
REMARK    8  A    between atoms: C15_25  and  C16_26 
REMARK    9  A    between atoms: C15_25  and  C27_42 
REMARK   10  A    between atoms: C16_26  and  O3_27 
REMARK   11  A    between atoms: C25_38  and  C26_39 
ROOT
HETATM    1  N4  UNL     1      -1.190  -1.060  -1.344  1.00  0.00    -0.043 N 
ATOM      2  H41 UNL     1      -1.102  -1.584  -0.473  1.00  0.00     0.280 HD
ATOM      3  H42 UNL     1      -1.327  -1.863  -1.958  1.00  0.00     0.280 HD
ENDROOT
BRANCH   1   4
HETATM    4  C13 UNL     1       0.031  -0.247  -1.682  1.00  0.00     0.281 C 
HETATM    5  C14 UNL     1       0.695  -1.004  -2.841  1.00  0.00     0.063 C 
BRANCH   4   6
HETATM    6  N3  UNL     1       0.839  -0.094  -0.586  1.00  0.00    -0.362 N 
HETATM    7  C11 UNL     1       2.021   0.522  -0.362  1.00  0.00     0.071 C 
HETATM    8  C12 UNL     1       2.219   1.295   0.934  1.00  0.00     0.074 C 
ATOM      9  H3  UNL     1       0.464  -0.546   0.248  1.00  0.00     0.161 HD
BRANCH   7  10
HETATM   10  C10 UNL     1       3.297   0.127  -0.976  1.00  0.00     0.266 C 
HETATM   11  N2  UNL     1       4.450  -0.257  -0.186  1.00  0.00    -0.334 N 
HETATM   12  C6  UNL     1       5.799  -0.535  -0.664  1.00  0.00     0.179 C 
HETATM   13  C9  UNL     1       4.455  -0.584   1.220  1.00  0.00     0.127 C 
HETATM   14  C7  UNL     1       5.941  -1.968  -0.121  1.00  0.00     0.037 C 
HETATM   15  C8  UNL     1       5.394  -1.787   1.295  1.00  0.00     0.022 C 
HETATM   16  O2  UNL     1       3.499   0.073  -2.239  1.00  0.00    -0.266 OA
BRANCH  12  17
HETATM   17  C5  UNL     1       6.746   0.343   0.099  1.00  0.00     0.240 C 
HETATM   18  N1  UNL     1       8.065  -0.065   0.410  1.00  0.00    -0.359 N 
ATOM     19  H1  UNL     1       8.414  -0.973   0.103  1.00  0.00     0.162 HD
HETATM   20  O1  UNL     1       6.324   1.462   0.466  1.00  0.00    -0.271 OA
BRANCH  18  21
HETATM   21  C4  UNL     1       8.905   0.826   1.169  1.00  0.00     0.126 C 
BRANCH  21  22
HETATM   22  C2  UNL     1      10.261   0.277   1.480  1.00  0.00    -0.005 C 
HETATM   23  C1  UNL     1      10.977   1.367   2.294  1.00  0.00     0.011 C 
HETATM   24  C3  UNL     1      11.129   0.047   0.266  1.00  0.00     0.011 C 
ENDBRANCH  21  22
ENDBRANCH  18  21
ENDBRANCH  12  17
ENDBRANCH   7  10
ENDBRANCH   4   6
ENDBRANCH   1   4
BRANCH   1  25
HETATM   25  C15 UNL     1      -2.348  -0.094  -1.350  1.00  0.00     0.266 C 
BRANCH  25  26
HETATM   26  C16 UNL     1      -3.224  -0.409  -0.243  1.00  0.00     0.146 C 
HETATM   27  N5  UNL     1      -4.309   0.026   0.457  1.00  0.00    -0.350 N 
HETATM   28  C17 UNL     1      -4.775  -0.775   1.624  1.00  0.00     0.130 C 
HETATM   29  C25 UNL     1      -5.107   1.187   0.237  1.00  0.00     0.175 C 
HETATM   30  C18 UNL     1      -4.847   0.054   2.883  1.00  0.00     0.008 C 
HETATM   31  C19 UNL     1      -5.478  -0.794   3.959  1.00  0.00     0.006 C 
HETATM   32  C23 UNL     1      -5.749   1.258   2.684  1.00  0.00    -0.006 C 
HETATM   33  C20 UNL     1      -6.344   0.078   4.839  1.00  0.00     0.000 C 
HETATM   34  C21 UNL     1      -7.586   0.554   4.134  1.00  0.00     0.000 C 
HETATM   35  C22 UNL     1      -7.208   0.844   2.674  1.00  0.00     0.005 C 
HETATM   36  C24 UNL     1      -5.357   2.037   1.477  1.00  0.00     0.039 C 
BRANCH  26  37
HETATM   37  O3  UNL     1      -2.805  -1.578   0.311  1.00  0.00    -0.348 OA
ATOM     38  H3  UNL     1      -3.380  -1.785   1.038  1.00  0.00     0.219 HD
ENDBRANCH  26  37
BRANCH  29  39
HETATM   39  C26 UNL     1      -6.407   0.767  -0.364  1.00  0.00     0.254 C 
HETATM   40  N6  UNL     1      -6.562  -0.561  -0.808  1.00  0.00    -0.060 NA
HETATM   41  O4  UNL     1      -7.347   1.571  -0.479  1.00  0.00    -0.275 OA
ENDBRANCH  29  39
ENDBRANCH  25  26
BRANCH  25  42
HETATM   42  C27 UNL     1      -2.812  -0.140  -2.760  1.00  0.00     0.024 C 
HETATM   43  C28 UNL     1      -3.913   0.799  -3.162  1.00  0.00     0.007 C 
HETATM   44  C29 UNL     1      -3.698   1.087  -4.669  1.00  0.00     0.000 C 
HETATM   45  C30 UNL     1      -3.568  -0.240  -5.346  1.00  0.00     0.000 C 
HETATM   46  C31 UNL     1      -4.028  -1.382  -4.470  1.00  0.00     0.000 C 
HETATM   47  C32 UNL     1      -3.144  -1.552  -3.237  1.00  0.00     0.007 C 
ENDBRANCH  25  42
ENDBRANCH   1  25
TORSDOF 11
