REMARK  9 active torsions:
REMARK  status: ('A' for Active; 'I' for Inactive)
REMARK    1  A    between atoms: C2_2  and  C4_4 
REMARK    2  A    between atoms: C4_4  and  C5_5 
REMARK    3  A    between atoms: C5_5  and  C6_6 
REMARK    4  A    between atoms: C5_5  and  N2_16 
REMARK       I    between atoms: C6_6  and  N1_8 
REMARK    5  A    between atoms: N1_8  and  C7_10 
REMARK    6  A    between atoms: C7_10  and  C8_11 
REMARK    7  A    between atoms: C8_11  and  C9_12 
REMARK    8  A    between atoms: C16_21  and  C17_22 
REMARK       I    between atoms: C17_22  and  N3_24 
REMARK    9  A    between atoms: N3_24  and  C18_26 
ROOT
HETATM    1  N2  UNL     1       0.536   1.556  -0.472  1.00  0.00    -0.299 N 
HETATM    2  C13 UNL     1       0.171   1.873  -1.817  1.00  0.00     0.225 C 
HETATM    3  O2  UNL     1      -0.810   1.476  -2.492  1.00  0.00    -0.273 OA
HETATM    4  C14 UNL     1       1.204   2.811  -2.336  1.00  0.00     0.106 C 
HETATM    5  C15 UNL     1       2.442   2.315  -1.622  1.00  0.00     0.044 C 
HETATM    6  C16 UNL     1       2.019   1.477  -0.457  1.00  0.00     0.185 C 
ENDROOT
BRANCH   1   7
HETATM    7  C5  UNL     1      -0.356   1.405   0.625  1.00  0.00     0.102 C 
BRANCH   7   8
HETATM    8  C4  UNL     1      -0.867   2.608   1.326  1.00  0.00     0.012 C 
BRANCH   8   9
HETATM    9  C2  UNL     1      -2.041   3.351   0.881  1.00  0.00     0.002 C 
HETATM   10  C1  UNL     1      -2.225   4.480   1.969  1.00  0.00     0.013 C 
HETATM   11  C3  UNL     1      -1.871   4.173  -0.380  1.00  0.00     0.013 C 
ENDBRANCH   8   9
ENDBRANCH   7   8
BRANCH   7  12
HETATM   12  C6  UNL     1      -1.331   0.307   0.531  1.00  0.00     0.268 C 
HETATM   13  O1  UNL     1      -1.473  -0.434  -0.478  1.00  0.00    -0.266 OA
HETATM   14  N1  UNL     1      -2.195   0.025   1.633  1.00  0.00    -0.356 N 
ATOM     15  H1  UNL     1      -2.094   0.609   2.463  1.00  0.00     0.162 HD
BRANCH  14  16
HETATM   16  C7  UNL     1      -3.180  -0.993   1.676  1.00  0.00     0.123 C 
BRANCH  16  17
HETATM   17  C8  UNL     1      -4.265  -0.842   0.649  1.00  0.00     0.028 C 
BRANCH  17  18
HETATM   18  C9  UNL     1      -5.267  -1.972   0.781  1.00  0.00    -0.050 C 
HETATM   19  C10 UNL     1      -6.332  -1.766  -0.277  1.00  0.00     0.014 C 
HETATM   20  C11 UNL     1      -5.884  -1.961   2.157  1.00  0.00     0.014 C 
HETATM   21  C12 UNL     1      -4.633  -3.315   0.541  1.00  0.00     0.014 C 
ENDBRANCH  17  18
ENDBRANCH  16  17
ENDBRANCH  14  16
ENDBRANCH   7  12
ENDBRANCH   1   7
BRANCH   6  22
HETATM   22  C17 UNL     1       2.520   0.109  -0.672  1.00  0.00     0.241 C 
HETATM   23  O3  UNL     1       1.797  -0.900  -0.842  1.00  0.00    -0.271 OA
HETATM   24  N3  UNL     1       3.941  -0.158  -0.699  1.00  0.00    -0.355 N 
ATOM     25  H3  UNL     1       4.588   0.620  -0.568  1.00  0.00     0.162 HD
BRANCH  24  26
HETATM   26  C18 UNL     1       4.481  -1.483  -0.904  1.00  0.00     0.084 C 
HETATM   27  C19 UNL     1       5.335  -1.584  -2.145  1.00  0.00     0.025 C 
HETATM   28  C20 UNL     1       5.970  -2.933  -2.195  1.00  0.00     0.002 C 
HETATM   29  C21 UNL     1       6.872  -3.083  -0.987  1.00  0.00     0.000 C 
HETATM   30  C22 UNL     1       5.967  -3.156   0.228  1.00  0.00     0.002 C 
HETATM   31  C23 UNL     1       5.239  -1.849   0.346  1.00  0.00     0.025 C 
ENDBRANCH  24  26
ENDBRANCH   6  22
TORSDOF 9
