REMARK  1 active torsions:
REMARK  status: ('A' for Active; 'I' for Inactive)
REMARK    1  A    between atoms: C3_7  and  N3_8 
REMARK       I    between atoms: N3_8  and  C4_10 
ROOT
HETATM    1  C1  UNL     1      -3.777   0.460  -0.270  1.00  0.00     0.049 C 
HETATM    2  C2  UNL     1      -2.492   0.242  -0.024  1.00  0.00     0.089 A 
HETATM    3  N1  UNL     1      -2.089  -0.052   1.227  1.00  0.00    -0.296 N 
ATOM      4  H1  UNL     1      -2.783  -0.104   1.973  1.00  0.00     0.187 HD
HETATM    5  N2  UNL     1      -0.832  -0.273   1.511  1.00  0.00    -0.284 N 
ATOM      6  H2  UNL     1      -0.558  -0.494   2.468  1.00  0.00     0.188 HD
HETATM    7  C3  UNL     1       0.129  -0.208   0.513  1.00  0.00     0.136 A 
HETATM    8  C5  UNL     1      -0.246   0.089  -0.773  1.00  0.00     0.052 A 
HETATM    9  C6  UNL     1       0.630   0.160  -1.745  1.00  0.00     0.032 C 
HETATM   10  C7  UNL     1      -1.586   0.322  -1.061  1.00  0.00     0.212 A 
HETATM   11  O1  UNL     1      -1.899   0.589  -2.231  1.00  0.00    -0.285 OA
ENDROOT
BRANCH   7  12
HETATM   12  N3  UNL     1       1.278  -0.432   0.885  1.00  0.00    -0.315 N 
HETATM   13  C4  UNL     1       2.578  -0.551   0.607  1.00  0.00     0.187 C 
HETATM   14  N4  UNL     1       3.061  -1.742   0.315  1.00  0.00    -0.373 N 
HETATM   15  N5  UNL     1       3.551   0.524   0.599  1.00  0.00    -0.064 NA
ATOM     16  H42 UNL     1       2.377  -2.498   0.321  1.00  0.00     0.158 HD
ATOM     17  H41 UNL     1       4.054  -1.833   0.103  1.00  0.00     0.158 HD
ATOM     18  H3  UNL     1       1.202  -0.614   1.886  1.00  0.00     0.170 HD
ENDBRANCH   7  12
TORSDOF 1
