REMARK  2 active torsions:
REMARK  status: ('A' for Active; 'I' for Inactive)
REMARK    1  A    between atoms: C2_2  and  C3_3 
REMARK    2  A    between atoms: C3_3  and  O1_4 
ROOT
HETATM    1  C3  UNL     1       1.217  -0.650   0.145  1.00  0.00     0.163 C 
HETATM    2  N1  UNL     1       2.298   0.147   0.150  1.00  0.00    -0.275 N 
ATOM      3  H1  UNL     1       1.949   1.099   0.039  1.00  0.00     0.180 HD
HETATM    4  C4  UNL     1       3.641   0.247   0.237  1.00  0.00     0.183 C 
HETATM    5  N2  UNL     1       4.804   0.268   0.275  1.00  0.00    -0.172 NA
ENDROOT
BRANCH   1   6
HETATM    6  C2  UNL     1      -0.174  -0.120   0.145  1.00  0.00     0.178 C 
HETATM    7  C1  UNL     1      -0.536   0.847   1.192  1.00  0.00     0.058 C 
HETATM    8  N3  UNL     1      -0.491   0.360  -1.242  1.00  0.00    -0.318 N 
HETATM    9  C5  UNL     1      -1.885   0.225  -1.378  1.00  0.00     0.324 C 
ATOM     10  H3  UNL     1       0.166   0.710  -1.939  1.00  0.00     0.166 HD
HETATM   11  O2  UNL     1      -2.587   0.950  -2.160  1.00  0.00    -0.247 OA
HETATM   12  N4  UNL     1      -2.353  -0.841  -0.482  1.00  0.00    -0.277 N 
HETATM   13  C6  UNL     1      -1.145  -1.280   0.157  1.00  0.00     0.262 C 
ATOM     14  H4  UNL     1      -3.304  -1.185  -0.347  1.00  0.00     0.173 HD
HETATM   15  O3  UNL     1      -0.958  -2.402   0.639  1.00  0.00    -0.270 OA
ENDBRANCH   1   6
BRANCH   1  16
HETATM   16  O1  UNL     1       1.266  -1.988   0.135  1.00  0.00    -0.347 OA
ATOM     17  H1  UNL     1       2.154  -2.326   0.135  1.00  0.00     0.219 HD
ENDBRANCH   1  16
TORSDOF 2
