REMARK  15 active torsions:
REMARK  status: ('A' for Active; 'I' for Inactive)
REMARK    1  A    between atoms: C2_2  and  C4_4 
REMARK    2  A    between atoms: C4_4  and  C5_5 
REMARK    3  A    between atoms: C6_8  and  O1_9 
REMARK    4  A    between atoms: C7_11  and  C8_12 
REMARK    5  A    between atoms: C12_19  and  C13_20 
REMARK    6  A    between atoms: C13_20  and  C14_21 
REMARK    7  A    between atoms: C14_21  and  C15_22 
REMARK    8  A    between atoms: C15_22  and  C16_23 
REMARK    9  A    between atoms: C16_23  and  N3_24 
REMARK   10  A    between atoms: N3_24  and  C17_26 
REMARK   11  A    between atoms: C20_31  and  C21_32 
REMARK   12  A    between atoms: C25_39  and  C26_40 
REMARK   13  A    between atoms: C26_40  and  C27_41 
REMARK   14  A    between atoms: C30_46  and  O6_47 
REMARK   15  A    between atoms: C31_49  and  C32_50 
ROOT
HETATM    1  C5  UNL     1      -2.520   2.922   0.534  1.00  0.00     0.175 C 
HETATM    2  N1  UNL     1      -2.096   3.151  -0.800  1.00  0.00    -0.359 N 
ATOM      3  H1  UNL     1      -2.650   3.860  -1.281  1.00  0.00     0.162 HD
HETATM    4  C6  UNL     1      -1.089   2.617  -1.590  1.00  0.00     0.135 C 
HETATM    5  C7  UNL     1       0.318   2.328  -1.404  1.00  0.00     0.162 C 
HETATM    6  N2  UNL     1       0.863   2.281  -0.096  1.00  0.00    -0.348 N 
ATOM      7  H2  UNL     1       0.665   3.077   0.510  1.00  0.00     0.163 HD
HETATM    8  C11 UNL     1       1.645   1.255   0.450  1.00  0.00     0.222 C 
HETATM    9  O2  UNL     1       1.579   1.080   1.716  1.00  0.00    -0.273 OA
HETATM   10  C12 UNL     1       2.555   0.331  -0.250  1.00  0.00     0.085 C 
HETATM   11  C18 UNL     1       1.808  -1.009  -0.319  1.00  0.00     0.099 C 
HETATM   12  C19 UNL     1       2.388  -1.943  -1.280  1.00  0.00     0.176 C 
HETATM   13  O4  UNL     1       3.455  -1.567  -1.808  1.00  0.00    -0.291 OA
HETATM   14  C20 UNL     1       1.789  -3.249  -1.632  1.00  0.00     0.082 C 
HETATM   15  N4  UNL     1       0.449  -3.199  -2.124  1.00  0.00    -0.322 N 
ATOM     16  H4  UNL     1       0.379  -2.692  -3.006  1.00  0.00     0.169 HD
HETATM   17  C24 UNL     1      -0.771  -3.670  -1.694  1.00  0.00     0.245 C 
HETATM   18  O5  UNL     1      -1.292  -4.657  -2.304  1.00  0.00    -0.271 OA
HETATM   19  C25 UNL     1      -1.664  -3.197  -0.561  1.00  0.00     0.176 C 
HETATM   20  N5  UNL     1      -2.781  -2.486  -1.135  1.00  0.00    -0.359 N 
ATOM     21  H5  UNL     1      -3.506  -3.092  -1.518  1.00  0.00     0.162 HD
HETATM   22  C30 UNL     1      -3.051  -1.131  -1.262  1.00  0.00     0.135 C 
HETATM   23  C31 UNL     1      -3.334  -0.076  -0.288  1.00  0.00     0.162 C 
HETATM   24  N6  UNL     1      -2.221   0.362   0.519  1.00  0.00    -0.347 N 
ATOM     25  H6  UNL     1      -1.444  -0.286   0.651  1.00  0.00     0.163 HD
HETATM   26  C35 UNL     1      -2.136   1.624   1.136  1.00  0.00     0.241 C 
HETATM   27  O7  UNL     1      -1.687   1.661   2.327  1.00  0.00    -0.271 OA
ENDROOT
BRANCH  10  28
HETATM   28  C13 UNL     1       3.854   0.157   0.531  1.00  0.00     0.014 C 
BRANCH  28  29
HETATM   29  C14 UNL     1       4.575   1.473   0.705  1.00  0.00     0.002 C 
BRANCH  29  30
HETATM   30  C15 UNL     1       5.850   1.154   1.500  1.00  0.00     0.020 C 
BRANCH  30  31
HETATM   31  C16 UNL     1       6.661   2.390   1.740  1.00  0.00     0.122 C 
BRANCH  31  32
HETATM   32  N3  UNL     1       7.842   2.033   2.497  1.00  0.00    -0.368 N 
ATOM     33  H3  UNL     1       7.968   2.465   3.413  1.00  0.00     0.161 HD
BRANCH  32  34
HETATM   34  C17 UNL     1       8.835   1.126   2.054  1.00  0.00     0.348 C 
HETATM   35  O3  UNL     1       8.827   0.521   0.964  1.00  0.00    -0.284 OA
ENDBRANCH  32  34
ENDBRANCH  31  32
ENDBRANCH  30  31
ENDBRANCH  29  30
ENDBRANCH  28  29
ENDBRANCH  10  28
BRANCH   5  36
HETATM   36  C8  UNL     1       1.238   3.212  -2.235  1.00  0.00     0.008 C 
HETATM   37  C9  UNL     1       0.964   3.061  -3.716  1.00  0.00     0.012 C 
HETATM   38  C10 UNL     1       1.268   4.639  -1.794  1.00  0.00     0.012 C 
ENDBRANCH   5  36
BRANCH  14  39
HETATM   39  C21 UNL     1       2.172  -4.279  -0.652  1.00  0.00    -0.057 C 
HETATM   40  C22 UNL     1       1.581  -5.652  -0.954  1.00  0.00     0.045 C 
HETATM   41  C23 UNL     1       2.135  -3.934   0.795  1.00  0.00     0.045 C 
ENDBRANCH  14  39
BRANCH   4  42
HETATM   42  O1  UNL     1      -1.521   2.301  -2.788  1.00  0.00    -0.348 OA
ATOM     43  H1  UNL     1      -0.831   1.935  -3.329  1.00  0.00     0.219 HD
ENDBRANCH   4  42
BRANCH   1  44
HETATM   44  C4  UNL     1      -2.216   4.037   1.450  1.00  0.00     0.038 C 
BRANCH  44  45
HETATM   45  C2  UNL     1      -2.809   5.377   1.181  1.00  0.00    -0.020 C 
HETATM   46  C1  UNL     1      -2.309   6.263   2.364  1.00  0.00     0.009 C 
HETATM   47  C3  UNL     1      -2.266   6.089  -0.036  1.00  0.00     0.009 C 
ENDBRANCH  44  45
ENDBRANCH   1  44
BRANCH  19  48
HETATM   48  C26 UNL     1      -1.949  -4.282   0.411  1.00  0.00     0.038 C 
BRANCH  48  49
HETATM   49  C27 UNL     1      -2.607  -5.532   0.033  1.00  0.00    -0.020 C 
HETATM   50  C28 UNL     1      -2.643  -6.369   1.369  1.00  0.00     0.009 C 
HETATM   51  C29 UNL     1      -4.036  -5.364  -0.355  1.00  0.00     0.009 C 
ENDBRANCH  48  49
ENDBRANCH  19  48
BRANCH  22  52
HETATM   52  O6  UNL     1      -3.056  -0.709  -2.501  1.00  0.00    -0.348 OA
ATOM     53  H6  UNL     1      -3.241   0.219  -2.588  1.00  0.00     0.219 HD
ENDBRANCH  22  52
BRANCH  23  54
HETATM   54  C32 UNL     1      -4.542  -0.281   0.579  1.00  0.00     0.008 C 
HETATM   55  C33 UNL     1      -4.546  -1.484   1.437  1.00  0.00     0.012 C 
HETATM   56  C34 UNL     1      -5.831  -0.227  -0.211  1.00  0.00     0.012 C 
ENDBRANCH  23  54
TORSDOF 15
