REMARK  13 active torsions:
REMARK  status: ('A' for Active; 'I' for Inactive)
REMARK    1  A    between atoms: C2_2  and  C3_3 
REMARK    2  A    between atoms: C3_3  and  C5_5 
REMARK    3  A    between atoms: C10_16  and  C11_17 
REMARK    4  A    between atoms: C11_17  and  C12_18 
REMARK    5  A    between atoms: C20_30  and  O3_31 
REMARK    6  A    between atoms: C22_35  and  C23_36 
REMARK    7  A    between atoms: C23_36  and  C24_37 
REMARK    8  A    between atoms: C24_37  and  C25_38 
REMARK    9  A    between atoms: C25_38  and  C26_39 
REMARK   10  A    between atoms: C26_39  and  C27_40 
REMARK   11  A    between atoms: C30_46  and  C31_47 
REMARK   12  A    between atoms: C31_47  and  C32_48 
REMARK   13  A    between atoms: C35_53  and  O6_54 
ROOT
HETATM    1  C5  UNL     1      -0.776  -3.311   1.026  1.00  0.00     0.162 C 
HETATM    2  N1  UNL     1      -0.637  -3.555  -0.377  1.00  0.00    -0.347 N 
ATOM      3  H1  UNL     1      -1.379  -4.102  -0.813  1.00  0.00     0.163 HD
HETATM    4  C6  UNL     1       0.402  -3.130  -1.229  1.00  0.00     0.240 C 
HETATM    5  O1  UNL     1       0.685  -3.953  -2.165  1.00  0.00    -0.271 OA
HETATM    6  C7  UNL     1       1.197  -1.901  -1.205  1.00  0.00     0.172 C 
HETATM    7  C8  UNL     1       2.171  -1.815  -2.369  1.00  0.00     0.042 C 
HETATM    8  N2  UNL     1       1.925  -1.633  -0.011  1.00  0.00    -0.346 N 
ATOM      9  H2  UNL     1       2.168  -2.445   0.557  1.00  0.00     0.163 HD
HETATM   10  C9  UNL     1       2.352  -0.381   0.484  1.00  0.00     0.241 C 
HETATM   11  O2  UNL     1       2.125  -0.147   1.732  1.00  0.00    -0.271 OA
HETATM   12  C10 UNL     1       3.024   0.698  -0.223  1.00  0.00     0.180 C 
HETATM   13  N4  UNL     1       2.309   1.896  -0.493  1.00  0.00    -0.354 N 
ATOM     14  H4  UNL     1       2.233   2.088  -1.492  1.00  0.00     0.162 HD
HETATM   15  C20 UNL     1       1.691   2.864   0.281  1.00  0.00     0.185 C 
HETATM   16  C21 UNL     1       0.448   2.898   1.042  1.00  0.00     0.222 C 
HETATM   17  O4  UNL     1       0.616   3.259   2.260  1.00  0.00    -0.286 OA
HETATM   18  C22 UNL     1      -0.913   2.585   0.597  1.00  0.00     0.165 C 
HETATM   19  N5  UNL     1      -1.823   2.010   1.549  1.00  0.00    -0.343 N 
HETATM   20  C28 UNL     1      -1.690   2.510   2.939  1.00  0.00     0.153 C 
HETATM   21  C29 UNL     1      -2.853   1.087   1.329  1.00  0.00     0.243 C 
HETATM   22  O5  UNL     1      -4.025   1.347   1.808  1.00  0.00    -0.271 OA
HETATM   23  C30 UNL     1      -2.813  -0.230   0.583  1.00  0.00     0.176 C 
HETATM   24  N6  UNL     1      -1.521  -0.801   0.844  1.00  0.00    -0.359 N 
ATOM     25  H6  UNL     1      -0.773  -0.211   0.480  1.00  0.00     0.162 HD
HETATM   26  C35 UNL     1      -1.021  -1.925   1.450  1.00  0.00     0.135 C 
ENDROOT
BRANCH  12  27
HETATM   27  C11 UNL     1       4.321   0.934   0.559  1.00  0.00     0.075 C 
BRANCH  27  28
HETATM   28  C12 UNL     1       5.191  -0.227   0.623  1.00  0.00    -0.028 A 
HETATM   29  C13 UNL     1       5.348  -1.082   1.698  1.00  0.00     0.096 A 
HETATM   30  N3  UNL     1       6.251  -2.030   1.348  1.00  0.00    -0.365 N 
HETATM   31  C14 UNL     1       6.681  -1.817   0.091  1.00  0.00     0.042 A 
ATOM     32  H3  UNL     1       6.560  -2.794   1.950  1.00  0.00     0.165 HD
HETATM   33  C15 UNL     1       7.590  -2.507  -0.683  1.00  0.00     0.030 A 
HETATM   34  C19 UNL     1       6.022  -0.692  -0.366  1.00  0.00    -0.002 A 
HETATM   35  C16 UNL     1       7.863  -2.073  -1.957  1.00  0.00     0.002 A 
HETATM   36  C17 UNL     1       7.224  -0.955  -2.446  1.00  0.00     0.001 A 
HETATM   37  C18 UNL     1       6.315  -0.280  -1.650  1.00  0.00     0.014 A 
ENDBRANCH  27  28
ENDBRANCH  12  27
BRANCH  15  38
HETATM   38  O3  UNL     1       2.344   4.013   0.363  1.00  0.00    -0.344 OA
ATOM     39  H3  UNL     1       1.920   4.677   0.894  1.00  0.00     0.219 HD
ENDBRANCH  15  38
BRANCH  18  40
HETATM   40  C23 UNL     1      -1.694   3.878   0.159  1.00  0.00     0.034 C 
BRANCH  40  41
HETATM   41  C24 UNL     1      -1.079   4.579  -0.969  1.00  0.00     0.002 C 
BRANCH  41  42
HETATM   42  C25 UNL     1      -1.876   5.749  -1.436  1.00  0.00     0.001 C 
BRANCH  42  43
HETATM   43  C26 UNL     1      -2.124   6.894  -0.577  1.00  0.00     0.011 C 
BRANCH  43  44
HETATM   44  C27 UNL     1      -2.869   6.800   0.687  1.00  0.00     0.086 C 
HETATM   45  S1  UNL     1      -4.552   6.138   0.487  1.00  0.00    -0.098 SA
ENDBRANCH  43  44
ENDBRANCH  42  43
ENDBRANCH  41  42
ENDBRANCH  40  41
ENDBRANCH  18  40
BRANCH   1  46
HETATM   46  C3  UNL     1      -1.693  -4.237   1.767  1.00  0.00     0.012 C 
HETATM   47  C4  UNL     1      -1.104  -5.658   1.822  1.00  0.00     0.012 C 
BRANCH  46  48
HETATM   48  C2  UNL     1      -3.109  -4.272   1.345  1.00  0.00     0.002 C 
HETATM   49  C1  UNL     1      -3.917  -5.105   2.358  1.00  0.00     0.005 C 
ENDBRANCH  46  48
ENDBRANCH   1  46
BRANCH  26  50
HETATM   50  O6  UNL     1      -0.661  -1.764   2.705  1.00  0.00    -0.348 OA
ATOM     51  H6  UNL     1      -0.819  -0.868   2.979  1.00  0.00     0.219 HD
ENDBRANCH  26  50
BRANCH  23  52
HETATM   52  C31 UNL     1      -3.117   0.119  -0.838  1.00  0.00     0.038 C 
BRANCH  52  53
HETATM   53  C32 UNL     1      -3.168  -1.021  -1.814  1.00  0.00    -0.020 C 
HETATM   54  C33 UNL     1      -4.201  -2.055  -1.534  1.00  0.00     0.009 C 
HETATM   55  C34 UNL     1      -3.506  -0.444  -3.204  1.00  0.00     0.009 C 
ENDBRANCH  52  53
ENDBRANCH  23  52
TORSDOF 13
