REMARK  4 active torsions:
REMARK  status: ('A' for Active; 'I' for Inactive)
REMARK    1  A    between atoms: C2_2  and  C3_3 
REMARK    2  A    between atoms: C3_3  and  N1_4 
REMARK    3  A    between atoms: N1_4  and  C4_6 
REMARK    4  A    between atoms: C6_10  and  C7_11 
ROOT
HETATM    1  C4  UNL     1       0.090  -0.244   0.271  1.00  0.00     0.119 A 
HETATM    2  C5  UNL     1       0.967  -0.490   1.322  1.00  0.00     0.137 A 
HETATM    3  N2  UNL     1       2.293  -0.362   1.141  1.00  0.00    -0.357 N 
ATOM      4  H2  UNL     1       2.916  -0.548   1.926  1.00  0.00     0.165 HD
HETATM    5  C6  UNL     1       2.832   0.006  -0.048  1.00  0.00     0.116 A 
HETATM    6  C8  UNL     1       1.942   0.244  -1.073  1.00  0.00     0.275 A 
HETATM    7  O1  UNL     1       2.441   0.587  -2.185  1.00  0.00    -0.266 OA
HETATM    8  N4  UNL     1       0.612   0.121  -0.912  1.00  0.00    -0.307 N 
ATOM      9  H4  UNL     1      -0.009   0.308  -1.699  1.00  0.00     0.170 HD
ENDROOT
BRANCH   1  10
HETATM   10  N1  UNL     1      -1.321  -0.380   0.462  1.00  0.00    -0.372 N 
ATOM     11  H1  UNL     1      -1.711  -0.657   1.363  1.00  0.00     0.161 HD
BRANCH  10  12
HETATM   12  C3  UNL     1      -2.175  -0.107  -0.679  1.00  0.00     0.147 C 
BRANCH  12  13
HETATM   13  C2  UNL     1      -3.603  -0.283  -0.351  1.00  0.00    -0.018 C 
HETATM   14  C1  UNL     1      -4.441   0.738  -0.472  1.00  0.00     0.008 C 
ENDBRANCH  12  13
ENDBRANCH  10  12
ENDBRANCH   1  10
BRANCH   5  15
HETATM   15  C7  UNL     1       4.270   0.141  -0.229  1.00  0.00     0.116 C 
HETATM   16  N3  UNL     1       5.130  -0.066   0.679  1.00  0.00    -0.406 N 
ATOM     17  H32 UNL     1       4.773  -0.346   1.593  1.00  0.00     0.155 HD
ATOM     18  H31 UNL     1       6.138   0.029   0.552  1.00  0.00     0.155 HD
ENDBRANCH   5  15
TORSDOF 4
