REMARK  8 active torsions:
REMARK  status: ('A' for Active; 'I' for Inactive)
REMARK    1  A    between atoms: C5_6  and  C6_7 
REMARK    2  A    between atoms: C8_9  and  N1_10 
REMARK    3  A    between atoms: N1_10  and  C9_12 
REMARK    4  A    between atoms: C11_17  and  N4_18 
REMARK    5  A    between atoms: C13_27  and  N7_28 
REMARK    6  A    between atoms: C14_33  and  C15_34 
REMARK    7  A    between atoms: C15_34  and  C16_35 
REMARK    8  A    between atoms: N9_37  and  C18_38 
ROOT
HETATM    1  C1  UNL     1      -1.711  -5.503  -1.586  1.00  0.00     0.068 C 
HETATM    2  C2  UNL     1      -0.761  -4.438  -1.128  1.00  0.00     0.009 A 
HETATM    3  C3  UNL     1       0.138  -4.689  -0.120  1.00  0.00     0.080 A 
HETATM    4  C4  UNL     1       1.009  -3.719   0.299  1.00  0.00     0.188 A 
HETATM    5  O1  UNL     1       1.835  -3.959   1.222  1.00  0.00    -0.287 OA
HETATM    6  C5  UNL     1       1.025  -2.431  -0.276  1.00  0.00     0.064 A 
HETATM    7  C14 UNL     1       0.116  -2.219  -1.271  1.00  0.00     0.031 A 
HETATM    8  N14 UNL     1      -0.740  -3.221  -1.665  1.00  0.00    -0.362 N 
ATOM      9  H14 UNL     1      -1.400  -3.018  -2.416  1.00  0.00     0.165 HD
ENDROOT
BRANCH   6  10
HETATM   10  C6  UNL     1       1.945  -1.449   0.284  1.00  0.00     0.069 A 
HETATM   11  C7  UNL     1       2.806  -0.656  -0.407  1.00  0.00     0.080 A 
HETATM   12  C8  UNL     1       3.753   0.188   0.197  1.00  0.00     0.123 A 
HETATM   13  N6  UNL     1       3.790   0.189   1.536  1.00  0.00    -0.177 N 
HETATM   14  C13 UNL     1       2.951  -0.587   2.255  1.00  0.00     0.677 A 
ATOM     15  H6  UNL     1       4.462   0.785   2.020  1.00  0.00     0.185 HD
HETATM   16  N8  UNL     1       2.054  -1.383   1.650  1.00  0.00    -0.191 N 
ATOM     17  H8  UNL     1       1.435  -1.956   2.224  1.00  0.00     0.184 HD
BRANCH  12  18
HETATM   18  N1  UNL     1       4.493   0.874  -0.566  1.00  0.00    -0.335 N 
ATOM     19  H1  UNL     1       4.341   0.759  -1.568  1.00  0.00     0.168 HD
BRANCH  18  20
HETATM   20  C9  UNL     1       5.496   1.773  -0.189  1.00  0.00     0.145 A 
HETATM   21  C10 UNL     1       6.817   1.407  -0.381  1.00  0.00     0.164 A 
HETATM   22  N2  UNL     1       7.133   0.136  -0.950  1.00  0.00    -0.080 NA
HETATM   23  N3  UNL     1       7.831   2.251  -0.030  1.00  0.00    -0.177 N 
HETATM   24  C11 UNL     1       7.574   3.455   0.508  1.00  0.00     0.680 A 
ATOM     25  H3  UNL     1       8.798   1.963  -0.178  1.00  0.00     0.185 HD
HETATM   26  N5  UNL     1       6.302   3.822   0.699  1.00  0.00    -0.154 N 
HETATM   27  C12 UNL     1       5.267   3.015   0.365  1.00  0.00     0.289 A 
ATOM     28  H5  UNL     1       6.106   4.736   1.108  1.00  0.00     0.187 HD
HETATM   29  O2  UNL     1       4.071   3.359   0.544  1.00  0.00    -0.265 OA
BRANCH  24  30
HETATM   30  N4  UNL     1       8.563   4.247   0.837  1.00  0.00    -0.234 N 
ATOM     31  H42 UNL     1       9.533   3.967   0.691  1.00  0.00     0.174 HD
ATOM     32  H41 UNL     1       8.368   5.161   1.245  1.00  0.00     0.174 HD
ENDBRANCH  24  30
ENDBRANCH  18  20
ENDBRANCH  12  18
BRANCH  14  33
HETATM   33  N7  UNL     1       3.046  -0.532   3.540  1.00  0.00    -0.234 N 
ATOM     34  H72 UNL     1       3.727   0.072   3.999  1.00  0.00     0.174 HD
ATOM     35  H71 UNL     1       2.412  -1.118   4.083  1.00  0.00     0.174 HD
ENDBRANCH  14  33
ENDBRANCH   6  10
BRANCH   7  36
HETATM   36  C15 UNL     1      -0.078  -0.893  -1.888  1.00  0.00     0.116 C 
BRANCH  36  37
HETATM   37  C16 UNL     1      -0.925  -0.031  -1.014  1.00  0.00     0.031 A 
HETATM   38  C17 UNL     1      -2.323   0.026  -1.048  1.00  0.00     0.117 A 
HETATM   39  N9  UNL     1      -2.761   0.898  -0.137  1.00  0.00    -0.341 N 
HETATM   40  C25 UNL     1      -1.650   1.392   0.471  1.00  0.00     0.183 A 
HETATM   41  N13 UNL     1      -0.572   0.823  -0.070  1.00  0.00    -0.354 N 
ATOM     42  H13 UNL     1       0.390   1.020   0.206  1.00  0.00     0.166 HD
BRANCH  39  43
HETATM   43  C18 UNL     1      -4.093   1.303   0.210  1.00  0.00     0.143 C 
HETATM   44  C19 UNL     1      -4.914   1.703  -0.994  1.00  0.00     0.032 C 
HETATM   45  C20 UNL     1      -6.000   2.650  -0.564  1.00  0.00     0.004 C 
HETATM   46  C21 UNL     1      -7.167   1.964   0.070  1.00  0.00     0.022 C 
HETATM   47  C22 UNL     1      -6.898   1.585   1.523  1.00  0.00     0.150 C 
HETATM   48  N10 UNL     1      -6.063   0.380   1.464  1.00  0.00    -0.279 N 
HETATM   49  N11 UNL     1      -6.437  -0.788   1.997  1.00  0.00    -0.241 N 
HETATM   50  C24 UNL     1      -4.868   0.236   0.913  1.00  0.00     0.070 A 
HETATM   51  N12 UNL     1      -5.482  -1.666   1.783  1.00  0.00    -0.295 N 
ATOM     52  H11 UNL     1      -7.314  -0.967   2.486  1.00  0.00     0.208 HD
HETATM   53  C23 UNL     1      -4.472  -1.066   1.102  1.00  0.00     0.137 A 
ATOM     54  H12 UNL     1      -5.497  -2.641   2.081  1.00  0.00     0.187 HD
ENDBRANCH  39  43
ENDBRANCH  36  37
ENDBRANCH   7  36
TORSDOF 8
