REMARK  9 active torsions:
REMARK  status: ('A' for Active; 'I' for Inactive)
REMARK       I    between atoms: C2_2  and  N1_4 
REMARK    1  A    between atoms: N1_4  and  C3_6 
REMARK    2  A    between atoms: C4_13  and  N5_14 
REMARK    3  A    between atoms: N5_14  and  C5_16 
REMARK    4  A    between atoms: C8_22  and  C9_23 
REMARK    5  A    between atoms: C9_23  and  C10_24 
REMARK    6  A    between atoms: C11_25  and  C12_26 
REMARK    7  A    between atoms: N7_28  and  C14_29 
REMARK    8  A    between atoms: C14_29  and  C16_31 
REMARK    9  A    between atoms: C17_38  and  O4_39 
ROOT
HETATM    1  C5  UNL     1      -2.170   0.340  -0.765  1.00  0.00     0.089 A 
HETATM    2  C6  UNL     1      -2.016  -1.026  -0.725  1.00  0.00     0.107 A 
HETATM    3  C7  UNL     1      -0.890  -1.631  -0.194  1.00  0.00     0.247 A 
HETATM    4  O2  UNL     1      -0.759  -2.878  -0.162  1.00  0.00    -0.268 OA
HETATM    5  N6  UNL     1       0.062  -0.822   0.289  1.00  0.00    -0.324 N 
ATOM      6  H6  UNL     1       0.898  -1.252   0.685  1.00  0.00     0.169 HD
HETATM    7  C8  UNL     1      -0.014   0.531   0.286  1.00  0.00     0.051 A 
HETATM    8  C17 UNL     1      -1.141   1.110  -0.246  1.00  0.00     0.116 A 
ENDROOT
BRANCH   1   9
HETATM    9  N5  UNL     1      -3.303   0.986  -1.298  1.00  0.00    -0.187 N 
ATOM     10  H5  UNL     1      -3.349   2.005  -1.293  1.00  0.00     0.184 HD
BRANCH   9  11
HETATM   11  C4  UNL     1      -4.393   0.234  -1.848  1.00  0.00     0.713 A 
HETATM   12  N4  UNL     1      -4.334  -0.148  -3.073  1.00  0.00    -0.116 N 
HETATM   13  N3  UNL     1      -5.350  -0.877  -3.672  1.00  0.00    -0.214 N 
ATOM     14  H4  UNL     1      -3.511   0.093  -3.625  1.00  0.00     0.207 HD
HETATM   15  N2  UNL     1      -6.454  -1.185  -2.884  1.00  0.00    -0.116 N 
ATOM     16  H3  UNL     1      -5.291  -1.174  -4.646  1.00  0.00     0.209 HD
HETATM   17  C3  UNL     1      -6.584  -0.829  -1.628  1.00  0.00     0.715 A 
ATOM     18  H2  UNL     1      -7.210  -1.721  -3.309  1.00  0.00     0.207 HD
HETATM   19  N11 UNL     1      -5.531  -0.091  -1.062  1.00  0.00    -0.019 N 
ATOM     20  H11 UNL     1      -5.583   0.211  -0.089  1.00  0.00     0.203 HD
BRANCH  17  21
HETATM   21  N1  UNL     1      -7.748  -1.208  -0.961  1.00  0.00    -0.158 N 
HETATM   22  C2  UNL     1      -8.065  -0.926   0.366  1.00  0.00     0.232 C 
HETATM   23  C1  UNL     1      -9.391  -1.429   0.916  1.00  0.00     0.118 C 
HETATM   24  O1  UNL     1      -7.326  -0.284   1.131  1.00  0.00    -0.273 OA
ATOM     25  H1  UNL     1      -8.433  -1.743  -1.495  1.00  0.00     0.187 HD
ENDBRANCH  17  21
ENDBRANCH   9  11
ENDBRANCH   1   9
BRANCH   8  26
HETATM   26  O4  UNL     1      -1.275   2.486  -0.274  1.00  0.00    -0.357 OA
ATOM     27  H4  UNL     1      -0.570   3.014   0.082  1.00  0.00     0.218 HD
ENDBRANCH   8  26
BRANCH   7  28
HETATM   28  C9  UNL     1       1.130   1.343   0.848  1.00  0.00     0.087 C 
BRANCH  28  29
HETATM   29  C10 UNL     1       1.955   1.888  -0.235  1.00  0.00    -0.018 C 
HETATM   30  C11 UNL     1       3.211   1.647  -0.463  1.00  0.00     0.029 C 
BRANCH  30  31
HETATM   31  C12 UNL     1       4.096   0.788   0.288  1.00  0.00     0.066 A 
HETATM   32  C13 UNL     1       5.445   0.611  -0.050  1.00  0.00     0.143 A 
HETATM   33  N7  UNL     1       5.972  -0.241   0.835  1.00  0.00    -0.274 N 
HETATM   34  N9  UNL     1       5.018  -0.573   1.669  1.00  0.00    -0.240 N 
HETATM   35  N10 UNL     1       3.893   0.021   1.372  1.00  0.00    -0.285 N 
ATOM     36  H9  UNL     1       5.138  -1.215   2.452  1.00  0.00     0.208 HD
ATOM     37  H10 UNL     1       3.012  -0.080   1.876  1.00  0.00     0.188 HD
BRANCH  33  38
HETATM   38  C14 UNL     1       7.363  -0.667   0.803  1.00  0.00     0.194 C 
HETATM   39  C15 UNL     1       7.616  -1.345  -0.548  1.00  0.00     0.044 C 
BRANCH  38  40
HETATM   40  C16 UNL     1       8.187   0.557   0.895  1.00  0.00     0.255 C 
HETATM   41  N8  UNL     1       8.063   1.395   2.025  1.00  0.00    -0.060 NA
HETATM   42  O3  UNL     1       8.992   0.863  -0.009  1.00  0.00    -0.275 OA
ENDBRANCH  38  40
ENDBRANCH  33  38
ENDBRANCH  30  31
ENDBRANCH  28  29
ENDBRANCH   7  28
TORSDOF 9
