REMARK  16 active torsions:
REMARK  status: ('A' for Active; 'I' for Inactive)
REMARK    1  A    between atoms: O1_2  and  C2_3 
REMARK    2  A    between atoms: C5_6  and  C6_7 
REMARK    3  A    between atoms: C6_7  and  C7_8 
REMARK    4  A    between atoms: C7_8  and  C8_9 
REMARK    5  A    between atoms: C8_9  and  N1_10 
REMARK    6  A    between atoms: C8_9  and  C19_30 
REMARK    7  A    between atoms: N1_10  and  N2_12 
REMARK       I    between atoms: N2_12  and  C9_14 
REMARK    8  A    between atoms: C9_14  and  C10_16 
REMARK    9  A    between atoms: C12_18  and  O3_19 
REMARK   10  A    between atoms: C13_21  and  O4_22 
REMARK   11  A    between atoms: C15_24  and  O5_25 
REMARK   12  A    between atoms: C17_27  and  O6_28 
REMARK   13  A    between atoms: C22_35  and  O7_36 
REMARK   14  A    between atoms: C24_38  and  O8_39 
REMARK   15  A    between atoms: C26_41  and  O9_42 
REMARK   16  A    between atoms: C29_47  and  C30_48 
ROOT
HETATM    1  C8  UNL     1      -0.980  -0.394   0.066  1.00  0.00     0.075 C 
ENDROOT
BRANCH   1   2
HETATM    2  C7  UNL     1      -0.476   0.876  -0.093  1.00  0.00     0.034 C 
BRANCH   2   3
HETATM    3  C6  UNL     1      -0.863   2.103  -0.157  1.00  0.00     0.014 C 
BRANCH   3   4
HETATM    4  C5  UNL     1       0.049   3.271  -0.342  1.00  0.00    -0.036 A 
HETATM    5  C4  UNL     1       1.402   3.166  -0.497  1.00  0.00     0.014 A 
HETATM    6  C3  UNL     1       2.194   4.307  -0.646  1.00  0.00     0.037 A 
HETATM    7  C2  UNL     1       1.652   5.557  -0.643  1.00  0.00     0.068 A 
HETATM    8  C37 UNL     1       0.287   5.682  -0.488  1.00  0.00     0.037 A 
HETATM    9  C36 UNL     1      -0.490   4.546  -0.340  1.00  0.00     0.014 A 
BRANCH   7  10
HETATM   10  O1  UNL     1       2.438   6.704  -0.793  1.00  0.00    -0.356 OA
HETATM   11  C1  UNL     1       1.832   7.982  -0.781  1.00  0.00     0.210 C 
ENDBRANCH   7  10
ENDBRANCH   3   4
ENDBRANCH   2   3
ENDBRANCH   1   2
BRANCH   1  12
HETATM   12  N1  UNL     1      -0.035  -1.393  -0.046  1.00  0.00    -0.296 N 
ATOM     13  H1  UNL     1      -0.312  -2.370   0.054  1.00  0.00     0.187 HD
BRANCH  12  14
HETATM   14  N2  UNL     1       1.275  -1.074  -0.292  1.00  0.00    -0.265 N 
HETATM   15  C9  UNL     1       2.194  -0.842   0.755  1.00  0.00     0.273 C 
HETATM   16  O2  UNL     1       1.670  -0.933   1.938  1.00  0.00    -0.266 OA
ATOM     17  H2  UNL     1       1.595  -1.002  -1.258  1.00  0.00     0.190 HD
BRANCH  15  18
HETATM   18  C10 UNL     1       3.593  -0.535   0.624  1.00  0.00     0.072 A 
HETATM   19  C11 UNL     1       4.261  -0.109   1.810  1.00  0.00     0.059 A 
HETATM   20  C12 UNL     1       5.557   0.318   1.802  1.00  0.00     0.102 A 
HETATM   21  C13 UNL     1       6.261   0.345   0.609  1.00  0.00     0.137 A 
HETATM   22  C15 UNL     1       5.614  -0.069  -0.530  1.00  0.00     0.139 A 
HETATM   23  C17 UNL     1       4.304  -0.502  -0.520  1.00  0.00     0.120 A 
BRANCH  20  24
HETATM   24  O3  UNL     1       6.148   0.722   2.999  1.00  0.00    -0.358 OA
ATOM     25  H3  UNL     1       7.050   1.019   2.993  1.00  0.00     0.217 HD
ENDBRANCH  20  24
BRANCH  21  26
HETATM   26  O4  UNL     1       7.569   0.782   0.620  1.00  0.00    -0.351 OA
HETATM   27  C14 UNL     1       8.596  -0.147   0.827  1.00  0.00     0.210 C 
ENDBRANCH  21  26
BRANCH  22  28
HETATM   28  O5  UNL     1       6.328  -0.040  -1.710  1.00  0.00    -0.351 OA
HETATM   29  C16 UNL     1       6.327   1.111  -2.509  1.00  0.00     0.210 C 
ENDBRANCH  22  28
BRANCH  23  30
HETATM   30  O6  UNL     1       3.790  -0.902  -1.732  1.00  0.00    -0.352 OA
HETATM   31  C18 UNL     1       4.056  -2.278  -2.081  1.00  0.00     0.210 C 
ENDBRANCH  23  30
ENDBRANCH  15  18
ENDBRANCH  12  14
ENDBRANCH   1  12
BRANCH   1  32
HETATM   32  C19 UNL     1      -2.262  -1.027   0.222  1.00  0.00     0.076 A 
HETATM   33  N3  UNL     1      -2.424  -2.249  -0.442  1.00  0.00    -0.353 N 
HETATM   34  C20 UNL     1      -3.575  -2.903  -0.548  1.00  0.00     0.052 A 
ATOM     35  H3  UNL     1      -1.600  -2.666  -0.875  1.00  0.00     0.166 HD
HETATM   36  C21 UNL     1      -3.623  -4.119  -1.240  1.00  0.00     0.070 A 
HETATM   37  C27 UNL     1      -4.730  -2.396   0.014  1.00  0.00     0.078 A 
HETATM   38  C22 UNL     1      -4.812  -4.795  -1.355  1.00  0.00     0.106 A 
HETATM   39  C24 UNL     1      -5.974  -4.318  -0.809  1.00  0.00     0.136 A 
HETATM   40  C26 UNL     1      -5.919  -3.090  -0.111  1.00  0.00     0.118 A 
HETATM   41  C28 UNL     1      -4.606  -1.209   0.670  1.00  0.00     0.200 A 
HETATM   42  O10 UNL     1      -5.591  -0.669   1.212  1.00  0.00    -0.286 OA
HETATM   43  C29 UNL     1      -3.371  -0.510   0.785  1.00  0.00     0.054 A 
BRANCH  38  44
HETATM   44  O7  UNL     1      -4.889  -6.005  -2.038  1.00  0.00    -0.353 OA
HETATM   45  C23 UNL     1      -3.710  -6.526  -2.617  1.00  0.00     0.210 C 
ENDBRANCH  38  44
BRANCH  39  46
HETATM   46  O8  UNL     1      -7.200  -4.997  -0.915  1.00  0.00    -0.351 OA
HETATM   47  C25 UNL     1      -7.464  -5.921   0.150  1.00  0.00     0.210 C 
ENDBRANCH  39  46
BRANCH  40  48
HETATM   48  O9  UNL     1      -7.067  -2.640   0.417  1.00  0.00    -0.357 OA
ATOM     49  H9  UNL     1      -7.030  -1.815   0.886  1.00  0.00     0.217 HD
ENDBRANCH  40  48
BRANCH  43  50
HETATM   50  C30 UNL     1      -3.444   0.669   1.643  1.00  0.00    -0.020 A 
HETATM   51  C31 UNL     1      -4.284   1.700   1.317  1.00  0.00     0.012 A 
HETATM   52  C32 UNL     1      -4.397   2.819   2.147  1.00  0.00     0.001 A 
HETATM   53  C33 UNL     1      -3.657   2.893   3.306  1.00  0.00     0.000 A 
HETATM   54  C34 UNL     1      -2.816   1.861   3.633  1.00  0.00     0.001 A 
HETATM   55  C35 UNL     1      -2.712   0.745   2.793  1.00  0.00     0.012 A 
ENDBRANCH  43  50
ENDBRANCH   1  32
TORSDOF 16
