REMARK  14 active torsions:
REMARK  status: ('A' for Active; 'I' for Inactive)
REMARK    1  A    between atoms: O1_2  and  C2_3 
REMARK    2  A    between atoms: C4_5  and  C5_6 
REMARK    3  A    between atoms: N1_7  and  N2_9 
REMARK       I    between atoms: N2_9  and  C6_11 
REMARK    4  A    between atoms: C6_11  and  C7_13 
REMARK    5  A    between atoms: C11_18  and  C12_19 
REMARK    6  A    between atoms: C14_21  and  C15_22 
REMARK    7  A    between atoms: C16_23  and  C17_24 
REMARK    8  A    between atoms: C20_27  and  C21_28 
REMARK    9  A    between atoms: C22_31  and  O5_32 
REMARK   10  A    between atoms: C25_36  and  O6_37 
REMARK   11  A    between atoms: C27_39  and  O7_40 
REMARK   12  A    between atoms: C29_42  and  O8_43 
REMARK   13  A    between atoms: O8_43  and  S1_44 
REMARK   14  A    between atoms: C33_51  and  O12_52 
ROOT
HETATM    1  C7  UNL     1       2.485   1.253   1.241  1.00  0.00     0.037 A 
HETATM    2  C8  UNL     1       1.779   1.292   2.440  1.00  0.00     0.040 A 
HETATM    3  C9  UNL     1       0.420   1.109   2.447  1.00  0.00     0.059 A 
HETATM    4  C10 UNL     1      -0.301   1.150   3.688  1.00  0.00     0.100 C 
HETATM    5  N3  UNL     1      -0.885   1.198   4.688  1.00  0.00    -0.191 NA
HETATM    6  C11 UNL     1      -0.277   0.879   1.251  1.00  0.00     0.033 A 
HETATM    7  C29 UNL     1       0.404   0.837   0.075  1.00  0.00     0.105 A 
HETATM    8  C30 UNL     1       1.793   1.028   0.089  1.00  0.00     0.056 A 
ENDROOT
BRANCH   6   9
HETATM    9  C12 UNL     1      -1.708   0.599   1.287  1.00  0.00     0.015 A 
HETATM   10  C13 UNL     1      -2.136  -0.697   1.127  1.00  0.00     0.027 A 
HETATM   11  C14 UNL     1      -3.480  -1.093   1.057  1.00  0.00    -0.033 A 
HETATM   12  C24 UNL     1      -4.406  -0.092   1.159  1.00  0.00     0.051 A 
HETATM   13  C25 UNL     1      -4.002   1.219   1.322  1.00  0.00     0.103 A 
HETATM   14  C27 UNL     1      -2.673   1.597   1.391  1.00  0.00     0.112 A 
BRANCH  11  15
HETATM   15  C15 UNL     1      -3.850  -2.479   1.012  1.00  0.00     0.012 C 
HETATM   16  C16 UNL     1      -4.810  -3.204   0.622  1.00  0.00     0.012 C 
BRANCH  16  17
HETATM   17  C17 UNL     1      -6.084  -3.096  -0.017  1.00  0.00    -0.034 A 
HETATM   18  C18 UNL     1      -7.041  -4.122   0.138  1.00  0.00     0.012 A 
HETATM   19  C19 UNL     1      -8.214  -4.101  -0.539  1.00  0.00     0.022 A 
HETATM   20  C20 UNL     1      -8.566  -3.077  -1.429  1.00  0.00     0.073 A 
HETATM   21  C22 UNL     1      -7.645  -2.073  -1.590  1.00  0.00     0.083 A 
HETATM   22  C23 UNL     1      -6.432  -2.105  -0.885  1.00  0.00     0.049 A 
BRANCH  20  23
HETATM   23  C21 UNL     1      -9.845  -3.135  -2.111  1.00  0.00     0.212 C 
HETATM   24  O3  UNL     1     -10.256  -2.289  -2.915  1.00  0.00    -0.644 OA
HETATM   25  O4  UNL     1     -10.685  -4.213  -1.854  1.00  0.00    -0.644 OA
ENDBRANCH  20  23
BRANCH  21  26
HETATM   26  O5  UNL     1      -7.865  -1.021  -2.425  1.00  0.00    -0.360 OA
ATOM     27  H5  UNL     1      -7.227  -0.326  -2.536  1.00  0.00     0.217 HD
ENDBRANCH  21  26
ENDBRANCH  16  17
ENDBRANCH  11  15
BRANCH  13  28
HETATM   28  O6  UNL     1      -4.999   2.205   1.420  1.00  0.00    -0.353 OA
HETATM   29  C26 UNL     1      -6.371   1.871   1.355  1.00  0.00     0.210 C 
ENDBRANCH  13  28
BRANCH  14  30
HETATM   30  O7  UNL     1      -2.336   2.895   1.564  1.00  0.00    -0.352 OA
HETATM   31  C28 UNL     1      -2.090   3.975   0.788  1.00  0.00     0.210 C 
ENDBRANCH  14  30
ENDBRANCH   6   9
BRANCH   1  32
HETATM   32  C6  UNL     1       3.922   1.442   1.203  1.00  0.00     0.270 C 
HETATM   33  N2  UNL     1       4.637   1.572  -0.012  1.00  0.00    -0.266 N 
ATOM     34  H2  UNL     1       4.168   1.538  -0.917  1.00  0.00     0.190 HD
HETATM   35  O2  UNL     1       4.526   1.489   2.329  1.00  0.00    -0.266 OA
BRANCH  33  36
HETATM   36  N1  UNL     1       6.044   1.753   0.096  1.00  0.00    -0.308 N 
HETATM   37  C5  UNL     1       6.772   0.739  -0.240  1.00  0.00     0.118 C 
ATOM     38  H1  UNL     1       6.453   2.630   0.419  1.00  0.00     0.186 HD
BRANCH  37  39
HETATM   39  C4  UNL     1       8.228   0.830  -0.162  1.00  0.00    -0.017 A 
HETATM   40  C3  UNL     1       9.019  -0.220  -0.507  1.00  0.00     0.052 A 
HETATM   41  C2  UNL     1      10.389  -0.133  -0.435  1.00  0.00     0.102 A 
HETATM   42  C33 UNL     1      10.991   1.027  -0.008  1.00  0.00     0.099 A 
HETATM   43  C32 UNL     1      10.180   2.080   0.338  1.00  0.00     0.040 A 
HETATM   44  C31 UNL     1       8.808   1.986   0.263  1.00  0.00     0.016 A 
BRANCH  41  45
HETATM   45  O1  UNL     1      11.196  -1.200  -0.786  1.00  0.00    -0.353 OA
HETATM   46  C1  UNL     1      10.599  -2.397  -1.226  1.00  0.00     0.210 C 
ENDBRANCH  41  45
BRANCH  42  47
HETATM   47  O12 UNL     1      12.367   1.163   0.083  1.00  0.00    -0.358 OA
ATOM     48  H12 UNL     1      12.783   1.965   0.378  1.00  0.00     0.217 HD
ENDBRANCH  42  47
ENDBRANCH  37  39
ENDBRANCH  33  36
ENDBRANCH   1  32
BRANCH   7  49
HETATM   49  O8  UNL     1      -0.186   0.603  -1.122  1.00  0.00    -0.213 OA
BRANCH  49  50
HETATM   50  S1  UNL     1      -0.722   1.733  -2.220  1.00  0.00     0.257 S 
HETATM   51  O9  UNL     1      -0.049   3.066  -2.015  1.00  0.00    -0.572 OA
HETATM   52  O10 UNL     1      -2.208   1.961  -2.201  1.00  0.00    -0.572 OA
HETATM   53  O11 UNL     1      -0.387   1.241  -3.820  1.00  0.00    -0.572 OA
ENDBRANCH  49  50
ENDBRANCH   7  49
TORSDOF 14
