REMARK  6 active torsions:
REMARK  status: ('A' for Active; 'I' for Inactive)
REMARK    1  A    between atoms: C1_2  and  C2_3 
REMARK       I    between atoms: C1_2  and  N3_22 
REMARK    2  A    between atoms: C2_3  and  S1_4 
REMARK    3  A    between atoms: S1_4  and  C3_5 
REMARK    4  A    between atoms: C7_9  and  C8_10 
REMARK    5  A    between atoms: N3_22  and  C16_24 
REMARK    6  A    between atoms: C19_29  and  C20_30 
ROOT
HETATM    1  S1  UNL     1      -0.462  -0.850   0.366  1.00  0.00    -0.121 SA
ENDROOT
BRANCH   1   2
HETATM    2  C2  UNL     1       1.197  -0.164   0.128  1.00  0.00     0.182 C 
BRANCH   2   3
HETATM    3  C1  UNL     1       2.228  -1.200   0.463  1.00  0.00     0.231 C 
HETATM    4  O1  UNL     1       1.845  -2.324   0.835  1.00  0.00    -0.272 OA
HETATM    5  N3  UNL     1       3.601  -0.886   0.350  1.00  0.00    -0.325 N 
ATOM      6  H3  UNL     1       3.845   0.054   0.039  1.00  0.00     0.169 HD
BRANCH   5   7
HETATM    7  C16 UNL     1       4.656  -1.770   0.634  1.00  0.00     0.062 A 
HETATM    8  C17 UNL     1       4.575  -3.064   1.109  1.00  0.00     0.118 A 
HETATM    9  N4  UNL     1       5.833  -3.507   1.245  1.00  0.00    -0.372 N 
HETATM   10  C18 UNL     1       6.695  -2.545   0.875  1.00  0.00     0.102 A 
ATOM     11  H4  UNL     1       6.096  -4.434   1.579  1.00  0.00     0.164 HD
HETATM   12  C19 UNL     1       5.996  -1.425   0.479  1.00  0.00     0.018 A 
BRANCH  12  13
HETATM   13  C20 UNL     1       6.593  -0.189  -0.001  1.00  0.00    -0.022 A 
HETATM   14  C21 UNL     1       7.615   0.440   0.725  1.00  0.00     0.012 A 
HETATM   15  C22 UNL     1       8.178   1.595   0.259  1.00  0.00     0.001 A 
HETATM   16  C23 UNL     1       7.781   2.182  -0.917  1.00  0.00     0.000 A 
HETATM   17  C24 UNL     1       6.774   1.558  -1.630  1.00  0.00     0.001 A 
HETATM   18  C25 UNL     1       6.195   0.393  -1.173  1.00  0.00     0.012 A 
ENDBRANCH  12  13
ENDBRANCH   5   7
ENDBRANCH   2   3
ENDBRANCH   1   2
BRANCH   1  19
HETATM   19  C3  UNL     1      -1.711   0.360  -0.024  1.00  0.00     0.002 A 
HETATM   20  C4  UNL     1      -1.308   1.609  -0.438  1.00  0.00     0.018 A 
HETATM   21  C5  UNL     1      -2.305   2.533  -0.735  1.00  0.00     0.002 A 
HETATM   22  C6  UNL     1      -3.629   2.197  -0.616  1.00  0.00     0.015 A 
HETATM   23  C7  UNL     1      -4.016   0.941  -0.200  1.00  0.00     0.009 A 
HETATM   24  C15 UNL     1      -3.031   0.016   0.098  1.00  0.00     0.033 A 
BRANCH  23  25
HETATM   25  C8  UNL     1      -5.432   0.590  -0.074  1.00  0.00     0.116 A 
HETATM   26  N1  UNL     1      -5.895  -0.608   0.323  1.00  0.00    -0.340 N 
HETATM   27  C9  UNL     1      -7.244  -0.601   0.330  1.00  0.00     0.060 A 
ATOM     28  H1  UNL     1      -5.312  -1.405   0.581  1.00  0.00     0.167 HD
HETATM   29  C10 UNL     1      -8.202  -1.540   0.646  1.00  0.00     0.032 A 
HETATM   30  C14 UNL     1      -7.650   0.647  -0.078  1.00  0.00     0.060 A 
HETATM   31  C11 UNL     1      -9.563  -1.233   0.554  1.00  0.00     0.002 A 
HETATM   32  C12 UNL     1      -9.972   0.018   0.145  1.00  0.00     0.002 A 
HETATM   33  C13 UNL     1      -9.002   0.944  -0.166  1.00  0.00     0.032 A 
HETATM   34  N2  UNL     1      -6.509   1.345  -0.316  1.00  0.00    -0.340 N 
ATOM     35  H2  UNL     1      -6.478   2.313  -0.636  1.00  0.00     0.167 HD
ENDBRANCH  23  25
ENDBRANCH   1  19
TORSDOF 6
