REMARK  6 active torsions:
REMARK  status: ('A' for Active; 'I' for Inactive)
REMARK    1  A    between atoms: C1_2  and  C2_4 
REMARK    2  A    between atoms: C5_7  and  O2_8 
REMARK    3  A    between atoms: O2_8  and  C6_9 
REMARK    4  A    between atoms: C11_14  and  N2_15 
REMARK       I    between atoms: N2_15  and  C12_17 
REMARK       I    between atoms: C12_17  and  N3_19 
REMARK    5  A    between atoms: N3_19  and  C13_21 
REMARK    6  A    between atoms: C16_24  and  C17_25 
ROOT
HETATM    1  N2  UNL     1       1.414  -1.928  -1.001  1.00  0.00    -0.306 N 
ATOM      2  H2  UNL     1       1.909  -1.190  -1.502  1.00  0.00     0.171 HD
HETATM    3  C12 UNL     1       0.079  -1.623  -0.624  1.00  0.00     0.325 C 
HETATM    4  O3  UNL     1      -0.657  -2.413  -0.005  1.00  0.00    -0.247 OA
HETATM    5  N3  UNL     1      -0.444  -0.362  -0.964  1.00  0.00    -0.309 N 
ATOM      6  H3  UNL     1       0.189   0.254  -1.474  1.00  0.00     0.170 HD
ENDROOT
BRANCH   1   7
HETATM    7  C11 UNL     1       2.140  -3.094  -0.782  1.00  0.00     0.070 A 
HETATM    8  C6  UNL     1       3.489  -3.132  -1.077  1.00  0.00     0.102 A 
HETATM    9  C7  UNL     1       4.229  -4.303  -0.945  1.00  0.00     0.039 A 
HETATM   10  C8  UNL     1       3.647  -5.468  -0.514  1.00  0.00     0.003 A 
HETATM   11  C9  UNL     1       2.305  -5.467  -0.209  1.00  0.00     0.002 A 
HETATM   12  C10 UNL     1       1.593  -4.280  -0.353  1.00  0.00     0.032 A 
BRANCH   8  13
HETATM   13  O2  UNL     1       4.148  -2.004  -1.512  1.00  0.00    -0.309 OA
BRANCH  13  14
HETATM   14  C5  UNL     1       4.327  -0.908  -0.711  1.00  0.00     0.076 A 
HETATM   15  C4  UNL     1       4.004  -0.908   0.628  1.00  0.00     0.038 A 
HETATM   16  C3  UNL     1       4.217   0.247   1.370  1.00  0.00     0.019 A 
HETATM   17  C2  UNL     1       4.741   1.390   0.800  1.00  0.00     0.029 A 
HETATM   18  C26 UNL     1       5.051   1.352  -0.542  1.00  0.00     0.019 A 
HETATM   19  C25 UNL     1       4.857   0.239  -1.300  1.00  0.00     0.038 A 
BRANCH  17  20
HETATM   20  C1  UNL     1       4.959   2.603   1.595  1.00  0.00     0.264 C 
HETATM   21  N1  UNL     1       5.530   3.734   0.974  1.00  0.00    -0.057 NA
HETATM   22  O1  UNL     1       4.654   2.664   2.803  1.00  0.00    -0.271 OA
ENDBRANCH  17  20
ENDBRANCH  13  14
ENDBRANCH   8  13
ENDBRANCH   1   7
BRANCH   5  23
HETATM   23  C13 UNL     1      -1.725   0.167  -0.696  1.00  0.00     0.036 A 
HETATM   24  C14 UNL     1      -2.641  -0.329   0.194  1.00  0.00     0.030 A 
HETATM   25  C15 UNL     1      -3.907   0.245   0.388  1.00  0.00     0.014 A 
HETATM   26  C16 UNL     1      -4.295   1.354  -0.319  1.00  0.00    -0.026 A 
HETATM   27  C23 UNL     1      -3.384   1.862  -1.216  1.00  0.00     0.014 A 
HETATM   28  C24 UNL     1      -2.144   1.308  -1.413  1.00  0.00     0.030 A 
BRANCH  26  29
HETATM   29  C17 UNL     1      -5.606   1.964  -0.131  1.00  0.00    -0.026 A 
HETATM   30  C18 UNL     1      -5.788   3.331  -0.298  1.00  0.00     0.012 A 
HETATM   31  C19 UNL     1      -7.051   3.883  -0.110  1.00  0.00     0.001 A 
HETATM   32  C20 UNL     1      -8.131   3.102   0.239  1.00  0.00     0.000 A 
HETATM   33  C21 UNL     1      -7.968   1.746   0.409  1.00  0.00     0.001 A 
HETATM   34  C22 UNL     1      -6.702   1.206   0.219  1.00  0.00     0.012 A 
ENDBRANCH  26  29
ENDBRANCH   5  23
TORSDOF 6
