REMARK  6 active torsions:
REMARK  status: ('A' for Active; 'I' for Inactive)
REMARK    1  A    between atoms: C3_3  and  C4_4 
REMARK    2  A    between atoms: C7_11  and  O1_12 
REMARK    3  A    between atoms: O1_12  and  C8_13 
REMARK    4  A    between atoms: C11_16  and  C12_17 
REMARK    5  A    between atoms: C15_20  and  C16_21 
REMARK    6  A    between atoms: C21_28  and  C22_29 
ROOT
HETATM    1  C1  UNL     1      -1.349   4.470  -3.482  1.00  0.00     0.050 C 
HETATM    2  C2  UNL     1      -0.887   3.128  -3.032  1.00  0.00    -0.035 A 
HETATM    3  C3  UNL     1      -0.325   2.274  -3.945  1.00  0.00     0.011 A 
HETATM    4  C5  UNL     1       0.100   1.044  -3.429  1.00  0.00     0.018 A 
HETATM    5  C6  UNL     1      -0.023   0.690  -2.105  1.00  0.00     0.039 A 
HETATM    6  C7  UNL     1      -0.589   1.554  -1.196  1.00  0.00     0.087 A 
HETATM    7  C21 UNL     1      -1.015   2.768  -1.678  1.00  0.00     0.015 A 
ENDROOT
BRANCH   6   8
HETATM    8  O1  UNL     1      -0.739   1.252   0.151  1.00  0.00    -0.310 OA
BRANCH   8   9
HETATM    9  C8  UNL     1      -0.318   0.038   0.681  1.00  0.00     0.076 A 
HETATM   10  C9  UNL     1       0.975  -0.141   1.131  1.00  0.00     0.038 A 
HETATM   11  C10 UNL     1       1.415  -1.334   1.662  1.00  0.00     0.015 A 
HETATM   12  C11 UNL     1       0.582  -2.432   1.778  1.00  0.00    -0.026 A 
HETATM   13  C19 UNL     1      -0.710  -2.259   1.330  1.00  0.00     0.015 A 
HETATM   14  C20 UNL     1      -1.153  -1.054   0.794  1.00  0.00     0.038 A 
BRANCH  12  15
HETATM   15  C12 UNL     1       1.052  -3.692   2.343  1.00  0.00    -0.026 A 
HETATM   16  C13 UNL     1       2.005  -3.673   3.312  1.00  0.00     0.013 A 
HETATM   17  C14 UNL     1       2.511  -4.804   3.904  1.00  0.00     0.017 A 
HETATM   18  C15 UNL     1       2.041  -6.037   3.507  1.00  0.00     0.029 A 
HETATM   19  C17 UNL     1       1.074  -6.098   2.526  1.00  0.00     0.017 A 
HETATM   20  C18 UNL     1       0.598  -4.939   1.965  1.00  0.00     0.013 A 
BRANCH  18  21
HETATM   21  C16 UNL     1       2.564  -7.271   4.092  1.00  0.00     0.264 C 
HETATM   22  N3  UNL     1       3.782  -7.233   4.808  1.00  0.00    -0.057 NA
HETATM   23  O2  UNL     1       1.915  -8.326   3.940  1.00  0.00    -0.271 OA
ENDBRANCH  18  21
ENDBRANCH  12  15
ENDBRANCH   8   9
ENDBRANCH   6   8
BRANCH   7  24
HETATM   24  C22 UNL     1      -1.619   3.699  -0.753  1.00  0.00    -0.023 A 
HETATM   25  C23 UNL     1      -2.986   3.834  -0.760  1.00  0.00     0.012 A 
HETATM   26  C24 UNL     1      -3.604   4.715   0.096  1.00  0.00     0.001 A 
HETATM   27  C25 UNL     1      -2.861   5.491   0.993  1.00  0.00     0.000 A 
HETATM   28  C26 UNL     1      -1.496   5.321   0.964  1.00  0.00     0.001 A 
HETATM   29  C27 UNL     1      -0.862   4.444   0.112  1.00  0.00     0.012 A 
ENDBRANCH   7  24
BRANCH   3  30
HETATM   30  C4  UNL     1      -0.157   2.547  -5.374  1.00  0.00     0.120 C 
HETATM   31  N1  UNL     1      -0.465   3.515  -6.032  1.00  0.00    -0.387 N 
ATOM     32  H12 UNL     1      -0.921   4.261  -5.506  1.00  0.00     0.157 HD
ATOM     33  H11 UNL     1      -0.348   3.705  -7.027  1.00  0.00     0.157 HD
HETATM   34  N2  UNL     1       0.496   1.478  -6.128  1.00  0.00    -0.082 NA
ENDBRANCH   3  30
TORSDOF 6
