REMARK  8 active torsions:
REMARK  status: ('A' for Active; 'I' for Inactive)
REMARK    1  A    between atoms: C2_3  and  N2_4 
REMARK    2  A    between atoms: N2_4  and  C3_6 
REMARK    3  A    between atoms: C3_6  and  N3_7 
REMARK    4  A    between atoms: C3_6  and  C17_26 
REMARK    5  A    between atoms: N3_7  and  C4_9 
REMARK    6  A    between atoms: N4_12  and  C7_13 
REMARK    7  A    between atoms: C7_13  and  C8_14 
REMARK       I    between atoms: C8_14  and  N5_16 
REMARK    8  A    between atoms: N5_16  and  C9_18 
ROOT
HETATM    1  N1  UNL     1       4.056   2.708  -2.758  1.00  0.00    -0.191 NA
HETATM    2  C1  UNL     1       4.175   1.562  -2.658  1.00  0.00     0.105 C 
HETATM    3  C2  UNL     1       4.333   0.111  -2.504  1.00  0.00     0.183 C 
ENDROOT
BRANCH   3   4
HETATM    4  N2  UNL     1       3.926  -0.435  -1.327  1.00  0.00    -0.347 N 
ATOM      5  H2  UNL     1       3.029  -0.856  -1.570  1.00  0.00     0.167 HD
BRANCH   4   6
HETATM    6  C3  UNL     1       4.036  -0.697  -0.159  1.00  0.00     0.082 C 
BRANCH   6   7
HETATM    7  N3  UNL     1       2.969  -1.451   0.472  1.00  0.00    -0.373 N 
ATOM      8  H3  UNL     1       3.206  -2.335   0.923  1.00  0.00     0.161 HD
BRANCH   7   9
HETATM    9  C4  UNL     1       1.614  -1.028   0.497  1.00  0.00     0.097 C 
HETATM   10  C5  UNL     1       0.711  -2.009   1.204  1.00  0.00     0.041 C 
HETATM   11  C6  UNL     1      -0.651  -1.786   0.534  1.00  0.00     0.097 C 
HETATM   12  N4  UNL     1      -0.385  -1.151  -0.693  1.00  0.00    -0.286 NA
HETATM   13  C16 UNL     1       1.046  -1.061  -0.903  1.00  0.00     0.120 C 
BRANCH  12  14
HETATM   14  C7  UNL     1      -1.108  -1.520  -1.844  1.00  0.00     0.134 C 
BRANCH  14  15
HETATM   15  C8  UNL     1      -2.518  -1.186  -1.925  1.00  0.00     0.252 C 
HETATM   16  O1  UNL     1      -3.121  -1.562  -3.000  1.00  0.00    -0.268 OA
HETATM   17  N5  UNL     1      -3.321  -0.511  -0.999  1.00  0.00    -0.352 N 
ATOM     18  H5  UNL     1      -2.882  -0.196  -0.134  1.00  0.00     0.163 HD
BRANCH  17  19
HETATM   19  C9  UNL     1      -4.722  -0.229  -1.178  1.00  0.00     0.084 C 
HETATM   20  C10 UNL     1      -5.006   1.231  -1.182  1.00  0.00     0.025 C 
HETATM   21  C11 UNL     1      -4.356   2.030  -0.107  1.00  0.00     0.002 C 
HETATM   22  C12 UNL     1      -4.979   1.951   1.240  1.00  0.00     0.000 C 
HETATM   23  C13 UNL     1      -6.018   0.871   1.402  1.00  0.00     0.000 C 
HETATM   24  C14 UNL     1      -5.331  -0.461   1.239  1.00  0.00     0.002 C 
HETATM   25  C15 UNL     1      -5.595  -0.923  -0.173  1.00  0.00     0.025 C 
ENDBRANCH  17  19
ENDBRANCH  14  15
ENDBRANCH  12  14
ENDBRANCH   7   9
ENDBRANCH   6   7
BRANCH   6  26
HETATM   26  C17 UNL     1       5.134  -0.351   0.746  1.00  0.00     0.053 C 
HETATM   27  C18 UNL     1       6.255   0.442   0.200  1.00  0.00     0.012 C 
HETATM   28  C19 UNL     1       6.106   1.868   0.688  1.00  0.00     0.001 C 
HETATM   29  C20 UNL     1       4.984   1.860   1.698  1.00  0.00     0.001 C 
HETATM   30  C21 UNL     1       4.652   0.430   1.960  1.00  0.00     0.012 C 
ENDBRANCH   6  26
ENDBRANCH   4   6
ENDBRANCH   3   4
TORSDOF 8
