REMARK  3 active torsions:
REMARK  status: ('A' for Active; 'I' for Inactive)
REMARK    1  A    between atoms: N1_1  and  C1_5 
REMARK    2  A    between atoms: C1_5  and  C2_6 
REMARK    3  A    between atoms: C4_8  and  C5_9 
ROOT
HETATM    1  C2  UNL     1       1.935  -0.041  -0.041  1.00  0.00     0.103 A 
HETATM    2  C3  UNL     1       0.743   0.654   0.028  1.00  0.00     0.066 A 
HETATM    3  C4  UNL     1      -0.215  -0.248   0.476  1.00  0.00     0.072 A 
HETATM    4  N6  UNL     1       0.450  -1.404   0.644  1.00  0.00    -0.262 N 
ATOM      5  H6  UNL     1       0.028  -2.274   0.969  1.00  0.00     0.194 HD
HETATM    6  O1  UNL     1       1.705  -1.260   0.335  1.00  0.00    -0.240 OA
ENDROOT
BRANCH   1   7
HETATM    7  C1  UNL     1       3.257   0.521  -0.476  1.00  0.00     0.296 C 
BRANCH   7   8
HETATM    8  N1  UNL     1       4.256  -0.525  -0.410  1.00  0.00    -0.073 N 
ATOM      9  H13 UNL     1       4.303  -0.961   0.511  1.00  0.00     0.274 HD
ATOM     10  H12 UNL     1       3.990  -1.352  -0.945  1.00  0.00     0.274 HD
ATOM     11  H11 UNL     1       5.154  -0.143  -0.706  1.00  0.00     0.274 HD
ENDBRANCH   7   8
ENDBRANCH   1   7
BRANCH   3  12
HETATM   12  C5  UNL     1      -1.657  -0.001   0.719  1.00  0.00     0.258 C 
HETATM   13  N2  UNL     1      -2.424  -1.109   0.143  1.00  0.00    -0.099 NA
HETATM   14  N3  UNL     1      -3.677  -0.556  -0.062  1.00  0.00    -0.019 NA
HETATM   15  N4  UNL     1      -3.536   0.829  -0.074  1.00  0.00    -0.019 NA
HETATM   16  N5  UNL     1      -2.158   1.097  -0.109  1.00  0.00    -0.099 NA
ENDBRANCH   3  12
TORSDOF 3
