REMARK  5 active torsions:
REMARK  status: ('A' for Active; 'I' for Inactive)
REMARK    1  A    between atoms: N1_1  and  C1_4 
REMARK    2  A    between atoms: N3_8  and  C3_9 
REMARK    3  A    between atoms: C3_9  and  C4_10 
REMARK    4  A    between atoms: C4_10  and  C5_11 
REMARK    5  A    between atoms: C5_11  and  N4_12 
ROOT
HETATM    1  C1  UNL     1      -3.300   1.036   0.037  1.00  0.00     0.691 A 
HETATM    2  N2  UNL     1      -2.277   1.899  -0.086  1.00  0.00    -0.187 N 
ATOM      3  H2  UNL     1      -2.482   2.874  -0.304  1.00  0.00     0.185 HD
HETATM    4  C2  UNL     1      -0.996   1.527   0.067  1.00  0.00     0.218 A 
HETATM    5  N3  UNL     1      -0.671   0.233   0.360  1.00  0.00    -0.179 N 
HETATM    6  C6  UNL     1      -1.681  -0.643   0.486  1.00  0.00     0.693 A 
HETATM    7  N5  UNL     1      -1.427  -1.876   0.750  1.00  0.00    -0.234 N 
ATOM      8  H51 UNL     1      -2.194  -2.541   0.846  1.00  0.00     0.174 HD
ATOM      9  H52 UNL     1      -0.461  -2.179   0.870  1.00  0.00     0.174 HD
HETATM   10  N6  UNL     1      -2.981  -0.235   0.324  1.00  0.00    -0.023 N 
ATOM     11  H6  UNL     1      -3.729  -0.921   0.425  1.00  0.00     0.203 HD
ENDROOT
BRANCH   5  12
HETATM   12  C3  UNL     1       0.720  -0.080   0.520  1.00  0.00     0.150 C 
BRANCH  12  13
HETATM   13  C4  UNL     1       1.345  -0.532  -0.791  1.00  0.00     0.048 C 
BRANCH  13  14
HETATM   14  C5  UNL     1       2.801  -0.856  -0.605  1.00  0.00     0.231 C 
BRANCH  14  15
HETATM   15  N4  UNL     1       3.548   0.309  -0.131  1.00  0.00    -0.079 N 
ATOM     16  H43 UNL     1       3.419   1.112  -0.746  1.00  0.00     0.274 HD
ATOM     17  H42 UNL     1       3.139   0.696   0.720  1.00  0.00     0.274 HD
ATOM     18  H41 UNL     1       4.536   0.089  -0.005  1.00  0.00     0.274 HD
ENDBRANCH  14  15
ENDBRANCH  13  14
ENDBRANCH  12  13
ENDBRANCH   5  12
BRANCH   1  19
HETATM   19  N1  UNL     1      -4.537   1.374  -0.107  1.00  0.00    -0.234 N 
ATOM     20  H12 UNL     1      -4.780   2.340  -0.325  1.00  0.00     0.174 HD
ATOM     21  H11 UNL     1      -5.313   0.719  -0.014  1.00  0.00     0.174 HD
ENDBRANCH   1  19
TORSDOF 5
