REMARK  13 active torsions:
REMARK  status: ('A' for Active; 'I' for Inactive)
REMARK    1  A    between atoms: C2_2  and  C3_3 
REMARK    2  A    between atoms: C3_3  and  C4_4 
REMARK    3  A    between atoms: C4_4  and  C5_5 
REMARK    4  A    between atoms: C5_5  and  C6_6 
REMARK    5  A    between atoms: C6_6  and  C7_7 
REMARK    6  A    between atoms: C7_7  and  C8_8 
REMARK    7  A    between atoms: C9_9  and  C10_10 
REMARK    8  A    between atoms: C10_10  and  C11_11 
REMARK    9  A    between atoms: C11_11  and  C12_12 
REMARK   10  A    between atoms: C12_12  and  C13_13 
REMARK   11  A    between atoms: C13_13  and  C14_14 
REMARK   12  A    between atoms: C14_14  and  C15_15 
REMARK   13  A    between atoms: C15_15  and  N1_16 
ROOT
HETATM    1  C12 UNL     1      -1.012   0.663   0.801  1.00  0.00     0.000 C 
ENDROOT
BRANCH   1   2
HETATM    2  C11 UNL     1      -1.001  -0.817   1.082  1.00  0.00     0.004 C 
BRANCH   2   3
HETATM    3  C10 UNL     1       0.449  -1.252   1.332  1.00  0.00     0.027 C 
BRANCH   3   4
HETATM    4  C9  UNL     1       1.177  -0.920   0.093  1.00  0.00    -0.031 C 
HETATM    5  C8  UNL     1       2.189  -0.100   0.036  1.00  0.00    -0.031 C 
BRANCH   5   6
HETATM    6  C7  UNL     1       2.742   0.606   1.192  1.00  0.00     0.027 C 
BRANCH   6   7
HETATM    7  C6  UNL     1       4.192   0.199   1.381  1.00  0.00     0.004 C 
BRANCH   7   8
HETATM    8  C5  UNL     1       4.965   0.581   0.148  1.00  0.00     0.000 C 
BRANCH   8   9
HETATM    9  C4  UNL     1       6.443   0.202   0.328  1.00  0.00     0.000 C 
BRANCH   9  10
HETATM   10  C3  UNL     1       7.171   0.609  -0.910  1.00  0.00    -0.000 C 
BRANCH  10  11
HETATM   11  C2  UNL     1       6.667  -0.058  -2.147  1.00  0.00    -0.005 C 
HETATM   12  C1  UNL     1       6.780  -1.559  -2.062  1.00  0.00     0.005 C 
ENDBRANCH  10  11
ENDBRANCH   9  10
ENDBRANCH   8   9
ENDBRANCH   7   8
ENDBRANCH   6   7
ENDBRANCH   5   6
ENDBRANCH   3   4
ENDBRANCH   2   3
ENDBRANCH   1   2
BRANCH   1  13
HETATM   13  C13 UNL     1      -2.428   1.097   0.541  1.00  0.00     0.002 C 
BRANCH  13  14
HETATM   14  C14 UNL     1      -3.278   0.819   1.737  1.00  0.00     0.020 C 
BRANCH  14  15
HETATM   15  C15 UNL     1      -4.721   1.265   1.516  1.00  0.00     0.126 C 
BRANCH  15  16
HETATM   16  N1  UNL     1      -5.345   0.590   0.394  1.00  0.00    -0.350 N 
HETATM   17  C16 UNL     1      -6.060  -0.666   0.570  1.00  0.00     0.140 C 
HETATM   18  C17 UNL     1      -7.404  -0.649  -0.161  1.00  0.00     0.160 C 
HETATM   19  S1  UNL     1      -7.033  -0.553  -1.897  1.00  0.00     0.154 S 
HETATM   20  O1  UNL     1      -6.953  -1.919  -2.470  1.00  0.00    -0.227 OA
HETATM   21  O2  UNL     1      -8.072   0.309  -2.531  1.00  0.00    -0.227 OA
HETATM   22  C18 UNL     1      -5.447   0.260  -2.118  1.00  0.00     0.243 C 
HETATM   23  C19 UNL     1      -5.283   1.127  -0.921  1.00  0.00     0.233 C 
HETATM   24  O3  UNL     1      -5.086   2.359  -1.058  1.00  0.00    -0.272 OA
ENDBRANCH  15  16
ENDBRANCH  14  15
ENDBRANCH  13  14
ENDBRANCH   1  13
TORSDOF 13
