REMARK  0 active torsions:
REMARK  status: ('A' for Active; 'I' for Inactive)
ROOT
HETATM    1  N1  UNL     1       2.603  -0.115   0.483  1.00  0.00    -0.056 NA
HETATM    2  C1  UNL     1       1.169  -0.043   0.385  1.00  0.00     0.227 C 
HETATM    3  N2  UNL     1       0.475  -1.045  -0.042  1.00  0.00    -0.359 N 
ATOM      4  H2  UNL     1       0.982  -1.890  -0.307  1.00  0.00     0.162 HD
HETATM    5  C2  UNL     1      -0.949  -1.062  -0.172  1.00  0.00     0.125 C 
HETATM    6  C3  UNL     1      -1.587   0.277  -0.289  1.00  0.00     0.046 C 
HETATM    7  C4  UNL     1      -0.688   1.434  -0.018  1.00  0.00     0.180 C 
HETATM    8  O1  UNL     1       0.461   1.096   0.739  1.00  0.00    -0.325 OA
ENDROOT
TORSDOF 0
