REMARK  1 active torsions:
REMARK  status: ('A' for Active; 'I' for Inactive)
REMARK    1  A    between atoms: N3_8  and  C3_9 
ROOT
HETATM    1  N1  UNL     1      -1.876  -1.532   0.963  1.00  0.00    -0.371 N 
ATOM      2  H11 UNL     1      -1.433  -2.291   1.481  1.00  0.00     0.159 HD
ATOM      3  H12 UNL     1      -2.804  -1.890   1.189  1.00  0.00     0.159 HD
HETATM    4  C1  UNL     1      -1.461  -0.522   0.289  1.00  0.00     0.179 C 
HETATM    5  N2  UNL     1      -2.076   0.532  -0.430  1.00  0.00    -0.345 N 
ATOM      6  H2  UNL     1      -3.018   0.734  -0.765  1.00  0.00     0.164 HD
HETATM    7  C2  UNL     1      -0.798   1.198  -0.486  1.00  0.00     0.259 C 
HETATM    8  N3  UNL     1      -0.173  -0.025  -0.024  1.00  0.00    -0.287 N 
ENDROOT
BRANCH   8   9
HETATM    9  C3  UNL     1       1.170  -0.486   0.059  1.00  0.00     0.127 A 
HETATM   10  N4  UNL     1       2.019  -1.443   0.231  1.00  0.00    -0.347 N 
HETATM   11  C4  UNL     1       2.640  -0.258   0.019  1.00  0.00     0.138 A 
ATOM     12  H4  UNL     1       2.142  -2.440   0.410  1.00  0.00     0.167 HD
ENDBRANCH   8   9
TORSDOF 1
