REMARK  20 active torsions:
REMARK  status: ('A' for Active; 'I' for Inactive)
REMARK    1  A    between atoms: C2_2  and  N1_3 
REMARK    2  A    between atoms: C2_2  and  C20_53 
REMARK    3  A    between atoms: N1_3  and  C3_5 
REMARK    4  A    between atoms: C3_5  and  O1_6 
REMARK    5  A    between atoms: C3_5  and  C4_8 
REMARK    6  A    between atoms: C4_8  and  O2_12 
REMARK    7  A    between atoms: O2_12  and  C5_13 
REMARK    8  A    between atoms: N4_17  and  O4_18 
REMARK    9  A    between atoms: C6_20  and  S1_21 
REMARK   10  A    between atoms: S1_21  and  C7_22 
REMARK   11  A    between atoms: C7_22  and  O5_23 
REMARK   12  A    between atoms: C7_22  and  C8_25 
REMARK   13  A    between atoms: C7_22  and  C14_40 
REMARK   14  A    between atoms: C8_25  and  O6_26 
REMARK   15  A    between atoms: C8_25  and  N5_28 
REMARK   16  A    between atoms: N5_28  and  C9_30 
REMARK   17  A    between atoms: N6_33  and  S2_34 
REMARK   18  A    between atoms: C16_42  and  O10_43 
REMARK   19  A    between atoms: C17_45  and  O11_46 
REMARK   20  A    between atoms: C18_48  and  N7_49 
ROOT
HETATM    1  C7  UNL     1      -1.294  -1.033  -1.245  1.00  0.00     0.205 C 
ENDROOT
BRANCH   1   2
HETATM    2  S1  UNL     1       0.160  -0.391  -0.569  1.00  0.00    -0.051 SA
BRANCH   2   3
HETATM    3  C6  UNL     1       0.716   1.228  -0.753  1.00  0.00     0.183 A 
HETATM    4  C5  UNL     1       2.023   1.601  -0.317  1.00  0.00     0.210 A 
HETATM    5  N3  UNL     1       2.037   2.965  -0.583  1.00  0.00    -0.214 N 
HETATM    6  O3  UNL     1       0.968   3.312  -1.078  1.00  0.00    -0.125 OA
ATOM      7  H3  UNL     1       2.822   3.588  -0.394  1.00  0.00     0.199 HD
HETATM    8  N4  UNL     1       0.111   2.310  -1.215  1.00  0.00    -0.091 N 
BRANCH   4   9
HETATM    9  O2  UNL     1       2.952   0.783   0.215  1.00  0.00    -0.272 OA
BRANCH   9  10
HETATM   10  C4  UNL     1       4.190   1.207   0.572  1.00  0.00     0.168 C 
HETATM   11  N2  UNL     1       4.525   2.445   0.765  1.00  0.00    -0.380 N 
ATOM     12  H22 UNL     1       5.456   2.764   1.033  1.00  0.00     0.158 HD
ATOM     13  H21 UNL     1       3.783   3.133   0.637  1.00  0.00     0.158 HD
BRANCH  10  14
HETATM   14  C3  UNL     1       5.301   0.178   0.764  1.00  0.00     0.290 C 
BRANCH  14  15
HETATM   15  N1  UNL     1       6.467   0.509   0.019  1.00  0.00    -0.377 N 
ATOM     16  H1  UNL     1       6.469   1.246  -0.686  1.00  0.00     0.157 HD
BRANCH  15  17
HETATM   17  C2  UNL     1       7.624  -0.249   0.319  1.00  0.00     0.176 C 
HETATM   18  C1  UNL     1       8.186  -0.722  -1.044  1.00  0.00     0.043 C 
BRANCH  17  19
HETATM   19  C20 UNL     1       8.701   0.393   1.069  1.00  0.00     0.196 C 
HETATM   20  O14 UNL     1       8.723   1.602   1.371  1.00  0.00    -0.646 OA
HETATM   21  O15 UNL     1       9.762  -0.406   1.468  1.00  0.00    -0.646 OA
ENDBRANCH  17  19
ENDBRANCH  15  17
ENDBRANCH  14  15
BRANCH  14  22
HETATM   22  O1  UNL     1       4.810  -1.054   0.472  1.00  0.00    -0.369 OA
ATOM     23  H1  UNL     1       4.031  -1.275   0.969  1.00  0.00     0.212 HD
ENDBRANCH  14  22
ENDBRANCH  10  14
ENDBRANCH   9  10
ENDBRANCH   4   9
BRANCH   8  24
HETATM   24  O4  UNL     1      -1.105   2.499  -1.764  1.00  0.00    -0.260 OA
ATOM     25  H4  UNL     1      -1.719   1.781  -1.862  1.00  0.00     0.247 HD
ENDBRANCH   8  24
ENDBRANCH   2   3
ENDBRANCH   1   2
BRANCH   1  26
HETATM   26  O5  UNL     1      -1.140  -1.218  -2.664  1.00  0.00    -0.368 OA
ATOM     27  H5  UNL     1      -1.940  -1.571  -3.036  1.00  0.00     0.212 HD
ENDBRANCH   1  26
BRANCH   1  28
HETATM   28  C8  UNL     1      -2.543  -0.363  -1.047  1.00  0.00     0.164 C 
BRANCH  28  29
HETATM   29  O6  UNL     1      -3.361  -0.541  -2.087  1.00  0.00    -0.346 OA
ATOM     30  H6  UNL     1      -4.190  -0.096  -1.956  1.00  0.00     0.219 HD
ENDBRANCH  28  29
BRANCH  28  31
HETATM   31  N5  UNL     1      -3.164   0.428  -0.091  1.00  0.00    -0.357 N 
ATOM     32  H5  UNL     1      -2.657   0.681   0.757  1.00  0.00     0.162 HD
BRANCH  31  33
HETATM   33  C9  UNL     1      -4.532   0.904  -0.279  1.00  0.00     0.178 C 
HETATM   34  C10 UNL     1      -4.647   2.195  -1.024  1.00  0.00     0.056 C 
HETATM   35  C11 UNL     1      -6.121   2.532  -0.690  1.00  0.00     0.147 C 
HETATM   36  N6  UNL     1      -5.988   2.334   0.782  1.00  0.00    -0.244 N 
HETATM   37  C13 UNL     1      -5.310   1.105   0.963  1.00  0.00     0.256 C 
HETATM   38  O9  UNL     1      -5.331   0.350   1.928  1.00  0.00    -0.270 OA
BRANCH  36  39
HETATM   39  S2  UNL     1      -6.543   3.396   1.993  1.00  0.00     0.231 S 
HETATM   40  C12 UNL     1      -6.156   5.086   1.555  1.00  0.00     0.186 C 
HETATM   41  O7  UNL     1      -5.920   3.095   3.327  1.00  0.00    -0.206 OA
HETATM   42  O8  UNL     1      -8.026   3.309   2.191  1.00  0.00    -0.206 OA
ENDBRANCH  36  39
ENDBRANCH  31  33
ENDBRANCH  28  31
ENDBRANCH   1  28
BRANCH   1  43
HETATM   43  C14 UNL     1      -1.417  -2.470  -0.716  1.00  0.00     0.000 A 
HETATM   44  C15 UNL     1      -0.917  -3.480  -1.463  1.00  0.00     0.051 A 
HETATM   45  C16 UNL     1      -0.990  -4.810  -0.973  1.00  0.00     0.102 A 
HETATM   46  C17 UNL     1      -1.563  -5.048   0.258  1.00  0.00     0.132 A 
HETATM   47  C18 UNL     1      -2.071  -3.976   1.006  1.00  0.00     0.139 A 
HETATM   48  C19 UNL     1      -1.982  -2.695   0.478  1.00  0.00     0.050 A 
BRANCH  45  49
HETATM   49  O10 UNL     1      -0.497  -5.865  -1.712  1.00  0.00    -0.358 OA
ATOM     50  H10 UNL     1      -0.546  -6.755  -1.384  1.00  0.00     0.217 HD
ENDBRANCH  45  49
BRANCH  46  51
HETATM   51  O11 UNL     1      -1.682  -6.270   0.845  1.00  0.00    -0.356 OA
ATOM     52  H11 UNL     1      -2.077  -6.434   1.693  1.00  0.00     0.218 HD
ENDBRANCH  46  51
BRANCH  47  53
HETATM   53  N7  UNL     1      -2.718  -4.165   2.243  1.00  0.00    -0.113 N 
HETATM   54  O12 UNL     1      -2.793  -3.308   3.120  1.00  0.00    -0.532 OA
HETATM   55  O13 UNL     1      -3.310  -5.386   2.468  1.00  0.00    -0.532 OA
ENDBRANCH  47  53
ENDBRANCH   1  43
TORSDOF 20
