REMARK  10 active torsions:
REMARK  status: ('A' for Active; 'I' for Inactive)
REMARK    1  A    between atoms: C2_2  and  C3_3 
REMARK    2  A    between atoms: C6_7  and  C7_8 
REMARK    3  A    between atoms: N1_14  and  C11_15 
REMARK    4  A    between atoms: C11_15  and  O2_16 
REMARK    5  A    between atoms: C11_15  and  N2_18 
REMARK    6  A    between atoms: N2_18  and  C13_20 
REMARK    7  A    between atoms: C13_20  and  O3_21 
REMARK    8  A    between atoms: C13_20  and  N3_23 
REMARK    9  A    between atoms: C16_26  and  C17_27 
REMARK   10  A    between atoms: C17_27  and  C18_28 
REMARK       I    between atoms: C18_28  and  N4_30 
ROOT
HETATM    1  C3  UNL     1       1.963   0.898  -1.439  1.00  0.00     0.078 C 
HETATM    2  C4  UNL     1       2.857   0.105  -2.368  1.00  0.00     0.048 C 
HETATM    3  O1  UNL     1       2.749   1.613  -0.567  1.00  0.00    -0.376 OA
HETATM    4  C5  UNL     1       2.014   2.476   0.199  1.00  0.00     0.199 C 
HETATM    5  C6  UNL     1       0.954   1.800   0.976  1.00  0.00     0.152 C 
HETATM    6  N1  UNL     1       0.217   0.750   0.242  1.00  0.00    -0.328 N 
HETATM    7  C16 UNL     1       0.863   0.105  -0.837  1.00  0.00     0.131 C 
ENDROOT
BRANCH   6   8
HETATM    8  C11 UNL     1      -1.042   0.352   0.771  1.00  0.00     0.225 C 
BRANCH   8   9
HETATM    9  O2  UNL     1      -1.216   0.756   2.010  1.00  0.00    -0.332 OA
ATOM     10  H2  UNL     1      -2.057   0.490   2.363  1.00  0.00     0.221 HD
ENDBRANCH   8   9
BRANCH   8  11
HETATM   11  N2  UNL     1      -2.130  -0.367   0.270  1.00  0.00    -0.283 N 
HETATM   12  C12 UNL     1      -2.274  -0.736  -1.131  1.00  0.00     0.163 C 
BRANCH  11  13
HETATM   13  C13 UNL     1      -3.087  -0.856   1.178  1.00  0.00     0.223 C 
BRANCH  13  14
HETATM   14  O3  UNL     1      -2.984  -0.368   2.402  1.00  0.00    -0.332 OA
ATOM     15  H3  UNL     1      -3.630  -0.698   3.015  1.00  0.00     0.221 HD
ENDBRANCH  13  14
BRANCH  13  16
HETATM   16  N3  UNL     1      -4.112  -1.765   1.007  1.00  0.00    -0.356 N 
HETATM   17  C14 UNL     1      -5.061  -1.997   2.162  1.00  0.00     0.152 C 
HETATM   18  C15 UNL     1      -4.389  -2.604  -0.115  1.00  0.00     0.152 C 
ENDBRANCH  13  16
ENDBRANCH  11  13
ENDBRANCH   8  11
ENDBRANCH   6   8
BRANCH   5  19
HETATM   19  C7  UNL     1      -0.024   2.857   1.445  1.00  0.00     0.009 A 
HETATM   20  C8  UNL     1      -1.002   3.498   0.755  1.00  0.00     0.018 A 
HETATM   21  C9  UNL     1      -1.731   4.407   1.421  1.00  0.00     0.028 A 
HETATM   22  C10 UNL     1      -1.430   4.613   2.742  1.00  0.00     0.051 A 
HETATM   23 BR1  UNL     1      -2.264   5.826   3.980  1.00  0.00    -0.043 Br
HETATM   24  S1  UNL     1      -0.127   3.517   2.997  1.00  0.00    -0.085 SA
ENDBRANCH   5  19
BRANCH   7  25
HETATM   25  C17 UNL     1       1.226  -1.316  -0.519  1.00  0.00     0.131 C 
BRANCH  25  26
HETATM   26  C18 UNL     1       2.305  -1.628   0.370  1.00  0.00     0.221 C 
HETATM   27  O4  UNL     1       3.046  -0.819   0.927  1.00  0.00    -0.273 OA
HETATM   28  N4  UNL     1       2.564  -3.000   0.651  1.00  0.00    -0.361 N 
HETATM   29  C19 UNL     1       1.772  -4.060   0.065  1.00  0.00     0.152 C 
HETATM   30  C20 UNL     1       3.646  -3.360   1.544  1.00  0.00     0.152 C 
ENDBRANCH  25  26
ENDBRANCH   7  25
BRANCH   1  31
HETATM   31  C2  UNL     1       1.307   1.962  -2.338  1.00  0.00     0.035 C 
HETATM   32  C1  UNL     1       2.426   2.785  -2.916  1.00  0.00     0.008 C 
ENDBRANCH   1  31
TORSDOF 10
