REMARK  12 active torsions:
REMARK  status: ('A' for Active; 'I' for Inactive)
REMARK    1  A    between atoms: C2_2  and  C3_3 
REMARK    2  A    between atoms: C3_3  and  N1_4 
REMARK    3  A    between atoms: N2_7  and  C6_8 
REMARK    4  A    between atoms: C6_8  and  C7_9 
REMARK    5  A    between atoms: C7_9  and  C8_10 
REMARK    6  A    between atoms: C8_10  and  N3_11 
REMARK    7  A    between atoms: N3_11  and  S1_13 
REMARK    8  A    between atoms: S1_13  and  N4_14 
REMARK    9  A    between atoms: S1_13  and  N5_18 
REMARK   10  A    between atoms: N5_18  and  C9_20 
REMARK   11  A    between atoms: C9_20  and  C10_21 
REMARK   12  A    between atoms: C10_21  and  N6_22 
ROOT
HETATM    1  N3  UNL     1       1.766  -1.244  -0.787  1.00  0.00    -0.320 N 
ATOM      2  H3  UNL     1       1.251  -2.109  -0.951  1.00  0.00     0.172 HD
ENDROOT
BRANCH   1   3
HETATM    3  C8  UNL     1       1.012  -0.062  -0.789  1.00  0.00     0.133 C 
BRANCH   3   4
HETATM    4  C7  UNL     1      -0.483  -0.500  -0.693  1.00  0.00     0.048 C 
BRANCH   4   5
HETATM    5  C6  UNL     1      -1.349   0.695  -0.597  1.00  0.00     0.239 C 
BRANCH   5   6
HETATM    6  N2  UNL     1      -2.716   0.285  -0.243  1.00  0.00    -0.062 N 
HETATM    7  C5  UNL     1      -2.816   0.398   1.232  1.00  0.00     0.265 C 
HETATM    8  C4  UNL     1      -4.171  -0.025   1.632  1.00  0.00     0.265 C 
HETATM    9  N1  UNL     1      -5.075  -0.277   0.483  1.00  0.00    -0.062 N 
HETATM   10  C15 UNL     1      -4.445  -1.364  -0.310  1.00  0.00     0.265 C 
HETATM   11  C17 UNL     1      -5.093   0.880  -0.324  1.00  0.00     0.265 C 
HETATM   12  C14 UNL     1      -2.977  -1.096  -0.544  1.00  0.00     0.265 C 
HETATM   13  C16 UNL     1      -3.658   1.184  -0.811  1.00  0.00     0.265 C 
BRANCH   9  14
HETATM   14  C3  UNL     1      -6.277  -0.748   1.073  1.00  0.00     0.237 C 
BRANCH  14  15
HETATM   15  C2  UNL     1      -7.579  -0.495   0.440  1.00  0.00     0.023 C 
HETATM   16  C1  UNL     1      -7.988   0.942   0.333  1.00  0.00     0.007 C 
ENDBRANCH  14  15
ENDBRANCH   9  14
ENDBRANCH   5   6
ENDBRANCH   4   5
ENDBRANCH   3   4
ENDBRANCH   1   3
BRANCH   1  17
HETATM   17  S1  UNL     1       3.369  -1.391  -0.553  1.00  0.00     0.188 S 
HETATM   18  O1  UNL     1       3.531  -1.915   0.934  1.00  0.00    -0.206 OA
BRANCH  17  19
HETATM   19  N4  UNL     1       3.891  -2.638  -1.427  1.00  0.00    -0.329 N 
ATOM     20  H42 UNL     1       3.305  -3.225  -2.020  1.00  0.00     0.168 HD
ATOM     21  H41 UNL     1       4.896  -2.730  -1.280  1.00  0.00     0.168 HD
ENDBRANCH  17  19
BRANCH  17  22
HETATM   22  N5  UNL     1       4.495  -0.172  -0.776  1.00  0.00    -0.318 N 
ATOM     23  H5  UNL     1       5.196  -0.238  -1.514  1.00  0.00     0.172 HD
BRANCH  22  24
HETATM   24  C9  UNL     1       4.451   0.965   0.094  1.00  0.00     0.162 C 
BRANCH  24  25
HETATM   25  C10 UNL     1       5.788   1.033   0.778  1.00  0.00     0.294 C 
BRANCH  25  26
HETATM   26  N6  UNL     1       6.971   1.124  -0.031  1.00  0.00     0.117 N 
HETATM   27  C11 UNL     1       8.076   1.043   0.959  1.00  0.00     0.302 C 
HETATM   28  C12 UNL     1       9.150   0.267   0.293  1.00  0.00     0.264 C 
HETATM   29  N7  UNL     1       8.624  -0.079  -0.998  1.00  0.00    -0.047 N 
HETATM   30  C13 UNL     1       7.160  -0.072  -0.808  1.00  0.00     0.502 C 
ATOM     31  H72 UNL     1       8.950   0.521  -1.756  1.00  0.00     0.279 HD
ATOM     32  H71 UNL     1       8.992  -0.951  -1.379  1.00  0.00     0.279 HD
ENDBRANCH  25  26
ENDBRANCH  24  25
ENDBRANCH  22  24
ENDBRANCH  17  22
ENDBRANCH   1  17
TORSDOF 12
