REMARK  4 active torsions:
REMARK  status: ('A' for Active; 'I' for Inactive)
REMARK    1  A    between atoms: N1_1  and  C1_5 
REMARK    2  A    between atoms: C1_5  and  S1_6 
REMARK    3  A    between atoms: S1_6  and  C2_8 
REMARK    4  A    between atoms: C2_8  and  C3_9 
ROOT
HETATM    1  C3  UNL     1      -0.154  -1.099  -0.458  1.00  0.00     0.094 A 
HETATM    2  N2  UNL     1       0.128  -0.044  -1.239  1.00  0.00    -0.343 N 
ATOM      3  H2  UNL     1      -0.474   0.318  -1.979  1.00  0.00     0.167 HD
HETATM    4  C4  UNL     1       1.325   0.462  -0.896  1.00  0.00     0.060 A 
HETATM    5  C5  UNL     1       2.108   1.510  -1.332  1.00  0.00     0.032 A 
HETATM    6  C6  UNL     1       3.332   1.829  -0.799  1.00  0.00     0.002 A 
HETATM    7  C7  UNL     1       3.791   1.033   0.244  1.00  0.00     0.002 A 
HETATM    8  C8  UNL     1       3.049  -0.018   0.710  1.00  0.00     0.032 A 
HETATM    9  C9  UNL     1       1.824  -0.313   0.154  1.00  0.00     0.060 A 
HETATM   10  N3  UNL     1       0.884  -1.245   0.378  1.00  0.00    -0.343 N 
ATOM     11  H3  UNL     1       0.951  -1.970   1.092  1.00  0.00     0.167 HD
ENDROOT
BRANCH   1  12
HETATM   12  C2  UNL     1      -1.405  -1.930  -0.538  1.00  0.00     0.186 C 
BRANCH  12  13
HETATM   13  S1  UNL     1      -2.637  -1.269   0.510  1.00  0.00     0.047 S 
HETATM   14  O1  UNL     1      -2.313  -1.399   2.124  1.00  0.00    -0.256 OA
BRANCH  13  15
HETATM   15  C1  UNL     1      -3.016   0.394   0.013  1.00  0.00     0.338 C 
BRANCH  15  16
HETATM   16  N1  UNL     1      -4.181   0.893   0.721  1.00  0.00    -0.069 N 
ATOM     17  H13 UNL     1      -4.984   0.274   0.609  1.00  0.00     0.275 HD
ATOM     18  H12 UNL     1      -4.068   0.818   1.732  1.00  0.00     0.275 HD
ATOM     19  H11 UNL     1      -4.399   1.848   0.436  1.00  0.00     0.275 HD
ENDBRANCH  15  16
ENDBRANCH  13  15
ENDBRANCH  12  13
ENDBRANCH   1  12
TORSDOF 4
