REMARK  12 active torsions:
REMARK  status: ('A' for Active; 'I' for Inactive)
REMARK    1  A    between atoms: N1_1  and  C1_5 
REMARK    2  A    between atoms: C1_5  and  C2_6 
REMARK    3  A    between atoms: C2_6  and  C3_7 
REMARK    4  A    between atoms: C3_7  and  C4_8 
REMARK    5  A    between atoms: C4_8  and  N2_9 
REMARK       I    between atoms: N2_9  and  C5_11 
REMARK    6  A    between atoms: C5_11  and  C6_13 
REMARK    7  A    between atoms: C6_13  and  C7_14 
REMARK    8  A    between atoms: C7_14  and  C8_15 
REMARK    9  A    between atoms: C9_16  and  C10_17 
REMARK   10  A    between atoms: C10_17  and  C11_18 
REMARK   11  A    between atoms: C15_22  and  O2_23 
REMARK   12  A    between atoms: N3_27  and  O3_28 
ROOT
HETATM    1  C8  UNL     1      -0.568  -0.731   1.885  1.00  0.00    -0.030 C 
HETATM    2  C9  UNL     1      -1.648  -0.518   1.142  1.00  0.00    -0.030 C 
ENDROOT
BRANCH   1   3
HETATM    3  C7  UNL     1       0.617  -1.355   1.285  1.00  0.00     0.036 C 
BRANCH   3   4
HETATM    4  C6  UNL     1       1.809  -0.431   1.385  1.00  0.00     0.106 C 
BRANCH   4   5
HETATM    5  C5  UNL     1       2.966  -1.137   0.756  1.00  0.00     0.217 C 
HETATM    6  N2  UNL     1       4.207  -0.448   0.736  1.00  0.00    -0.361 N 
ATOM      7  H2  UNL     1       4.296   0.486   1.136  1.00  0.00     0.162 HD
HETATM    8  O1  UNL     1       2.835  -2.295   0.266  1.00  0.00    -0.274 OA
BRANCH   6   9
HETATM    9  C4  UNL     1       5.340  -1.111   0.132  1.00  0.00     0.122 C 
BRANCH   9  10
HETATM   10  C3  UNL     1       6.594  -0.287   0.168  1.00  0.00     0.021 C 
BRANCH  10  11
HETATM   11  C2  UNL     1       6.355   0.997  -0.582  1.00  0.00     0.029 C 
BRANCH  11  12
HETATM   12  C1  UNL     1       5.987   0.768  -2.023  1.00  0.00     0.229 C 
BRANCH  12  13
HETATM   13  N1  UNL     1       7.040   0.058  -2.710  1.00  0.00    -0.079 N 
ATOM     14  H13 UNL     1       7.938   0.533  -2.620  1.00  0.00     0.274 HD
ATOM     15  H12 UNL     1       7.280  -0.814  -2.237  1.00  0.00     0.274 HD
ATOM     16  H11 UNL     1       6.791  -0.097  -3.687  1.00  0.00     0.274 HD
ENDBRANCH  12  13
ENDBRANCH  11  12
ENDBRANCH  10  11
ENDBRANCH   9  10
ENDBRANCH   6   9
ENDBRANCH   4   5
ENDBRANCH   3   4
ENDBRANCH   1   3
BRANCH   2  17
HETATM   17  C10 UNL     1      -2.906   0.117   1.682  1.00  0.00     0.032 C 
BRANCH  17  18
HETATM   18  C11 UNL     1      -3.273   1.370   0.986  1.00  0.00    -0.000 A 
HETATM   19  C12 UNL     1      -3.576   1.585  -0.407  1.00  0.00    -0.002 A 
HETATM   20  C13 UNL     1      -4.033   0.681  -1.454  1.00  0.00     0.030 C 
HETATM   21  C17 UNL     1      -4.674   1.747   0.622  1.00  0.00     0.017 A 
HETATM   22  C14 UNL     1      -5.337  -0.037  -1.259  1.00  0.00     0.117 C 
HETATM   23  C15 UNL     1      -6.404   1.010  -0.912  1.00  0.00     0.158 C 
HETATM   24  N3  UNL     1      -5.504  -0.524   0.058  1.00  0.00    -0.185 NA
HETATM   25  C16 UNL     1      -5.791   0.799   0.486  1.00  0.00     0.121 C 
BRANCH  23  26
HETATM   26  O2  UNL     1      -6.169   2.256  -1.437  1.00  0.00    -0.392 OA
ATOM     27  H2  UNL     1      -6.830   2.904  -1.222  1.00  0.00     0.210 HD
ENDBRANCH  23  26
BRANCH  24  28
HETATM   28  O3  UNL     1      -6.403  -1.457   0.306  1.00  0.00    -0.312 OA
ATOM     29  H3  UNL     1      -6.515  -1.784   1.191  1.00  0.00     0.237 HD
ENDBRANCH  24  28
ENDBRANCH  17  18
ENDBRANCH   2  17
TORSDOF 12
