REMARK  10 active torsions:
REMARK  status: ('A' for Active; 'I' for Inactive)
REMARK       I    between atoms: C1_2  and  N6_23 
REMARK    1  A    between atoms: N2_3  and  C2_5 
REMARK    2  A    between atoms: C2_5  and  C3_6 
REMARK    3  A    between atoms: C3_6  and  C4_7 
REMARK    4  A    between atoms: C4_7  and  O1_8 
REMARK    5  A    between atoms: O1_8  and  C5_9 
REMARK    6  A    between atoms: C5_9  and  C6_10 
REMARK    7  A    between atoms: C6_10  and  N3_11 
REMARK    8  A    between atoms: C6_10  and  C7_15 
REMARK    9  A    between atoms: C7_15  and  C8_16 
REMARK   10  A    between atoms: N6_23  and  C11_25 
ROOT
HETATM    1  C4  UNL     1      -0.259  -1.384   0.564  1.00  0.00     0.169 C 
ENDROOT
BRANCH   1   2
HETATM    2  C3  UNL     1       0.859  -0.613  -0.057  1.00  0.00     0.046 C 
BRANCH   2   3
HETATM    3  C2  UNL     1       2.153  -1.415   0.073  1.00  0.00     0.124 C 
BRANCH   3   4
HETATM    4  N2  UNL     1       3.194  -0.627  -0.540  1.00  0.00    -0.364 N 
HETATM    5  C1  UNL     1       3.895   0.252   0.083  1.00  0.00     0.189 C 
HETATM    6  N1  UNL     1       3.740   0.566   1.454  1.00  0.00    -0.063 NA
HETATM    7  N6  UNL     1       4.885   0.942  -0.671  1.00  0.00    -0.315 N 
ATOM      8  H6  UNL     1       4.620   1.607  -1.398  1.00  0.00     0.170 HD
ATOM      9  H2  UNL     1       3.386  -0.777  -1.531  1.00  0.00     0.162 HD
BRANCH   7  10
HETATM   10  C11 UNL     1       6.126   0.705  -0.411  1.00  0.00     0.137 A 
HETATM   11  C12 UNL     1       7.167   1.314  -1.076  1.00  0.00     0.154 A 
HETATM   12  N7  UNL     1       8.284   0.817  -0.531  1.00  0.00    -0.292 N 
HETATM   13  N8  UNL     1       7.959  -0.056   0.423  1.00  0.00    -0.021 NA
ATOM     14  H7  UNL     1       9.235   1.067  -0.803  1.00  0.00     0.183 HD
HETATM   15  N9  UNL     1       6.630  -0.134   0.508  1.00  0.00    -0.268 N 
ATOM     16  H9  UNL     1       6.097  -0.721   1.150  1.00  0.00     0.186 HD
ENDBRANCH   7  10
ENDBRANCH   3   4
ENDBRANCH   2   3
ENDBRANCH   1   2
BRANCH   1  17
HETATM   17  O1  UNL     1      -1.447  -0.713   0.489  1.00  0.00    -0.389 OA
BRANCH  17  18
HETATM   18  C5  UNL     1      -1.870  -0.437  -0.780  1.00  0.00     0.200 C 
BRANCH  18  19
HETATM   19  C6  UNL     1      -3.204   0.291  -0.714  1.00  0.00     0.212 C 
BRANCH  19  20
HETATM   20  N3  UNL     1      -3.106   1.527   0.009  1.00  0.00    -0.073 N 
ATOM     21  H33 UNL     1      -2.717   1.381   0.941  1.00  0.00     0.274 HD
ATOM     22  H32 UNL     1      -2.376   2.125  -0.378  1.00  0.00     0.274 HD
ATOM     23  H31 UNL     1      -4.001   2.015   0.053  1.00  0.00     0.274 HD
ENDBRANCH  19  20
BRANCH  19  24
HETATM   24  C7  UNL     1      -4.171  -0.621   0.038  1.00  0.00     0.093 C 
BRANCH  24  25
HETATM   25  C8  UNL     1      -5.510   0.039   0.139  1.00  0.00     0.027 A 
HETATM   26  C9  UNL     1      -6.539  -0.093  -0.799  1.00  0.00     0.114 A 
HETATM   27  N4  UNL     1      -7.541   0.649  -0.328  1.00  0.00    -0.360 N 
HETATM   28  C10 UNL     1      -7.227   1.239   0.833  1.00  0.00     0.180 A 
ATOM     29  H4  UNL     1      -8.441   0.755  -0.796  1.00  0.00     0.166 HD
HETATM   30  N5  UNL     1      -5.963   0.849   1.107  1.00  0.00    -0.355 N 
ATOM     31  H5  UNL     1      -5.431   1.130   1.930  1.00  0.00     0.166 HD
ENDBRANCH  24  25
ENDBRANCH  19  24
ENDBRANCH  18  19
ENDBRANCH  17  18
ENDBRANCH   1  17
TORSDOF 10
