REMARK  5 active torsions:
REMARK  status: ('A' for Active; 'I' for Inactive)
REMARK    1  A    between atoms: S1_3  and  N2_4 
REMARK    2  A    between atoms: N2_4  and  N4_9 
REMARK    3  A    between atoms: N3_5  and  O1_7 
REMARK    4  A    between atoms: C3_11  and  C4_12 
REMARK    5  A    between atoms: C4_12  and  O2_13 
ROOT
HETATM    1  N1  UNL     1       4.487  -1.962  -0.761  1.00  0.00    -0.182 NA
HETATM    2  C1  UNL     1       3.961  -1.318   0.044  1.00  0.00     0.159 C 
HETATM    3  S1  UNL     1       3.125  -0.327   1.266  1.00  0.00     0.112 SA
ENDROOT
BRANCH   3   4
HETATM    4  N2  UNL     1       1.858   0.573   0.459  1.00  0.00    -0.126 N 
HETATM    5  N3  UNL     1       1.934   1.827   0.476  1.00  0.00    -0.181 N 
ATOM      6  H3  UNL     1       2.735   2.230   0.962  1.00  0.00     0.218 HD
BRANCH   5   7
HETATM    7  O1  UNL     1       1.065   2.695  -0.083  1.00  0.00    -0.272 OA
ATOM      8  H1  UNL     1       1.122   3.643  -0.070  1.00  0.00     0.246 HD
ENDBRANCH   5   7
BRANCH   4   9
HETATM    9  N4  UNL     1       0.804  -0.039  -0.181  1.00  0.00    -0.236 N 
HETATM   10  C2  UNL     1      -0.045  -1.061   0.390  1.00  0.00     0.167 C 
HETATM   11  C3  UNL     1      -1.445  -0.837  -0.098  1.00  0.00     0.041 C 
HETATM   12  C5  UNL     1      -1.403  -0.757  -1.612  1.00  0.00     0.107 C 
HETATM   13  S2  UNL     1       0.156   0.194  -1.828  1.00  0.00    -0.033 SA
BRANCH  11  14
HETATM   14  C4  UNL     1      -2.035   0.445   0.465  1.00  0.00     0.171 C 
BRANCH  14  15
HETATM   15  O2  UNL     1      -2.087   0.433   1.840  1.00  0.00    -0.400 OA
ATOM     16  H2  UNL     1      -2.456   1.235   2.192  1.00  0.00     0.209 HD
ENDBRANCH  14  15
ENDBRANCH  11  14
ENDBRANCH   4   9
ENDBRANCH   3   4
TORSDOF 5
