REMARK  5 active torsions:
REMARK  status: ('A' for Active; 'I' for Inactive)
REMARK    1  A    between atoms: C2_2  and  C3_3 
REMARK    2  A    between atoms: C3_3  and  C4_4 
REMARK    3  A    between atoms: C4_4  and  C5_5 
REMARK    4  A    between atoms: C5_5  and  C6_6 
REMARK    5  A    between atoms: C14_21  and  C15_22 
ROOT
HETATM    1  C6  UNL     1       0.069   0.591   0.396  1.00  0.00     0.095 A 
HETATM    2  N1  UNL     1      -0.620   1.747   0.529  1.00  0.00    -0.334 N 
ATOM      3  H1  UNL     1      -0.118   2.593   0.800  1.00  0.00     0.168 HD
HETATM    4  C7  UNL     1      -1.959   1.817   0.313  1.00  0.00     0.118 A 
HETATM    5  N2  UNL     1      -2.581   3.008   0.466  1.00  0.00    -0.328 N 
ATOM      6  H2  UNL     1      -2.059   3.841   0.738  1.00  0.00     0.169 HD
HETATM    7  C8  UNL     1      -3.907   3.064   0.250  1.00  0.00     0.100 A 
HETATM    8  N3  UNL     1      -4.528   4.177   0.385  1.00  0.00    -0.385 N 
ATOM      9  H31 UNL     1      -5.534   4.219   0.221  1.00  0.00     0.157 HD
ATOM     10  H32 UNL     1      -4.017   5.017   0.656  1.00  0.00     0.157 HD
HETATM   11  C9  UNL     1      -4.598   1.928  -0.116  1.00  0.00     0.055 A 
HETATM   12  C10 UNL     1      -3.964   0.726  -0.269  1.00  0.00    -0.044 A 
HETATM   13  C11 UNL     1      -4.681  -0.522  -0.664  1.00  0.00     0.049 C 
HETATM   14  C12 UNL     1      -2.602   0.674  -0.046  1.00  0.00     0.015 A 
HETATM   15  C13 UNL     1      -1.897  -0.525  -0.186  1.00  0.00     0.026 A 
HETATM   16  C14 UNL     1      -0.538  -0.594   0.033  1.00  0.00    -0.014 A 
ENDROOT
BRANCH   1  17
HETATM   17  C5  UNL     1       1.484   0.523   0.625  1.00  0.00    -0.048 C 
BRANCH  17  18
HETATM   18  C4  UNL     1       2.669   0.487   0.826  1.00  0.00    -0.100 C 
BRANCH  18  19
HETATM   19  C3  UNL     1       4.109   0.448   1.092  1.00  0.00     0.094 C 
BRANCH  19  20
HETATM   20  C2  UNL     1       4.807   1.059  -0.102  1.00  0.00     0.007 C 
HETATM   21  C1  UNL     1       6.322   1.047   0.115  1.00  0.00     0.006 C 
ENDBRANCH  19  20
ENDBRANCH  18  19
ENDBRANCH  17  18
ENDBRANCH   1  17
BRANCH  16  22
HETATM   22  C15 UNL     1       0.134  -1.850  -0.126  1.00  0.00    -0.021 C 
HETATM   23  C16 UNL     1      -0.896  -2.892  -0.529  1.00  0.00     0.019 C 
HETATM   24  C17 UNL     1       1.281  -1.997  -1.020  1.00  0.00     0.019 C 
HETATM   25  C18 UNL     1       0.598  -2.306   1.271  1.00  0.00     0.019 C 
ENDBRANCH  16  22
TORSDOF 5
