REMARK  0 active torsions:
REMARK  status: ('A' for Active; 'I' for Inactive)
ROOT
HETATM    1  O1  UNL     1      -2.777  -0.319  -3.591  1.00  0.00    -0.265 OA
HETATM    2  C1  UNL     1      -2.424  -0.268  -2.377  1.00  0.00     0.281 A 
HETATM    3  N1  UNL     1      -3.331  -0.343  -1.402  1.00  0.00    -0.320 N 
ATOM      4  H1  UNL     1      -4.320  -0.442  -1.630  1.00  0.00     0.169 HD
HETATM    5  C2  UNL     1      -2.932  -0.287  -0.100  1.00  0.00     0.046 A 
HETATM    6  C3  UNL     1      -3.896  -0.367   0.890  1.00  0.00     0.030 A 
HETATM    7  C4  UNL     1      -3.593  -0.320   2.233  1.00  0.00     0.002 A 
HETATM    8  C5  UNL     1      -2.269  -0.186   2.582  1.00  0.00     0.001 A 
HETATM    9  C6  UNL     1      -1.307  -0.106   1.583  1.00  0.00     0.014 A 
HETATM   10  C7  UNL     1      -1.598  -0.152   0.239  1.00  0.00     0.005 A 
HETATM   11  C8  UNL     1      -0.671  -0.076  -0.768  1.00  0.00     0.031 A 
HETATM   12  C9  UNL     1      -1.087  -0.134  -2.105  1.00  0.00     0.157 A 
HETATM   13  O2  UNL     1      -0.039  -0.043  -2.890  1.00  0.00    -0.286 OA
HETATM   14  C10 UNL     1       1.036   0.072  -2.156  1.00  0.00     0.161 A 
HETATM   15  N2  UNL     1       2.371   0.201  -2.216  1.00  0.00    -0.335 N 
ATOM     16  H2  UNL     1       2.919   0.243  -3.075  1.00  0.00     0.168 HD
HETATM   17  C11 UNL     1       2.868   0.266  -0.989  1.00  0.00     0.045 A 
HETATM   18  C12 UNL     1       4.180   0.399  -0.594  1.00  0.00     0.030 A 
HETATM   19  C13 UNL     1       4.531   0.451   0.746  1.00  0.00     0.002 A 
HETATM   20  C14 UNL     1       3.531   0.366   1.687  1.00  0.00     0.001 A 
HETATM   21  C15 UNL     1       2.229   0.234   1.252  1.00  0.00     0.014 A 
HETATM   22  C16 UNL     1       1.822   0.177  -0.052  1.00  0.00     0.006 A 
HETATM   23  C17 UNL     1       0.687   0.056  -0.801  1.00  0.00     0.042 A 
ENDROOT
TORSDOF 0
