REMARK  14 active torsions:
REMARK  status: ('A' for Active; 'I' for Inactive)
REMARK    1  A    between atoms: O1_2  and  C2_3 
REMARK    2  A    between atoms: C4_5  and  C5_6 
REMARK    3  A    between atoms: C5_6  and  O2_7 
REMARK    4  A    between atoms: C5_6  and  N1_9 
REMARK    5  A    between atoms: N1_9  and  C6_12 
REMARK    6  A    between atoms: C6_12  and  C7_13 
REMARK    7  A    between atoms: C6_12  and  C9_19 
REMARK    8  A    between atoms: C7_13  and  C8_14 
REMARK    9  A    between atoms: C8_14  and  O3_15 
REMARK   10  A    between atoms: C8_14  and  O4_17 
REMARK   11  A    between atoms: C11_21  and  O5_22 
REMARK   12  A    between atoms: C13_24  and  O6_25 
REMARK   13  A    between atoms: C17_31  and  O9_32 
REMARK   14  A    between atoms: C19_34  and  O10_35 
ROOT
HETATM    1  N1  UNL     1       0.268  -0.010  -0.052  1.00  0.00    -0.034 N 
ATOM      2  H11 UNL     1       0.308   0.706   0.673  1.00  0.00     0.281 HD
ATOM      3  H12 UNL     1       0.297  -0.836   0.546  1.00  0.00     0.281 HD
ENDROOT
BRANCH   1   4
HETATM    4  C5  UNL     1       1.413   0.054  -0.930  1.00  0.00     0.354 C 
BRANCH   4   5
HETATM    5  C4  UNL     1       2.705  -0.048  -0.255  1.00  0.00     0.003 A 
HETATM    6  C3  UNL     1       3.835   0.272  -1.012  1.00  0.00     0.051 A 
HETATM    7  C2  UNL     1       5.109   0.216  -0.504  1.00  0.00     0.104 A 
HETATM    8  C19 UNL     1       5.254  -0.176   0.818  1.00  0.00     0.133 A 
HETATM    9  C17 UNL     1       4.160  -0.505   1.617  1.00  0.00     0.104 A 
HETATM   10  C16 UNL     1       2.907  -0.431   1.053  1.00  0.00     0.051 A 
BRANCH   7  11
HETATM   11  O1  UNL     1       6.232   0.538  -1.269  1.00  0.00    -0.353 OA
HETATM   12  C1  UNL     1       6.018   0.932  -2.614  1.00  0.00     0.210 C 
ENDBRANCH   7  11
BRANCH   8  13
HETATM   13  O10 UNL     1       6.505  -0.247   1.372  1.00  0.00    -0.356 OA
ATOM     14  H10 UNL     1       6.604  -0.516   2.278  1.00  0.00     0.218 HD
ENDBRANCH   8  13
BRANCH   9  15
HETATM   15  O9  UNL     1       4.369  -0.890   2.931  1.00  0.00    -0.353 OA
HETATM   16  C18 UNL     1       3.364  -1.244   3.834  1.00  0.00     0.210 C 
ENDBRANCH   9  15
ENDBRANCH   4   5
BRANCH   4  17
HETATM   17  O2  UNL     1       1.430   1.257  -1.654  1.00  0.00    -0.366 OA
ATOM     18  H2  UNL     1       0.590   1.323  -2.093  1.00  0.00     0.212 HD
ENDBRANCH   4  17
ENDBRANCH   1   4
BRANCH   1  19
HETATM   19  C6  UNL     1      -0.956   0.061  -0.802  1.00  0.00     0.250 C 
BRANCH  19  20
HETATM   20  C7  UNL     1      -1.202  -1.064  -1.745  1.00  0.00     0.100 C 
BRANCH  20  21
HETATM   21  C8  UNL     1      -1.292  -2.424  -1.158  1.00  0.00     0.256 C 
BRANCH  21  22
HETATM   22  O3  UNL     1      -0.193  -2.880  -0.483  1.00  0.00    -0.371 OA
ATOM     23  H3  UNL     1      -0.251  -3.751  -0.107  1.00  0.00     0.212 HD
ENDBRANCH  21  22
BRANCH  21  24
HETATM   24  O4  UNL     1      -1.510  -3.306  -2.245  1.00  0.00    -0.371 OA
ATOM     25  H4  UNL     1      -1.568  -4.177  -1.869  1.00  0.00     0.212 HD
ENDBRANCH  21  24
ENDBRANCH  20  21
ENDBRANCH  19  20
BRANCH  19  26
HETATM   26  C9  UNL     1      -2.129   0.317   0.073  1.00  0.00     0.090 A 
HETATM   27  C10 UNL     1      -3.087   1.230  -0.307  1.00  0.00     0.074 A 
HETATM   28  C11 UNL     1      -4.206   1.518   0.460  1.00  0.00     0.110 A 
HETATM   29  C13 UNL     1      -4.348   0.845   1.659  1.00  0.00     0.178 A 
HETATM   30  C15 UNL     1      -3.362  -0.059   1.995  1.00  0.00     0.324 A 
HETATM   31  O7  UNL     1      -3.522  -0.660   3.101  1.00  0.00    -0.257 OA
HETATM   32  O8  UNL     1      -2.311  -0.295   1.221  1.00  0.00    -0.276 OA
BRANCH  28  33
HETATM   33  O5  UNL     1      -5.149   2.442   0.046  1.00  0.00    -0.353 OA
HETATM   34  C12 UNL     1      -4.975   3.112  -1.186  1.00  0.00     0.210 C 
ENDBRANCH  28  33
BRANCH  29  35
HETATM   35  O6  UNL     1      -5.440   1.094   2.457  1.00  0.00    -0.348 OA
HETATM   36  C14 UNL     1      -6.624   0.334   2.297  1.00  0.00     0.210 C 
ENDBRANCH  29  35
ENDBRANCH  19  26
ENDBRANCH   1  19
TORSDOF 14
