REMARK  13 active torsions:
REMARK  status: ('A' for Active; 'I' for Inactive)
REMARK    1  A    between atoms: O1_2  and  C2_3 
REMARK    2  A    between atoms: C6_8  and  O2_9 
REMARK    3  A    between atoms: C9_12  and  N2_13 
REMARK    4  A    between atoms: N2_13  and  C10_15 
REMARK    5  A    between atoms: C10_15  and  C11_16 
REMARK    6  A    between atoms: C10_15  and  C12_19 
REMARK    7  A    between atoms: C11_16  and  O3_17 
REMARK    8  A    between atoms: C12_19  and  O4_20 
REMARK    9  A    between atoms: C13_22  and  N3_23 
REMARK   10  A    between atoms: N3_23  and  C14_25 
REMARK   11  A    between atoms: C14_25  and  O5_26 
REMARK   12  A    between atoms: C14_25  and  C15_28 
REMARK   13  A    between atoms: C15_28  and  O6_30 
ROOT
HETATM    1  C2  UNL     1       3.326   2.665  -0.043  1.00  0.00     0.104 A 
HETATM    2  C3  UNL     1       4.307   2.019   0.661  1.00  0.00     0.065 A 
HETATM    3  C4  UNL     1       4.060   0.762   1.174  1.00  0.00     0.081 A 
HETATM    4  C5  UNL     1       5.052   0.078   1.928  1.00  0.00     0.102 C 
HETATM    5  N1  UNL     1       5.874  -0.458   2.557  1.00  0.00    -0.191 NA
HETATM    6  C6  UNL     1       2.833   0.137   0.987  1.00  0.00     0.104 A 
HETATM    7  C8  UNL     1       1.849   0.772   0.296  1.00  0.00     0.065 A 
HETATM    8  C9  UNL     1       0.561   0.260   0.068  1.00  0.00     0.077 A 
HETATM    9  C13 UNL     1      -0.373   0.990  -0.641  1.00  0.00     0.134 A 
HETATM   10  C18 UNL     1       0.011   2.253  -1.119  1.00  0.00     0.317 A 
HETATM   11  O7  UNL     1      -0.876   2.886  -1.770  1.00  0.00    -0.257 OA
HETATM   12  O8  UNL     1       1.187   2.711  -0.898  1.00  0.00    -0.270 OA
HETATM   13  C19 UNL     1       2.096   2.056  -0.231  1.00  0.00     0.128 A 
ENDROOT
BRANCH   6  14
HETATM   14  O2  UNL     1       2.656  -1.133   1.512  1.00  0.00    -0.353 OA
HETATM   15  C7  UNL     1       3.176  -2.261   0.798  1.00  0.00     0.210 C 
ENDBRANCH   6  14
BRANCH   1  16
HETATM   16  O1  UNL     1       3.522   3.923  -0.580  1.00  0.00    -0.353 OA
HETATM   17  C1  UNL     1       4.777   4.554  -0.393  1.00  0.00     0.210 C 
ENDBRANCH   1  16
BRANCH   8  18
HETATM   18  N2  UNL     1       0.174  -0.948   0.659  1.00  0.00    -0.378 N 
ATOM     19  H2  UNL     1       0.496  -1.076   1.618  1.00  0.00     0.160 HD
BRANCH  18  20
HETATM   20  C10 UNL     1      -0.601  -2.035   0.137  1.00  0.00     0.129 C 
BRANCH  20  21
HETATM   21  C11 UNL     1      -0.900  -3.140   1.132  1.00  0.00     0.191 C 
BRANCH  21  22
HETATM   22  O3  UNL     1       0.122  -3.800   1.688  1.00  0.00    -0.399 OA
ATOM     23  H3  UNL     1      -0.065  -4.492   2.311  1.00  0.00     0.209 HD
ENDBRANCH  21  22
ENDBRANCH  20  21
BRANCH  20  24
HETATM   24  C12 UNL     1      -0.146  -2.587  -1.184  1.00  0.00     0.191 C 
BRANCH  24  25
HETATM   25  O4  UNL     1      -0.994  -3.633  -1.604  1.00  0.00    -0.399 OA
ATOM     26  H4  UNL     1      -0.706  -3.982  -2.439  1.00  0.00     0.209 HD
ENDBRANCH  24  25
ENDBRANCH  20  24
ENDBRANCH  18  20
ENDBRANCH   8  18
BRANCH   9  27
HETATM   27  N3  UNL     1      -1.725   0.611  -0.883  1.00  0.00    -0.355 N 
ATOM     28  H3  UNL     1      -1.963  -0.014  -1.653  1.00  0.00     0.162 HD
BRANCH  27  29
HETATM   29  C14 UNL     1      -2.745   1.133  -0.014  1.00  0.00     0.247 C 
BRANCH  29  30
HETATM   30  O5  UNL     1      -2.555   0.786   1.315  1.00  0.00    -0.374 OA
ATOM     31  H5  UNL     1      -3.229   1.131   1.889  1.00  0.00     0.212 HD
ENDBRANCH  29  30
BRANCH  29  32
HETATM   32  C15 UNL     1      -4.138   0.769  -0.459  1.00  0.00     0.165 C 
HETATM   33  C16 UNL     1      -4.496   1.345  -1.794  1.00  0.00     0.044 C 
BRANCH  32  34
HETATM   34  O6  UNL     1      -4.324  -0.594  -0.501  1.00  0.00    -0.387 OA
HETATM   35  C17 UNL     1      -5.336  -1.014   0.381  1.00  0.00     0.202 C 
ENDBRANCH  32  34
ENDBRANCH  29  32
ENDBRANCH  27  29
ENDBRANCH   9  27
TORSDOF 13
