REMARK  13 active torsions:
REMARK  status: ('A' for Active; 'I' for Inactive)
REMARK    1  A    between atoms: C2_2  and  C3_4 
REMARK    2  A    between atoms: C3_4  and  N1_5 
REMARK    3  A    between atoms: C3_4  and  C10_23 
REMARK    4  A    between atoms: N1_5  and  C4_7 
REMARK    5  A    between atoms: C4_7  and  S1_8 
REMARK    6  A    between atoms: C4_7  and  C5_14 
REMARK    7  A    between atoms: S1_8  and  N2_9 
REMARK    8  A    between atoms: N2_9  and  N3_10 
REMARK       I    between atoms: C10_23  and  N5_25 
REMARK    9  A    between atoms: N5_25  and  C11_27 
REMARK   10  A    between atoms: C11_27  and  C12_28 
REMARK   11  A    between atoms: C11_27  and  C15_33 
REMARK   12  A    between atoms: C12_28  and  C13_29 
REMARK   13  A    between atoms: C13_29  and  C14_30 
ROOT
HETATM    1  N1  UNL     1      -0.833   0.177   1.136  1.00  0.00    -0.366 N 
ATOM      2  H1  UNL     1      -0.563   0.909   1.793  1.00  0.00     0.161 HD
ENDROOT
BRANCH   1   3
HETATM    3  C3  UNL     1       0.244  -0.486   0.444  1.00  0.00     0.244 C 
BRANCH   3   4
HETATM    4  C2  UNL     1       0.287  -0.058  -0.986  1.00  0.00     0.154 C 
HETATM    5  C1  UNL     1       1.226  -0.600  -1.987  1.00  0.00     0.093 C 
HETATM    6  O1  UNL     1      -0.518   0.801  -1.339  1.00  0.00    -0.296 OA
ENDBRANCH   3   4
BRANCH   3   7
HETATM    7  C10 UNL     1       1.503  -0.204   1.164  1.00  0.00     0.248 C 
HETATM    8  O3  UNL     1       1.477   0.573   2.149  1.00  0.00    -0.271 OA
HETATM    9  N5  UNL     1       2.736  -0.777   0.788  1.00  0.00    -0.344 N 
ATOM     10  H5  UNL     1       2.773  -1.414  -0.008  1.00  0.00     0.163 HD
BRANCH   9  11
HETATM   11  C11 UNL     1       3.954  -0.472   1.519  1.00  0.00     0.186 C 
BRANCH  11  12
HETATM   12  C12 UNL     1       4.993   0.169   0.654  1.00  0.00     0.046 C 
BRANCH  12  13
HETATM   13  C13 UNL     1       5.419  -0.674  -0.501  1.00  0.00     0.116 C 
BRANCH  13  14
HETATM   14  C14 UNL     1       6.443   0.057  -1.281  1.00  0.00     0.172 C 
HETATM   15  O4  UNL     1       6.813   1.203  -0.927  1.00  0.00    -0.648 OA
HETATM   16  O5  UNL     1       6.981  -0.547  -2.405  1.00  0.00    -0.648 OA
ENDBRANCH  13  14
ENDBRANCH  12  13
ENDBRANCH  11  12
BRANCH  11  17
HETATM   17  C15 UNL     1       4.544  -1.696   2.122  1.00  0.00     0.196 C 
HETATM   18  O6  UNL     1       4.038  -2.841   2.004  1.00  0.00    -0.646 OA
HETATM   19  O7  UNL     1       5.714  -1.593   2.859  1.00  0.00    -0.646 OA
ENDBRANCH  11  17
ENDBRANCH   9  11
ENDBRANCH   3   7
ENDBRANCH   1   3
BRANCH   1  20
HETATM   20  C4  UNL     1      -2.218  -0.068   1.010  1.00  0.00     0.084 C 
BRANCH  20  21
HETATM   21  S1  UNL     1      -2.878  -1.219   0.111  1.00  0.00     0.007 SA
BRANCH  21  22
HETATM   22  N2  UNL     1      -1.935  -2.352  -0.855  1.00  0.00    -0.096 NA
HETATM   23  S2  UNL     1      -1.927  -3.936  -0.144  1.00  0.00     0.043 SA
BRANCH  22  24
HETATM   24  N3  UNL     1      -2.413  -2.411  -2.176  1.00  0.00    -0.343 NA
ATOM     25  H32 UNL     1      -2.418  -1.480  -2.594  1.00  0.00     0.172 HD
ATOM     26  H31 UNL     1      -1.867  -3.067  -2.735  1.00  0.00     0.172 HD
ENDBRANCH  22  24
ENDBRANCH  21  22
ENDBRANCH  20  21
BRANCH  20  27
HETATM   27  C5  UNL     1      -3.153   0.800   1.838  1.00  0.00     0.199 C 
HETATM   28  S3  UNL     1      -4.865   0.315   1.489  1.00  0.00    -0.117 SA
HETATM   29  C6  UNL     1      -5.306   1.694   0.356  1.00  0.00     0.075 C 
HETATM   30  C7  UNL     1      -5.877   1.171  -0.921  1.00  0.00     0.050 C 
HETATM   31  C8  UNL     1      -6.268   2.640   1.019  1.00  0.00     0.050 C 
HETATM   32  N4  UNL     1      -4.012   2.310   0.190  1.00  0.00    -0.342 N 
HETATM   33  C9  UNL     1      -3.171   2.191   1.300  1.00  0.00     0.239 C 
ATOM     34  H4  UNL     1      -3.734   2.792  -0.665  1.00  0.00     0.164 HD
HETATM   35  O2  UNL     1      -2.462   3.098   1.862  1.00  0.00    -0.272 OA
ENDBRANCH  20  27
ENDBRANCH   1  20
TORSDOF 13
