REMARK  11 active torsions:
REMARK  status: ('A' for Active; 'I' for Inactive)
REMARK    1  A    between atoms: C2_2  and  C3_3 
REMARK    2  A    between atoms: C2_2  and  N3_13 
REMARK    3  A    between atoms: C3_3  and  C4_4 
REMARK    4  A    between atoms: C6_7  and  N1_8 
REMARK       I    between atoms: N3_13  and  C7_15 
REMARK    5  A    between atoms: C7_15  and  C8_17 
REMARK    6  A    between atoms: C8_17  and  N4_19 
REMARK    7  A    between atoms: N4_19  and  C10_21 
REMARK    8  A    between atoms: C10_21  and  C12_24 
REMARK    9  A    between atoms: C12_24  and  N6_25 
REMARK   10  A    between atoms: C14_27  and  C15_28 
REMARK   11  A    between atoms: C15_28  and  C16_30 
ROOT
HETATM    1  C10 UNL     1       1.603   1.005   0.540  1.00  0.00     0.204 C 
HETATM    2  C11 UNL     1       1.855   1.442  -0.858  1.00  0.00     0.086 C 
HETATM    3  N5  UNL     1       2.054   1.825  -1.938  1.00  0.00    -0.195 NA
ENDROOT
BRANCH   1   4
HETATM    4  N4  UNL     1       0.605   1.774   1.125  1.00  0.00    -0.392 N 
ATOM      5  H4  UNL     1       0.885   2.342   1.924  1.00  0.00     0.155 HD
BRANCH   4   6
HETATM    6  C8  UNL     1      -0.715   1.859   0.753  1.00  0.00     0.166 C 
HETATM    7  C9  UNL     1      -1.411   3.049   1.466  1.00  0.00     0.042 C 
BRANCH   6   8
HETATM    8  C7  UNL     1      -1.548   0.689   1.055  1.00  0.00     0.240 C 
HETATM    9  N3  UNL     1      -2.884   0.560   0.516  1.00  0.00    -0.355 N 
ATOM     10  H3  UNL     1      -3.236   1.306  -0.084  1.00  0.00     0.162 HD
HETATM   11  O1  UNL     1      -1.124  -0.232   1.791  1.00  0.00    -0.271 OA
BRANCH   9  12
HETATM   12  C2  UNL     1      -3.734  -0.550   0.776  1.00  0.00     0.086 C 
HETATM   13  C1  UNL     1      -4.962  -0.205   1.614  1.00  0.00     0.032 C 
BRANCH  12  14
HETATM   14  C3  UNL     1      -4.119  -1.363  -0.430  1.00  0.00     0.082 C 
BRANCH  14  15
HETATM   15  C4  UNL     1      -5.091  -0.591  -1.300  1.00  0.00     0.019 A 
HETATM   16  C5  UNL     1      -6.438  -0.694  -1.086  1.00  0.00     0.078 A 
HETATM   17  S1  UNL     1      -7.071   0.344  -2.284  1.00  0.00    -0.064 SA
HETATM   18  C6  UNL     1      -5.604   0.845  -2.982  1.00  0.00     0.142 A 
HETATM   19  N2  UNL     1      -4.685   0.194  -2.265  1.00  0.00    -0.340 N 
ATOM     20  H2  UNL     1      -3.691   0.306  -2.464  1.00  0.00     0.167 HD
BRANCH  18  21
HETATM   21  N1  UNL     1      -5.431   1.676  -3.985  1.00  0.00    -0.380 N 
ATOM     22  H12 UNL     1      -6.133   2.173  -4.533  1.00  0.00     0.158 HD
ATOM     23  H11 UNL     1      -4.551   1.977  -4.404  1.00  0.00     0.158 HD
ENDBRANCH  18  21
ENDBRANCH  14  15
ENDBRANCH  12  14
ENDBRANCH   9  12
ENDBRANCH   6   8
ENDBRANCH   4   6
ENDBRANCH   1   4
BRANCH   1  24
HETATM   24  C12 UNL     1       1.637  -0.461   0.623  1.00  0.00     0.173 C 
BRANCH  24  25
HETATM   25  N6  UNL     1       2.831  -0.967  -0.076  1.00  0.00    -0.306 N 
HETATM   26  C13 UNL     1       4.043  -0.908   0.560  1.00  0.00     0.117 A 
HETATM   27  C14 UNL     1       5.217  -1.308  -0.018  1.00  0.00     0.103 A 
HETATM   28  C17 UNL     1       5.152  -1.804  -1.336  1.00  0.00     0.265 A 
HETATM   29  O4  UNL     1       6.214  -2.170  -1.870  1.00  0.00    -0.267 OA
HETATM   30  N8  UNL     1       3.966  -1.853  -1.932  1.00  0.00    -0.275 N 
HETATM   31  C18 UNL     1       2.817  -1.446  -1.324  1.00  0.00     0.329 A 
ATOM     32  H8  UNL     1       3.913  -2.211  -2.886  1.00  0.00     0.173 HD
HETATM   33  O5  UNL     1       1.739  -1.529  -1.947  1.00  0.00    -0.246 OA
BRANCH  27  34
HETATM   34  C15 UNL     1       6.494  -1.245   0.638  1.00  0.00     0.253 C 
HETATM   35  O2  UNL     1       7.523  -1.590  -0.060  1.00  0.00    -0.282 OA
BRANCH  34  36
HETATM   36  C16 UNL     1       6.769  -0.847   1.975  1.00  0.00     0.305 C 
HETATM   37  N7  UNL     1       8.113  -0.828   2.485  1.00  0.00    -0.054 NA
HETATM   38  O3  UNL     1       5.894  -0.496   2.782  1.00  0.00    -0.267 OA
ENDBRANCH  34  36
ENDBRANCH  27  34
ENDBRANCH  24  25
ENDBRANCH   1  24
TORSDOF 11
