REMARK  7 active torsions:
REMARK  status: ('A' for Active; 'I' for Inactive)
REMARK    1  A    between atoms: C2_2  and  O2_4 
REMARK    2  A    between atoms: O2_4  and  C3_5 
REMARK    3  A    between atoms: C3_5  and  C6_8 
REMARK    4  A    between atoms: C6_8  and  O4_10 
REMARK    5  A    between atoms: O4_10  and  C7_11 
REMARK    6  A    between atoms: C11_15  and  O5_16 
REMARK    7  A    between atoms: C12_18  and  O6_19 
ROOT
HETATM    1  C7  UNL     1       1.371  -0.336   0.229  1.00  0.00     0.163 C 
HETATM    2  C8  UNL     1       2.160  -1.623   0.108  1.00  0.00     0.035 C 
HETATM    3  C9  UNL     1       3.255  -1.615   1.135  1.00  0.00     0.005 C 
HETATM    4  C10 UNL     1       3.888  -0.248   1.194  1.00  0.00     0.034 C 
HETATM    5  C11 UNL     1       3.677   0.540  -0.080  1.00  0.00     0.149 C 
HETATM    6  C12 UNL     1       2.222   0.768  -0.389  1.00  0.00     0.176 C 
ENDROOT
BRANCH   1   7
HETATM    7  O4  UNL     1       0.141  -0.425  -0.471  1.00  0.00    -0.311 OA
BRANCH   7   8
HETATM    8  C6  UNL     1      -1.083  -0.230   0.131  1.00  0.00     0.294 C 
HETATM    9  O3  UNL     1      -1.150   0.040   1.352  1.00  0.00    -0.262 OA
BRANCH   8  10
HETATM   10  C3  UNL     1      -2.347  -0.333  -0.639  1.00  0.00     0.150 C 
HETATM   11  C4  UNL     1      -2.434  -1.803  -1.083  1.00  0.00     0.057 C 
HETATM   12  C5  UNL     1      -2.272   0.483  -1.899  1.00  0.00     0.057 C 
BRANCH  10  13
HETATM   13  O2  UNL     1      -3.476  -0.097   0.133  1.00  0.00    -0.301 OA
BRANCH  13  14
HETATM   14  C2  UNL     1      -3.834   1.089   0.745  1.00  0.00     0.256 C 
HETATM   15  C1  UNL     1      -5.082   1.212   1.555  1.00  0.00     0.126 C 
HETATM   16  O1  UNL     1      -3.049   2.061   0.584  1.00  0.00    -0.266 OA
ENDBRANCH  13  14
ENDBRANCH  10  13
ENDBRANCH   8  10
ENDBRANCH   7   8
ENDBRANCH   1   7
BRANCH   6  17
HETATM   17  O6  UNL     1       1.801   2.020   0.058  1.00  0.00    -0.390 OA
ATOM     18  H6  UNL     1       2.331   2.708  -0.327  1.00  0.00     0.210 HD
ENDBRANCH   6  17
BRANCH   5  19
HETATM   19  O5  UNL     1       4.282   1.781   0.103  1.00  0.00    -0.393 OA
ATOM     20  H5  UNL     1       4.149   2.276  -0.697  1.00  0.00     0.210 HD
ENDBRANCH   5  19
TORSDOF 7
