REMARK  5 active torsions:
REMARK  status: ('A' for Active; 'I' for Inactive)
REMARK    1  A    between atoms: C2_2  and  O1_3 
REMARK    2  A    between atoms: C2_2  and  C11_18 
REMARK    3  A    between atoms: O1_3  and  C3_4 
REMARK    4  A    between atoms: C7_8  and  O2_9 
REMARK    5  A    between atoms: C8_11  and  O3_12 
ROOT
HETATM    1  C3  UNL     1       1.165  -0.414  -0.507  1.00  0.00     0.146 C 
HETATM    2  C4  UNL     1      -0.076  -0.175  -0.813  1.00  0.00    -0.046 C 
HETATM    3  C5  UNL     1      -0.737  -1.100  -1.803  1.00  0.00     0.039 C 
HETATM    4  C6  UNL     1      -2.054  -1.566  -1.288  1.00  0.00     0.041 C 
HETATM    5  C7  UNL     1      -2.902  -0.404  -0.749  1.00  0.00     0.184 C 
HETATM    6  C8  UNL     1      -2.127   0.194   0.350  1.00  0.00     0.231 C 
HETATM    7  O4  UNL     1      -2.636   1.258   1.016  1.00  0.00    -0.197 OA
HETATM    8  O5  UNL     1      -1.710   2.069   1.406  1.00  0.00    -0.237 OA
HETATM    9  C9  UNL     1      -0.472   1.614   0.920  1.00  0.00     0.225 C 
HETATM   10  C10 UNL     1      -0.918   0.894  -0.312  1.00  0.00     0.111 C 
ENDROOT
BRANCH   1  11
HETATM   11  O1  UNL     1       1.867   0.383   0.398  1.00  0.00    -0.316 OA
BRANCH  11  12
HETATM   12  C2  UNL     1       3.244   0.468   0.366  1.00  0.00     0.141 C 
HETATM   13  C1  UNL     1       3.843   0.180  -0.779  1.00  0.00     0.058 C 
BRANCH  12  14
HETATM   14  C11 UNL     1       3.984   0.857   1.544  1.00  0.00     0.233 C 
HETATM   15  O6  UNL     1       5.227   0.926   1.490  1.00  0.00    -0.642 OA
HETATM   16  O7  UNL     1       3.320   1.146   2.711  1.00  0.00    -0.642 OA
ENDBRANCH  12  14
ENDBRANCH  11  12
ENDBRANCH   1  11
BRANCH   6  17
HETATM   17  O3  UNL     1      -1.667  -0.742   1.274  1.00  0.00    -0.361 OA
ATOM     18  H3  UNL     1      -1.167  -0.356   1.983  1.00  0.00     0.213 HD
ENDBRANCH   6  17
BRANCH   5  19
HETATM   19  O2  UNL     1      -4.053  -1.000  -0.221  1.00  0.00    -0.390 OA
ATOM     20  H2  UNL     1      -4.577  -0.281   0.112  1.00  0.00     0.210 HD
ENDBRANCH   5  19
TORSDOF 5
