REMARK  5 active torsions:
REMARK  status: ('A' for Active; 'I' for Inactive)
REMARK    1  A    between atoms: S1_2  and  C2_3 
REMARK    2  A    between atoms: C2_3  and  C3_4 
REMARK    3  A    between atoms: N3_10  and  C5_12 
REMARK    4  A    between atoms: C8_15  and  O1_16 
REMARK    5  A    between atoms: C9_18  and  O2_19 
ROOT
HETATM    1  C3  UNL     1       2.591   1.115   0.237  1.00  0.00     0.079 A 
HETATM    2  N1  UNL     1       2.237   1.626   1.407  1.00  0.00    -0.295 N 
ATOM      3  H1  UNL     1       2.944   2.048   2.010  1.00  0.00     0.187 HD
HETATM    4  N2  UNL     1       1.029   1.595   1.782  1.00  0.00    -0.279 N 
ATOM      5  H2  UNL     1       0.756   1.988   2.682  1.00  0.00     0.189 HD
HETATM    6  C4  UNL     1       0.118   1.039   0.980  1.00  0.00     0.161 A 
HETATM    7  N3  UNL     1      -1.173   0.898   1.161  1.00  0.00    -0.362 N 
ATOM      8  H3  UNL     1      -1.630   1.233   2.009  1.00  0.00     0.162 HD
HETATM    9  S2  UNL     1       1.073   0.555  -0.352  1.00  0.00    -0.037 SA
ENDROOT
BRANCH   7  10
HETATM   10  C5  UNL     1      -1.921   0.249   0.111  1.00  0.00     0.115 C 
HETATM   11  C6  UNL     1      -1.848  -1.253   0.174  1.00  0.00     0.030 C 
HETATM   12  C7  UNL     1      -3.082  -1.633  -0.655  1.00  0.00     0.036 C 
HETATM   13  C8  UNL     1      -4.129  -0.750  -0.000  1.00  0.00     0.149 C 
HETATM   14  C9  UNL     1      -3.370   0.561   0.190  1.00  0.00     0.169 C 
BRANCH  13  15
HETATM   15  O1  UNL     1      -4.439  -1.302   1.232  1.00  0.00    -0.393 OA
ATOM     16  H1  UNL     1      -5.094  -0.749   1.642  1.00  0.00     0.210 HD
ENDBRANCH  13  15
BRANCH  14  17
HETATM   17  O2  UNL     1      -3.727   1.424  -0.864  1.00  0.00    -0.391 OA
ATOM     18  H2  UNL     1      -4.654   1.624  -0.813  1.00  0.00     0.210 HD
ENDBRANCH  14  17
ENDBRANCH   7  10
BRANCH   1  19
HETATM   19  C2  UNL     1       3.956   1.048  -0.395  1.00  0.00     0.139 C 
BRANCH  19  20
HETATM   20  S1  UNL     1       4.663  -0.544   0.179  1.00  0.00    -0.167 SA
HETATM   21  C1  UNL     1       6.323  -0.790  -0.494  1.00  0.00     0.090 C 
ENDBRANCH  19  20
ENDBRANCH   1  19
TORSDOF 5
