REMARK  3 active torsions:
REMARK  status: ('A' for Active; 'I' for Inactive)
REMARK    1  A    between atoms: O1_3  and  C3_4 
REMARK    2  A    between atoms: C7_8  and  C8_9 
REMARK    3  A    between atoms: C8_9  and  C9_10 
ROOT
HETATM    1  C1  UNL     1       3.852   1.049   2.392  1.00  0.00     0.045 C 
HETATM    2  C2  UNL     1       3.631   0.116   1.660  1.00  0.00     0.049 C 
HETATM    3  O1  UNL     1       3.363  -0.930   0.827  1.00  0.00    -0.262 OA
ENDROOT
BRANCH   3   4
HETATM    4  C3  UNL     1       2.276  -0.951  -0.034  1.00  0.00     0.087 A 
HETATM    5  C4  UNL     1       2.105  -2.063  -0.831  1.00  0.00     0.038 A 
HETATM    6  C5  UNL     1       1.019  -2.125  -1.715  1.00  0.00     0.003 A 
HETATM    7  C6  UNL     1       0.130  -1.079  -1.786  1.00  0.00     0.007 A 
HETATM    8  C7  UNL     1       0.284   0.040  -0.999  1.00  0.00    -0.048 A 
HETATM    9  C11 UNL     1       1.362   0.080  -0.133  1.00  0.00     0.045 A 
BRANCH   8  10
HETATM   10  C8  UNL     1      -0.663   1.188  -1.054  1.00  0.00     0.116 C 
BRANCH  10  11
HETATM   11  C9  UNL     1      -1.775   1.015  -0.088  1.00  0.00     0.104 A 
HETATM   12  N1  UNL     1      -1.818   1.426   1.192  1.00  0.00    -0.295 N 
HETATM   13  C10 UNL     1      -3.000   1.077   1.728  1.00  0.00     0.340 A 
ATOM     14  H1  UNL     1      -1.072   1.923   1.678  1.00  0.00     0.172 HD
HETATM   15  O2  UNL     1      -3.460   1.256   2.876  1.00  0.00    -0.245 OA
HETATM   16  N2  UNL     1      -3.699   0.439   0.761  1.00  0.00    -0.250 N 
HETATM   17  N3  UNL     1      -2.947   0.410  -0.328  1.00  0.00    -0.285 N 
ATOM     18  H2  UNL     1      -4.637   0.050   0.854  1.00  0.00     0.192 HD
ATOM     19  H3  UNL     1      -3.219  -0.010  -1.217  1.00  0.00     0.188 HD
ENDBRANCH  10  11
ENDBRANCH   8  10
ENDBRANCH   3   4
TORSDOF 3
