REMARK  9 active torsions:
REMARK  status: ('A' for Active; 'I' for Inactive)
REMARK    1  A    between atoms: C2_2  and  C3_3 
REMARK    2  A    between atoms: C3_3  and  C4_4 
REMARK    3  A    between atoms: C4_4  and  C5_5 
REMARK    4  A    between atoms: C7_7  and  N1_8 
REMARK       I    between atoms: N1_8  and  C8_10 
REMARK    5  A    between atoms: C11_16  and  C12_17 
REMARK    6  A    between atoms: C12_17  and  N3_18 
REMARK    7  A    between atoms: C21_28  and  N4_29 
REMARK       I    between atoms: N4_29  and  C22_31 
REMARK    8  A    between atoms: C22_31  and  C23_33 
REMARK    9  A    between atoms: C23_33  and  C24_34 
ROOT
HETATM    1  C12 UNL     1      -0.097   1.585  -0.023  1.00  0.00     0.272 C 
ENDROOT
BRANCH   1   2
HETATM    2  C11 UNL     1      -1.326   2.227  -0.461  1.00  0.00     0.208 C 
HETATM    3  N2  UNL     1      -2.495   1.420  -0.649  1.00  0.00    -0.308 N 
HETATM    4  C5  UNL     1      -3.425   1.618   0.458  1.00  0.00     0.114 C 
HETATM    5  C10 UNL     1      -3.165   0.477  -1.490  1.00  0.00     0.245 C 
HETATM    6  C6  UNL     1      -4.760   1.718  -0.250  1.00  0.00     0.089 C 
HETATM    7  N5  UNL     1      -3.044   2.878   1.013  1.00  0.00    -0.332 N 
HETATM    8  C7  UNL     1      -4.617   0.701  -1.350  1.00  0.00     0.181 C 
HETATM    9  C28 UNL     1      -1.767   3.220   0.583  1.00  0.00     0.244 C 
ATOM     10  H5  UNL     1      -3.624   3.443   1.633  1.00  0.00     0.165 HD
HETATM   11  O5  UNL     1      -1.040   4.183   0.957  1.00  0.00    -0.271 OA
HETATM   12  O2  UNL     1      -2.707  -0.410  -2.242  1.00  0.00    -0.271 OA
BRANCH   4  13
HETATM   13  C4  UNL     1      -3.341   0.531   1.471  1.00  0.00     0.054 C 
BRANCH  13  14
HETATM   14  C3  UNL     1      -4.371   0.721   2.559  1.00  0.00     0.004 C 
BRANCH  14  15
HETATM   15  C2  UNL     1      -4.260  -0.389   3.598  1.00  0.00    -0.004 C 
HETATM   16  C1  UNL     1      -4.494  -1.751   2.941  1.00  0.00     0.005 C 
ENDBRANCH  14  15
ENDBRANCH  13  14
ENDBRANCH   4  13
BRANCH   8  17
HETATM   17  N1  UNL     1      -5.379  -0.503  -1.137  1.00  0.00    -0.348 N 
HETATM   18  C8  UNL     1      -6.420  -0.876  -2.023  1.00  0.00     0.214 C 
HETATM   19  C9  UNL     1      -7.173  -2.121  -1.764  1.00  0.00     0.117 C 
HETATM   20  O1  UNL     1      -6.731  -0.183  -3.032  1.00  0.00    -0.274 OA
ATOM     21  H1  UNL     1      -5.166  -1.097  -0.335  1.00  0.00     0.163 HD
ENDBRANCH   8  17
ENDBRANCH   1   2
BRANCH   1  22
HETATM   22  N3  UNL     1       0.612   0.606  -0.717  1.00  0.00    -0.067 N 
HETATM   23  C13 UNL     1       0.285  -0.730  -0.258  1.00  0.00     0.272 C 
HETATM   24  C14 UNL     1       0.670   0.678  -2.129  1.00  0.00     0.237 C 
HETATM   25  C15 UNL     1       1.810   1.488  -2.700  1.00  0.00     0.033 C 
HETATM   26  C16 UNL     1       3.146   0.883  -2.643  1.00  0.00     0.001 C 
HETATM   27  C17 UNL     1       3.827   0.719  -4.000  1.00  0.00     0.013 C 
HETATM   28  C20 UNL     1       3.203  -0.524  -2.109  1.00  0.00     0.084 C 
HETATM   29  C18 UNL     1       4.997  -0.209  -3.653  1.00  0.00     0.079 C 
HETATM   30  C19 UNL     1       4.594  -0.906  -2.411  1.00  0.00     0.133 C 
HETATM   31  O3  UNL     1       5.294  -1.650  -1.774  1.00  0.00    -0.297 OA
HETATM   32  C21 UNL     1       2.858  -0.457  -0.654  1.00  0.00     0.122 C 
HETATM   33  C27 UNL     1       2.045   0.734  -0.285  1.00  0.00     0.263 C 
BRANCH  32  34
HETATM   34  N4  UNL     1       4.107  -0.342   0.120  1.00  0.00    -0.354 N 
HETATM   35  C22 UNL     1       4.458  -1.266   1.143  1.00  0.00     0.218 C 
HETATM   36  O4  UNL     1       3.726  -2.235   1.451  1.00  0.00    -0.274 OA
ATOM     37  H4  UNL     1       4.743   0.428  -0.085  1.00  0.00     0.162 HD
BRANCH  35  38
HETATM   38  C23 UNL     1       5.731  -1.074   1.868  1.00  0.00     0.107 C 
BRANCH  38  39
HETATM   39  C24 UNL     1       5.887  -2.160   2.905  1.00  0.00    -0.006 A 
HETATM   40  C25 UNL     1       7.132  -2.138   3.754  1.00  0.00     0.005 A 
HETATM   41  C26 UNL     1       5.812  -1.729   4.331  1.00  0.00     0.005 A 
ENDBRANCH  38  39
ENDBRANCH  35  38
ENDBRANCH  32  34
ENDBRANCH   1  22
TORSDOF 9
