REMARK  10 active torsions:
REMARK  status: ('A' for Active; 'I' for Inactive)
REMARK    1  A    between atoms: C2_2  and  C4_4 
REMARK    2  A    between atoms: C4_4  and  C5_5 
REMARK    3  A    between atoms: C7_10  and  O2_11 
REMARK    4  A    between atoms: C9_15  and  C10_16 
REMARK    5  A    between atoms: C10_16  and  C11_17 
REMARK    6  A    between atoms: C15_24  and  C16_25 
REMARK    7  A    between atoms: C16_25  and  C17_26 
REMARK    8  A    between atoms: C21_31  and  O5_32 
REMARK    9  A    between atoms: C22_34  and  C23_35 
REMARK   10  A    between atoms: C26_40  and  O6_41 
ROOT
HETATM    1  C5  UNL     1       2.844  -1.841  -0.502  1.00  0.00     0.082 C 
HETATM    2  N1  UNL     1       2.121  -2.095   0.707  1.00  0.00    -0.318 N 
ATOM      3  H1  UNL     1       2.335  -1.472   1.486  1.00  0.00     0.169 HD
HETATM    4  C6  UNL     1       1.146  -3.095   0.974  1.00  0.00     0.283 C 
HETATM    5  O1  UNL     1       0.941  -3.552   2.168  1.00  0.00    -0.265 OA
HETATM    6  C7  UNL     1       0.293  -3.694  -0.050  1.00  0.00     0.183 C 
HETATM    7  C8  UNL     1      -0.610  -3.059  -0.961  1.00  0.00     0.210 C 
HETATM    8  O3  UNL     1      -0.427  -3.283  -2.211  1.00  0.00    -0.288 OA
HETATM    9  C9  UNL     1      -1.767  -2.146  -0.590  1.00  0.00     0.162 C 
HETATM   10  N2  UNL     1      -1.502  -1.452   0.631  1.00  0.00    -0.344 N 
ATOM     11  H2  UNL     1      -1.537  -2.026   1.474  1.00  0.00     0.163 HD
HETATM   12  C14 UNL     1      -1.200  -0.094   0.842  1.00  0.00     0.264 C 
HETATM   13  O4  UNL     1      -0.283   0.172   1.694  1.00  0.00    -0.266 OA
HETATM   14  C15 UNL     1      -1.814   1.077   0.201  1.00  0.00     0.081 C 
HETATM   15  N3  UNL     1      -0.925   2.068  -0.344  1.00  0.00    -0.333 N 
HETATM   16  C20 UNL     1      -1.651   3.155  -1.065  1.00  0.00     0.158 C 
HETATM   17  C21 UNL     1       0.457   2.202  -0.319  1.00  0.00     0.141 C 
HETATM   18  C22 UNL     1       1.614   1.518  -0.929  1.00  0.00     0.162 C 
HETATM   19  N4  UNL     1       1.429   0.194  -1.406  1.00  0.00    -0.357 N 
ATOM     20  H4  UNL     1       0.491   0.028  -1.770  1.00  0.00     0.162 HD
HETATM   21  C26 UNL     1       2.246  -0.920  -1.484  1.00  0.00     0.163 C 
ENDROOT
BRANCH   1  22
HETATM   22  C4  UNL     1       4.307  -1.968  -0.431  1.00  0.00     0.011 C 
BRANCH  22  23
HETATM   23  C2  UNL     1       5.205  -1.233   0.431  1.00  0.00     0.002 C 
HETATM   24  C1  UNL     1       5.067  -1.307   1.910  1.00  0.00     0.013 C 
HETATM   25  C3  UNL     1       5.393   0.214   0.046  1.00  0.00     0.013 C 
ENDBRANCH  22  23
ENDBRANCH   1  22
BRANCH  21  26
HETATM   26  O6  UNL     1       2.552  -1.219  -2.729  1.00  0.00    -0.345 OA
ATOM     27  H6  UNL     1       2.166  -0.625  -3.362  1.00  0.00     0.219 HD
ENDBRANCH  21  26
BRANCH   6  28
HETATM   28  O2  UNL     1       0.357  -4.988  -0.158  1.00  0.00    -0.353 OA
ATOM     29  H2  UNL     1      -0.198  -5.377  -0.824  1.00  0.00     0.218 HD
ENDBRANCH   6  28
BRANCH  18  30
HETATM   30  C23 UNL     1       2.197   2.459  -1.958  1.00  0.00     0.008 C 
HETATM   31  C24 UNL     1       2.687   3.756  -1.378  1.00  0.00     0.012 C 
HETATM   32  C25 UNL     1       3.189   1.918  -2.900  1.00  0.00     0.012 C 
ENDBRANCH  18  30
BRANCH  17  33
HETATM   33  O5  UNL     1       0.864   3.198   0.440  1.00  0.00    -0.348 OA
ATOM     34  H5  UNL     1       1.809   3.290   0.457  1.00  0.00     0.219 HD
ENDBRANCH  17  33
BRANCH   9  35
HETATM   35  C10 UNL     1      -2.946  -3.076  -0.355  1.00  0.00     0.037 C 
BRANCH  35  36
HETATM   36  C11 UNL     1      -4.167  -2.313   0.004  1.00  0.00    -0.020 C 
HETATM   37  C12 UNL     1      -5.336  -3.273   0.249  1.00  0.00     0.009 C 
HETATM   38  C13 UNL     1      -4.564  -1.479  -1.203  1.00  0.00     0.009 C 
ENDBRANCH  35  36
ENDBRANCH   9  35
BRANCH  14  39
HETATM   39  C16 UNL     1      -2.984   1.543   0.992  1.00  0.00     0.067 C 
BRANCH  39  40
HETATM   40  C17 UNL     1      -2.804   1.954   2.394  1.00  0.00    -0.017 C 
HETATM   41  C18 UNL     1      -4.206   2.356   2.919  1.00  0.00     0.010 C 
HETATM   42  C19 UNL     1      -1.977   3.192   2.607  1.00  0.00     0.010 C 
ENDBRANCH  39  40
ENDBRANCH  14  39
TORSDOF 10
