REMARK  9 active torsions:
REMARK  status: ('A' for Active; 'I' for Inactive)
REMARK    1  A    between atoms: C7_8  and  C8_9 
REMARK    2  A    between atoms: C9_10  and  C10_11 
REMARK    3  A    between atoms: N3_16  and  C13_17 
REMARK    4  A    between atoms: C13_17  and  C14_18 
REMARK    5  A    between atoms: C14_18  and  C15_19 
REMARK    6  A    between atoms: C15_19  and  C16_20 
REMARK    7  A    between atoms: C18_24  and  C19_25 
REMARK    8  A    between atoms: C19_25  and  C20_26 
REMARK    9  A    between atoms: C25_38  and  C26_39 
ROOT
HETATM    1  C16 UNL     1      -1.890  -1.790   1.268  1.00  0.00     0.023 A 
HETATM    2  N4  UNL     1      -2.151  -0.883   2.214  1.00  0.00    -0.368 N 
ATOM      3  H4  UNL     1      -1.539  -0.676   3.003  1.00  0.00     0.165 HD
HETATM    4  C17 UNL     1      -3.327  -0.282   1.985  1.00  0.00     0.096 A 
HETATM    5  C18 UNL     1      -3.845  -0.843   0.823  1.00  0.00    -0.025 A 
HETATM    6  C25 UNL     1      -2.937  -1.786   0.382  1.00  0.00     0.032 A 
ENDROOT
BRANCH   1   7
HETATM    7  C15 UNL     1      -0.683  -2.635   1.182  1.00  0.00     0.059 C 
BRANCH   7   8
HETATM    8  C14 UNL     1       0.336  -2.129   0.213  1.00  0.00     0.026 C 
BRANCH   8   9
HETATM    9  C13 UNL     1       1.537  -3.017   0.124  1.00  0.00     0.131 C 
BRANCH   9  10
HETATM   10  N3  UNL     1       2.173  -3.127   1.396  1.00  0.00    -0.335 N 
HETATM   11  C10 UNL     1       3.110  -2.280   1.838  1.00  0.00     0.105 A 
HETATM   12  C11 UNL     1       3.491  -2.731   3.089  1.00  0.00     0.128 A 
HETATM   13  N2  UNL     1       2.763  -3.829   3.339  1.00  0.00    -0.359 N 
HETATM   14  C12 UNL     1       1.939  -4.105   2.320  1.00  0.00     0.183 A 
ATOM     15  H2  UNL     1       2.828  -4.382   4.194  1.00  0.00     0.166 HD
BRANCH  11  16
HETATM   16  C9  UNL     1       3.604  -1.132   1.131  1.00  0.00    -0.042 C 
HETATM   17  C8  UNL     1       4.028  -0.150   0.555  1.00  0.00    -0.059 C 
BRANCH  17  18
HETATM   18  C7  UNL     1       4.535   1.021  -0.100  1.00  0.00     0.026 A 
HETATM   19  C2  UNL     1       5.818   1.056  -0.632  1.00  0.00    -0.028 A 
HETATM   20  C1  UNL     1       6.614  -0.197  -0.483  1.00  0.00     0.051 C 
HETATM   21  C3  UNL     1       6.303   2.185  -1.255  1.00  0.00     0.098 A 
HETATM   22  N1  UNL     1       5.557   3.298  -1.373  1.00  0.00    -0.370 N 
HETATM   23  C4  UNL     1       6.096   4.495  -2.042  1.00  0.00     0.154 C 
HETATM   24  C5  UNL     1       4.319   3.286  -0.868  1.00  0.00     0.091 A 
HETATM   25  C6  UNL     1       3.789   2.174  -0.234  1.00  0.00     0.038 A 
ENDBRANCH  17  18
ENDBRANCH  11  16
ENDBRANCH   9  10
ENDBRANCH   8   9
ENDBRANCH   7   8
ENDBRANCH   1   7
BRANCH   6  26
HETATM   26  C26 UNL     1      -3.075  -2.641  -0.785  1.00  0.00     0.272 C 
HETATM   27  O4  UNL     1      -2.657  -2.365  -1.926  1.00  0.00    -0.301 OA
ENDBRANCH   6  26
BRANCH   5  28
HETATM   28  C19 UNL     1      -5.127  -0.463   0.218  1.00  0.00     0.074 C 
BRANCH  28  29
HETATM   29  C20 UNL     1      -4.931   0.436  -0.951  1.00  0.00     0.160 C 
HETATM   30  N5  UNL     1      -4.240   1.635  -0.504  1.00  0.00    -0.341 N 
HETATM   31  C21 UNL     1      -4.694   2.971  -0.658  1.00  0.00     0.310 C 
ATOM     32  H5  UNL     1      -3.344   1.503  -0.035  1.00  0.00     0.163 HD
HETATM   33  O1  UNL     1      -4.205   3.765   0.201  1.00  0.00    -0.262 OA
HETATM   34  C22 UNL     1      -5.611   3.578  -1.615  1.00  0.00     0.309 C 
HETATM   35  O2  UNL     1      -5.796   4.835  -1.478  1.00  0.00    -0.262 OA
HETATM   36  N6  UNL     1      -6.314   2.940  -2.670  1.00  0.00    -0.346 N 
HETATM   37  C23 UNL     1      -6.639   1.530  -2.748  1.00  0.00     0.203 C 
ATOM     38  H6  UNL     1      -6.619   3.529  -3.445  1.00  0.00     0.163 HD
HETATM   39  C24 UNL     1      -6.283   0.805  -1.521  1.00  0.00     0.167 C 
HETATM   40  O3  UNL     1      -7.236   0.442  -0.853  1.00  0.00    -0.294 OA
ENDBRANCH  28  29
ENDBRANCH   5  28
TORSDOF 9
