REMARK  15 active torsions:
REMARK  status: ('A' for Active; 'I' for Inactive)
REMARK    1  A    between atoms: C2_2  and  C3_3 
REMARK    2  A    between atoms: C5_8  and  C6_9 
REMARK    3  A    between atoms: C6_9  and  C7_10 
REMARK    4  A    between atoms: C7_10  and  C8_11 
REMARK    5  A    between atoms: C8_11  and  C9_12 
REMARK    6  A    between atoms: C9_12  and  C10_13 
REMARK    7  A    between atoms: C10_13  and  C11_14 
REMARK    8  A    between atoms: N3_17  and  C12_18 
REMARK    9  A    between atoms: C21_31  and  O4_32 
REMARK   10  A    between atoms: C22_34  and  C23_35 
REMARK   11  A    between atoms: C23_35  and  C24_36 
REMARK   12  A    between atoms: C24_36  and  C25_37 
REMARK   13  A    between atoms: C25_37  and  C26_38 
REMARK   14  A    between atoms: C26_38  and  N6_39 
REMARK   15  A    between atoms: C29_46  and  O5_47 
ROOT
HETATM    1  C3  UNL     1       0.208  -1.316  -2.930  1.00  0.00     0.159 C 
HETATM    2  N1  UNL     1      -1.207  -1.293  -3.196  1.00  0.00    -0.344 N 
ATOM      3  H1  UNL     1      -1.502  -1.227  -4.170  1.00  0.00     0.163 HD
HETATM    4  C4  UNL     1      -2.242  -1.356  -2.189  1.00  0.00     0.266 C 
HETATM    5  O1  UNL     1      -3.213  -2.077  -2.549  1.00  0.00    -0.266 OA
HETATM    6  C5  UNL     1      -2.223  -0.688  -0.897  1.00  0.00     0.097 C 
HETATM    7  N3  UNL     1      -1.904  -1.373   0.268  1.00  0.00    -0.280 N 
HETATM    8  N4  UNL     1      -1.761  -0.572   1.401  1.00  0.00    -0.265 N 
ATOM      9  H4  UNL     1      -2.581  -0.546   2.008  1.00  0.00     0.190 HD
HETATM   10  C16 UNL     1      -0.685   0.200   1.845  1.00  0.00     0.259 C 
HETATM   11  O3  UNL     1      -0.158  -0.156   2.961  1.00  0.00    -0.269 OA
HETATM   12  C17 UNL     1      -0.059   1.378   1.217  1.00  0.00     0.180 C 
HETATM   13  C18 UNL     1      -0.484   2.595   2.110  1.00  0.00     0.037 C 
HETATM   14  C19 UNL     1       0.535   2.458   3.190  1.00  0.00     0.022 C 
HETATM   15  C20 UNL     1       1.697   1.715   2.655  1.00  0.00     0.126 C 
HETATM   16  N5  UNL     1       1.371   1.437   1.236  1.00  0.00    -0.347 N 
HETATM   17  C21 UNL     1       2.290   1.311   0.173  1.00  0.00     0.162 C 
HETATM   18  C22 UNL     1       2.486   0.229  -0.798  1.00  0.00     0.067 C 
HETATM   19  N9  UNL     1       1.916   0.489  -2.111  1.00  0.00    -0.334 N 
HETATM   20  C28 UNL     1       2.696   1.442  -2.961  1.00  0.00     0.158 C 
HETATM   21  C29 UNL     1       0.775   0.027  -2.742  1.00  0.00     0.141 C 
ENDROOT
BRANCH  18  22
HETATM   22  C23 UNL     1       2.305  -1.151  -0.278  1.00  0.00     0.088 C 
BRANCH  22  23
HETATM   23  C24 UNL     1       3.226  -1.556   0.806  1.00  0.00    -0.023 C 
BRANCH  23  24
HETATM   24  C25 UNL     1       4.658  -1.724   0.644  1.00  0.00    -0.011 C 
BRANCH  24  25
HETATM   25  C26 UNL     1       5.631  -0.701   0.308  1.00  0.00     0.149 C 
BRANCH  25  26
HETATM   26  N6  UNL     1       5.757   0.415   1.226  1.00  0.00    -0.363 N 
HETATM   27  C27 UNL     1       6.827   1.129   1.141  1.00  0.00     0.197 C 
HETATM   28  N7  UNL     1       7.854   0.847   0.190  1.00  0.00    -0.067 NA
HETATM   29  N8  UNL     1       7.057   2.247   1.989  1.00  0.00    -0.067 NA
ATOM     30  H6  UNL     1       5.030   0.626   1.910  1.00  0.00     0.162 HD
ENDBRANCH  25  26
ENDBRANCH  24  25
ENDBRANCH  23  24
ENDBRANCH  22  23
ENDBRANCH  18  22
BRANCH  17  31
HETATM   31  O4  UNL     1       3.097   2.327   0.039  1.00  0.00    -0.345 OA
ATOM     32  H4  UNL     1       3.716   2.242  -0.677  1.00  0.00     0.219 HD
ENDBRANCH  17  31
BRANCH  21  33
HETATM   33  O5  UNL     1       0.055   0.971  -3.282  1.00  0.00    -0.348 OA
ATOM     34  H5  UNL     1       0.421   1.839  -3.160  1.00  0.00     0.219 HD
ENDBRANCH  21  33
BRANCH   1  35
HETATM   35  C2  UNL     1       0.841  -2.035  -4.126  1.00  0.00     0.029 C 
HETATM   36  C1  UNL     1       0.603  -1.380  -5.433  1.00  0.00     0.007 C 
ENDBRANCH   1  35
BRANCH   7  37
HETATM   37  C12 UNL     1      -2.065  -2.706   0.548  1.00  0.00     0.043 C 
HETATM   38  C13 UNL     1      -1.321  -3.731  -0.265  1.00  0.00     0.039 C 
HETATM   39  C14 UNL     1      -3.484  -3.231   0.709  1.00  0.00     0.039 C 
HETATM   40  C15 UNL     1      -1.467  -2.938   1.969  1.00  0.00     0.039 C 
ENDBRANCH   7  37
BRANCH   6  41
HETATM   41  C6  UNL     1      -3.238   0.439  -0.765  1.00  0.00     0.065 C 
BRANCH  41  42
HETATM   42  C7  UNL     1      -4.642   0.123  -0.918  1.00  0.00     0.006 C 
BRANCH  42  43
HETATM   43  C8  UNL     1      -5.669   1.190  -0.810  1.00  0.00     0.001 C 
BRANCH  43  44
HETATM   44  C9  UNL     1      -5.886   1.852   0.487  1.00  0.00     0.009 C 
BRANCH  44  45
HETATM   45  C10 UNL     1      -4.784   2.568   1.171  1.00  0.00     0.099 C 
BRANCH  45  46
HETATM   46  C11 UNL     1      -5.330   3.249   2.418  1.00  0.00     0.231 C 
HETATM   47  N2  UNL     1      -4.450   3.990   3.248  1.00  0.00    -0.062 NA
HETATM   48  O2  UNL     1      -6.544   3.113   2.641  1.00  0.00    -0.277 OA
ENDBRANCH  45  46
ENDBRANCH  44  45
ENDBRANCH  43  44
ENDBRANCH  42  43
ENDBRANCH  41  42
ENDBRANCH   6  41
TORSDOF 15
