REMARK  12 active torsions:
REMARK  status: ('A' for Active; 'I' for Inactive)
REMARK    1  A    between atoms: N1_2  and  C2_3 
REMARK    2  A    between atoms: C2_3  and  C3_4 
REMARK       I    between atoms: C3_4  and  N2_6 
REMARK    3  A    between atoms: N2_6  and  C4_8 
REMARK    4  A    between atoms: C5_11  and  C6_12 
REMARK    5  A    between atoms: C6_12  and  C7_13 
REMARK    6  A    between atoms: C7_13  and  C8_14 
REMARK    7  A    between atoms: C8_14  and  C9_15 
REMARK    8  A    between atoms: C9_15  and  C10_16 
REMARK    9  A    between atoms: C13_23  and  C14_24 
REMARK   10  A    between atoms: C14_24  and  N6_25 
REMARK   11  A    between atoms: C17_28  and  C18_29 
REMARK   12  A    between atoms: N7_30  and  N8_32 
ROOT
HETATM    1  C4  UNL     1      -1.245  -0.267  -0.410  1.00  0.00     0.119 A 
HETATM    2  N3  UNL     1       0.045  -0.591  -0.726  1.00  0.00    -0.345 N 
ATOM      3  H3  UNL     1       0.620  -1.055  -0.023  1.00  0.00     0.167 HD
HETATM    4  C5  UNL     1       0.584  -0.323  -1.923  1.00  0.00     0.011 A 
HETATM    5  C11 UNL     1      -0.249   0.314  -2.850  1.00  0.00     0.026 A 
HETATM    6  C12 UNL     1      -1.544   0.641  -2.544  1.00  0.00     0.018 A 
HETATM    7  C13 UNL     1      -2.063   0.343  -1.284  1.00  0.00     0.024 A 
ENDROOT
BRANCH   7   8
HETATM    8  C14 UNL     1      -3.455   0.789  -1.078  1.00  0.00     0.111 C 
BRANCH   8   9
HETATM    9  N6  UNL     1      -3.659   2.047  -0.479  1.00  0.00    -0.342 N 
HETATM   10  C15 UNL     1      -3.686   3.142  -1.316  1.00  0.00     0.096 A 
HETATM   11  C16 UNL     1      -3.929   4.386  -0.796  1.00  0.00     0.030 A 
HETATM   12  C17 UNL     1      -4.156   4.623   0.530  1.00  0.00    -0.017 A 
HETATM   13  C19 UNL     1      -4.131   3.524   1.363  1.00  0.00     0.030 A 
HETATM   14  C20 UNL     1      -3.877   2.259   0.799  1.00  0.00     0.096 A 
BRANCH  12  15
HETATM   15  C18 UNL     1      -4.409   5.972   1.048  1.00  0.00     0.120 C 
HETATM   16  N7  UNL     1      -4.422   6.939   0.201  1.00  0.00    -0.297 N 
ATOM     17  H7  UNL     1      -4.257   6.709  -0.779  1.00  0.00     0.187 HD
BRANCH  16  18
HETATM   18  N8  UNL     1      -4.635   8.218   0.505  1.00  0.00    -0.250 N 
HETATM   19  N9  UNL     1      -5.308   9.188   0.698  1.00  0.00    -0.331 N 
ATOM     20  H92 UNL     1      -6.235   8.796   0.532  1.00  0.00     0.178 HD
ATOM     21  H91 UNL     1      -5.471  10.168   0.931  1.00  0.00     0.178 HD
ATOM     22  H8  UNL     1      -3.690   8.569   0.662  1.00  0.00     0.207 HD
ENDBRANCH  16  18
ENDBRANCH  12  15
ENDBRANCH   8   9
ENDBRANCH   7   8
BRANCH   1  23
HETATM   23  N2  UNL     1      -1.721  -0.554   0.775  1.00  0.00    -0.311 N 
HETATM   24  C3  UNL     1      -0.856  -1.207   1.688  1.00  0.00     0.251 C 
HETATM   25  O1  UNL     1      -0.099  -0.563   2.429  1.00  0.00    -0.271 OA
ATOM     26  H2  UNL     1      -2.679  -0.316   1.032  1.00  0.00     0.170 HD
BRANCH  24  27
HETATM   27  C2  UNL     1      -0.875  -2.672   1.733  1.00  0.00     0.372 C 
BRANCH  27  28
HETATM   28  N1  UNL     1       0.008  -3.295   2.659  1.00  0.00     0.080 N 
HETATM   29  C1  UNL     1      -0.313  -3.155   4.070  1.00  0.00     0.308 C 
HETATM   30  N10 UNL     1      -0.029  -4.716   2.388  1.00  0.00    -0.029 NA
HETATM   31  C21 UNL     1       1.192  -4.651   1.615  1.00  0.00     0.256 C 
HETATM   32  C22 UNL     1       1.384  -3.365   2.363  1.00  0.00     0.354 C 
HETATM   33  O2  UNL     1       2.337  -2.646   2.627  1.00  0.00    -0.262 OA
ENDBRANCH  27  28
ENDBRANCH  24  27
ENDBRANCH   1  23
BRANCH   4  34
HETATM   34  C6  UNL     1       1.975  -0.688  -2.276  1.00  0.00     0.057 C 
BRANCH  34  35
HETATM   35  C7  UNL     1       2.626  -1.612  -1.279  1.00  0.00     0.006 C 
BRANCH  35  36
HETATM   36  C8  UNL     1       4.053  -1.922  -1.686  1.00  0.00     0.007 C 
BRANCH  36  37
HETATM   37  C9  UNL     1       4.923  -0.683  -1.723  1.00  0.00     0.072 C 
BRANCH  37  38
HETATM   38  C10 UNL     1       6.314  -0.985  -2.104  1.00  0.00     0.086 C 
HETATM   39  N4  UNL     1       6.920  -0.257  -2.999  1.00  0.00    -0.391 N 
ATOM     40  H42 UNL     1       6.398   0.511  -3.421  1.00  0.00     0.157 HD
ATOM     41  H41 UNL     1       7.883  -0.466  -3.263  1.00  0.00     0.157 HD
HETATM   42  N5  UNL     1       7.041  -2.056  -1.516  1.00  0.00    -0.088 NA
ENDBRANCH  37  38
ENDBRANCH  36  37
ENDBRANCH  35  36
ENDBRANCH  34  35
ENDBRANCH   4  34
TORSDOF 12
