REMARK  17 active torsions:
REMARK  status: ('A' for Active; 'I' for Inactive)
REMARK    1  A    between atoms: N1_5  and  C5_6 
REMARK    2  A    between atoms: C5_6  and  C6_7 
REMARK    3  A    between atoms: C7_8  and  C8_9 
REMARK    4  A    between atoms: C8_9  and  C10_11 
REMARK    5  A    between atoms: C11_12  and  C12_13 
REMARK    6  A    between atoms: C12_13  and  C13_14 
REMARK    7  A    between atoms: C13_14  and  C14_15 
REMARK    8  A    between atoms: C14_15  and  O1_16 
REMARK    9  A    between atoms: C14_15  and  N2_18 
REMARK   10  A    between atoms: N2_18  and  C15_20 
REMARK   11  A    between atoms: C15_20  and  C16_21 
REMARK   12  A    between atoms: C15_20  and  C22_38 
REMARK   13  A    between atoms: C16_21  and  N3_22 
REMARK   14  A    between atoms: N3_22  and  C19_25 
REMARK   15  A    between atoms: C19_25  and  C20_26 
REMARK   16  A    between atoms: C21_29  and  N5_30 
REMARK   17  A    between atoms: N7_35  and  O2_36 
ROOT
HETATM    1  N2  UNL     1      -1.820   2.084  -0.892  1.00  0.00    -0.356 N 
ATOM      2  H2  UNL     1      -1.337   1.896  -0.013  1.00  0.00     0.162 HD
ENDROOT
BRANCH   1   3
HETATM    3  C14 UNL     1      -1.116   2.153  -2.064  1.00  0.00     0.136 C 
BRANCH   3   4
HETATM    4  C13 UNL     1       0.256   2.011  -2.353  1.00  0.00     0.055 C 
BRANCH   4   5
HETATM    5  C12 UNL     1       1.309   1.806  -1.665  1.00  0.00     0.004 C 
BRANCH   5   6
HETATM    6  C11 UNL     1       1.442   1.643  -0.234  1.00  0.00    -0.003 C 
HETATM    7  C10 UNL     1       2.569   1.418   0.403  1.00  0.00    -0.010 C 
BRANCH   7   8
HETATM    8  C8  UNL     1       3.868   1.292  -0.239  1.00  0.00     0.083 C 
HETATM    9  C9  UNL     1       4.789   2.402   0.278  1.00  0.00     0.027 C 
BRANCH   8  10
HETATM   10  C7  UNL     1       4.451   0.009   0.304  1.00  0.00    -0.097 C 
HETATM   11  C6  UNL     1       4.909  -1.002   0.768  1.00  0.00    -0.084 C 
BRANCH  11  12
HETATM   12  C5  UNL     1       5.447  -2.218   1.370  1.00  0.00     0.241 C 
BRANCH  12  13
HETATM   13  N1  UNL     1       6.254  -2.977   0.440  1.00  0.00    -0.292 N 
HETATM   14  C4  UNL     1       5.732  -3.933  -0.376  1.00  0.00     0.113 A 
HETATM   15  C3  UNL     1       6.769  -4.475  -1.120  1.00  0.00     0.045 A 
HETATM   16  C2  UNL     1       7.906  -3.802  -0.713  1.00  0.00     0.023 A 
HETATM   17  C1  UNL     1       9.264  -4.077  -1.268  1.00  0.00     0.070 C 
HETATM   18  N9  UNL     1       7.572  -2.910   0.223  1.00  0.00    -0.303 N 
ATOM     19  H9  UNL     1       8.218  -2.279   0.696  1.00  0.00     0.186 HD
ENDBRANCH  12  13
ENDBRANCH  11  12
ENDBRANCH   8  10
ENDBRANCH   7   8
ENDBRANCH   5   6
ENDBRANCH   4   5
ENDBRANCH   3   4
BRANCH   3  20
HETATM   20  O1  UNL     1      -1.892   2.401  -3.123  1.00  0.00    -0.346 OA
ATOM     21  H1  UNL     1      -2.817   2.497  -2.928  1.00  0.00     0.219 HD
ENDBRANCH   3  20
ENDBRANCH   1   3
BRANCH   1  22
HETATM   22  C15 UNL     1      -3.347   2.292  -0.910  1.00  0.00     0.199 C 
BRANCH  22  23
HETATM   23  C16 UNL     1      -3.846   0.946  -0.545  1.00  0.00     0.271 C 
BRANCH  23  24
HETATM   24  N3  UNL     1      -5.216   0.639  -0.517  1.00  0.00    -0.066 N 
HETATM   25  C17 UNL     1      -5.441  -0.680  -1.190  1.00  0.00     0.272 C 
HETATM   26  C18 UNL     1      -6.101   1.542  -1.231  1.00  0.00     0.272 C 
BRANCH  24  27
HETATM   27  C19 UNL     1      -5.735   0.451   0.804  1.00  0.00     0.317 C 
BRANCH  27  28
HETATM   28  C20 UNL     1      -4.911  -0.332   1.733  1.00  0.00     0.170 A 
HETATM   29  N4  UNL     1      -4.707  -1.645   1.683  1.00  0.00    -0.174 N 
HETATM   30  C21 UNL     1      -3.908  -1.963   2.745  1.00  0.00     0.694 A 
ATOM     31  H4  UNL     1      -5.076  -2.291   0.985  1.00  0.00     0.185 HD
HETATM   32  N6  UNL     1      -3.654  -0.830   3.403  1.00  0.00    -0.104 N 
HETATM   33  N7  UNL     1      -4.263   0.158   2.788  1.00  0.00    -0.134 N 
ATOM     34  H6  UNL     1      -3.082  -0.745   4.243  1.00  0.00     0.208 HD
BRANCH  30  35
HETATM   35  N5  UNL     1      -3.480  -3.148   3.032  1.00  0.00    -0.233 N 
ATOM     36  H52 UNL     1      -3.674  -4.014   2.529  1.00  0.00     0.174 HD
ATOM     37  H51 UNL     1      -2.884  -3.385   3.825  1.00  0.00     0.174 HD
ENDBRANCH  30  35
BRANCH  33  38
HETATM   38  O2  UNL     1      -4.225   1.493   3.195  1.00  0.00    -0.266 OA
ATOM     39  H2  UNL     1      -3.763   1.843   3.948  1.00  0.00     0.247 HD
ENDBRANCH  33  38
ENDBRANCH  27  28
ENDBRANCH  24  27
ENDBRANCH  23  24
ENDBRANCH  22  23
BRANCH  22  40
HETATM   40  C22 UNL     1      -3.501   3.374   0.072  1.00  0.00     0.255 C 
HETATM   41  N8  UNL     1      -4.747   3.974   0.380  1.00  0.00    -0.060 NA
HETATM   42  O3  UNL     1      -2.483   3.840   0.717  1.00  0.00    -0.275 OA
ENDBRANCH  22  40
ENDBRANCH   1  22
TORSDOF 17
