REMARK  4 active torsions:
REMARK  status: ('A' for Active; 'I' for Inactive)
REMARK    1  A    between atoms: N1_5  and  C5_6 
REMARK    2  A    between atoms: C5_6  and  C6_7 
REMARK    3  A    between atoms: C6_7  and  N2_8 
REMARK    4  A    between atoms: C6_7  and  C7_12 
ROOT
HETATM    1  C1  UNL     1      -0.381  -3.556  -1.216  1.00  0.00     0.038 C 
HETATM    2  C2  UNL     1      -0.557  -2.425  -0.553  1.00  0.00    -0.000 C 
HETATM    3  C3  UNL     1       0.002  -1.195  -1.202  1.00  0.00     0.100 C 
HETATM    4  C4  UNL     1       0.570  -0.203  -0.231  1.00  0.00     0.064 C 
HETATM    5  N1  UNL     1       1.567   0.621  -0.776  1.00  0.00    -0.389 N 
HETATM    6  C8  UNL     1       1.209   1.978  -1.050  1.00  0.00     0.149 C 
HETATM    7  C9  UNL     1      -0.224   2.325  -1.058  1.00  0.00     0.252 C 
HETATM    8  N3  UNL     1      -0.681   2.936   0.202  1.00  0.00    -0.074 N 
ATOM      9  H31 UNL     1      -0.299   3.875   0.318  1.00  0.00     0.277 HD
ATOM     10  H32 UNL     1      -0.250   2.486   1.009  1.00  0.00     0.277 HD
HETATM   11  C10 UNL     1      -2.117   2.939   0.310  1.00  0.00     0.234 C 
HETATM   12  C11 UNL     1      -2.536   2.127   1.516  1.00  0.00     0.046 C 
HETATM   13  C12 UNL     1      -3.600   1.092   1.182  1.00  0.00     0.115 C 
HETATM   14  N4  UNL     1      -3.335   0.338   0.014  1.00  0.00    -0.420 N 
ATOM     15  H4  UNL     1      -3.234   0.789  -0.895  1.00  0.00     0.153 HD
HETATM   16  C13 UNL     1      -3.215  -1.074   0.155  1.00  0.00     0.133 C 
HETATM   17  C14 UNL     1      -2.228  -1.547   1.169  1.00  0.00     0.138 C 
HETATM   18  N5  UNL     1      -1.224  -2.455   0.669  1.00  0.00    -0.392 N 
ATOM     19  H5  UNL     1      -0.969  -3.220   1.293  1.00  0.00     0.159 HD
ENDROOT
BRANCH   5  20
HETATM   20  C5  UNL     1       2.888   0.569  -0.268  1.00  0.00     0.165 C 
BRANCH  20  21
HETATM   21  C6  UNL     1       3.703  -0.638  -0.532  1.00  0.00     0.301 C 
BRANCH  21  22
HETATM   22  N2  UNL     1       3.112  -1.829   0.009  1.00  0.00    -0.064 N 
ATOM     23  H23 UNL     1       2.923  -1.725   1.006  1.00  0.00     0.275 HD
ATOM     24  H22 UNL     1       2.157  -1.950  -0.327  1.00  0.00     0.275 HD
ATOM     25  H21 UNL     1       3.674  -2.661  -0.173  1.00  0.00     0.275 HD
ENDBRANCH  21  22
BRANCH  21  26
HETATM   26  C7  UNL     1       5.040  -0.503   0.141  1.00  0.00     0.206 C 
HETATM   27  O1  UNL     1       5.740   0.484  -0.175  1.00  0.00    -0.646 OA
HETATM   28  O2  UNL     1       5.515  -1.395   1.066  1.00  0.00    -0.646 OA
ENDBRANCH  21  26
ENDBRANCH  20  21
ENDBRANCH   5  20
TORSDOF 4
