REMARK  7 active torsions:
REMARK  status: ('A' for Active; 'I' for Inactive)
REMARK    1  A    between atoms: O1_2  and  C2_3 
REMARK    2  A    between atoms: C3_5  and  N1_6 
REMARK    3  A    between atoms: N1_6  and  C4_8 
REMARK    4  A    between atoms: C4_8  and  N2_10 
REMARK    5  A    between atoms: N2_10  and  N3_12 
REMARK       I    between atoms: N3_12  and  C5_14 
REMARK       I    between atoms: C5_14  and  N4_16 
REMARK    6  A    between atoms: N4_16  and  C6_18 
REMARK    7  A    between atoms: C10_23  and  O4_24 
ROOT
HETATM    1  C6  UNL     1      -5.118  -0.340   0.311  1.00  0.00     0.189 C 
HETATM    2  C7  UNL     1      -5.933  -0.723  -0.887  1.00  0.00     0.048 C 
HETATM    3  C8  UNL     1      -6.017  -0.078   1.444  1.00  0.00     0.084 C 
HETATM    4  N5  UNL     1      -6.729   0.152   2.350  1.00  0.00    -0.195 NA
ENDROOT
BRANCH   1   5
HETATM    5  N4  UNL     1      -4.329   0.840  -0.003  1.00  0.00    -0.325 N 
HETATM    6  C5  UNL     1      -2.903   0.850   0.158  1.00  0.00     0.335 C 
HETATM    7  N3  UNL     1      -2.130   1.998  -0.149  1.00  0.00    -0.249 N 
HETATM    8  O3  UNL     1      -2.365  -0.187   0.578  1.00  0.00    -0.246 OA
ATOM      9  H3  UNL     1      -2.589   2.842  -0.493  1.00  0.00     0.192 HD
ATOM     10  H4  UNL     1      -4.799   1.678  -0.345  1.00  0.00     0.165 HD
BRANCH   7  11
HETATM   11  N2  UNL     1      -0.746   1.979   0.017  1.00  0.00    -0.272 N 
ATOM     12  H2  UNL     1      -0.352   2.599   0.724  1.00  0.00     0.189 HD
BRANCH  11  13
HETATM   13  C4  UNL     1       0.159   1.170  -0.715  1.00  0.00     0.188 C 
HETATM   14  S1  UNL     1      -0.439   0.185  -1.856  1.00  0.00    -0.039 SA
BRANCH  13  15
HETATM   15  N1  UNL     1       1.535   1.211  -0.480  1.00  0.00    -0.339 N 
ATOM     16  H1  UNL     1       1.863   1.852   0.243  1.00  0.00     0.164 HD
BRANCH  15  17
HETATM   17  C3  UNL     1       2.532   0.431  -1.165  1.00  0.00     0.228 C 
HETATM   18  O2  UNL     1       3.815   0.771  -0.782  1.00  0.00    -0.334 OA
HETATM   19  C2  UNL     1       4.316  -0.302  -0.040  1.00  0.00     0.290 C 
HETATM   20  C10 UNL     1       3.755  -1.516  -0.748  1.00  0.00     0.177 C 
HETATM   21  C9  UNL     1       2.339  -1.047  -0.979  1.00  0.00     0.090 C 
BRANCH  19  22
HETATM   22  O1  UNL     1       3.677  -0.215   1.202  1.00  0.00    -0.363 OA
HETATM   23  C1  UNL     1       4.602  -0.121   2.238  1.00  0.00     0.204 C 
ENDBRANCH  19  22
BRANCH  20  24
HETATM   24  O4  UNL     1       3.811  -2.655   0.041  1.00  0.00    -0.391 OA
ATOM     25  H4  UNL     1       3.459  -3.417  -0.403  1.00  0.00     0.210 HD
ENDBRANCH  20  24
ENDBRANCH  15  17
ENDBRANCH  13  15
ENDBRANCH  11  13
ENDBRANCH   7  11
ENDBRANCH   1   5
TORSDOF 7
