REMARK  7 active torsions:
REMARK  status: ('A' for Active; 'I' for Inactive)
REMARK    1  A    between atoms: C2_2  and  C4_4 
REMARK    2  A    between atoms: C8_11  and  O1_12 
REMARK    3  A    between atoms: O1_12  and  C9_13 
REMARK    4  A    between atoms: C9_13  and  C10_15 
REMARK    5  A    between atoms: C11_16  and  C12_17 
REMARK    6  A    between atoms: C12_17  and  O3_18 
REMARK    7  A    between atoms: N2_20  and  O4_22 
ROOT
HETATM    1  C4  UNL     1      -2.463   0.086   0.073  1.00  0.00    -0.008 C 
HETATM    2  C5  UNL     1      -2.645   1.266  -0.853  1.00  0.00     0.011 C 
HETATM    3  C6  UNL     1      -1.589   1.142  -1.939  1.00  0.00     0.055 C 
HETATM    4  C7  UNL     1      -0.839  -0.136  -1.837  1.00  0.00     0.010 C 
HETATM    5  N1  UNL     1      -0.807  -0.897  -2.866  1.00  0.00    -0.403 N 
ATOM      6  H11 UNL     1      -0.292  -1.775  -2.796  1.00  0.00     0.155 HD
ATOM      7  H12 UNL     1      -1.266  -0.679  -3.750  1.00  0.00     0.155 HD
HETATM    8  C8  UNL     1      -0.171  -0.454  -0.549  1.00  0.00     0.177 C 
HETATM    9  C13 UNL     1      -1.051   0.087   0.559  1.00  0.00     0.043 C 
ENDROOT
BRANCH   8  10
HETATM   10  O1  UNL     1       1.105   0.148  -0.454  1.00  0.00    -0.307 OA
BRANCH  10  11
HETATM   11  C9  UNL     1       2.233  -0.609  -0.211  1.00  0.00     0.283 C 
HETATM   12  O2  UNL     1       2.114  -1.840  -0.074  1.00  0.00    -0.260 OA
BRANCH  11  13
HETATM   13  C10 UNL     1       3.567  -0.034  -0.106  1.00  0.00     0.086 C 
HETATM   14  C11 UNL     1       4.631  -0.780   0.128  1.00  0.00     0.063 C 
BRANCH  14  15
HETATM   15  C12 UNL     1       5.950  -0.162   0.226  1.00  0.00     0.159 C 
HETATM   16  N2  UNL     1       6.073   1.112   0.085  1.00  0.00    -0.248 N 
ATOM     17  H2  UNL     1       5.254   1.693  -0.095  1.00  0.00     0.196 HD
BRANCH  15  18
HETATM   18  O3  UNL     1       7.052  -0.955   0.470  1.00  0.00    -0.345 OA
ATOM     19  H3  UNL     1       7.910  -0.553   0.534  1.00  0.00     0.219 HD
ENDBRANCH  15  18
BRANCH  16  20
HETATM   20  O4  UNL     1       7.302   1.672   0.178  1.00  0.00    -0.288 OA
ATOM     21  H4  UNL     1       7.393   2.612   0.074  1.00  0.00     0.244 HD
ENDBRANCH  16  20
ENDBRANCH  14  15
ENDBRANCH  11  13
ENDBRANCH  10  11
ENDBRANCH   8  10
BRANCH   1  22
HETATM   22  C2  UNL     1      -3.472   0.156   1.221  1.00  0.00    -0.019 C 
HETATM   23  C1  UNL     1      -3.271  -1.034   2.134  1.00  0.00     0.010 C 
HETATM   24  C3  UNL     1      -4.839   0.003   0.586  1.00  0.00     0.010 C 
ENDBRANCH   1  22
TORSDOF 7
