REMARK  12 active torsions:
REMARK  status: ('A' for Active; 'I' for Inactive)
REMARK    1  A    between atoms: C2_2  and  C4_4 
REMARK    2  A    between atoms: C4_4  and  C5_5 
REMARK    3  A    between atoms: C7_10  and  C8_11 
REMARK    4  A    between atoms: C8_11  and  C9_12 
REMARK    5  A    between atoms: C9_12  and  C10_13 
REMARK    6  A    between atoms: C10_13  and  C11_14 
REMARK    7  A    between atoms: C11_14  and  N2_15 
REMARK    8  A    between atoms: C13_23  and  C14_24 
REMARK    9  A    between atoms: C19_31  and  C20_32 
REMARK   10  A    between atoms: C24_39  and  C25_40 
REMARK   11  A    between atoms: C25_40  and  C26_41 
REMARK   12  A    between atoms: C30_48  and  C31_49 
ROOT
HETATM    1  C5  UNL     1       1.922   2.237  -0.462  1.00  0.00     0.177 C 
HETATM    2  N1  UNL     1       2.060   1.229   0.559  1.00  0.00    -0.346 N 
ATOM      3  H1  UNL     1       2.162   1.586   1.509  1.00  0.00     0.163 HD
HETATM    4  C6  UNL     1       2.075  -0.163   0.444  1.00  0.00     0.241 C 
HETATM    5  O1  UNL     1       1.193  -0.797   1.140  1.00  0.00    -0.271 OA
HETATM    6  C7  UNL     1       2.956  -1.038  -0.357  1.00  0.00     0.176 C 
HETATM    7  N3  UNL     1       2.391  -1.629  -1.529  1.00  0.00    -0.346 N 
ATOM      8  H3  UNL     1       2.394  -0.995  -2.328  1.00  0.00     0.163 HD
HETATM    9  C12 UNL     1       1.839  -2.865  -1.831  1.00  0.00     0.241 C 
HETATM   10  O2  UNL     1       2.513  -3.630  -2.634  1.00  0.00    -0.271 OA
HETATM   11  C13 UNL     1       0.566  -3.478  -1.381  1.00  0.00     0.182 C 
HETATM   12  N4  UNL     1      -0.565  -2.970  -2.160  1.00  0.00    -0.341 N 
HETATM   13  C17 UNL     1      -0.748  -3.518  -3.513  1.00  0.00     0.153 C 
HETATM   14  C18 UNL     1      -1.479  -1.993  -1.757  1.00  0.00     0.243 C 
HETATM   15  O3  UNL     1      -1.743  -1.113  -2.669  1.00  0.00    -0.271 OA
HETATM   16  C19 UNL     1      -2.172  -1.830  -0.461  1.00  0.00     0.180 C 
HETATM   17  N5  UNL     1      -3.260  -0.897  -0.681  1.00  0.00    -0.346 N 
ATOM     18  H5  UNL     1      -4.070  -1.268  -1.178  1.00  0.00     0.163 HD
HETATM   19  C23 UNL     1      -3.342   0.446  -0.299  1.00  0.00     0.241 C 
HETATM   20  O4  UNL     1      -3.536   1.299  -1.249  1.00  0.00    -0.271 OA
HETATM   21  C24 UNL     1      -3.239   1.036   1.051  1.00  0.00     0.177 C 
HETATM   22  N6  UNL     1      -1.904   1.293   1.512  1.00  0.00    -0.346 N 
ATOM     23  H6  UNL     1      -1.382   0.447   1.738  1.00  0.00     0.163 HD
HETATM   24  C29 UNL     1      -1.181   2.459   1.712  1.00  0.00     0.241 C 
HETATM   25  O5  UNL     1      -0.870   2.737   2.941  1.00  0.00    -0.271 OA
HETATM   26  C30 UNL     1      -0.679   3.473   0.766  1.00  0.00     0.180 C 
HETATM   27  N7  UNL     1      -0.525   3.024  -0.591  1.00  0.00    -0.346 N 
ATOM     28  H7  UNL     1      -1.244   3.291  -1.264  1.00  0.00     0.163 HD
HETATM   29  C34 UNL     1       0.561   2.232  -1.061  1.00  0.00     0.241 C 
HETATM   30  O6  UNL     1       0.361   1.478  -2.045  1.00  0.00    -0.271 OA
ENDROOT
BRANCH   6  31
HETATM   31  C8  UNL     1       3.655  -2.055   0.569  1.00  0.00     0.035 C 
BRANCH  31  32
HETATM   32  C9  UNL     1       4.494  -1.334   1.600  1.00  0.00     0.004 C 
BRANCH  32  33
HETATM   33  C10 UNL     1       5.172  -2.353   2.500  1.00  0.00     0.027 C 
BRANCH  33  34
HETATM   34  C11 UNL     1       6.007  -1.602   3.525  1.00  0.00     0.229 C 
BRANCH  34  35
HETATM   35  N2  UNL     1       6.678  -2.522   4.411  1.00  0.00    -0.079 N 
ATOM     36  H23 UNL     1       6.022  -3.164   4.856  1.00  0.00     0.274 HD
ATOM     37  H22 UNL     1       7.235  -3.204   3.896  1.00  0.00     0.274 HD
ATOM     38  H21 UNL     1       7.238  -2.018   5.099  1.00  0.00     0.274 HD
ENDBRANCH  34  35
ENDBRANCH  33  34
ENDBRANCH  32  33
ENDBRANCH  31  32
ENDBRANCH   6  31
BRANCH   1  39
HETATM   39  C4  UNL     1       2.986   2.229  -1.514  1.00  0.00     0.038 C 
BRANCH  39  40
HETATM   40  C2  UNL     1       2.753   3.338  -2.519  1.00  0.00    -0.020 C 
HETATM   41  C1  UNL     1       3.903   3.216  -3.532  1.00  0.00     0.009 C 
HETATM   42  C3  UNL     1       2.766   4.713  -1.881  1.00  0.00     0.009 C 
ENDBRANCH  39  40
ENDBRANCH   1  39
BRANCH  11  43
HETATM   43  C14 UNL     1       0.582  -4.938  -1.177  1.00  0.00     0.009 C 
HETATM   44  C15 UNL     1       1.622  -5.300  -0.097  1.00  0.00     0.012 C 
HETATM   45  C16 UNL     1       0.794  -5.857  -2.300  1.00  0.00     0.012 C 
ENDBRANCH  11  43
BRANCH  26  46
HETATM   46  C31 UNL     1      -1.369   4.818   0.880  1.00  0.00     0.009 C 
HETATM   47  C32 UNL     1      -0.766   5.786  -0.147  1.00  0.00     0.012 C 
HETATM   48  C33 UNL     1      -1.078   5.458   2.238  1.00  0.00     0.012 C 
ENDBRANCH  26  46
BRANCH  16  49
HETATM   49  C20 UNL     1      -2.823  -3.109   0.020  1.00  0.00     0.009 C 
HETATM   50  C21 UNL     1      -3.489  -2.756   1.360  1.00  0.00     0.012 C 
HETATM   51  C22 UNL     1      -3.895  -3.609  -0.883  1.00  0.00     0.012 C 
ENDBRANCH  16  49
BRANCH  21  52
HETATM   52  C25 UNL     1      -4.178   2.249   1.173  1.00  0.00     0.038 C 
BRANCH  52  53
HETATM   53  C26 UNL     1      -5.607   1.786   0.939  1.00  0.00    -0.020 C 
HETATM   54  C27 UNL     1      -5.961   0.744   1.984  1.00  0.00     0.009 C 
HETATM   55  C28 UNL     1      -6.551   2.958   1.074  1.00  0.00     0.009 C 
ENDBRANCH  52  53
ENDBRANCH  21  52
TORSDOF 12
