REMARK  5 active torsions:
REMARK  status: ('A' for Active; 'I' for Inactive)
REMARK       I    between atoms: N2_3  and  C2_5 
REMARK    1  A    between atoms: C2_5  and  C3_7 
REMARK    2  A    between atoms: N3_12  and  C8_13 
REMARK    3  A    between atoms: C9_16  and  N5_17 
REMARK    4  A    between atoms: C10_22  and  N7_23 
REMARK    5  A    between atoms: N7_23  and  N8_25 
ROOT
HETATM    1  N1  UNL     1      -2.176   4.991   0.274  1.00  0.00    -0.172 NA
HETATM    2  C1  UNL     1      -2.312   3.847   0.182  1.00  0.00     0.184 C 
HETATM    3  N2  UNL     1      -2.462   2.440   0.090  1.00  0.00    -0.262 N 
ATOM      4  H2  UNL     1      -3.353   2.012   0.342  1.00  0.00     0.181 HD
HETATM    5  C2  UNL     1      -1.389   1.617  -0.349  1.00  0.00     0.254 C 
HETATM    6  O1  UNL     1      -0.302   2.141  -0.660  1.00  0.00    -0.270 OA
ENDROOT
BRANCH   5   7
HETATM    7  C3  UNL     1      -1.583   0.170  -0.425  1.00  0.00     0.195 C 
HETATM    8  C4  UNL     1      -2.348  -0.280   0.801  1.00  0.00     0.036 C 
HETATM    9  C5  UNL     1      -2.395  -1.757   1.010  1.00  0.00     0.004 C 
HETATM   10  C6  UNL     1      -1.292  -2.558   0.424  1.00  0.00     0.020 C 
HETATM   11  C7  UNL     1      -0.766  -2.069  -0.874  1.00  0.00     0.142 C 
HETATM   12  N3  UNL     1      -0.437  -0.631  -0.679  1.00  0.00    -0.203 N 
BRANCH  12  13
HETATM   13  C8  UNL     1       0.911  -0.285  -0.772  1.00  0.00     0.710 A 
HETATM   14  N4  UNL     1       1.584  -0.375  -1.952  1.00  0.00    -0.021 N 
HETATM   15  C9  UNL     1       2.882  -0.049  -2.049  1.00  0.00     0.705 A 
ATOM     16  H4  UNL     1       1.089  -0.698  -2.783  1.00  0.00     0.203 HD
HETATM   17  N6  UNL     1       3.555   0.382  -0.972  1.00  0.00    -0.020 N 
HETATM   18  C10 UNL     1       2.916   0.482   0.208  1.00  0.00     0.725 A 
ATOM     19  H6  UNL     1       4.541   0.631  -1.047  1.00  0.00     0.203 HD
HETATM   20  N9  UNL     1       1.599   0.145   0.291  1.00  0.00    -0.020 N 
ATOM     21  H9  UNL     1       1.124   0.223   1.190  1.00  0.00     0.203 HD
BRANCH  15  22
HETATM   22  N5  UNL     1       3.517  -0.142  -3.161  1.00  0.00    -0.234 N 
ATOM     23  H52 UNL     1       3.005  -0.470  -3.980  1.00  0.00     0.174 HD
ATOM     24  H51 UNL     1       4.504   0.106  -3.235  1.00  0.00     0.174 HD
ENDBRANCH  15  22
BRANCH  18  25
HETATM   25  N7  UNL     1       3.574   0.916   1.232  1.00  0.00    -0.138 N 
ATOM     26  H7  UNL     1       4.555   1.170   1.116  1.00  0.00     0.205 HD
BRANCH  25  27
HETATM   27  N8  UNL     1       2.988   1.048   2.490  1.00  0.00    -0.331 N 
ATOM     28  H82 UNL     1       2.006   0.789   2.588  1.00  0.00     0.177 HD
ATOM     29  H81 UNL     1       3.507   1.391   3.298  1.00  0.00     0.177 HD
ENDBRANCH  25  27
ENDBRANCH  18  25
ENDBRANCH  12  13
ENDBRANCH   5   7
TORSDOF 5
