REMARK  4 active torsions:
REMARK  status: ('A' for Active; 'I' for Inactive)
REMARK    1  A    between atoms: C3_4  and  N2_5 
REMARK    2  A    between atoms: C5_7  and  N3_8 
REMARK    3  A    between atoms: C8_15  and  C9_16 
REMARK    4  A    between atoms: C10_21  and  N6_22 
ROOT
HETATM    1  N1  UNL     1       1.090   2.073   2.979  1.00  0.00    -0.191 NA
HETATM    2  C1  UNL     1       1.497   1.430   2.112  1.00  0.00     0.109 C 
HETATM    3  C2  UNL     1       2.013   0.614   1.052  1.00  0.00     0.157 A 
HETATM    4  C3  UNL     1       1.141   0.028   0.182  1.00  0.00     0.146 A 
HETATM    5  N5  UNL     1       1.700  -0.761  -0.791  1.00  0.00    -0.175 N 
ATOM      6  H5  UNL     1       1.081  -1.218  -1.461  1.00  0.00     0.186 HD
HETATM    7  C10 UNL     1       3.016  -0.959  -0.902  1.00  0.00     0.680 A 
HETATM    8  N7  UNL     1       3.900  -0.388  -0.055  1.00  0.00    -0.155 N 
ATOM      9  H7  UNL     1       4.906  -0.536  -0.139  1.00  0.00     0.187 HD
HETATM   10  C11 UNL     1       3.370   0.387   0.905  1.00  0.00     0.284 A 
HETATM   11  O3  UNL     1       4.148   0.942   1.723  1.00  0.00    -0.266 OA
ENDROOT
BRANCH   4  12
HETATM   12  N2  UNL     1      -0.256   0.155   0.158  1.00  0.00    -0.347 N 
HETATM   13  C4  UNL     1      -1.197  -0.514   1.062  1.00  0.00     0.180 C 
HETATM   14  C5  UNL     1      -2.350  -0.894   0.134  1.00  0.00     0.228 C 
HETATM   15  C6  UNL     1      -3.590  -0.693   0.839  1.00  0.00     0.100 C 
HETATM   16  C7  UNL     1      -2.196  -0.055  -1.116  1.00  0.00     0.092 C 
HETATM   17  N4  UNL     1      -4.573  -0.530   1.422  1.00  0.00    -0.195 NA
HETATM   18  C8  UNL     1      -1.016   0.900  -0.812  1.00  0.00     0.190 C 
BRANCH  14  19
HETATM   19  N3  UNL     1      -2.200  -2.304  -0.222  1.00  0.00    -0.056 N 
ATOM     20  H33 UNL     1      -1.286  -2.514  -0.623  1.00  0.00     0.276 HD
ATOM     21  H32 UNL     1      -2.135  -2.912   0.595  1.00  0.00     0.276 HD
ATOM     22  H31 UNL     1      -2.970  -2.558  -0.841  1.00  0.00     0.276 HD
ENDBRANCH  14  19
BRANCH  18  23
HETATM   23  C9  UNL     1      -1.612   2.143  -0.310  1.00  0.00     0.197 C 
HETATM   24  O1  UNL     1      -1.701   2.379   0.905  1.00  0.00    -0.646 OA
HETATM   25  O2  UNL     1      -2.099   3.101  -1.225  1.00  0.00    -0.646 OA
ENDBRANCH  18  23
ENDBRANCH   4  12
BRANCH   7  26
HETATM   26  N6  UNL     1       3.511  -1.745  -1.825  1.00  0.00    -0.234 N 
ATOM     27  H62 UNL     1       2.844  -2.176  -2.465  1.00  0.00     0.174 HD
ATOM     28  H61 UNL     1       4.516  -1.896  -1.910  1.00  0.00     0.174 HD
ENDBRANCH   7  26
TORSDOF 4
