REMARK  5 active torsions:
REMARK  status: ('A' for Active; 'I' for Inactive)
REMARK    1  A    between atoms: N1_2  and  C2_5 
REMARK    2  A    between atoms: C2_5  and  C3_6 
REMARK    3  A    between atoms: C3_6  and  O1_7 
REMARK    4  A    between atoms: O1_7  and  C4_8 
REMARK    5  A    between atoms: C7_15  and  N4_16 
ROOT
HETATM    1  C4  UNL     1      -0.669   0.259  -0.018  1.00  0.00     0.253 C 
HETATM    2  N2  UNL     1      -0.898   0.022  -1.386  1.00  0.00    -0.358 N 
ATOM      3  H2  UNL     1      -0.298   0.440  -2.097  1.00  0.00     0.162 HD
HETATM    4  C5  UNL     1      -1.986  -0.815  -1.751  1.00  0.00     0.173 C 
HETATM    5  N3  UNL     1      -3.184  -0.654  -0.997  1.00  0.00    -0.384 N 
ATOM      6  H3  UNL     1      -4.050  -1.143  -1.222  1.00  0.00     0.160 HD
HETATM    7  C6  UNL     1      -3.067   0.259   0.111  1.00  0.00     0.157 C 
HETATM    8  C7  UNL     1      -1.810  -0.161   0.841  1.00  0.00     0.249 C 
ENDROOT
BRANCH   1   9
HETATM    9  O1  UNL     1       0.553  -0.262   0.394  1.00  0.00    -0.363 OA
BRANCH   9  10
HETATM   10  C3  UNL     1       1.471   0.665   0.813  1.00  0.00     0.198 C 
BRANCH  10  11
HETATM   11  C2  UNL     1       2.723  -0.123   1.218  1.00  0.00     0.258 C 
BRANCH  11  12
HETATM   12  N1  UNL     1       3.244  -0.879   0.100  1.00  0.00    -0.077 N 
HETATM   13  C1  UNL     1       3.793  -0.049  -0.944  1.00  0.00     0.267 C 
ATOM     14  H12 UNL     1       2.534  -1.509  -0.274  1.00  0.00     0.276 HD
ATOM     15  H11 UNL     1       3.929  -1.566   0.415  1.00  0.00     0.276 HD
ENDBRANCH  11  12
ENDBRANCH  10  11
ENDBRANCH   9  10
ENDBRANCH   1   9
BRANCH   8  16
HETATM   16  N4  UNL     1      -1.829   0.496   2.131  1.00  0.00    -0.069 N 
ATOM     17  H43 UNL     1      -0.942   0.365   2.617  1.00  0.00     0.275 HD
ATOM     18  H42 UNL     1      -1.813   1.510   2.021  1.00  0.00     0.275 HD
ATOM     19  H41 UNL     1      -2.611   0.208   2.720  1.00  0.00     0.275 HD
ENDBRANCH   8  16
TORSDOF 5
