REMARK  5 active torsions:
REMARK  status: ('A' for Active; 'I' for Inactive)
REMARK    1  A    between atoms: C3_3  and  C4_4 
REMARK    2  A    between atoms: C4_4  and  N1_5 
REMARK    3  A    between atoms: C4_4  and  N2_9 
REMARK    4  A    between atoms: N2_9  and  N3_10 
REMARK    5  A    between atoms: N3_10  and  C5_12 
ROOT
HETATM    1  N2  UNL     1       0.197   0.352  -0.874  1.00  0.00    -0.101 NA
ENDROOT
BRANCH   1   2
HETATM    2  C4  UNL     1       1.048   1.014   0.089  1.00  0.00     0.318 C 
BRANCH   2   3
HETATM    3  C3  UNL     1       2.095   0.059   0.499  1.00  0.00     0.020 C 
HETATM    4  C2  UNL     1       3.360   0.334   0.268  1.00  0.00    -0.032 C 
HETATM    5  C1  UNL     1       4.446  -0.608   0.668  1.00  0.00     0.036 C 
ENDBRANCH   2   3
BRANCH   2   6
HETATM    6  N1  UNL     1       1.637   2.189  -0.503  1.00  0.00    -0.056 N 
ATOM      7  H13 UNL     1       2.323   2.622   0.116  1.00  0.00     0.276 HD
ATOM      8  H12 UNL     1       2.258   1.952  -1.277  1.00  0.00     0.276 HD
ATOM      9  H11 UNL     1       0.913   2.849  -0.786  1.00  0.00     0.276 HD
ENDBRANCH   2   6
ENDBRANCH   1   2
BRANCH   1  10
HETATM   10  N3  UNL     1      -0.417  -0.776  -0.380  1.00  0.00    -0.273 N 
ATOM     11  H3  UNL     1       0.148  -1.599  -0.170  1.00  0.00     0.185 HD
BRANCH  10  12
HETATM   12  C5  UNL     1      -1.833  -0.822  -0.153  1.00  0.00     0.187 C 
HETATM   13  N4  UNL     1      -2.399  -1.481   0.800  1.00  0.00    -0.360 N 
HETATM   14  C6  UNL     1      -3.838  -1.325   0.758  1.00  0.00     0.142 C 
ATOM     15  H4  UNL     1      -1.899  -2.039   1.492  1.00  0.00     0.162 HD
HETATM   16  C7  UNL     1      -3.995  -0.078  -0.087  1.00  0.00     0.142 C 
HETATM   17  N5  UNL     1      -2.821  -0.154  -0.937  1.00  0.00    -0.360 N 
ATOM     18  H5  UNL     1      -2.723   0.195  -1.890  1.00  0.00     0.162 HD
ENDBRANCH  10  12
ENDBRANCH   1  10
TORSDOF 5
