REMARK  9 active torsions:
REMARK  status: ('A' for Active; 'I' for Inactive)
REMARK    1  A    between atoms: N1_1  and  C1_4 
REMARK    2  A    between atoms: C4_14  and  O1_15 
REMARK    3  A    between atoms: O1_15  and  C5_16 
REMARK    4  A    between atoms: C5_16  and  O2_17 
REMARK    5  A    between atoms: N5_19  and  C6_20 
REMARK    6  A    between atoms: C6_20  and  O3_21 
REMARK    7  A    between atoms: O3_21  and  C7_22 
REMARK    8  A    between atoms: C7_22  and  C8_23 
REMARK    9  A    between atoms: C8_23  and  O4_24 
ROOT
HETATM    1  C1  UNL     1       2.339  -2.299  -0.322  1.00  0.00     0.679 A 
HETATM    2  N2  UNL     1       3.474  -1.573  -0.497  1.00  0.00    -0.175 N 
ATOM      3  H2  UNL     1       4.367  -2.060  -0.577  1.00  0.00     0.186 HD
HETATM    4  C2  UNL     1       3.452  -0.232  -0.567  1.00  0.00     0.145 A 
HETATM    5  N3  UNL     1       4.523   0.464  -0.733  1.00  0.00    -0.383 N 
ATOM      6  H31 UNL     1       4.506   1.482  -0.786  1.00  0.00     0.157 HD
ATOM      7  H32 UNL     1       5.429   0.003  -0.816  1.00  0.00     0.157 HD
HETATM    8  C3  UNL     1       2.227   0.391  -0.455  1.00  0.00     0.125 A 
HETATM    9  N4  UNL     1       1.830   1.666  -0.477  1.00  0.00    -0.316 N 
ATOM     10  H4  UNL     1       2.443   2.472  -0.595  1.00  0.00     0.169 HD
HETATM   11  C4  UNL     1       0.495   1.721  -0.320  1.00  0.00     0.232 A 
HETATM   12  N5  UNL     1      -0.005   0.478  -0.193  1.00  0.00    -0.274 N 
HETATM   13  C9  UNL     1       1.051  -0.346  -0.275  1.00  0.00     0.159 A 
HETATM   14  N6  UNL     1       1.145  -1.668  -0.214  1.00  0.00    -0.174 N 
ATOM     15  H6  UNL     1       0.299  -2.222  -0.083  1.00  0.00     0.186 HD
ENDROOT
BRANCH  12  16
HETATM   16  C6  UNL     1      -1.417   0.192  -0.009  1.00  0.00     0.303 C 
BRANCH  16  17
HETATM   17  O3  UNL     1      -1.796   0.154   1.291  1.00  0.00    -0.369 OA
BRANCH  17  18
HETATM   18  C7  UNL     1      -3.145  -0.094   1.413  1.00  0.00     0.196 C 
BRANCH  18  19
HETATM   19  C8  UNL     1      -3.636  -1.383   0.847  1.00  0.00     0.190 C 
BRANCH  19  20
HETATM   20  O4  UNL     1      -5.033  -1.403   1.104  1.00  0.00    -0.399 OA
ATOM     21  H4  UNL     1      -5.346  -2.224   0.743  1.00  0.00     0.209 HD
ENDBRANCH  19  20
ENDBRANCH  18  19
ENDBRANCH  17  18
ENDBRANCH  16  17
ENDBRANCH  12  16
BRANCH  11  22
HETATM   22  O1  UNL     1      -0.221   2.903  -0.299  1.00  0.00    -0.296 OA
BRANCH  22  23
HETATM   23  C5  UNL     1       0.429   4.141  -0.444  1.00  0.00     0.344 C 
BRANCH  23  24
HETATM   24  O2  UNL     1      -0.509   5.168  -0.387  1.00  0.00    -0.377 OA
ATOM     25  H2  UNL     1      -0.070   6.005  -0.485  1.00  0.00     0.212 HD
ENDBRANCH  23  24
ENDBRANCH  22  23
ENDBRANCH  11  22
BRANCH   1  26
HETATM   26  N1  UNL     1       2.345  -3.588  -0.253  1.00  0.00    -0.234 N 
ATOM     27  H12 UNL     1       3.244  -4.063  -0.334  1.00  0.00     0.174 HD
ATOM     28  H11 UNL     1       1.493  -4.133  -0.122  1.00  0.00     0.174 HD
ENDBRANCH   1  26
TORSDOF 9
