REMARK  1 active torsions:
REMARK  status: ('A' for Active; 'I' for Inactive)
REMARK    1  A    between atoms: C4_4  and  C5_5 
ROOT
HETATM    1  C1  UNL     1      -2.448   0.527   0.354  1.00  0.00     0.044 C 
HETATM    2  C2  UNL     1      -2.094  -0.751  -0.382  1.00  0.00     0.007 C 
HETATM    3  C3  UNL     1      -0.720  -1.145   0.157  1.00  0.00     0.026 C 
HETATM    4  C4  UNL     1       0.298  -0.095  -0.250  1.00  0.00     0.084 C 
HETATM    5  N1  UNL     1      -0.106   1.217   0.053  1.00  0.00    -0.397 N 
ATOM      6  H1  UNL     1       0.587   1.907   0.342  1.00  0.00     0.159 HD
HETATM    7  C8  UNL     1      -1.446   1.579  -0.039  1.00  0.00     0.056 C 
ENDROOT
BRANCH   4   8
HETATM    8  C5  UNL     1       1.589  -0.479   0.441  1.00  0.00     0.008 A 
HETATM    9  C6  UNL     1       2.810   0.339   0.262  1.00  0.00     0.007 A 
HETATM   10  C7  UNL     1       2.733  -0.960  -0.473  1.00  0.00     0.007 A 
ENDBRANCH   4   8
TORSDOF 1
