REMARK  4 active torsions:
REMARK  status: ('A' for Active; 'I' for Inactive)
REMARK    1  A    between atoms: N1_1  and  C1_5 
REMARK    2  A    between atoms: C1_5  and  C2_6 
REMARK    3  A    between atoms: C2_6  and  C3_7 
REMARK    4  A    between atoms: C3_7  and  C4_8 
ROOT
HETATM    1  C4  UNL     1      -0.768  -0.669  -0.411  1.00  0.00     0.149 A 
HETATM    2  N2  UNL     1      -1.019   0.609  -1.022  1.00  0.00    -0.353 N 
ATOM      3  H2  UNL     1      -0.414   1.073  -1.699  1.00  0.00     0.163 HD
HETATM    4  C5  UNL     1      -2.131   1.069  -0.574  1.00  0.00     0.190 A 
HETATM    5  N3  UNL     1      -2.672   2.323  -0.983  1.00  0.00    -0.063 NA
HETATM    6  N4  UNL     1      -2.681   0.142   0.347  1.00  0.00    -0.321 N 
ATOM      7  H4  UNL     1      -3.562   0.271   0.844  1.00  0.00     0.169 HD
HETATM    8  C6  UNL     1      -1.909  -0.893   0.471  1.00  0.00     0.118 A 
HETATM    9  N5  UNL     1      -2.196  -2.003   1.332  1.00  0.00    -0.085 NA
ENDROOT
BRANCH   1  10
HETATM   10  C3  UNL     1       0.551  -0.575   0.322  1.00  0.00     0.034 C 
BRANCH  10  11
HETATM   11  C2  UNL     1       1.599  -0.232  -0.740  1.00  0.00     0.029 C 
BRANCH  11  12
HETATM   12  C1  UNL     1       2.969  -0.112  -0.120  1.00  0.00     0.230 C 
BRANCH  12  13
HETATM   13  N1  UNL     1       2.931   0.951   0.885  1.00  0.00    -0.079 N 
ATOM     14  H13 UNL     1       2.593   1.836   0.507  1.00  0.00     0.274 HD
ATOM     15  H12 UNL     1       2.198   0.808   1.579  1.00  0.00     0.274 HD
ATOM     16  H11 UNL     1       3.857   1.032   1.304  1.00  0.00     0.274 HD
ENDBRANCH  12  13
ENDBRANCH  11  12
ENDBRANCH  10  11
ENDBRANCH   1  10
TORSDOF 4
