REMARK  14 active torsions:
REMARK  status: ('A' for Active; 'I' for Inactive)
REMARK       I    between atoms: C1_2  and  N1_3 
REMARK    1  A    between atoms: C1_2  and  C29_40 
REMARK    2  A    between atoms: N1_3  and  C2_5 
REMARK    3  A    between atoms: C2_5  and  C3_6 
REMARK    4  A    between atoms: C2_5  and  C10_13 
REMARK    5  A    between atoms: C3_6  and  C4_7 
REMARK    6  A    between atoms: C10_13  and  O2_14 
REMARK    7  A    between atoms: C10_13  and  N2_16 
REMARK    8  A    between atoms: C11_17  and  C12_18 
REMARK    9  A    between atoms: C12_18  and  S1_19 
REMARK   10  A    between atoms: S1_19  and  C13_20 
REMARK   11  A    between atoms: C19_26  and  O3_27 
REMARK   12  A    between atoms: C20_29  and  O4_30 
REMARK   13  A    between atoms: C21_32  and  C22_33 
REMARK   14  A    between atoms: C22_33  and  C23_34 
ROOT
HETATM    1  N2  UNL     1       1.173   0.088   0.157  1.00  0.00    -0.342 N 
HETATM    2  C11 UNL     1       2.468  -0.607   0.121  1.00  0.00     0.128 C 
HETATM    3  C19 UNL     1       3.477   0.463   0.498  1.00  0.00     0.172 C 
HETATM    4  C20 UNL     1       2.851   1.625  -0.256  1.00  0.00     0.175 C 
HETATM    5  C21 UNL     1       1.345   1.551   0.130  1.00  0.00     0.141 C 
ENDROOT
BRANCH   1   6
HETATM    6  C10 UNL     1      -0.021  -0.641   0.107  1.00  0.00     0.162 C 
BRANCH   6   7
HETATM    7  C2  UNL     1      -1.400  -0.307   0.500  1.00  0.00     0.063 C 
BRANCH   7   8
HETATM    8  N1  UNL     1      -2.406  -0.611  -0.465  1.00  0.00    -0.325 N 
HETATM    9  C1  UNL     1      -3.064  -1.832  -0.605  1.00  0.00     0.253 C 
HETATM   10  O1  UNL     1      -2.807  -2.831   0.151  1.00  0.00    -0.271 OA
ATOM     11  H1  UNL     1      -2.668   0.133  -1.112  1.00  0.00     0.168 HD
BRANCH   9  12
HETATM   12  C29 UNL     1      -4.105  -2.068  -1.637  1.00  0.00     0.277 C 
HETATM   13  C30 UNL     1      -3.639  -1.833  -3.034  1.00  0.00     0.044 C 
HETATM   14  C31 UNL     1      -4.786  -2.486  -3.823  1.00  0.00     0.030 C 
HETATM   15  C32 UNL     1      -5.020  -3.725  -2.985  1.00  0.00     0.233 C 
HETATM   16  N3  UNL     1      -4.579  -3.430  -1.656  1.00  0.00    -0.062 N 
ATOM     17  H32 UNL     1      -3.885  -4.094  -1.314  1.00  0.00     0.278 HD
ATOM     18  H31 UNL     1      -5.296  -3.608  -0.953  1.00  0.00     0.278 HD
ENDBRANCH   9  12
ENDBRANCH   7   8
BRANCH   7  19
HETATM   19  C3  UNL     1      -1.581   0.792   1.447  1.00  0.00     0.066 C 
BRANCH  19  20
HETATM   20  C4  UNL     1      -2.767   0.694   2.381  1.00  0.00    -0.009 C 
HETATM   21  C5  UNL     1      -2.779  -0.504   3.266  1.00  0.00     0.005 C 
HETATM   22  C6  UNL     1      -3.969  -0.330   4.205  1.00  0.00     0.000 C 
HETATM   23  C7  UNL     1      -4.564   1.045   4.149  1.00  0.00     0.000 C 
HETATM   24  C8  UNL     1      -5.017   1.488   2.798  1.00  0.00     0.000 C 
HETATM   25  C9  UNL     1      -4.098   0.854   1.736  1.00  0.00     0.005 C 
ENDBRANCH  19  20
ENDBRANCH   7  19
ENDBRANCH   6   7
BRANCH   6  26
HETATM   26  O2  UNL     1       0.096  -1.856  -0.368  1.00  0.00    -0.345 OA
ATOM     27  H2  UNL     1       0.986  -2.072  -0.622  1.00  0.00     0.219 HD
ENDBRANCH   6  26
ENDBRANCH   1   6
BRANCH   2  28
HETATM   28  C12 UNL     1       2.535  -1.666   1.202  1.00  0.00     0.102 C 
BRANCH  28  29
HETATM   29  S1  UNL     1       4.029  -2.614   1.288  1.00  0.00    -0.161 SA
BRANCH  29  30
HETATM   30  C13 UNL     1       4.371  -3.762  -0.012  1.00  0.00     0.055 C 
HETATM   31  C14 UNL     1       4.752  -3.167  -1.331  1.00  0.00     0.000 C 
HETATM   32  C15 UNL     1       4.972  -4.391  -2.188  1.00  0.00     0.006 C 
HETATM   33  C18 UNL     1       6.164  -3.018  -0.732  1.00  0.00     0.011 C 
HETATM   34  C16 UNL     1       5.722  -5.267  -1.182  1.00  0.00     0.006 C 
HETATM   35  C17 UNL     1       5.804  -4.308  -0.029  1.00  0.00     0.000 C 
ENDBRANCH  29  30
ENDBRANCH  28  29
ENDBRANCH   2  28
BRANCH   5  36
HETATM   36  C22 UNL     1       0.617   2.195  -0.988  1.00  0.00     0.004 C 
BRANCH  36  37
HETATM   37  C23 UNL     1       0.533   3.638  -1.180  1.00  0.00    -0.082 C 
HETATM   38  C24 UNL     1       1.722   4.470  -1.346  1.00  0.00     0.034 C 
HETATM   39  C25 UNL     1       2.102   5.322  -0.156  1.00  0.00     0.004 C 
HETATM   40  C26 UNL     1       0.918   6.086   0.359  1.00  0.00     0.001 C 
HETATM   41  C27 UNL     1      -0.076   5.009   0.838  1.00  0.00     0.004 C 
HETATM   42  C28 UNL     1      -0.568   4.348  -0.393  1.00  0.00     0.034 C 
ENDBRANCH  36  37
ENDBRANCH   5  36
BRANCH   3  43
HETATM   43  O3  UNL     1       4.706   0.242  -0.104  1.00  0.00    -0.391 OA
ATOM     44  H3  UNL     1       5.337   0.912   0.132  1.00  0.00     0.210 HD
ENDBRANCH   3  43
BRANCH   4  45
HETATM   45  O4  UNL     1       3.061   1.403  -1.592  1.00  0.00    -0.391 OA
ATOM     46  H4  UNL     1       2.670   2.129  -2.063  1.00  0.00     0.210 HD
ENDBRANCH   4  45
TORSDOF 14
