REMARK  11 active torsions:
REMARK  status: ('A' for Active; 'I' for Inactive)
REMARK    1  A    between atoms: O1_2  and  N1_3 
REMARK    2  A    between atoms: N1_3  and  C2_5 
REMARK    3  A    between atoms: C2_5  and  C3_6 
REMARK    4  A    between atoms: C2_5  and  C17_41 
REMARK       I    between atoms: C3_6  and  N2_8 
REMARK       I    between atoms: N2_8  and  C4_10 
REMARK    5  A    between atoms: C4_10  and  C5_12 
REMARK    6  A    between atoms: C8_15  and  N3_16 
REMARK    7  A    between atoms: N3_16  and  C9_18 
REMARK    8  A    between atoms: C9_18  and  N4_19 
REMARK    9  A    between atoms: C15_31  and  N9_32 
REMARK   10  A    between atoms: C16_35  and  N10_36 
REMARK   11  A    between atoms: C19_44  and  N12_45 
ROOT
HETATM    1  N4  UNL     1       4.678  -1.414   2.102  1.00  0.00    -0.308 N 
HETATM    2  C10 UNL     1       5.367  -2.561   2.031  1.00  0.00     0.203 A 
HETATM    3  N5  UNL     1       6.707  -2.618   2.063  1.00  0.00    -0.288 N 
ATOM      4  H5  UNL     1       7.189  -3.515   2.006  1.00  0.00     0.188 HD
HETATM    5  N6  UNL     1       7.401  -1.479   2.171  1.00  0.00    -0.244 N 
HETATM    6  C11 UNL     1       8.716  -1.307   2.212  1.00  0.00     0.159 A 
HETATM    7  C12 UNL     1       8.922   0.048   2.323  1.00  0.00     0.133 A 
HETATM    8  C13 UNL     1      10.149   0.783   2.407  1.00  0.00     0.119 C 
HETATM    9  N7  UNL     1      11.147   1.382   2.460  1.00  0.00    -0.190 NA
HETATM   10  N8  UNL     1       7.694   0.663   2.346  1.00  0.00    -0.328 N 
ATOM     11  H8  UNL     1       7.521   1.665   2.424  1.00  0.00     0.168 HD
HETATM   12  C14 UNL     1       6.747  -0.319   2.245  1.00  0.00     0.172 A 
HETATM   13  C15 UNL     1       5.360  -0.239   2.214  1.00  0.00     0.150 A 
ENDROOT
BRANCH  13  14
HETATM   14  N9  UNL     1       4.816   0.904   2.293  1.00  0.00    -0.382 N 
ATOM     15  H92 UNL     1       3.798   0.963   2.270  1.00  0.00     0.157 HD
ATOM     16  H91 UNL     1       5.326   1.783   2.377  1.00  0.00     0.157 HD
ENDBRANCH  13  14
BRANCH   1  17
HETATM   17  C9  UNL     1       3.216  -1.369   2.008  1.00  0.00     0.254 C 
BRANCH  17  18
HETATM   18  N3  UNL     1       2.812  -1.346   0.640  1.00  0.00    -0.370 N 
ATOM     19  H3  UNL     1       3.505  -1.518  -0.089  1.00  0.00     0.161 HD
BRANCH  18  20
HETATM   20  C8  UNL     1       1.449  -1.085   0.268  1.00  0.00     0.073 A 
HETATM   21  C7  UNL     1       0.524  -0.603   1.158  1.00  0.00     0.035 A 
HETATM   22  C6  UNL     1      -0.783  -0.317   0.714  1.00  0.00     0.038 A 
HETATM   23  C5  UNL     1      -1.110  -0.521  -0.573  1.00  0.00     0.102 A 
HETATM   24  N11 UNL     1      -0.182  -1.002  -1.440  1.00  0.00    -0.337 N 
HETATM   25  C16 UNL     1       1.068  -1.284  -1.062  1.00  0.00     0.126 A 
ATOM     26  H11 UNL     1      -0.448  -1.153  -2.413  1.00  0.00     0.168 HD
BRANCH  23  27
HETATM   27  C4  UNL     1      -2.457  -0.142  -1.133  1.00  0.00     0.275 C 
HETATM   28  N2  UNL     1      -3.149   0.876  -0.519  1.00  0.00    -0.287 N 
HETATM   29  C3  UNL     1      -4.304   1.557  -0.870  1.00  0.00     0.279 C 
ATOM     30  H2  UNL     1      -2.734   1.188   0.359  1.00  0.00     0.172 HD
HETATM   31  O2  UNL     1      -4.554   2.615  -0.178  1.00  0.00    -0.265 OA
HETATM   32  O3  UNL     1      -2.736  -0.849  -2.130  1.00  0.00    -0.266 OA
BRANCH  29  33
HETATM   33  C2  UNL     1      -5.251   1.225  -1.922  1.00  0.00     0.149 C 
BRANCH  33  34
HETATM   34  N1  UNL     1      -5.099   0.170  -2.496  1.00  0.00    -0.260 N 
ATOM     35  H1  UNL     1      -4.291  -0.322  -2.115  1.00  0.00     0.194 HD
BRANCH  34  36
HETATM   36  O1  UNL     1      -5.669  -0.570  -3.494  1.00  0.00    -0.285 OA
HETATM   37  C1  UNL     1      -5.985  -1.959  -3.275  1.00  0.00     0.237 C 
ENDBRANCH  34  36
ENDBRANCH  33  34
BRANCH  33  38
HETATM   38  C17 UNL     1      -6.388   2.176  -2.268  1.00  0.00     0.075 A 
HETATM   39  C18 UNL     1      -7.354   1.738  -3.151  1.00  0.00     0.085 A 
HETATM   40  S1  UNL     1      -8.375   3.104  -3.284  1.00  0.00    -0.064 SA
HETATM   41  C19 UNL     1      -7.554   4.141  -2.245  1.00  0.00     0.142 A 
HETATM   42  N13 UNL     1      -6.505   3.388  -1.822  1.00  0.00    -0.335 N 
ATOM     43  H13 UNL     1      -5.823   3.769  -1.166  1.00  0.00     0.168 HD
BRANCH  41  44
HETATM   44  N12 UNL     1      -7.816   5.382  -1.897  1.00  0.00    -0.380 N 
ATOM     45 2H12 UNL     1      -8.603   5.947  -2.215  1.00  0.00     0.158 HD
ATOM     46 1H12 UNL     1      -7.318   6.011  -1.267  1.00  0.00     0.158 HD
ENDBRANCH  41  44
ENDBRANCH  33  38
ENDBRANCH  29  33
ENDBRANCH  23  27
BRANCH  25  47
HETATM   47  N10 UNL     1       1.966  -1.730  -1.869  1.00  0.00    -0.384 N 
ATOM     48 2H10 UNL     1       2.920  -1.945  -1.580  1.00  0.00     0.157 HD
ATOM     49 1H10 UNL     1       1.688  -1.875  -2.840  1.00  0.00     0.157 HD
ENDBRANCH  25  47
ENDBRANCH  18  20
ENDBRANCH  17  18
ENDBRANCH   1  17
TORSDOF 11
