REMARK  13 active torsions:
REMARK  status: ('A' for Active; 'I' for Inactive)
REMARK    1  A    between atoms: N1_1  and  C1_4 
REMARK    2  A    between atoms: C3_8  and  N3_9 
REMARK    3  A    between atoms: C4_16  and  N6_17 
REMARK    4  A    between atoms: N6_17  and  C5_19 
REMARK    5  A    between atoms: C5_19  and  C6_20 
REMARK    6  A    between atoms: C6_20  and  N7_21 
REMARK    7  A    between atoms: N7_21  and  C7_24 
REMARK    8  A    between atoms: C7_24  and  C8_25 
REMARK    9  A    between atoms: C10_27  and  C11_28 
REMARK   10  A    between atoms: C11_28  and  O2_29 
REMARK   11  A    between atoms: O2_29  and  C12_30 
REMARK   12  A    between atoms: C12_30  and  C13_32 
REMARK   13  A    between atoms: C14_33  and  O4_34 
ROOT
HETATM    1  N7  UNL     1      -2.562   0.330  -0.483  1.00  0.00    -0.068 N 
ATOM      2  H71 UNL     1      -3.061   1.179  -0.217  1.00  0.00     0.277 HD
ATOM      3  H72 UNL     1      -1.803   0.761  -1.011  1.00  0.00     0.277 HD
ENDROOT
BRANCH   1   4
HETATM    4  C6  UNL     1      -3.366  -0.528  -1.304  1.00  0.00     0.253 C 
BRANCH   4   5
HETATM    5  C5  UNL     1      -4.677  -0.981  -0.788  1.00  0.00     0.165 C 
BRANCH   5   6
HETATM    6  N6  UNL     1      -5.627   0.046  -0.571  1.00  0.00    -0.222 N 
ATOM      7  H6  UNL     1      -5.276   0.993  -0.711  1.00  0.00     0.177 HD
BRANCH   6   8
HETATM    8  C4  UNL     1      -6.847  -0.027  -0.230  1.00  0.00     0.723 A 
HETATM    9  N5  UNL     1      -7.529   1.144  -0.104  1.00  0.00    -0.004 N 
HETATM   10  C2  UNL     1      -8.803   1.213   0.258  1.00  0.00     0.214 A 
HETATM   11  O1  UNL     1      -7.077   2.354  -0.316  1.00  0.00    -0.131 OA
HETATM   12  N2  UNL     1      -9.491   0.075   0.520  1.00  0.00    -0.170 N 
HETATM   13  C3  UNL     1      -9.122   2.551   0.260  1.00  0.00     0.169 A 
HETATM   14  C1  UNL     1      -8.861  -1.106   0.406  1.00  0.00     0.692 A 
ATOM     15  H2  UNL     1     -10.471   0.115   0.799  1.00  0.00     0.186 HD
HETATM   16  N10 UNL     1      -7.547  -1.145   0.034  1.00  0.00    -0.020 N 
ATOM     17  H10 UNL     1      -7.082  -2.050  -0.046  1.00  0.00     0.203 HD
HETATM   18  N4  UNL     1      -8.024   3.223  -0.102  1.00  0.00    -0.221 N 
ATOM     19  H4  UNL     1      -7.942   4.236  -0.194  1.00  0.00     0.198 HD
BRANCH  14  20
HETATM   20  N1  UNL     1      -9.509  -2.197   0.664  1.00  0.00    -0.234 N 
ATOM     21  H12 UNL     1     -10.490  -2.168   0.942  1.00  0.00     0.174 HD
ATOM     22  H11 UNL     1      -9.031  -3.094   0.577  1.00  0.00     0.174 HD
ENDBRANCH  14  20
BRANCH  13  23
HETATM   23  N3  UNL     1     -10.263   3.084   0.554  1.00  0.00    -0.381 N 
ATOM     24  H32 UNL     1     -11.101   2.571   0.830  1.00  0.00     0.157 HD
ATOM     25  H31 UNL     1     -10.500   4.076   0.555  1.00  0.00     0.157 HD
ENDBRANCH  13  23
ENDBRANCH   6   8
ENDBRANCH   5   6
ENDBRANCH   4   5
ENDBRANCH   1   4
BRANCH   1  26
HETATM   26  C7  UNL     1      -2.067  -0.403   0.686  1.00  0.00     0.299 C 
BRANCH  26  27
HETATM   27  C8  UNL     1      -0.654  -0.830   0.420  1.00  0.00     0.103 A 
HETATM   28  C9  UNL     1       0.300  -1.304   1.265  1.00  0.00     0.065 A 
HETATM   29  C10 UNL     1       1.434  -1.575   0.538  1.00  0.00     0.059 A 
HETATM   30  N9  UNL     1       1.117  -1.238  -0.752  1.00  0.00    -0.263 N 
HETATM   31  O6  UNL     1      -0.113  -0.804  -0.799  1.00  0.00    -0.240 OA
ATOM     32  H9  UNL     1       1.745  -1.315  -1.552  1.00  0.00     0.194 HD
BRANCH  29  33
HETATM   33  C11 UNL     1       2.747  -2.140   0.947  1.00  0.00     0.238 C 
BRANCH  33  34
HETATM   34  O2  UNL     1       3.800  -1.284   0.657  1.00  0.00    -0.311 OA
BRANCH  34  35
HETATM   35  C12 UNL     1       5.121  -1.546   0.899  1.00  0.00     0.302 C 
HETATM   36  O3  UNL     1       5.471  -2.613   1.436  1.00  0.00    -0.259 OA
BRANCH  35  37
HETATM   37  C13 UNL     1       6.077  -0.510   0.484  1.00  0.00     0.141 A 
HETATM   38  C14 UNL     1       5.658   0.661  -0.105  1.00  0.00     0.161 A 
HETATM   39  N8  UNL     1       6.530   1.578  -0.562  1.00  0.00    -0.335 N 
HETATM   40  C15 UNL     1       7.860   1.385  -0.460  1.00  0.00     0.048 A 
ATOM     41  H8  UNL     1       6.179   2.433  -0.993  1.00  0.00     0.168 HD
HETATM   42  C16 UNL     1       8.756   2.336  -0.969  1.00  0.00     0.030 A 
HETATM   43  C20 UNL     1       8.295   0.222   0.127  1.00  0.00     0.042 A 
HETATM   44  C17 UNL     1      10.092   2.063  -0.854  1.00  0.00     0.002 A 
HETATM   45  C18 UNL     1      10.571   0.911  -0.272  1.00  0.00     0.001 A 
HETATM   46  C19 UNL     1       9.668   0.011   0.208  1.00  0.00     0.018 A 
HETATM   47  C21 UNL     1       7.422  -0.748   0.612  1.00  0.00     0.204 A 
HETATM   48  O5  UNL     1       7.885  -1.789   1.140  1.00  0.00    -0.286 OA
BRANCH  38  49
HETATM   49  O4  UNL     1       4.277   0.861  -0.211  1.00  0.00    -0.345 OA
ATOM     50  H4  UNL     1       3.988   1.669  -0.618  1.00  0.00     0.219 HD
ENDBRANCH  38  49
ENDBRANCH  35  37
ENDBRANCH  34  35
ENDBRANCH  33  34
ENDBRANCH  29  33
ENDBRANCH  26  27
ENDBRANCH   1  26
TORSDOF 13
