REMARK  0 active torsions:
REMARK  status: ('A' for Active; 'I' for Inactive)
ROOT
HETATM    1  C1  UNL     1      -1.397   0.085   0.077  1.00  0.00     0.032 C 
HETATM    2  C2  UNL     1      -0.348   1.171  -0.044  1.00  0.00     0.039 C 
HETATM    3  C3  UNL     1       0.854   0.534   0.573  1.00  0.00     0.251 A 
HETATM    4  C4  UNL     1       1.738  -0.237  -0.279  1.00  0.00     0.308 A 
HETATM    5  N1  UNL     1       0.664  -0.886   0.565  1.00  0.00     0.097 N 
HETATM    6  C5  UNL     1      -0.577  -1.165  -0.117  1.00  0.00     0.273 C 
ENDROOT
TORSDOF 0
