REMARK  0 active torsions:
REMARK  status: ('A' for Active; 'I' for Inactive)
ROOT
HETATM    1  C1  UNL     1      -0.513   0.872  -0.105  1.00  0.00     0.011 C 
HETATM    2  C2  UNL     1       0.235   0.083   0.970  1.00  0.00     0.011 C 
HETATM    3  C3  UNL     1       1.384  -0.502   0.135  1.00  0.00     0.074 C 
HETATM    4  S1  UNL     1       0.353  -1.292  -1.173  1.00  0.00    -0.169 SA
HETATM    5  C4  UNL     1      -1.163  -0.287  -0.871  1.00  0.00     0.074 C 
ENDROOT
TORSDOF 0
