REMARK  17 active torsions:
REMARK  status: ('A' for Active; 'I' for Inactive)
REMARK    1  A    between atoms: C2_2  and  O2_4 
REMARK    2  A    between atoms: O2_4  and  C3_5 
REMARK    3  A    between atoms: C3_5  and  C4_6 
REMARK    4  A    between atoms: C4_6  and  O3_7 
REMARK    5  A    between atoms: C4_6  and  C5_9 
REMARK    6  A    between atoms: C4_6  and  C6_12 
REMARK    7  A    between atoms: C5_9  and  O4_10 
REMARK    8  A    between atoms: C6_12  and  O5_14 
REMARK    9  A    between atoms: C6_12  and  C8_16 
REMARK   10  A    between atoms: C8_16  and  O7_18 
REMARK   11  A    between atoms: O7_18  and  C9_19 
REMARK   12  A    between atoms: C11_21  and  O8_22 
REMARK   13  A    between atoms: C12_24  and  O9_26 
REMARK   14  A    between atoms: C15_29  and  O10_30 
REMARK   15  A    between atoms: C17_33  and  O11_34 
REMARK   16  A    between atoms: C18_36  and  C20_38 
REMARK   17  A    between atoms: C24_43  and  O13_44 
ROOT
HETATM    1  C9  UNL     1       0.054   1.825   0.641  1.00  0.00     0.169 C 
HETATM    2  C10 UNL     1       0.104   2.921  -0.435  1.00  0.00     0.070 C 
HETATM    3  C11 UNL     1       0.530   2.220  -1.686  1.00  0.00     0.155 C 
HETATM    4  C12 UNL     1      -0.573   1.262  -2.164  1.00  0.00     0.092 C 
HETATM    5  C13 UNL     1      -1.640   2.125  -2.714  1.00  0.00     0.049 C 
HETATM    6  C14 UNL     1      -0.858   0.280  -1.143  1.00  0.00     0.124 C 
HETATM    7  C15 UNL     1      -0.888   0.740   0.291  1.00  0.00     0.099 C 
HETATM    8  C16 UNL     1      -2.344   1.077   0.569  1.00  0.00     0.085 C 
HETATM    9  C17 UNL     1      -3.157   0.213  -0.340  1.00  0.00     0.127 C 
HETATM   10  C18 UNL     1      -3.889  -0.902   0.310  1.00  0.00     0.017 C 
HETATM   11  C19 UNL     1      -4.115  -0.644   1.796  1.00  0.00     0.021 C 
HETATM   12  C23 UNL     1      -2.970  -2.068   0.130  1.00  0.00     0.184 C 
HETATM   13  O12 UNL     1      -1.943  -1.733  -0.675  1.00  0.00    -0.351 OA
HETATM   14  C24 UNL     1      -2.153  -0.470  -1.223  1.00  0.00     0.204 C 
ENDROOT
BRANCH   1  15
HETATM   15  O7  UNL     1       1.377   1.270   0.611  1.00  0.00    -0.310 OA
BRANCH  15  16
HETATM   16  C8  UNL     1       2.226   1.269   1.675  1.00  0.00     0.297 C 
HETATM   17  O6  UNL     1       1.810   1.792   2.757  1.00  0.00    -0.262 OA
BRANCH  16  18
HETATM   18  C6  UNL     1       3.586   0.689   1.604  1.00  0.00     0.176 C 
HETATM   19  C7  UNL     1       4.328   1.442   0.518  1.00  0.00     0.060 C 
BRANCH  18  20
HETATM   20  C4  UNL     1       3.484  -0.777   1.314  1.00  0.00     0.140 C 
BRANCH  20  21
HETATM   21  C3  UNL     1       4.847  -1.436   1.216  1.00  0.00     0.222 C 
BRANCH  21  22
HETATM   22  O2  UNL     1       5.587  -0.934   0.121  1.00  0.00    -0.319 OA
BRANCH  22  23
HETATM   23  C2  UNL     1       6.851  -1.385  -0.163  1.00  0.00     0.254 C 
HETATM   24  C1  UNL     1       7.633  -0.866  -1.306  1.00  0.00     0.126 C 
HETATM   25  O1  UNL     1       7.364  -2.265   0.563  1.00  0.00    -0.266 OA
ENDBRANCH  22  23
ENDBRANCH  21  22
ENDBRANCH  20  21
BRANCH  20  26
HETATM   26  O3  UNL     1       2.827  -1.054   0.135  1.00  0.00    -0.382 OA
ATOM     27  H3  UNL     1       1.974  -0.641   0.196  1.00  0.00     0.211 HD
ENDBRANCH  20  26
BRANCH  20  28
HETATM   28  C5  UNL     1       2.776  -1.443   2.470  1.00  0.00     0.207 C 
BRANCH  28  29
HETATM   29  O4  UNL     1       2.766  -2.838   2.246  1.00  0.00    -0.398 OA
ATOM     30  H4  UNL     1       2.321  -3.257   2.973  1.00  0.00     0.209 HD
ENDBRANCH  28  29
ENDBRANCH  20  28
ENDBRANCH  18  20
BRANCH  18  31
HETATM   31  O5  UNL     1       4.263   0.822   2.818  1.00  0.00    -0.377 OA
ATOM     32  H5  UNL     1       4.328   1.752   3.002  1.00  0.00     0.211 HD
ENDBRANCH  18  31
ENDBRANCH  16  18
ENDBRANCH  15  16
ENDBRANCH   1  15
BRANCH   7  33
HETATM   33  O10 UNL     1      -0.595  -0.345   1.128  1.00  0.00    -0.386 OA
ATOM     34  H10 UNL     1      -1.200  -1.042   0.903  1.00  0.00     0.210 HD
ENDBRANCH   7  33
BRANCH   3  35
HETATM   35  O8  UNL     1       0.738   3.193  -2.667  1.00  0.00    -0.392 OA
ATOM     36  H8  UNL     1       1.009   2.748  -3.461  1.00  0.00     0.210 HD
ENDBRANCH   3  35
BRANCH   4  37
HETATM   37  O9  UNL     1       0.011   0.603  -3.278  1.00  0.00    -0.387 OA
ATOM     38  H9  UNL     1      -0.671   0.011  -3.573  1.00  0.00     0.210 HD
ENDBRANCH   4  37
BRANCH  14  39
HETATM   39  O13 UNL     1      -2.605  -0.678  -2.519  1.00  0.00    -0.362 OA
ATOM     40  H13 UNL     1      -3.426  -1.153  -2.570  1.00  0.00     0.213 HD
ENDBRANCH  14  39
BRANCH   9  41
HETATM   41  O11 UNL     1      -4.062   0.999  -1.019  1.00  0.00    -0.383 OA
ATOM     42  H11 UNL     1      -4.579   0.450  -1.597  1.00  0.00     0.210 HD
ENDBRANCH   9  41
BRANCH  10  43
HETATM   43  C20 UNL     1      -5.205  -1.261  -0.319  1.00  0.00    -0.009 C 
HETATM   44  C21 UNL     1      -6.219  -0.183  -0.352  1.00  0.00     0.010 C 
HETATM   45  C22 UNL     1      -5.755  -2.464   0.419  1.00  0.00     0.010 C 
ENDBRANCH  10  43
TORSDOF 17
