REMARK  6 active torsions:
REMARK  status: ('A' for Active; 'I' for Inactive)
REMARK    1  A    between atoms: O1_3  and  C3_4 
REMARK    2  A    between atoms: C5_7  and  C6_8 
REMARK    3  A    between atoms: C13_15  and  O3_16 
REMARK    4  A    between atoms: C18_22  and  O4_23 
REMARK    5  A    between atoms: C19_26  and  C20_27 
REMARK    6  A    between atoms: C20_27  and  O6_28 
ROOT
HETATM    1  C1  UNL     1      -4.798   4.283  -1.828  1.00  0.00     0.044 C 
HETATM    2  C2  UNL     1      -4.137   3.344  -1.465  1.00  0.00     0.043 C 
HETATM    3  O1  UNL     1      -3.402   2.284  -1.035  1.00  0.00    -0.293 OA
ENDROOT
BRANCH   3   4
HETATM    4  C3  UNL     1      -3.911   1.066  -0.599  1.00  0.00     0.203 C 
HETATM    5  C4  UNL     1      -3.490   0.797   0.852  1.00  0.00     0.186 C 
HETATM    6  O2  UNL     1      -2.129   0.692   0.979  1.00  0.00    -0.348 OA
HETATM    7  C25 UNL     1      -4.241  -0.406   1.264  1.00  0.00    -0.056 C 
HETATM    8  C5  UNL     1      -1.565  -0.307   0.180  1.00  0.00     0.269 C 
HETATM    9  O8  UNL     1      -1.932  -0.044  -1.109  1.00  0.00    -0.352 OA
HETATM   10  C21 UNL     1      -3.267  -0.051  -1.390  1.00  0.00     0.165 C 
HETATM   11  C22 UNL     1      -4.000  -1.315  -1.037  1.00  0.00     0.036 C 
HETATM   12  C23 UNL     1      -5.189  -1.424  -1.980  1.00  0.00     0.017 C 
HETATM   13  C24 UNL     1      -4.460  -1.358   0.379  1.00  0.00    -0.015 C 
HETATM   14  C26 UNL     1      -4.749  -0.564   2.641  1.00  0.00     0.046 C 
BRANCH   8  15
HETATM   15  C6  UNL     1      -0.018  -0.078   0.227  1.00  0.00     0.068 C 
HETATM   16  C7  UNL     1       0.307   1.252  -0.309  1.00  0.00    -0.018 C 
HETATM   17  C8  UNL     1       1.369   1.982  -0.339  1.00  0.00     0.007 C 
HETATM   18  C9  UNL     1       2.767   1.740   0.190  1.00  0.00     0.079 C 
HETATM   19  C10 UNL     1       3.287   3.062   0.754  1.00  0.00     0.051 C 
HETATM   20  C11 UNL     1       3.710   1.444  -0.921  1.00  0.00     0.044 C 
HETATM   21  O7  UNL     1       2.834   0.922   1.294  1.00  0.00    -0.334 OA
HETATM   22  C12 UNL     1       3.739   0.149  -1.580  1.00  0.00     0.036 C 
HETATM   23  C13 UNL     1       2.540  -0.714  -1.601  1.00  0.00     0.132 C 
HETATM   24  C14 UNL     1       2.112  -1.406  -0.373  1.00  0.00     0.048 C 
HETATM   25  C15 UNL     1       2.376  -2.931  -0.464  1.00  0.00     0.024 C 
HETATM   26  C16 UNL     1       0.595  -1.287  -0.319  1.00  0.00     0.010 C 
HETATM   27  C18 UNL     1       2.741  -1.064   0.924  1.00  0.00     0.235 A 
HETATM   28  C17 UNL     1      -0.005  -1.782  -1.626  1.00  0.00     0.012 C 
HETATM   29  O5  UNL     1       3.874  -1.429   1.458  1.00  0.00    -0.305 OA
HETATM   30  C19 UNL     1       3.691  -0.118   1.135  1.00  0.00     0.248 A 
BRANCH  23  31
HETATM   31  O3  UNL     1       2.821  -1.694  -2.571  1.00  0.00    -0.395 OA
ATOM     32  H3  UNL     1       2.050  -2.249  -2.585  1.00  0.00     0.210 HD
ENDBRANCH  23  31
BRANCH  27  33
HETATM   33  O4  UNL     1       1.845  -1.463   1.994  1.00  0.00    -0.360 OA
ATOM     34  H4  UNL     1       2.248  -1.244   2.826  1.00  0.00     0.213 HD
ENDBRANCH  27  33
BRANCH  30  35
HETATM   35  C20 UNL     1       5.023   0.343   1.649  1.00  0.00     0.238 C 
BRANCH  35  36
HETATM   36  O6  UNL     1       5.196   0.051   3.033  1.00  0.00    -0.395 OA
ATOM     37  H6  UNL     1       6.039   0.343   3.358  1.00  0.00     0.209 HD
ENDBRANCH  35  36
ENDBRANCH  30  35
ENDBRANCH   8  15
ENDBRANCH   3   4
TORSDOF 6
