REMARK  10 active torsions:
REMARK  status: ('A' for Active; 'I' for Inactive)
REMARK    1  A    between atoms: N1_1  and  C1_4 
REMARK    2  A    between atoms: C3_8  and  C4_9 
REMARK    3  A    between atoms: C4_9  and  N3_10 
REMARK    4  A    between atoms: N3_10  and  C5_11 
REMARK    5  A    between atoms: N3_10  and  C10_20 
REMARK    6  A    between atoms: C5_11  and  C6_12 
REMARK    7  A    between atoms: C6_12  and  C7_13 
REMARK    8  A    between atoms: C7_13  and  C8_14 
REMARK    9  A    between atoms: C8_14  and  N4_15 
REMARK   10  A    between atoms: C10_20  and  C11_21 
ROOT
HETATM    1  N3  UNL     1      -0.972   1.050   0.171  1.00  0.00    -0.381 N 
ENDROOT
BRANCH   1   2
HETATM    2  C4  UNL     1      -2.078   0.618   0.897  1.00  0.00     0.104 C 
BRANCH   2   3
HETATM    3  C3  UNL     1      -2.913  -0.427   0.268  1.00  0.00     0.064 A 
HETATM    4  C2  UNL     1      -2.757  -0.933  -0.993  1.00  0.00     0.124 A 
HETATM    5  N2  UNL     1      -3.594  -1.867  -1.496  1.00  0.00    -0.201 N 
HETATM    6  C1  UNL     1      -4.619  -2.340  -0.784  1.00  0.00     0.678 A 
ATOM      7  H2  UNL     1      -3.439  -2.218  -2.441  1.00  0.00     0.183 HD
HETATM    8  N8  UNL     1      -4.816  -1.874   0.460  1.00  0.00    -0.156 N 
HETATM    9  C12 UNL     1      -4.004  -0.956   0.976  1.00  0.00     0.272 A 
ATOM     10  H8  UNL     1      -5.596  -2.228   1.014  1.00  0.00     0.187 HD
HETATM   11  O2  UNL     1      -4.174  -0.504   2.148  1.00  0.00    -0.267 OA
BRANCH   6  12
HETATM   12  N1  UNL     1      -5.425  -3.243  -1.278  1.00  0.00    -0.234 N 
ATOM     13  H12 UNL     1      -5.275  -3.597  -2.223  1.00  0.00     0.174 HD
ATOM     14  H11 UNL     1      -6.208  -3.604  -0.734  1.00  0.00     0.174 HD
ENDBRANCH   6  12
ENDBRANCH   2   3
ENDBRANCH   1   2
BRANCH   1  15
HETATM   15  C5  UNL     1       0.149   0.201   0.014  1.00  0.00     0.123 C 
BRANCH  15  16
HETATM   16  C6  UNL     1       0.918  -0.019   1.311  1.00  0.00     0.021 C 
BRANCH  16  17
HETATM   17  C7  UNL     1       2.061  -0.930   1.032  1.00  0.00     0.021 C 
BRANCH  17  18
HETATM   18  C8  UNL     1       3.053  -0.456   0.030  1.00  0.00     0.122 C 
BRANCH  18  19
HETATM   19  N4  UNL     1       4.094  -1.488  -0.102  1.00  0.00    -0.367 N 
HETATM   20  C9  UNL     1       5.283  -1.140  -0.438  1.00  0.00     0.196 C 
HETATM   21  N5  UNL     1       6.345  -2.072  -0.586  1.00  0.00    -0.067 NA
HETATM   22  N6  UNL     1       5.589   0.221  -0.679  1.00  0.00    -0.067 NA
ATOM     23  H4  UNL     1       3.873  -2.469   0.072  1.00  0.00     0.161 HD
ENDBRANCH  18  19
ENDBRANCH  17  18
ENDBRANCH  16  17
ENDBRANCH  15  16
ENDBRANCH   1  15
BRANCH   1  24
HETATM   24  C10 UNL     1      -0.588   2.407   0.183  1.00  0.00     0.221 C 
BRANCH  24  25
HETATM   25  C11 UNL     1      -1.483   3.343  -0.475  1.00  0.00     0.248 C 
HETATM   26  N7  UNL     1      -1.162   4.716  -0.505  1.00  0.00    -0.061 NA
HETATM   27  O1  UNL     1      -2.535   2.970  -1.021  1.00  0.00    -0.275 OA
ENDBRANCH  24  25
ENDBRANCH   1  24
TORSDOF 10
