REMARK  2 active torsions:
REMARK  status: ('A' for Active; 'I' for Inactive)
REMARK       I    between atoms: C1_2  and  N2_4 
REMARK    1  A    between atoms: N2_4  and  N3_6 
REMARK    2  A    between atoms: C2_8  and  C3_9 
ROOT
HETATM    1  N3  UNL     1       0.710  -0.484   1.056  1.00  0.00    -0.306 N 
ATOM      2  H3  UNL     1       0.275  -1.326   1.434  1.00  0.00     0.186 HD
HETATM    3  C2  UNL     1       0.010   0.377   0.355  1.00  0.00     0.136 C 
ENDROOT
BRANCH   1   4
HETATM    4  N2  UNL     1       2.073  -0.218   1.274  1.00  0.00    -0.254 N 
HETATM    5  C1  UNL     1       2.936  -0.261   0.143  1.00  0.00     0.347 C 
HETATM    6  N1  UNL     1       4.317   0.004   0.336  1.00  0.00    -0.038 NA
HETATM    7  O1  UNL     1       2.529  -0.521  -1.013  1.00  0.00    -0.249 OA
ATOM      8  H2  UNL     1       2.429  -0.003   2.205  1.00  0.00     0.191 HD
ENDBRANCH   1   4
BRANCH   3   9
HETATM    9  C3  UNL     1      -1.402   0.144   0.104  1.00  0.00     0.049 A 
HETATM   10  C4  UNL     1      -2.217   0.986  -0.616  1.00  0.00     0.032 A 
HETATM   11  C5  UNL     1      -3.503   0.446  -0.652  1.00  0.00     0.019 A 
HETATM   12  C6  UNL     1      -3.419  -0.746   0.074  1.00  0.00     0.088 A 
HETATM   13  N4  UNL     1      -2.152  -0.895   0.510  1.00  0.00    -0.365 N 
ATOM     14  H4  UNL     1      -1.813  -1.680   1.066  1.00  0.00     0.165 HD
ENDBRANCH   3   9
TORSDOF 2
