REMARK  4 active torsions:
REMARK  status: ('A' for Active; 'I' for Inactive)
REMARK    1  A    between atoms: N1_1  and  C1_5 
REMARK    2  A    between atoms: C1_5  and  C2_6 
REMARK    3  A    between atoms: C2_6  and  C3_7 
REMARK    4  A    between atoms: C3_7  and  C4_8 
ROOT
HETATM    1  C4  UNL     1      -0.148  -0.156  -0.540  1.00  0.00     0.169 C 
HETATM    2  N2  UNL     1      -0.514  -0.949   0.585  1.00  0.00    -0.409 N 
ATOM      3  H2  UNL     1       0.141  -1.150   1.341  1.00  0.00     0.154 HD
HETATM    4  C5  UNL     1      -1.844  -1.443   0.591  1.00  0.00     0.116 C 
HETATM    5  C6  UNL     1      -2.861  -0.430   1.096  1.00  0.00     0.039 C 
HETATM    6  C7  UNL     1      -3.400   0.283  -0.131  1.00  0.00     0.124 C 
HETATM    7  N3  UNL     1      -2.407   1.249  -0.537  1.00  0.00    -0.359 N 
ATOM      8  H3  UNL     1      -2.734   2.205  -0.677  1.00  0.00     0.162 HD
HETATM    9  C8  UNL     1      -1.034   1.017  -0.761  1.00  0.00     0.240 C 
HETATM   10  O1  UNL     1      -0.455   2.045  -1.256  1.00  0.00    -0.271 OA
ENDROOT
BRANCH   1  11
HETATM   11  C3  UNL     1       1.238   0.399  -0.264  1.00  0.00     0.036 C 
BRANCH  11  12
HETATM   12  C2  UNL     1       2.259  -0.692  -0.069  1.00  0.00     0.030 C 
BRANCH  12  13
HETATM   13  C1  UNL     1       3.588   0.014   0.196  1.00  0.00     0.230 C 
BRANCH  13  14
HETATM   14  N1  UNL     1       3.970   0.854  -0.898  1.00  0.00    -0.079 N 
ATOM     15  H13 UNL     1       3.994   0.334  -1.775  1.00  0.00     0.274 HD
ATOM     16  H12 UNL     1       3.234   1.522  -1.128  1.00  0.00     0.274 HD
ATOM     17  H11 UNL     1       4.857   1.325  -0.721  1.00  0.00     0.274 HD
ENDBRANCH  13  14
ENDBRANCH  12  13
ENDBRANCH  11  12
ENDBRANCH   1  11
TORSDOF 4
