REMARK  3 active torsions:
REMARK  status: ('A' for Active; 'I' for Inactive)
REMARK    1  A    between atoms: N1_1  and  C1_4 
REMARK    2  A    between atoms: C2_7  and  N3_8 
REMARK    3  A    between atoms: N3_8  and  C3_10 
ROOT
HETATM    1  C1  UNL     1       2.893   0.354  -1.719  1.00  0.00     0.127 A 
HETATM    2  N2  UNL     1       1.602   0.168  -1.996  1.00  0.00    -0.176 N 
ATOM      3  H2  UNL     1       1.293   0.326  -2.955  1.00  0.00     0.186 HD
HETATM    4  C2  UNL     1       0.679  -0.215  -1.094  1.00  0.00     0.684 A 
HETATM    5  N4  UNL     1       1.094  -0.420   0.158  1.00  0.00    -0.191 N 
ATOM      6  H4  UNL     1       0.421  -0.711   0.867  1.00  0.00     0.184 HD
HETATM    7  C13 UNL     1       2.387  -0.249   0.503  1.00  0.00     0.063 A 
HETATM    8  C14 UNL     1       2.834  -0.457   1.795  1.00  0.00     0.031 A 
HETATM    9  C15 UNL     1       4.159  -0.276   2.124  1.00  0.00     0.002 A 
HETATM   10  C16 UNL     1       5.083   0.121   1.166  1.00  0.00     0.001 A 
HETATM   11  C17 UNL     1       4.650   0.329  -0.116  1.00  0.00     0.017 A 
HETATM   12  C18 UNL     1       3.326   0.143  -0.422  1.00  0.00     0.035 A 
ENDROOT
BRANCH   4  13
HETATM   13  N3  UNL     1      -0.515  -0.353  -1.502  1.00  0.00    -0.191 N 
ATOM     14  H3  UNL     1      -0.686  -0.162  -2.489  1.00  0.00     0.184 HD
BRANCH  13  15
HETATM   15  C3  UNL     1      -1.624  -0.742  -0.734  1.00  0.00     0.060 A 
HETATM   16  C4  UNL     1      -1.830  -2.066  -0.398  1.00  0.00     0.031 A 
HETATM   17  C5  UNL     1      -2.913  -2.474   0.357  1.00  0.00     0.003 A 
HETATM   18  C6  UNL     1      -3.845  -1.566   0.810  1.00  0.00     0.012 A 
HETATM   19  C7  UNL     1      -3.657  -0.236   0.485  1.00  0.00    -0.024 A 
HETATM   20  C8  UNL     1      -4.587   0.678   0.937  1.00  0.00     0.012 A 
HETATM   21  C12 UNL     1      -2.560   0.164  -0.277  1.00  0.00     0.001 A 
HETATM   22  C9  UNL     1      -4.405   2.008   0.615  1.00  0.00     0.001 A 
HETATM   23  C10 UNL     1      -3.319   2.403  -0.139  1.00  0.00     0.001 A 
HETATM   24  C11 UNL     1      -2.374   1.500  -0.602  1.00  0.00     0.014 A 
ENDBRANCH  13  15
ENDBRANCH   4  13
BRANCH   1  25
HETATM   25  N1  UNL     1       3.747   0.718  -2.591  1.00  0.00    -0.384 N 
ATOM     26  H12 UNL     1       3.428   0.874  -3.547  1.00  0.00     0.157 HD
ATOM     27  H11 UNL     1       4.735   0.860  -2.379  1.00  0.00     0.157 HD
ENDBRANCH   1  25
TORSDOF 3
