REMARK  0 active torsions:
REMARK  status: ('A' for Active; 'I' for Inactive)
ROOT
HETATM    1  O1  UNL     1      -4.265   1.161   0.165  1.00  0.00    -0.287 OA
HETATM    2  C1  UNL     1      -3.497   0.203   0.256  1.00  0.00     0.186 A 
HETATM    3  C2  UNL     1      -4.104  -1.036   0.508  1.00  0.00     0.072 A 
HETATM    4  C3  UNL     1      -3.336  -2.171   0.628  1.00  0.00     0.092 A 
HETATM    5  N1  UNL     1      -1.996  -2.081   0.503  1.00  0.00    -0.363 N 
ATOM      6  H1  UNL     1      -1.437  -2.929   0.595  1.00  0.00     0.165 HD
HETATM    7  C4  UNL     1      -1.377  -0.930   0.265  1.00  0.00     0.075 A 
HETATM    8  C5  UNL     1      -0.003  -0.860   0.140  1.00  0.00     0.074 A 
HETATM    9  N2  UNL     1       0.981  -1.791   0.209  1.00  0.00    -0.353 N 
ATOM     10  H2  UNL     1       0.843  -2.787   0.381  1.00  0.00     0.166 HD
HETATM   11  C6  UNL     1       2.169  -1.190   0.014  1.00  0.00     0.044 A 
HETATM   12  C7  UNL     1       3.484  -1.653  -0.020  1.00  0.00     0.030 A 
HETATM   13  C8  UNL     1       4.557  -0.830  -0.242  1.00  0.00     0.002 A 
HETATM   14  C9  UNL     1       4.345   0.513  -0.443  1.00  0.00     0.001 A 
HETATM   15  C10 UNL     1       3.058   1.010  -0.417  1.00  0.00     0.014 A 
HETATM   16  C11 UNL     1       1.988   0.166  -0.191  1.00  0.00     0.006 A 
HETATM   17  C12 UNL     1       0.604   0.359  -0.108  1.00  0.00     0.040 A 
HETATM   18  C13 UNL     1      -0.133   1.516  -0.235  1.00  0.00     0.099 A 
HETATM   19  O2  UNL     1       0.193   2.777  -0.466  1.00  0.00    -0.321 OA
HETATM   20  C14 UNL     1      -0.888   3.512  -0.496  1.00  0.00     0.143 A 
HETATM   21  C15 UNL     1      -1.996   2.682  -0.270  1.00  0.00     0.040 A 
HETATM   22  C16 UNL     1      -1.520   1.427  -0.106  1.00  0.00     0.017 A 
HETATM   23  C17 UNL     1      -2.146   0.229   0.140  1.00  0.00     0.056 A 
ENDROOT
TORSDOF 0
