REMARK  3 active torsions:
REMARK  status: ('A' for Active; 'I' for Inactive)
REMARK       I    between atoms: C1_2  and  N1_3 
REMARK       I    between atoms: C1_2  and  N3_15 
REMARK    1  A    between atoms: N1_3  and  C2_5 
REMARK    2  A    between atoms: N3_15  and  C9_17 
REMARK    3  A    between atoms: N6_23  and  C11_24 
ROOT
HETATM    1  C9  UNL     1      -0.632  -0.182   0.623  1.00  0.00     0.710 A 
HETATM    2  N4  UNL     1       0.085  -0.519   1.705  1.00  0.00    -0.184 N 
ATOM      3  H4  UNL     1       0.944  -1.069   1.707  1.00  0.00     0.185 HD
HETATM    4  C10 UNL     1      -0.525  -0.007   2.782  1.00  0.00     0.215 A 
HETATM    5  N5  UNL     1      -1.599   0.630   2.333  1.00  0.00    -0.273 N 
ATOM      6  H5  UNL     1      -2.267   1.125   2.924  1.00  0.00     0.189 HD
HETATM    7  N6  UNL     1      -1.687   0.537   1.017  1.00  0.00    -0.068 N 
ENDROOT
BRANCH   1   8
HETATM    8  N3  UNL     1      -0.405  -0.468  -0.622  1.00  0.00    -0.139 N 
HETATM    9  C1  UNL     1       0.714  -1.232  -1.044  1.00  0.00     0.340 C 
HETATM   10  O1  UNL     1       0.926  -2.403  -0.587  1.00  0.00    -0.246 OA
HETATM   11  N1  UNL     1       1.666  -0.762  -1.990  1.00  0.00    -0.288 N 
ATOM     12  H1  UNL     1       1.386  -0.576  -2.953  1.00  0.00     0.172 HD
ATOM     13  H3  UNL     1      -1.059  -0.129  -1.328  1.00  0.00     0.189 HD
BRANCH  11  14
HETATM   14  C2  UNL     1       2.896  -0.572  -1.615  1.00  0.00     0.153 A 
HETATM   15  N2  UNL     1       3.460  -0.752  -0.419  1.00  0.00    -0.335 N 
HETATM   16  C3  UNL     1       4.737  -0.487  -0.287  1.00  0.00     0.051 A 
ATOM     17  H2  UNL     1       2.911  -1.087   0.373  1.00  0.00     0.168 HD
HETATM   18  C4  UNL     1       5.488  -0.621   0.902  1.00  0.00     0.031 A 
HETATM   19  C8  UNL     1       5.416  -0.041  -1.389  1.00  0.00     0.035 A 
HETATM   20  C5  UNL     1       6.822  -0.311   0.907  1.00  0.00     0.002 A 
HETATM   21  C6  UNL     1       7.518   0.143  -0.209  1.00  0.00     0.002 A 
HETATM   22  C7  UNL     1       6.782   0.272  -1.363  1.00  0.00     0.021 A 
HETATM   23  S1  UNL     1       4.189  -0.019  -2.575  1.00  0.00    -0.052 SA
ENDBRANCH  11  14
ENDBRANCH   1   8
BRANCH   7  24
HETATM   24  C11 UNL     1      -2.726   1.112   0.208  1.00  0.00     0.156 A 
HETATM   25  N7  UNL     1      -2.684   2.362  -0.278  1.00  0.00    -0.350 N 
HETATM   26  C12 UNL     1      -3.662   2.889  -1.034  1.00  0.00     0.090 A 
ATOM     27  H7  UNL     1      -1.871   2.940  -0.063  1.00  0.00     0.166 HD
HETATM   28  C13 UNL     1      -4.787   2.159  -1.358  1.00  0.00     0.029 A 
HETATM   29  C14 UNL     1      -4.864   0.867  -0.875  1.00  0.00    -0.021 A 
HETATM   30  C15 UNL     1      -5.971   0.112  -1.180  1.00  0.00     0.012 A 
HETATM   31  C19 UNL     1      -3.830   0.344  -0.090  1.00  0.00     0.021 A 
HETATM   32  C16 UNL     1      -6.036  -1.181  -0.689  1.00  0.00     0.001 A 
HETATM   33  C17 UNL     1      -5.031  -1.697   0.077  1.00  0.00     0.001 A 
HETATM   34  C18 UNL     1      -3.914  -0.938   0.386  1.00  0.00     0.016 A 
ENDBRANCH   7  24
TORSDOF 3
