REMARK  5 active torsions:
REMARK  status: ('A' for Active; 'I' for Inactive)
REMARK    1  A    between atoms: N2_5  and  C3_6 
REMARK    2  A    between atoms: C10_13  and  N3_14 
REMARK    3  A    between atoms: N3_14  and  C11_16 
REMARK    4  A    between atoms: C11_16  and  N4_18 
REMARK    5  A    between atoms: N4_18  and  C12_20 
ROOT
HETATM    1  C1  UNL     1      -4.463  -3.243   0.949  1.00  0.00     0.071 C 
HETATM    2  C2  UNL     1      -3.531  -2.094   0.716  1.00  0.00     0.038 A 
HETATM    3  N1  UNL     1      -3.783  -0.912   0.125  1.00  0.00    -0.297 N 
ATOM      4  H1  UNL     1      -4.688  -0.637  -0.258  1.00  0.00     0.187 HD
HETATM    5  N2  UNL     1      -2.702  -0.157   0.108  1.00  0.00    -0.252 N 
HETATM    6  C9  UNL     1      -1.664  -0.811   0.693  1.00  0.00     0.117 A 
HETATM    7  C10 UNL     1      -0.350  -0.484   0.930  1.00  0.00     0.152 A 
HETATM    8  N6  UNL     1       0.450  -1.364   1.546  1.00  0.00    -0.282 N 
ATOM      9  H6  UNL     1       1.428  -1.138   1.729  1.00  0.00     0.188 HD
HETATM   10  N7  UNL     1      -0.053  -2.535   1.913  1.00  0.00    -0.288 N 
ATOM     11  H7  UNL     1       0.564  -3.198   2.382  1.00  0.00     0.188 HD
HETATM   12  C17 UNL     1      -1.329  -2.896   1.702  1.00  0.00     0.130 A 
HETATM   13  S2  UNL     1      -1.914  -4.353   2.170  1.00  0.00    -0.058 SA
HETATM   14  C18 UNL     1      -2.200  -2.037   1.075  1.00  0.00     0.059 A 
ENDROOT
BRANCH   7  15
HETATM   15  N3  UNL     1       0.106   0.639   0.570  1.00  0.00    -0.316 N 
ATOM     16  H3  UNL     1      -0.546   1.271   0.105  1.00  0.00     0.170 HD
BRANCH  15  17
HETATM   17  C11 UNL     1       1.426   1.107   0.746  1.00  0.00     0.177 C 
HETATM   18  S1  UNL     1       1.891   1.507   2.251  1.00  0.00    -0.040 SA
BRANCH  17  19
HETATM   19  N4  UNL     1       2.313   1.231  -0.314  1.00  0.00    -0.333 N 
ATOM     20  H4  UNL     1       1.980   1.804  -1.089  1.00  0.00     0.168 HD
BRANCH  19  21
HETATM   21  C12 UNL     1       3.470   0.745  -0.469  1.00  0.00     0.036 A 
HETATM   22  C13 UNL     1       4.123   1.057  -1.667  1.00  0.00     0.046 A 
HETATM   23  C14 UNL     1       5.388   0.575  -1.932  1.00  0.00     0.090 A 
HETATM   24  N5  UNL     1       6.027  -0.203  -1.052  1.00  0.00    -0.375 N 
HETATM   25  C15 UNL     1       5.411  -0.514   0.111  1.00  0.00     0.090 A 
ATOM     26  H5  UNL     1       6.962  -0.556  -1.254  1.00  0.00     0.164 HD
HETATM   27  C16 UNL     1       4.145  -0.047   0.403  1.00  0.00     0.046 A 
ENDBRANCH  19  21
ENDBRANCH  17  19
ENDBRANCH  15  17
ENDBRANCH   7  15
BRANCH   5  28
HETATM   28  C3  UNL     1      -2.571   1.153  -0.428  1.00  0.00     0.057 A 
HETATM   29  C4  UNL     1      -2.144   1.349  -1.719  1.00  0.00     0.031 A 
HETATM   30  C5  UNL     1      -2.021   2.625  -2.227  1.00  0.00     0.002 A 
HETATM   31  C6  UNL     1      -2.324   3.708  -1.448  1.00  0.00     0.000 A 
HETATM   32  C7  UNL     1      -2.753   3.527  -0.152  1.00  0.00     0.002 A 
HETATM   33  C8  UNL     1      -2.875   2.249   0.352  1.00  0.00     0.031 A 
ENDBRANCH   5  28
TORSDOF 5
