REMARK  2 active torsions:
REMARK  status: ('A' for Active; 'I' for Inactive)
REMARK    1  A    between atoms: C5_9  and  C6_10 
REMARK    2  A    between atoms: C23_29  and  N5_30 
ROOT
HETATM    1  C6  UNL     1       0.048  -1.154   0.682  1.00  0.00     0.004 A 
HETATM    2  C7  UNL     1      -0.227  -2.465   1.028  1.00  0.00     0.032 A 
HETATM    3  C8  UNL     1      -1.489  -2.856   1.095  1.00  0.00     0.091 A 
HETATM    4  N3  UNL     1      -2.607  -2.070   0.849  1.00  0.00    -0.360 N 
HETATM    5  C9  UNL     1      -3.876  -2.657   1.013  1.00  0.00     0.155 C 
HETATM    6  C10 UNL     1      -2.345  -0.802   0.515  1.00  0.00     0.056 A 
HETATM    7  C11 UNL     1      -1.008  -0.331   0.432  1.00  0.00     0.004 A 
HETATM    8  C12 UNL     1      -0.814   0.998   0.140  1.00  0.00     0.015 A 
HETATM    9  C13 UNL     1      -1.839   1.873  -0.081  1.00  0.00     0.013 A 
HETATM   10  C14 UNL     1      -3.122   1.422  -0.010  1.00  0.00    -0.022 A 
HETATM   11  C15 UNL     1      -4.165   2.307  -0.255  1.00  0.00     0.035 A 
HETATM   12  C16 UNL     1      -5.464   1.882  -0.211  1.00  0.00     0.045 A 
HETATM   13  C17 UNL     1      -6.548   2.791  -0.460  1.00  0.00     0.099 C 
HETATM   14  N4  UNL     1      -7.417   3.531  -0.646  1.00  0.00    -0.191 NA
HETATM   15  C18 UNL     1      -5.737   0.578   0.074  1.00  0.00     0.023 A 
HETATM   16  C19 UNL     1      -4.698  -0.336   0.326  1.00  0.00     0.016 A 
HETATM   17  C20 UNL     1      -3.410   0.092   0.284  1.00  0.00     0.002 A 
ENDROOT
BRANCH   1  18
HETATM   18  C5  UNL     1       1.443  -0.741   0.625  1.00  0.00     0.044 A 
HETATM   19  N2  UNL     1       2.274  -1.127   1.643  1.00  0.00    -0.363 N 
HETATM   20  C4  UNL     1       3.590  -0.900   1.651  1.00  0.00     0.119 A 
ATOM     21  H2  UNL     1       1.865  -1.615   2.440  1.00  0.00     0.165 HD
HETATM   22  C3  UNL     1       4.139  -0.238   0.567  1.00  0.00     0.063 A 
HETATM   23  N1  UNL     1       5.464   0.035   0.492  1.00  0.00    -0.344 N 
HETATM   24  C22 UNL     1       3.372   0.183  -0.497  1.00  0.00     0.038 A 
HETATM   25  C2  UNL     1       6.036   0.668  -0.527  1.00  0.00     0.079 A 
ATOM     26  H1  UNL     1       6.059  -0.264   1.265  1.00  0.00     0.167 HD
HETATM   27  C1  UNL     1       7.495   0.965  -0.603  1.00  0.00     0.089 C 
HETATM   28  N6  UNL     1       5.283   1.075  -1.561  1.00  0.00    -0.332 N 
HETATM   29  C23 UNL     1       3.937   0.837  -1.558  1.00  0.00     0.112 A 
ATOM     30  H6  UNL     1       5.714   1.561  -2.347  1.00  0.00     0.168 HD
HETATM   31  C21 UNL     1       2.000  -0.093  -0.431  1.00  0.00     0.048 A 
BRANCH  29  32
HETATM   32  N5  UNL     1       3.281   1.249  -2.567  1.00  0.00    -0.385 N 
ATOM     33  H52 UNL     1       2.277   1.071  -2.565  1.00  0.00     0.157 HD
ATOM     34  H51 UNL     1       3.702   1.736  -3.358  1.00  0.00     0.157 HD
ENDBRANCH  29  32
ENDBRANCH   1  18
TORSDOF 2
