REMARK  6 active torsions:
REMARK  status: ('A' for Active; 'I' for Inactive)
REMARK    1  A    between atoms: C2_2  and  C3_3 
REMARK    2  A    between atoms: C3_3  and  C5_5 
REMARK    3  A    between atoms: C5_5  and  C6_6 
REMARK    4  A    between atoms: C6_6  and  C7_7 
REMARK    5  A    between atoms: C7_7  and  N1_8 
REMARK    6  A    between atoms: N1_8  and  C8_11 
ROOT
HETATM    1  C8  UNL     1      -1.672  -0.122  -0.179  1.00  0.00     0.127 C 
HETATM    2  C9  UNL     1      -2.286   0.830  -1.153  1.00  0.00     0.043 C 
HETATM    3  C10 UNL     1      -3.776   0.885  -0.929  1.00  0.00    -0.012 C 
HETATM    4  C11 UNL     1      -4.400  -0.467  -1.136  1.00  0.00     0.009 C 
HETATM    5  C12 UNL     1      -3.812  -1.415  -0.101  1.00  0.00    -0.012 C 
HETATM    6  C13 UNL     1      -4.159  -0.856   1.253  1.00  0.00     0.009 C 
HETATM    7  C14 UNL     1      -3.434   0.436   1.446  1.00  0.00    -0.012 C 
HETATM    8  C15 UNL     1      -4.011   1.435   0.452  1.00  0.00     0.009 C 
HETATM    9  C16 UNL     1      -1.947   0.345   1.223  1.00  0.00     0.043 C 
HETATM   10  C17 UNL     1      -2.315  -1.508  -0.307  1.00  0.00     0.043 C 
ENDROOT
BRANCH   1  11
HETATM   11  N1  UNL     1      -0.257  -0.320  -0.430  1.00  0.00    -0.066 N 
ATOM     12  H12 UNL     1      -0.105  -0.739  -1.347  1.00  0.00     0.278 HD
ATOM     13  H11 UNL     1       0.116  -1.066   0.158  1.00  0.00     0.278 HD
BRANCH  11  14
HETATM   14  C7  UNL     1       0.507   0.875  -0.283  1.00  0.00     0.233 C 
BRANCH  14  15
HETATM   15  C6  UNL     1       1.972   0.664  -0.574  1.00  0.00     0.028 C 
BRANCH  15  16
HETATM   16  C5  UNL     1       2.624  -0.336   0.317  1.00  0.00     0.006 C 
BRANCH  16  17
HETATM   17  C3  UNL     1       4.099  -0.535  -0.000  1.00  0.00    -0.019 C 
HETATM   18  C4  UNL     1       4.677  -1.634   0.879  1.00  0.00     0.010 C 
BRANCH  17  19
HETATM   19  C2  UNL     1       4.843   0.752   0.160  1.00  0.00    -0.000 C 
HETATM   20  C1  UNL     1       6.313   0.607  -0.199  1.00  0.00     0.005 C 
ENDBRANCH  17  19
ENDBRANCH  16  17
ENDBRANCH  15  16
ENDBRANCH  14  15
ENDBRANCH  11  14
ENDBRANCH   1  11
TORSDOF 6
