REMARK  1 active torsions:
REMARK  status: ('A' for Active; 'I' for Inactive)
REMARK    1  A    between atoms: N1_2  and  C2_4 
ROOT
HETATM    1  C2  UNL     1       0.812  -0.010  -0.107  1.00  0.00     0.029 C 
HETATM    2  C3  UNL     1       0.319  -1.053  -1.084  1.00  0.00     0.035 C 
HETATM    3  C4  UNL     1      -1.187  -1.163  -0.993  1.00  0.00    -0.012 C 
HETATM    4  C5  UNL     1      -1.501  -1.681   0.390  1.00  0.00     0.009 C 
HETATM    5  C6  UNL     1      -1.007  -0.672   1.390  1.00  0.00    -0.012 C 
HETATM    6  C7  UNL     1      -1.715   0.653   1.159  1.00  0.00     0.010 C 
HETATM    7  C8  UNL     1      -1.373   1.149  -0.208  1.00  0.00    -0.008 C 
HETATM    8  C9  UNL     1      -1.895   0.132  -1.218  1.00  0.00     0.010 C 
HETATM    9  C10 UNL     1       0.110   1.270  -0.462  1.00  0.00     0.013 C 
HETATM   10  C11 UNL     1       0.707   2.496   0.179  1.00  0.00     0.012 C 
HETATM   11  C12 UNL     1       0.463  -0.396   1.309  1.00  0.00     0.035 C 
ENDROOT
BRANCH   1  12
HETATM   12  N1  UNL     1       2.232   0.159  -0.295  1.00  0.00    -0.416 N 
HETATM   13  C1  UNL     1       3.040  -0.977  -0.009  1.00  0.00     0.140 C 
ATOM     14  H1  UNL     1       2.633   1.041  -0.614  1.00  0.00     0.153 HD
ENDBRANCH   1  12
TORSDOF 1
