REMARK  8 active torsions:
REMARK  status: ('A' for Active; 'I' for Inactive)
REMARK    1  A    between atoms: N1_1  and  C1_4 
REMARK    2  A    between atoms: C3_9  and  N4_10 
REMARK       I    between atoms: N4_10  and  C4_12 
REMARK    3  A    between atoms: C4_12  and  C5_14 
REMARK    4  A    between atoms: C5_14  and  C6_15 
REMARK       I    between atoms: C6_15  and  N5_17 
REMARK    5  A    between atoms: N5_17  and  C7_19 
REMARK    6  A    between atoms: C10_22  and  N6_23 
REMARK    7  A    between atoms: C11_26  and  N7_27 
REMARK    8  A    between atoms: C13_31  and  N8_32 
ROOT
HETATM    1  N4  UNL     1      -2.883   0.972  -0.102  1.00  0.00    -0.321 N 
ATOM      2  H4  UNL     1      -2.929   1.974  -0.284  1.00  0.00     0.169 HD
HETATM    3  C4  UNL     1      -1.603   0.345   0.016  1.00  0.00     0.231 C 
HETATM    4  O1  UNL     1      -1.583  -0.896   0.245  1.00  0.00    -0.273 OA
ENDROOT
BRANCH   3   5
HETATM    5  C5  UNL     1      -0.394   1.156  -0.133  1.00  0.00     0.206 C 
BRANCH   5   6
HETATM    6  C6  UNL     1       0.846   0.380   0.068  1.00  0.00     0.231 C 
HETATM    7  O2  UNL     1       0.722  -0.813   0.398  1.00  0.00    -0.273 OA
HETATM    8  N5  UNL     1       2.088   0.974  -0.109  1.00  0.00    -0.327 N 
ATOM      9  H5  UNL     1       2.059   1.955  -0.386  1.00  0.00     0.169 HD
BRANCH   8  10
HETATM   10  C7  UNL     1       3.383   0.435   0.034  1.00  0.00     0.037 A 
HETATM   11  C8  UNL     1       3.587  -0.698   0.766  1.00  0.00     0.032 A 
HETATM   12  C9  UNL     1       4.857  -1.201   0.856  1.00  0.00     0.041 A 
HETATM   13  C10 UNL     1       5.952  -0.567   0.206  1.00  0.00     0.136 A 
HETATM   14  C11 UNL     1       5.761   0.552  -0.514  1.00  0.00     0.138 A 
HETATM   15  C12 UNL     1       4.460   1.063  -0.605  1.00  0.00     0.068 A 
BRANCH  13  16
HETATM   16  N6  UNL     1       7.200  -1.196   0.360  1.00  0.00    -0.113 N 
HETATM   17  O3  UNL     1       7.425  -1.826   1.426  1.00  0.00    -0.532 OA
HETATM   18  O4  UNL     1       8.180  -1.171  -0.556  1.00  0.00    -0.532 OA
ENDBRANCH  13  16
BRANCH  14  19
HETATM   19  N7  UNL     1       6.763   1.287  -1.190  1.00  0.00    -0.113 N 
HETATM   20  O5  UNL     1       6.433   1.924  -2.259  1.00  0.00    -0.532 OA
HETATM   21  O6  UNL     1       8.058   1.408  -0.854  1.00  0.00    -0.532 OA
ENDBRANCH  14  19
ENDBRANCH   8  10
ENDBRANCH   5   6
ENDBRANCH   3   5
BRANCH   1  22
HETATM   22  C3  UNL     1      -4.093   0.236   0.028  1.00  0.00     0.121 A 
HETATM   23  C2  UNL     1      -4.673  -0.311  -1.116  1.00  0.00     0.162 A 
HETATM   24  N2  UNL     1      -5.816  -1.007  -1.012  1.00  0.00    -0.177 N 
HETATM   25  N3  UNL     1      -4.051  -0.125  -2.372  1.00  0.00    -0.080 NA
HETATM   26  C1  UNL     1      -6.364  -1.154   0.203  1.00  0.00     0.678 A 
ATOM     27  H2  UNL     1      -6.257  -1.414  -1.837  1.00  0.00     0.185 HD
HETATM   28  N9  UNL     1      -5.807  -0.627   1.322  1.00  0.00    -0.175 N 
HETATM   29  C13 UNL     1      -4.663   0.079   1.269  1.00  0.00     0.145 A 
ATOM     30  H9  UNL     1      -6.265  -0.769   2.222  1.00  0.00     0.186 HD
BRANCH  26  31
HETATM   31  N1  UNL     1      -7.472  -1.819   0.357  1.00  0.00    -0.234 N 
ATOM     32  H12 UNL     1      -7.891  -2.215  -0.484  1.00  0.00     0.174 HD
ATOM     33  H11 UNL     1      -7.889  -1.931   1.281  1.00  0.00     0.174 HD
ENDBRANCH  26  31
BRANCH  29  34
HETATM   34  N8  UNL     1      -4.158   0.565   2.345  1.00  0.00    -0.383 N 
ATOM     35  H82 UNL     1      -3.291   1.100   2.305  1.00  0.00     0.157 HD
ATOM     36  H81 UNL     1      -4.581   0.449   3.266  1.00  0.00     0.157 HD
ENDBRANCH  29  34
ENDBRANCH   1  22
TORSDOF 8
