REMARK  11 active torsions:
REMARK  status: ('A' for Active; 'I' for Inactive)
REMARK    1  A    between atoms: N1_1  and  C1_4 
REMARK    2  A    between atoms: C2_7  and  N3_8 
REMARK    3  A    between atoms: C4_12  and  N4_13 
REMARK    4  A    between atoms: N4_13  and  O1_15 
REMARK    5  A    between atoms: C6_18  and  C7_19 
REMARK    6  A    between atoms: C7_19  and  O2_21 
REMARK    7  A    between atoms: C10_28  and  O3_29 
REMARK    8  A    between atoms: O3_29  and  C11_30 
REMARK    9  A    between atoms: C11_30  and  C12_31 
REMARK   10  A    between atoms: C12_31  and  O4_32 
REMARK   11  A    between atoms: O4_32  and  N8_33 
ROOT
HETATM    1  C1  UNL     1       1.458  -3.039   0.411  1.00  0.00     0.692 A 
HETATM    2  N2  UNL     1       0.328  -3.560  -0.087  1.00  0.00    -0.174 N 
ATOM      3  H2  UNL     1       0.292  -4.549  -0.335  1.00  0.00     0.186 HD
HETATM    4  C2  UNL     1      -0.756  -2.788  -0.261  1.00  0.00     0.146 A 
HETATM    5  C3  UNL     1      -0.681  -1.455   0.078  1.00  0.00     0.133 A 
HETATM    6  C4  UNL     1      -1.832  -0.699  -0.056  1.00  0.00     0.100 A 
HETATM    7  C5  UNL     1      -1.830   0.618   0.338  1.00  0.00     0.043 A 
HETATM    8  C6  UNL     1      -2.742   1.642   0.387  1.00  0.00     0.068 A 
HETATM    9  C8  UNL     1      -2.040   2.748   0.928  1.00  0.00     0.132 A 
HETATM   10  N6  UNL     1      -2.612   4.034   1.150  1.00  0.00    -0.082 NA
HETATM   11  N7  UNL     1      -0.792   2.375   1.182  1.00  0.00    -0.340 N 
ATOM     12  H7  UNL     1      -0.082   2.991   1.577  1.00  0.00     0.167 HD
HETATM   13  C9  UNL     1      -0.580   1.119   0.864  1.00  0.00     0.101 A 
HETATM   14  C10 UNL     1       0.590   0.339   0.986  1.00  0.00     0.193 A 
HETATM   15  N9  UNL     1       0.479  -0.932   0.585  1.00  0.00    -0.212 N 
HETATM   16  N10 UNL     1       1.526  -1.742   0.741  1.00  0.00    -0.123 N 
ATOM     17  H10 UNL     1       2.396  -1.367   1.119  1.00  0.00     0.206 HD
ENDROOT
BRANCH  14  18
HETATM   18  O3  UNL     1       1.708   0.936   1.495  1.00  0.00    -0.331 OA
BRANCH  18  19
HETATM   19  C11 UNL     1       2.708   1.641   0.894  1.00  0.00     0.206 C 
BRANCH  19  20
HETATM   20  C12 UNL     1       3.608   1.120  -0.137  1.00  0.00     0.227 C 
BRANCH  20  21
HETATM   21  O4  UNL     1       4.428   0.072   0.153  1.00  0.00    -0.285 OA
BRANCH  21  22
HETATM   22  N8  UNL     1       5.162  -0.247  -0.914  1.00  0.00    -0.311 N 
ATOM     23  H82 UNL     1       5.106   0.234  -1.811  1.00  0.00     0.184 HD
ATOM     24  H81 UNL     1       5.776  -1.032  -0.697  1.00  0.00     0.184 HD
ENDBRANCH  21  22
ENDBRANCH  20  21
ENDBRANCH  19  20
ENDBRANCH  18  19
ENDBRANCH  14  18
BRANCH   6  25
HETATM   25  N4  UNL     1      -2.955  -1.259  -0.732  1.00  0.00    -0.266 N 
ATOM     26  H4  UNL     1      -3.751  -1.691  -0.263  1.00  0.00     0.194 HD
BRANCH  25  27
HETATM   27  O1  UNL     1      -2.837  -1.150  -2.024  1.00  0.00    -0.289 OA
ATOM     28  H1  UNL     1      -3.585  -1.523  -2.475  1.00  0.00     0.244 HD
ENDBRANCH  25  27
ENDBRANCH   6  25
BRANCH   8  29
HETATM   29  C7  UNL     1      -4.141   1.674   0.030  1.00  0.00     0.164 C 
HETATM   30  N5  UNL     1      -5.004   0.677  -0.431  1.00  0.00    -0.074 NA
BRANCH  29  31
HETATM   31  O2  UNL     1      -4.706   2.843   0.167  1.00  0.00    -0.348 OA
ATOM     32  H2  UNL     1      -5.626   2.864  -0.068  1.00  0.00     0.219 HD
ENDBRANCH  29  31
ENDBRANCH   8  29
BRANCH   4  33
HETATM   33  N3  UNL     1      -1.862  -3.337  -0.708  1.00  0.00    -0.383 N 
ATOM     34  H32 UNL     1      -1.918  -4.324  -0.959  1.00  0.00     0.157 HD
ATOM     35  H31 UNL     1      -2.686  -2.750  -0.840  1.00  0.00     0.157 HD
ENDBRANCH   4  33
BRANCH   1  36
HETATM   36  N1  UNL     1       2.519  -3.793   0.582  1.00  0.00    -0.233 N 
ATOM     37  H12 UNL     1       2.467  -4.780   0.331  1.00  0.00     0.174 HD
ATOM     38  H11 UNL     1       3.379  -3.397   0.961  1.00  0.00     0.174 HD
ENDBRANCH   1  36
TORSDOF 11
