REMARK  8 active torsions:
REMARK  status: ('A' for Active; 'I' for Inactive)
REMARK    1  A    between atoms: N1_1  and  C1_4 
REMARK    2  A    between atoms: C4_14  and  S1_15 
REMARK    3  A    between atoms: S1_15  and  C5_16 
REMARK    4  A    between atoms: C5_16  and  C6_17 
REMARK    5  A    between atoms: C6_17  and  C7_18 
REMARK    6  A    between atoms: C7_18  and  N5_19 
REMARK    7  A    between atoms: N6_23  and  N7_24 
REMARK       I    between atoms: N7_24  and  C8_26 
REMARK    8  A    between atoms: C8_26  and  C9_28 
ROOT
HETATM    1  C1  UNL     1      -0.872   4.010  -0.516  1.00  0.00     0.679 A 
HETATM    2  N2  UNL     1       0.415   4.361  -0.568  1.00  0.00    -0.175 N 
ATOM      3  H2  UNL     1       0.701   5.328  -0.720  1.00  0.00     0.186 HD
HETATM    4  C2  UNL     1       1.306   3.384  -0.411  1.00  0.00     0.145 A 
HETATM    5  N3  UNL     1       2.588   3.645  -0.448  1.00  0.00    -0.383 N 
ATOM      6  H31 UNL     1       3.271   2.897  -0.328  1.00  0.00     0.157 HD
ATOM      7  H32 UNL     1       2.867   4.614  -0.601  1.00  0.00     0.157 HD
HETATM    8  C3  UNL     1       0.928   2.069  -0.204  1.00  0.00     0.126 A 
HETATM    9  N4  UNL     1       1.634   0.942  -0.046  1.00  0.00    -0.329 N 
ATOM     10  H4  UNL     1       2.652   0.880  -0.041  1.00  0.00     0.168 HD
HETATM   11  C4  UNL     1       0.805  -0.077   0.102  1.00  0.00     0.168 A 
HETATM   12  N6  UNL     1      -0.498   0.385   0.043  1.00  0.00    -0.211 N 
HETATM   13  C12 UNL     1      -0.404   1.721  -0.151  1.00  0.00     0.175 A 
HETATM   14  N10 UNL     1      -1.276   2.719  -0.313  1.00  0.00    -0.172 N 
ATOM     15  H10 UNL     1      -2.274   2.512  -0.285  1.00  0.00     0.186 HD
ENDROOT
BRANCH  12  16
HETATM   16  N7  UNL     1      -1.566  -0.442   0.118  1.00  0.00    -0.254 N 
HETATM   17  C8  UNL     1      -2.922  -0.281   0.331  1.00  0.00     0.289 C 
HETATM   18  O1  UNL     1      -3.563   0.759   0.545  1.00  0.00    -0.264 OA
ATOM     19  H7  UNL     1      -1.308  -1.420  -0.015  1.00  0.00     0.191 HD
BRANCH  17  20
HETATM   20  C9  UNL     1      -3.749  -1.556   0.301  1.00  0.00     0.128 A 
HETATM   21  C10 UNL     1      -5.104  -1.624   0.484  1.00  0.00     0.092 A 
HETATM   22  C11 UNL     1      -5.464  -2.972   0.380  1.00  0.00     0.182 A 
HETATM   23  N8  UNL     1      -6.775  -3.498   0.505  1.00  0.00    -0.072 NA
HETATM   24  O2  UNL     1      -4.348  -3.628   0.147  1.00  0.00    -0.222 OA
HETATM   25  N9  UNL     1      -3.324  -2.797   0.099  1.00  0.00    -0.254 N 
ATOM     26  H9  UNL     1      -2.355  -3.067  -0.068  1.00  0.00     0.195 HD
ENDBRANCH  17  20
ENDBRANCH  12  16
BRANCH  11  27
HETATM   27  S1  UNL     1       1.281  -1.775   0.351  1.00  0.00    -0.092 SA
BRANCH  27  28
HETATM   28  C5  UNL     1       3.073  -1.910   0.370  1.00  0.00     0.084 C 
BRANCH  28  29
HETATM   29  C6  UNL     1       3.677  -1.580  -0.985  1.00  0.00     0.038 C 
BRANCH  29  30
HETATM   30  C7  UNL     1       5.178  -1.724  -0.862  1.00  0.00     0.230 C 
BRANCH  30  31
HETATM   31  N5  UNL     1       5.645  -0.803   0.151  1.00  0.00    -0.079 N 
ATOM     32  H53 UNL     1       5.357   0.158  -0.031  1.00  0.00     0.274 HD
ATOM     33  H52 UNL     1       5.165  -0.925   1.043  1.00  0.00     0.274 HD
ATOM     34  H51 UNL     1       6.657  -0.900   0.234  1.00  0.00     0.274 HD
ENDBRANCH  30  31
ENDBRANCH  29  30
ENDBRANCH  28  29
ENDBRANCH  27  28
ENDBRANCH  11  27
BRANCH   1  35
HETATM   35  N1  UNL     1      -1.814   4.892  -0.658  1.00  0.00    -0.234 N 
ATOM     36  H12 UNL     1      -1.513   5.855  -0.809  1.00  0.00     0.174 HD
ATOM     37  H11 UNL     1      -2.797   4.624  -0.618  1.00  0.00     0.174 HD
ENDBRANCH   1  35
TORSDOF 8
