REMARK  3 active torsions:
REMARK  status: ('A' for Active; 'I' for Inactive)
REMARK    1  A    between atoms: N1_1  and  C1_4 
REMARK    2  A    between atoms: C3_9  and  N4_10 
REMARK    3  A    between atoms: N5_12  and  C4_14 
ROOT
HETATM    1  C1  UNL     1      -1.786  -1.356   0.235  1.00  0.00     0.678 A 
HETATM    2  N2  UNL     1      -2.467  -0.213   0.441  1.00  0.00    -0.175 N 
ATOM      3  H2  UNL     1      -3.392  -0.113   0.860  1.00  0.00     0.185 HD
HETATM    4  C2  UNL     1      -1.667   0.776  -0.024  1.00  0.00     0.177 A 
HETATM    5  N3  UNL     1      -1.961   2.173  -0.021  1.00  0.00    -0.078 NA
HETATM    6  C3  UNL     1      -0.491   0.237  -0.516  1.00  0.00     0.177 A 
HETATM    7  N6  UNL     1      -0.599  -1.096  -0.339  1.00  0.00    -0.172 N 
ATOM      8  H6  UNL     1       0.102  -1.790  -0.597  1.00  0.00     0.186 HD
ENDROOT
BRANCH   6   9
HETATM    9  N4  UNL     1       0.584   0.957  -1.082  1.00  0.00    -0.284 N 
HETATM   10  N5  UNL     1       1.719   1.093  -0.604  1.00  0.00    -0.304 N 
ATOM     11  H5  UNL     1       2.372   1.650  -1.154  1.00  0.00     0.183 HD
ATOM     12  H4  UNL     1       0.408   1.412  -1.977  1.00  0.00     0.188 HD
BRANCH  10  13
HETATM   13  C4  UNL     1       2.224   0.567   0.619  1.00  0.00     0.259 A 
HETATM   14  C5  UNL     1       3.408  -0.398   0.522  1.00  0.00     0.225 A 
HETATM   15  O1  UNL     1       3.572   0.945   0.877  1.00  0.00    -0.359 OA
ENDBRANCH  10  13
ENDBRANCH   6   9
BRANCH   1  16
HETATM   16  N1  UNL     1      -2.265  -2.517   0.567  1.00  0.00    -0.234 N 
ATOM     17  H12 UNL     1      -3.166  -2.714   1.003  1.00  0.00     0.174 HD
ATOM     18  H11 UNL     1      -1.749  -3.383   0.411  1.00  0.00     0.174 HD
ENDBRANCH   1  16
TORSDOF 3
