REMARK  4 active torsions:
REMARK  status: ('A' for Active; 'I' for Inactive)
REMARK    1  A    between atoms: C2_2  and  C5_5 
REMARK    2  A    between atoms: C6_9  and  C7_10 
REMARK    3  A    between atoms: C12_16  and  O3_17 
REMARK    4  A    between atoms: C13_19  and  O4_21 
ROOT
HETATM    1  C7  UNL     1      -0.617  -0.827  -0.226  1.00  0.00     0.203 C 
HETATM    2  O2  UNL     1      -1.581  -0.959   0.752  1.00  0.00    -0.369 OA
HETATM    3  C8  UNL     1      -2.742  -1.389   0.103  1.00  0.00     0.159 C 
HETATM    4  C9  UNL     1      -2.518  -1.190  -1.395  1.00  0.00     0.043 C 
HETATM    5  C10 UNL     1      -1.444  -0.097  -1.288  1.00  0.00     0.028 C 
HETATM    6  C11 UNL     1      -2.117   1.135  -0.772  1.00  0.00     0.042 C 
HETATM    7  C12 UNL     1      -3.013   0.989   0.385  1.00  0.00     0.155 C 
HETATM    8  C13 UNL     1      -3.790  -0.320   0.451  1.00  0.00     0.106 C 
HETATM    9  C14 UNL     1      -4.935  -0.298  -0.499  1.00  0.00     0.051 C 
ENDROOT
BRANCH   1  10
HETATM   10  C6  UNL     1       0.582  -0.100   0.119  1.00  0.00     0.177 A 
HETATM   11  O1  UNL     1       0.769   1.104   0.597  1.00  0.00    -0.220 OA
HETATM   12  N1  UNL     1       2.028   1.346   0.762  1.00  0.00    -0.246 N 
HETATM   13  C5  UNL     1       2.758   0.304   0.403  1.00  0.00     0.111 A 
ATOM     14  H1  UNL     1       2.407   2.222   1.121  1.00  0.00     0.196 HD
HETATM   15  N2  UNL     1       1.831  -0.618  -0.009  1.00  0.00    -0.324 N 
ATOM     16  H2  UNL     1       2.047  -1.552  -0.359  1.00  0.00     0.169 HD
BRANCH  13  17
HETATM   17  C2  UNL     1       4.217   0.138   0.433  1.00  0.00     0.009 C 
HETATM   18  C1  UNL     1       4.618  -1.164   1.090  1.00  0.00     0.023 C 
HETATM   19  C3  UNL     1       4.823   0.255  -0.952  1.00  0.00     0.023 C 
HETATM   20  C4  UNL     1       4.819   1.238   1.290  1.00  0.00     0.023 C 
ENDBRANCH  13  17
ENDBRANCH   1  10
BRANCH   8  21
HETATM   21  O4  UNL     1      -4.227  -0.472   1.759  1.00  0.00    -0.385 OA
ATOM     22  H4  UNL     1      -4.875   0.189   1.974  1.00  0.00     0.210 HD
ENDBRANCH   8  21
BRANCH   7  23
HETATM   23  O3  UNL     1      -2.411   1.185   1.636  1.00  0.00    -0.392 OA
ATOM     24  H3  UNL     1      -2.990   1.091   2.383  1.00  0.00     0.210 HD
ENDBRANCH   7  23
TORSDOF 4
