REMARK  2 active torsions:
REMARK  status: ('A' for Active; 'I' for Inactive)
REMARK       I    between atoms: C2_2  and  N1_4 
REMARK    1  A    between atoms: C4_11  and  C5_12 
REMARK    2  A    between atoms: C5_12  and  N4_13 
ROOT
HETATM    1  C1  UNL     1       5.756  -0.914   0.235  1.00  0.00     0.117 C 
HETATM    2  C2  UNL     1       5.435   0.510  -0.055  1.00  0.00     0.219 C 
HETATM    3  O1  UNL     1       6.410   1.346   0.007  1.00  0.00    -0.274 OA
HETATM    4  N1  UNL     1       4.189   0.919  -0.373  1.00  0.00    -0.306 N 
ATOM      5  H1  UNL     1       4.226   1.547  -1.176  1.00  0.00     0.171 HD
HETATM    6  C3  UNL     1       2.992   0.775   0.003  1.00  0.00     0.167 A 
HETATM    7  N2  UNL     1       2.485   0.044   1.017  1.00  0.00    -0.279 N 
ATOM      8  H2  UNL     1       3.100  -0.475   1.644  1.00  0.00     0.189 HD
HETATM    9  N3  UNL     1       1.223   0.016   1.174  1.00  0.00    -0.293 N 
ATOM     10  H3  UNL     1       0.828  -0.536   1.935  1.00  0.00     0.187 HD
HETATM   11  C4  UNL     1       0.416   0.683   0.377  1.00  0.00     0.117 A 
HETATM   12  S3  UNL     1       1.536   1.403  -0.680  1.00  0.00    -0.034 SA
ENDROOT
BRANCH  11  13
HETATM   13  C5  UNL     1      -1.058   0.788   0.264  1.00  0.00     0.230 C 
HETATM   14  C6  UNL     1      -1.582  -0.590  -0.179  1.00  0.00     0.058 C 
HETATM   15  C7  UNL     1      -2.882  -0.405  -0.891  1.00  0.00     0.004 C 
HETATM   16  C8  UNL     1      -4.005  -1.161  -0.217  1.00  0.00     0.011 C 
HETATM   17  C9  UNL     1      -4.657  -0.400   0.882  1.00  0.00     0.086 C 
HETATM   18  S1  UNL     1      -4.024   1.229   1.208  1.00  0.00    -0.095 SA
HETATM   19  S2  UNL     1      -1.942   1.157   1.776  1.00  0.00    -0.051 SA
BRANCH  13  20
HETATM   20  N4  UNL     1      -1.432   1.784  -0.733  1.00  0.00    -0.054 N 
ATOM     21  H43 UNL     1      -1.003   2.689  -0.541  1.00  0.00     0.276 HD
ATOM     22  H42 UNL     1      -0.997   1.596  -1.636  1.00  0.00     0.276 HD
ATOM     23  H41 UNL     1      -2.446   1.856  -0.811  1.00  0.00     0.276 HD
ENDBRANCH  13  20
ENDBRANCH  11  13
TORSDOF 2
