REMARK  3 active torsions:
REMARK  status: ('A' for Active; 'I' for Inactive)
REMARK    1  A    between atoms: C5_7  and  C6_8 
REMARK    2  A    between atoms: N4_15  and  N5_16 
REMARK    3  A    between atoms: C8_19  and  C9_20 
ROOT
HETATM    1  C1  UNL     1      -2.131   3.816  -0.471  1.00  0.00     0.089 C 
HETATM    2  C2  UNL     1      -1.217   2.617  -0.454  1.00  0.00     0.077 A 
HETATM    3  N1  UNL     1       0.086   2.736  -0.748  1.00  0.00    -0.349 N 
ATOM      4  H1  UNL     1       0.445   3.661  -0.985  1.00  0.00     0.167 HD
HETATM    5  C3  UNL     1       0.941   1.707  -0.747  1.00  0.00     0.022 A 
HETATM    6  C4  UNL     1       2.374   1.827  -1.069  1.00  0.00     0.069 C 
HETATM    7  C5  UNL     1       0.418   0.440  -0.416  1.00  0.00     0.057 A 
HETATM    8  C8  UNL     1      -0.892   0.275  -0.114  1.00  0.00     0.034 A 
HETATM    9  N6  UNL     1      -1.680   1.403  -0.146  1.00  0.00    -0.348 N 
ATOM     10  H6  UNL     1      -2.671   1.306   0.077  1.00  0.00     0.167 HD
ENDROOT
BRANCH   7  11
HETATM   11  C6  UNL     1       1.368  -0.644  -0.401  1.00  0.00     0.158 A 
HETATM   12  N2  UNL     1       1.684  -1.594  -1.273  1.00  0.00    -0.281 N 
HETATM   13  N3  UNL     1       2.656  -2.329  -0.807  1.00  0.00    -0.273 N 
ATOM     14  H2  UNL     1       1.232  -1.730  -2.177  1.00  0.00     0.188 HD
HETATM   15  C7  UNL     1       3.004  -1.870   0.399  1.00  0.00     0.213 A 
ATOM     16  H3  UNL     1       3.081  -3.124  -1.285  1.00  0.00     0.189 HD
HETATM   17  S1  UNL     1       4.186  -2.488   1.360  1.00  0.00    -0.037 SA
HETATM   18  N4  UNL     1       2.209  -0.825   0.656  1.00  0.00    -0.217 N 
BRANCH  18  19
HETATM   19  N5  UNL     1       2.316  -0.081   1.843  1.00  0.00    -0.335 N 
ATOM     20  H52 UNL     1       1.710   0.716   2.039  1.00  0.00     0.177 HD
ATOM     21  H51 UNL     1       2.945  -0.216   2.634  1.00  0.00     0.177 HD
ENDBRANCH  18  19
ENDBRANCH   7  11
BRANCH   8  22
HETATM   22  C9  UNL     1      -1.488  -1.036   0.188  1.00  0.00    -0.008 C 
HETATM   23  C10 UNL     1      -2.991  -0.766   0.504  1.00  0.00     0.021 C 
HETATM   24  C11 UNL     1      -0.963  -1.759   1.367  1.00  0.00     0.021 C 
HETATM   25  C12 UNL     1      -1.565  -1.960  -1.028  1.00  0.00     0.021 C 
ENDBRANCH   8  22
TORSDOF 3
