REMARK  5 active torsions:
REMARK  status: ('A' for Active; 'I' for Inactive)
REMARK    1  A    between atoms: C2_2  and  C3_3 
REMARK    2  A    between atoms: C3_3  and  S1_7 
REMARK    3  A    between atoms: S1_7  and  C4_8 
REMARK    4  A    between atoms: C4_8  and  O1_10 
REMARK    5  A    between atoms: O1_10  and  N2_11 
ROOT
HETATM    1  O1  UNL     1       1.268   0.759   0.749  1.00  0.00    -0.219 OA
ENDROOT
BRANCH   1   2
HETATM    2  C4  UNL     1       2.105   1.278   1.709  1.00  0.00     0.208 C 
HETATM    3  S2  UNL     1       1.515   2.471   2.656  1.00  0.00    -0.042 SA
BRANCH   2   4
HETATM    4  S1  UNL     1       3.763   0.747   1.987  1.00  0.00    -0.038 SA
BRANCH   4   5
HETATM    5  C3  UNL     1       4.346  -0.500   0.883  1.00  0.00     0.047 C 
HETATM    6  N1  UNL     1       5.513  -1.003   1.099  1.00  0.00    -0.397 N 
ATOM      7  H12 UNL     1       5.850  -1.724   0.461  1.00  0.00     0.156 HD
ATOM      8  H11 UNL     1       6.079  -0.687   1.886  1.00  0.00     0.156 HD
BRANCH   5   9
HETATM    9  C2  UNL     1       3.528  -0.957  -0.254  1.00  0.00     0.060 C 
HETATM   10  C1  UNL     1       3.370   0.084  -1.346  1.00  0.00     0.012 C 
ENDBRANCH   5   9
ENDBRANCH   4   5
ENDBRANCH   2   4
ENDBRANCH   1   2
BRANCH   1  11
HETATM   11  N2  UNL     1       0.067   0.247   1.147  1.00  0.00    -0.265 N 
HETATM   12  C5  UNL     1      -0.990   0.221   0.454  1.00  0.00     0.043 C 
HETATM   13  C6  UNL     1      -1.040   0.766  -0.916  1.00  0.00     0.327 C 
HETATM   14  C9  UNL     1      -2.226  -0.364   1.005  1.00  0.00     0.038 C 
HETATM   15  N3  UNL     1      -2.410   0.554  -1.372  1.00  0.00     0.093 N 
HETATM   16  C7  UNL     1      -3.342   1.232  -0.482  1.00  0.00     0.273 C 
HETATM   17  C11 UNL     1      -2.762  -0.858  -1.347  1.00  0.00     0.273 C 
HETATM   18  C8  UNL     1      -3.299   0.726   0.930  1.00  0.00     0.041 C 
HETATM   19  C10 UNL     1      -2.594  -1.478   0.006  1.00  0.00     0.041 C 
ATOM     20  H2  UNL     1       0.018  -0.149   2.086  1.00  0.00     0.194 HD
ENDBRANCH   1  11
TORSDOF 5
