REMARK  6 active torsions:
REMARK  status: ('A' for Active; 'I' for Inactive)
REMARK    1  A    between atoms: C2_2  and  N1_3 
REMARK    2  A    between atoms: C2_2  and  C3_7 
REMARK    3  A    between atoms: C3_7  and  N2_8 
REMARK    4  A    between atoms: N2_8  and  C4_10 
REMARK    5  A    between atoms: C7_19  and  N6_20 
REMARK    6  A    between atoms: C8_23  and  C9_24 
ROOT
HETATM    1  C4  UNL     1      -0.597  -0.508  -0.863  1.00  0.00     0.137 A 
HETATM    2  N3  UNL     1      -1.101  -1.676  -1.273  1.00  0.00    -0.337 N 
ATOM      3  H3  UNL     1      -2.064  -1.683  -1.609  1.00  0.00     0.168 HD
HETATM    4  C5  UNL     1      -0.428  -2.849  -1.275  1.00  0.00     0.183 A 
HETATM    5  N4  UNL     1       0.838  -2.883  -0.843  1.00  0.00    -0.337 N 
ATOM      6  H4  UNL     1       1.363  -3.757  -0.837  1.00  0.00     0.168 HD
HETATM    7  C6  UNL     1       1.403  -1.739  -0.417  1.00  0.00     0.139 A 
HETATM    8  N5  UNL     1       2.700  -1.812   0.018  1.00  0.00    -0.325 N 
ATOM      9  H5  UNL     1       3.203  -2.700   0.013  1.00  0.00     0.169 HD
HETATM   10  C7  UNL     1       3.295  -0.688   0.451  1.00  0.00     0.133 A 
HETATM   11  C8  UNL     1       2.618   0.514   0.458  1.00  0.00     0.142 A 
HETATM   12  N8  UNL     1       1.328   0.593   0.026  1.00  0.00    -0.343 N 
ATOM     13  H8  UNL     1       0.826   1.481   0.030  1.00  0.00     0.166 HD
HETATM   14  C10 UNL     1       0.734  -0.541  -0.408  1.00  0.00     0.122 A 
ENDROOT
BRANCH   1  15
HETATM   15  N2  UNL     1      -1.183   0.620  -0.839  1.00  0.00    -0.352 N 
ATOM     16  H2  UNL     1      -0.654   1.421  -0.494  1.00  0.00     0.166 HD
BRANCH  15  17
HETATM   17  C3  UNL     1      -2.502   0.841  -1.252  1.00  0.00     0.094 C 
BRANCH  17  18
HETATM   18  C2  UNL     1      -3.513   0.928  -0.132  1.00  0.00     0.217 C 
HETATM   19  C1  UNL     1      -3.206   2.054   0.826  1.00  0.00     0.045 C 
BRANCH  18  20
HETATM   20  N1  UNL     1      -3.663  -0.334   0.558  1.00  0.00    -0.071 N 
ATOM     21  H13 UNL     1      -2.845  -0.545   1.130  1.00  0.00     0.275 HD
ATOM     22  H12 UNL     1      -4.363  -0.273   1.297  1.00  0.00     0.275 HD
ATOM     23  H11 UNL     1      -3.870  -1.095  -0.089  1.00  0.00     0.275 HD
ENDBRANCH  18  20
ENDBRANCH  17  18
ENDBRANCH  15  17
ENDBRANCH   1  15
BRANCH  11  24
HETATM   24  C9  UNL     1       3.314   1.703   0.938  1.00  0.00     0.285 C 
HETATM   25  N7  UNL     1       4.651   1.632   1.387  1.00  0.00    -0.056 NA
HETATM   26  O1  UNL     1       2.706   2.784   0.945  1.00  0.00    -0.269 OA
ENDBRANCH  11  24
BRANCH  10  27
HETATM   27  N6  UNL     1       4.527  -0.693   0.877  1.00  0.00    -0.383 N 
ATOM     28  H62 UNL     1       5.028  -1.582   0.872  1.00  0.00     0.157 HD
ATOM     29  H61 UNL     1       4.979   0.160   1.206  1.00  0.00     0.157 HD
ENDBRANCH  10  27
TORSDOF 6
