REMARK  13 active torsions:
REMARK  status: ('A' for Active; 'I' for Inactive)
REMARK    1  A    between atoms: C4_4  and  O1_5 
REMARK    2  A    between atoms: C5_7  and  C6_8 
REMARK    3  A    between atoms: C6_8  and  C7_9 
REMARK    4  A    between atoms: C7_9  and  N1_10 
REMARK    5  A    between atoms: N1_10  and  C8_12 
REMARK    6  A    between atoms: C8_12  and  O2_13 
REMARK    7  A    between atoms: C8_12  and  N2_15 
REMARK    8  A    between atoms: C9_17  and  O3_18 
REMARK    9  A    between atoms: C9_17  and  C10_20 
REMARK   10  A    between atoms: C10_20  and  O4_21 
REMARK       I    between atoms: N5_28  and  C13_29 
REMARK   11  A    between atoms: C13_29  and  C14_31 
REMARK   12  A    between atoms: C14_31  and  N6_32 
REMARK   13  A    between atoms: C17_38  and  O7_39 
ROOT
HETATM    1  C10 UNL     1      -1.567  -2.000  -0.096  1.00  0.00     0.223 C 
HETATM    2  C11 UNL     1      -1.575  -3.456   0.413  1.00  0.00     0.205 C 
HETATM    3  N3  UNL     1      -2.622  -3.530   1.403  1.00  0.00    -0.135 NA
HETATM    4  N4  UNL     1      -3.864  -3.629   0.753  1.00  0.00    -0.299 N 
ATOM      5  H4  UNL     1      -4.503  -4.419   0.839  1.00  0.00     0.183 HD
HETATM    6  C12 UNL     1      -4.111  -2.455  -0.055  1.00  0.00     0.202 C 
HETATM    7  N5  UNL     1      -2.984  -1.674  -0.393  1.00  0.00    -0.270 N 
HETATM    8  C13 UNL     1      -3.155  -0.453  -1.087  1.00  0.00     0.247 C 
HETATM    9  O5  UNL     1      -2.117   0.280  -1.334  1.00  0.00    -0.271 OA
ENDROOT
BRANCH   1  10
HETATM   10  C9  UNL     1      -0.800  -1.909  -1.328  1.00  0.00     0.178 C 
HETATM   11  N2  UNL     1       0.370  -1.385  -1.785  1.00  0.00    -0.302 N 
ATOM     12  H2  UNL     1       0.455  -1.537  -2.790  1.00  0.00     0.171 HD
BRANCH  11  13
HETATM   13  C8  UNL     1       1.483  -0.708  -1.308  1.00  0.00     0.218 C 
BRANCH  13  14
HETATM   14  N1  UNL     1       1.794  -0.291  -0.027  1.00  0.00    -0.356 N 
ATOM     15  H1  UNL     1       1.143  -0.441   0.744  1.00  0.00     0.163 HD
BRANCH  14  16
HETATM   16  C7  UNL     1       3.104   0.383   0.201  1.00  0.00     0.128 C 
BRANCH  16  17
HETATM   17  C6  UNL     1       4.187  -0.615  -0.070  1.00  0.00     0.067 C 
BRANCH  17  18
HETATM   18  C5  UNL     1       5.514   0.038   0.119  1.00  0.00     0.052 A 
HETATM   19  C4  UNL     1       5.973   0.268   1.385  1.00  0.00     0.080 A 
HETATM   20  C3  UNL     1       7.208   0.859   1.530  1.00  0.00     0.069 A 
HETATM   21  C2  UNL     1       7.896   1.177   0.356  1.00  0.00     0.056 A 
HETATM   22  C1  UNL     1       9.225   1.811   0.433  1.00  0.00     0.077 C 
HETATM   23  O9  UNL     1       7.395   0.928  -0.836  1.00  0.00    -0.280 OA
HETATM   24  C20 UNL     1       6.226   0.369  -1.031  1.00  0.00     0.297 A 
HETATM   25  O8  UNL     1       5.745   0.130  -2.158  1.00  0.00    -0.259 OA
BRANCH  19  26
HETATM   26  O1  UNL     1       5.209  -0.086   2.481  1.00  0.00    -0.360 OA
ATOM     27  H1  UNL     1       4.357  -0.494   2.381  1.00  0.00     0.217 HD
ENDBRANCH  19  26
ENDBRANCH  17  18
ENDBRANCH  16  17
ENDBRANCH  14  16
ENDBRANCH  13  14
BRANCH  13  28
HETATM   28  O2  UNL     1       2.408  -0.404  -2.204  1.00  0.00    -0.332 OA
ATOM     29  H2  UNL     1       2.194  -0.691  -3.084  1.00  0.00     0.220 HD
ENDBRANCH  13  28
ENDBRANCH  11  13
BRANCH  10  30
HETATM   30  O3  UNL     1      -1.473  -2.551  -2.328  1.00  0.00    -0.345 OA
ATOM     31  H3  UNL     1      -2.290  -2.917  -2.009  1.00  0.00     0.219 HD
ENDBRANCH  10  30
ENDBRANCH   1  10
BRANCH   1  32
HETATM   32  O4  UNL     1      -1.172  -1.243   0.949  1.00  0.00    -0.362 OA
ATOM     33  H4  UNL     1      -1.673  -1.302   1.754  1.00  0.00     0.213 HD
ENDBRANCH   1  32
BRANCH   8  34
HETATM   34  C14 UNL     1      -4.400   0.150  -1.608  1.00  0.00     0.252 C 
BRANCH  34  35
HETATM   35  N6  UNL     1      -4.522   1.494  -1.100  1.00  0.00    -0.285 N 
HETATM   36  N7  UNL     1      -3.745   2.437  -1.688  1.00  0.00    -0.305 N 
HETATM   37  C15 UNL     1      -3.701   3.704  -1.286  1.00  0.00     0.165 A 
ATOM     38  H7  UNL     1      -3.164   2.160  -2.480  1.00  0.00     0.186 HD
HETATM   39  C16 UNL     1      -4.482   4.082  -0.219  1.00  0.00     0.223 A 
HETATM   40  O6  UNL     1      -4.467   5.272   0.189  1.00  0.00    -0.284 OA
HETATM   41  C17 UNL     1      -5.297   3.177   0.427  1.00  0.00     0.141 A 
HETATM   42  C18 UNL     1      -5.277   1.863  -0.071  1.00  0.00     0.062 A 
HETATM   43  C19 UNL     1      -6.196   0.918   0.576  1.00  0.00     0.073 C 
BRANCH  41  44
HETATM   44  O7  UNL     1      -6.102   3.497   1.501  1.00  0.00    -0.355 OA
ATOM     45  H7  UNL     1      -6.664   2.873   1.946  1.00  0.00     0.218 HD
ENDBRANCH  41  44
ENDBRANCH  34  35
ENDBRANCH   8  34
TORSDOF 13
