REMARK  15 active torsions:
REMARK  status: ('A' for Active; 'I' for Inactive)
REMARK    1  A    between atoms: N5_15  and  C6_16 
REMARK    2  A    between atoms: C6_16  and  C7_17 
REMARK    3  A    between atoms: C7_17  and  N6_18 
REMARK    4  A    between atoms: C7_17  and  O1_22 
REMARK    5  A    between atoms: C8_25  and  C9_26 
REMARK    6  A    between atoms: C9_26  and  O2_27 
REMARK    7  A    between atoms: C10_29  and  O3_30 
REMARK    8  A    between atoms: C10_29  and  C11_32 
REMARK    9  A    between atoms: C11_32  and  C12_33 
REMARK   10  A    between atoms: C12_33  and  O4_34 
REMARK   11  A    between atoms: C12_33  and  O5_36 
REMARK   12  A    between atoms: O5_36  and  N7_37 
REMARK   13  A    between atoms: N7_37  and  N8_38 
REMARK   14  A    between atoms: C13_41  and  O6_42 
REMARK   15  A    between atoms: C13_41  and  O7_44 
ROOT
HETATM    1  C6  UNL     1      -1.031  -0.355  -1.009  1.00  0.00     0.199 C 
HETATM    2  S1  UNL     1      -0.460  -1.878  -0.148  1.00  0.00    -0.117 SA
HETATM    3  C8  UNL     1       1.250  -1.261   0.170  1.00  0.00     0.113 C 
HETATM    4  C10 UNL     1       0.961   0.184   0.273  1.00  0.00     0.136 C 
HETATM    5  C13 UNL     1       0.104   0.608  -0.876  1.00  0.00     0.234 C 
ENDROOT
BRANCH   1   6
HETATM    6  N5  UNL     1      -2.271   0.081  -0.444  1.00  0.00    -0.299 N 
HETATM    7  C3  UNL     1      -2.956  -0.574   0.518  1.00  0.00     0.142 A 
HETATM    8  N3  UNL     1      -2.718  -1.716   1.175  1.00  0.00    -0.336 N 
HETATM    9  C4  UNL     1      -4.071   0.149   0.784  1.00  0.00     0.122 A 
HETATM   10  C2  UNL     1      -3.595  -2.133   2.100  1.00  0.00     0.183 A 
ATOM     11  H3  UNL     1      -1.880  -2.262   0.975  1.00  0.00     0.168 HD
HETATM   12  N2  UNL     1      -4.710  -1.436   2.386  1.00  0.00    -0.337 N 
HETATM   13  C1  UNL     1      -4.988  -0.290   1.753  1.00  0.00     0.131 A 
ATOM     14  H2  UNL     1      -5.353  -1.786   3.096  1.00  0.00     0.168 HD
HETATM   15  N1  UNL     1      -6.054   0.403   2.007  1.00  0.00    -0.383 N 
ATOM     16  H12 UNL     1      -6.720   0.084   2.711  1.00  0.00     0.157 HD
ATOM     17  H11 UNL     1      -6.266   1.276   1.525  1.00  0.00     0.157 HD
HETATM   18  N4  UNL     1      -4.061   1.234  -0.009  1.00  0.00    -0.346 N 
HETATM   19  C5  UNL     1      -2.946   1.177  -0.759  1.00  0.00     0.187 A 
ATOM     20  H4  UNL     1      -4.770   1.967  -0.037  1.00  0.00     0.167 HD
ENDBRANCH   1   6
BRANCH   1  21
HETATM   21  C7  UNL     1      -1.279  -0.767  -2.443  1.00  0.00     0.361 C 
BRANCH  21  22
HETATM   22  N6  UNL     1      -1.789   0.279  -3.277  1.00  0.00    -0.050 N 
ATOM     23  H63 UNL     1      -2.634   0.679  -2.870  1.00  0.00     0.277 HD
ATOM     24  H62 UNL     1      -1.176   1.094  -3.241  1.00  0.00     0.277 HD
ATOM     25  H61 UNL     1      -1.956   0.001  -4.244  1.00  0.00     0.277 HD
ENDBRANCH  21  22
BRANCH  21  26
HETATM   26  O1  UNL     1      -2.241  -1.804  -2.495  1.00  0.00    -0.367 OA
ATOM     27  H1  UNL     1      -2.397  -2.063  -3.396  1.00  0.00     0.212 HD
ENDBRANCH  21  26
ENDBRANCH   1  21
BRANCH   5  28
HETATM   28  O6  UNL     1      -0.441   1.849  -0.504  1.00  0.00    -0.360 OA
ATOM     29  H6  UNL     1       0.281   2.461  -0.419  1.00  0.00     0.213 HD
ENDBRANCH   5  28
BRANCH   5  30
HETATM   30  O7  UNL     1       0.804   0.838  -2.056  1.00  0.00    -0.360 OA
ATOM     31  H7  UNL     1       1.526   1.450  -1.971  1.00  0.00     0.213 HD
ENDBRANCH   5  30
BRANCH   3  32
HETATM   32  C9  UNL     1       2.095  -1.719  -0.961  1.00  0.00     0.182 C 
BRANCH  32  33
HETATM   33  O2  UNL     1       3.433  -1.348  -0.899  1.00  0.00    -0.400 OA
ATOM     34  H2  UNL     1       3.974  -1.641  -1.623  1.00  0.00     0.209 HD
ENDBRANCH  32  33
ENDBRANCH   3  32
BRANCH   4  35
HETATM   35  O3  UNL     1       0.170   0.319   1.453  1.00  0.00    -0.383 OA
ATOM     36  H3  UNL     1      -0.016   1.248   1.519  1.00  0.00     0.210 HD
ENDBRANCH   4  35
BRANCH   4  37
HETATM   37  C11 UNL     1       2.133   1.084   0.385  1.00  0.00     0.107 C 
BRANCH  37  38
HETATM   38  C12 UNL     1       3.012   0.888   1.563  1.00  0.00     0.285 C 
BRANCH  38  39
HETATM   39  O4  UNL     1       2.359   1.061   2.783  1.00  0.00    -0.369 OA
ATOM     40  H4  UNL     1       2.922   0.935   3.538  1.00  0.00     0.212 HD
ENDBRANCH  38  39
BRANCH  38  41
HETATM   41  O5  UNL     1       3.995   1.905   1.518  1.00  0.00    -0.234 OA
BRANCH  41  42
HETATM   42  N7  UNL     1       5.240   1.400   1.578  1.00  0.00     0.016 NA
BRANCH  42  43
HETATM   43  N8  UNL     1       5.667   1.208   0.252  1.00  0.00    -0.323 N 
ATOM     44  H82 UNL     1       5.124   1.417  -0.586  1.00  0.00     0.174 HD
ATOM     45  H81 UNL     1       6.611   0.825   0.298  1.00  0.00     0.174 HD
ENDBRANCH  42  43
ENDBRANCH  41  42
ENDBRANCH  38  41
ENDBRANCH  37  38
ENDBRANCH   4  37
TORSDOF 15
