REMARK  14 active torsions:
REMARK  status: ('A' for Active; 'I' for Inactive)
REMARK    1  A    between atoms: O1_2  and  C2_3 
REMARK    2  A    between atoms: C4_5  and  C5_6 
REMARK    3  A    between atoms: C10_11  and  C11_12 
REMARK    4  A    between atoms: C14_15  and  C15_16 
REMARK       I    between atoms: C15_16  and  N1_18 
REMARK    5  A    between atoms: N1_18  and  C16_20 
REMARK    6  A    between atoms: C16_20  and  C17_21 
REMARK    7  A    between atoms: C16_20  and  C21_29 
REMARK    8  A    between atoms: C17_21  and  C18_22 
REMARK    9  A    between atoms: C18_22  and  C19_23 
REMARK   10  A    between atoms: C19_23  and  N2_24 
REMARK       I    between atoms: N2_24  and  C20_26 
REMARK   11  A    between atoms: C21_29  and  O4_30 
REMARK   12  A    between atoms: C21_29  and  N4_32 
REMARK   13  A    between atoms: C24_35  and  C25_36 
REMARK       I    between atoms: C25_36  and  N5_38 
REMARK   14  A    between atoms: N5_38  and  C26_40 
ROOT
HETATM    1  C16 UNL     1      -0.922   2.237   0.584  1.00  0.00     0.063 C 
ENDROOT
BRANCH   1   2
HETATM    2  N1  UNL     1      -1.632   0.992   0.334  1.00  0.00    -0.323 N 
HETATM    3  C15 UNL     1      -2.993   0.729   0.409  1.00  0.00     0.259 C 
HETATM    4  O2  UNL     1      -3.815   1.603   0.735  1.00  0.00    -0.267 OA
ATOM      5  H1  UNL     1      -1.047   0.201   0.066  1.00  0.00     0.169 HD
BRANCH   3   6
HETATM    6  C14 UNL     1      -3.550  -0.606   0.078  1.00  0.00     0.076 A 
HETATM    7  C2  UNL     1      -4.570  -0.589  -0.901  1.00  0.00     0.085 A 
HETATM    8  C3  UNL     1      -5.070  -1.787  -1.348  1.00  0.00     0.045 A 
HETATM    9  C4  UNL     1      -4.616  -2.986  -0.884  1.00  0.00    -0.047 A 
HETATM   10  C9  UNL     1      -3.632  -2.961   0.066  1.00  0.00     0.020 A 
HETATM   11  C10 UNL     1      -3.075  -1.743   0.577  1.00  0.00    -0.015 A 
BRANCH   7  12
HETATM   12  O1  UNL     1      -5.011   0.629  -1.360  1.00  0.00    -0.355 OA
HETATM   13  C1  UNL     1      -6.039   0.730  -2.339  1.00  0.00     0.210 C 
ENDBRANCH   7  12
BRANCH   9  14
HETATM   14  C5  UNL     1      -5.197  -4.266  -1.380  1.00  0.00    -0.024 C 
HETATM   15  C6  UNL     1      -5.412  -4.251  -2.868  1.00  0.00     0.019 C 
HETATM   16  C7  UNL     1      -6.502  -4.586  -0.657  1.00  0.00     0.019 C 
HETATM   17  C8  UNL     1      -4.250  -5.417  -1.075  1.00  0.00     0.019 C 
ENDBRANCH   9  14
BRANCH  11  18
HETATM   18  C11 UNL     1      -2.219  -1.984   1.735  1.00  0.00    -0.076 C 
HETATM   19  C12 UNL     1      -1.376  -3.255   1.602  1.00  0.00     0.044 C 
HETATM   20  C13 UNL     1      -1.698  -0.987   2.653  1.00  0.00     0.044 C 
ENDBRANCH  11  18
ENDBRANCH   3   6
ENDBRANCH   1   2
BRANCH   1  21
HETATM   21  C17 UNL     1      -0.803   2.788   1.914  1.00  0.00     0.063 C 
BRANCH  21  22
HETATM   22  C18 UNL     1      -0.157   4.173   1.910  1.00  0.00     0.026 C 
BRANCH  22  23
HETATM   23  C19 UNL     1      -0.993   5.181   1.139  1.00  0.00     0.124 C 
BRANCH  23  24
HETATM   24  N2  UNL     1      -0.366   6.478   1.046  1.00  0.00    -0.345 N 
HETATM   25  C20 UNL     1       0.882   6.733   0.432  1.00  0.00     0.328 C 
HETATM   26  N3  UNL     1       1.439   8.065   0.358  1.00  0.00    -0.040 NA
HETATM   27  O3  UNL     1       1.550   5.793  -0.077  1.00  0.00    -0.251 OA
ATOM     28  H2  UNL     1      -0.861   7.271   1.454  1.00  0.00     0.163 HD
ENDBRANCH  23  24
ENDBRANCH  22  23
ENDBRANCH  21  22
ENDBRANCH   1  21
BRANCH   1  29
HETATM   29  C21 UNL     1       0.270   2.251  -0.285  1.00  0.00     0.161 C 
BRANCH  29  30
HETATM   30  O4  UNL     1      -0.023   2.267  -1.584  1.00  0.00    -0.345 OA
ATOM     31  H4  UNL     1       0.745   2.276  -2.144  1.00  0.00     0.219 HD
ENDBRANCH  29  30
BRANCH  29  32
HETATM   32  N4  UNL     1       1.630   2.228  -0.060  1.00  0.00    -0.360 N 
HETATM   33  C22 UNL     1       2.356   1.929   1.183  1.00  0.00     0.126 C 
HETATM   34  C23 UNL     1       2.988   0.559   0.862  1.00  0.00     0.034 C 
HETATM   35  C24 UNL     1       4.156   0.897  -0.074  1.00  0.00     0.081 C 
HETATM   36  C30 UNL     1       3.639   1.521  -1.348  1.00  0.00     0.034 C 
HETATM   37  C31 UNL     1       2.575   2.527  -1.167  1.00  0.00     0.126 C 
BRANCH  35  38
HETATM   38  C25 UNL     1       4.884  -0.373  -0.356  1.00  0.00     0.222 C 
HETATM   39  O5  UNL     1       4.246  -1.419  -0.507  1.00  0.00    -0.273 OA
HETATM   40  N5  UNL     1       6.293  -0.381  -0.446  1.00  0.00    -0.353 N 
ATOM     41  H5  UNL     1       6.810   0.490  -0.327  1.00  0.00     0.163 HD
BRANCH  40  42
HETATM   42  C26 UNL     1       7.023  -1.629  -0.709  1.00  0.00     0.022 C 
HETATM   43  C27 UNL     1       6.728  -2.655   0.400  1.00  0.00     0.037 C 
HETATM   44  C28 UNL     1       6.618  -2.200  -2.037  1.00  0.00     0.037 C 
HETATM   45  C29 UNL     1       8.494  -1.318  -0.730  1.00  0.00     0.037 C 
ENDBRANCH  40  42
ENDBRANCH  35  38
ENDBRANCH  29  32
ENDBRANCH   1  29
TORSDOF 14
