REMARK  12 active torsions:
REMARK  status: ('A' for Active; 'I' for Inactive)
REMARK    1  A    between atoms: O1_2  and  C2_3 
REMARK    2  A    between atoms: C2_3  and  C3_4 
REMARK    3  A    between atoms: C2_3  and  C32_41 
REMARK    4  A    between atoms: C3_4  and  N1_5 
REMARK       I    between atoms: N1_5  and  C4_7 
REMARK    5  A    between atoms: C4_7  and  C5_9 
REMARK    6  A    between atoms: C5_9  and  C6_10 
REMARK    7  A    between atoms: C6_10  and  C7_11 
REMARK    8  A    between atoms: C7_11  and  N2_12 
REMARK       I    between atoms: N2_12  and  C8_14 
REMARK    9  A    between atoms: C8_14  and  C9_16 
REMARK   10  A    between atoms: C12_19  and  O4_20 
REMARK   11  A    between atoms: C20_29  and  C21_30 
REMARK   12  A    between atoms: C21_30  and  C22_31 
ROOT
HETATM    1  C9  UNL     1       0.744   0.347   0.555  1.00  0.00     0.044 C 
HETATM    2  C10 UNL     1       0.789   1.720  -0.027  1.00  0.00     0.026 C 
HETATM    3  C11 UNL     1       0.431   0.470   2.029  1.00  0.00     0.051 C 
HETATM    4  C12 UNL     1      -1.073   0.403   2.043  1.00  0.00     0.128 C 
HETATM    5  C13 UNL     1      -1.346  -0.626   0.989  1.00  0.00    -0.009 C 
HETATM    6  C14 UNL     1      -1.136  -1.964   1.741  1.00  0.00     0.018 C 
HETATM    7  C15 UNL     1      -2.762  -0.687   0.513  1.00  0.00     0.001 C 
HETATM    8  C16 UNL     1      -3.746  -0.591   1.615  1.00  0.00     0.007 C 
HETATM    9  C17 UNL     1      -5.151  -0.340   1.194  1.00  0.00     0.010 C 
HETATM   10  C18 UNL     1      -5.388  -0.294  -0.262  1.00  0.00    -0.036 C 
HETATM   11  C19 UNL     1      -5.558  -1.586  -0.973  1.00  0.00     0.016 C 
HETATM   12  C20 UNL     1      -6.605   0.568  -0.641  1.00  0.00    -0.006 C 
HETATM   13  C25 UNL     1      -6.346   0.766  -2.091  1.00  0.00     0.006 C 
HETATM   14  C26 UNL     1      -4.834   0.562  -2.317  1.00  0.00     0.006 C 
HETATM   15  C27 UNL     1      -4.341   0.619  -0.920  1.00  0.00    -0.002 C 
HETATM   16  C28 UNL     1      -2.961   0.286  -0.618  1.00  0.00    -0.005 C 
HETATM   17  C29 UNL     1      -2.164  -0.335  -1.774  1.00  0.00     0.006 C 
HETATM   18  C30 UNL     1      -0.715  -0.122  -1.418  1.00  0.00     0.007 C 
HETATM   19  C31 UNL     1      -0.309  -0.549  -0.057  1.00  0.00     0.014 C 
ENDROOT
BRANCH   1  20
HETATM   20  C8  UNL     1       2.111  -0.229   0.465  1.00  0.00     0.226 C 
HETATM   21  N2  UNL     1       3.164   0.424   1.129  1.00  0.00    -0.360 N 
ATOM     22  H2  UNL     1       2.960   1.274   1.654  1.00  0.00     0.162 HD
HETATM   23  O3  UNL     1       2.317  -1.297  -0.207  1.00  0.00    -0.273 OA
BRANCH  21  24
HETATM   24  C7  UNL     1       4.538  -0.067   1.097  1.00  0.00     0.123 C 
BRANCH  24  25
HETATM   25  C6  UNL     1       5.451   0.811   1.883  1.00  0.00     0.029 C 
BRANCH  25  26
HETATM   26  C5  UNL     1       6.867   0.346   1.889  1.00  0.00     0.104 C 
BRANCH  26  27
HETATM   27  C4  UNL     1       7.532   0.300   0.576  1.00  0.00     0.217 C 
HETATM   28  N1  UNL     1       8.870  -0.215   0.480  1.00  0.00    -0.358 N 
ATOM     29  H1  UNL     1       9.344  -0.543   1.321  1.00  0.00     0.162 HD
HETATM   30  O2  UNL     1       6.970   0.696  -0.468  1.00  0.00    -0.274 OA
BRANCH  28  31
HETATM   31  C3  UNL     1       9.545  -0.274  -0.776  1.00  0.00     0.165 C 
BRANCH  31  32
HETATM   32  C2  UNL     1      10.935  -0.835  -0.636  1.00  0.00     0.239 C 
BRANCH  32  33
HETATM   33  O1  UNL     1      11.502  -0.875  -1.921  1.00  0.00    -0.378 OA
HETATM   34  C1  UNL     1      11.805  -2.207  -2.230  1.00  0.00     0.202 C 
ENDBRANCH  32  33
BRANCH  32  35
HETATM   35  C32 UNL     1      11.794   0.005   0.202  1.00  0.00     0.204 C 
HETATM   36  O5  UNL     1      11.596   0.256   1.433  1.00  0.00    -0.646 OA
HETATM   37  O6  UNL     1      12.935   0.593  -0.373  1.00  0.00    -0.646 OA
ENDBRANCH  32  35
ENDBRANCH  31  32
ENDBRANCH  28  31
ENDBRANCH  26  27
ENDBRANCH  25  26
ENDBRANCH  24  25
ENDBRANCH  21  24
ENDBRANCH   1  20
BRANCH   4  38
HETATM   38  O4  UNL     1      -1.578   1.645   1.859  1.00  0.00    -0.395 OA
ATOM     39  H4  UNL     1      -2.527   1.603   1.868  1.00  0.00     0.210 HD
ENDBRANCH   4  38
BRANCH  12  40
HETATM   40  C21 UNL     1      -7.837  -0.120  -0.233  1.00  0.00     0.009 C 
BRANCH  40  41
HETATM   41  C22 UNL     1      -9.134   0.532  -0.499  1.00  0.00    -0.022 C 
HETATM   42  C23 UNL     1      -9.409   0.800  -1.961  1.00  0.00     0.009 C 
HETATM   43  C24 UNL     1      -9.373   1.793   0.300  1.00  0.00     0.009 C 
ENDBRANCH  40  41
ENDBRANCH  12  40
TORSDOF 12
