REMARK  17 active torsions:
REMARK  status: ('A' for Active; 'I' for Inactive)
REMARK    1  A    between atoms: C2_2  and  C4_4 
REMARK    2  A    between atoms: C4_4  and  C5_5 
REMARK    3  A    between atoms: C5_5  and  C6_6 
REMARK    4  A    between atoms: C5_5  and  C24_39 
REMARK    5  A    between atoms: C6_6  and  N1_7 
REMARK       I    between atoms: N1_7  and  C7_9 
REMARK    6  A    between atoms: C7_9  and  C8_11 
REMARK    7  A    between atoms: C8_11  and  C9_12 
REMARK    8  A    between atoms: C8_11  and  C21_36 
REMARK    9  A    between atoms: C9_12  and  C10_13 
REMARK   10  A    between atoms: C10_13  and  O2_14 
REMARK   11  A    between atoms: C10_13  and  C11_16 
REMARK   12  A    between atoms: C11_16  and  C12_17 
REMARK   13  A    between atoms: C11_16  and  C13_20 
REMARK   14  A    between atoms: C12_17  and  O3_18 
REMARK   15  A    between atoms: C13_20  and  N2_21 
REMARK   16  A    between atoms: N2_21  and  C14_22 
REMARK   17  A    between atoms: C15_25  and  C16_26 
ROOT
HETATM    1  C10 UNL     1       1.728  -0.890  -0.116  1.00  0.00     0.131 C 
ENDROOT
BRANCH   1   2
HETATM    2  C9  UNL     1       0.896  -2.089   0.129  1.00  0.00     0.047 C 
BRANCH   2   3
HETATM    3  C8  UNL     1       0.037  -2.473  -1.066  1.00  0.00     0.083 C 
BRANCH   3   4
HETATM    4  C7  UNL     1      -0.873  -1.398  -1.407  1.00  0.00     0.222 C 
HETATM    5  N1  UNL     1      -1.859  -0.803  -0.564  1.00  0.00    -0.360 N 
ATOM      6  H1  UNL     1      -1.974  -1.154   0.387  1.00  0.00     0.162 HD
HETATM    7  O1  UNL     1      -0.827  -0.886  -2.588  1.00  0.00    -0.273 OA
BRANCH   5   8
HETATM    8  C6  UNL     1      -2.693   0.273  -1.012  1.00  0.00     0.127 C 
BRANCH   8   9
HETATM    9  C5  UNL     1      -3.739   0.780  -0.083  1.00  0.00     0.007 C 
BRANCH   9  10
HETATM   10  C4  UNL     1      -4.500   1.954  -0.623  1.00  0.00     0.010 C 
BRANCH  10  11
HETATM   11  C2  UNL     1      -3.946   3.215  -1.002  1.00  0.00    -0.022 C 
HETATM   12  C1  UNL     1      -2.957   3.254  -2.127  1.00  0.00     0.009 C 
HETATM   13  C3  UNL     1      -3.334   4.059   0.110  1.00  0.00     0.009 C 
ENDBRANCH  10  11
ENDBRANCH   9  10
BRANCH   9  14
HETATM   14  C24 UNL     1      -4.846  -0.322   0.004  1.00  0.00    -0.017 C 
HETATM   15  C25 UNL     1      -5.961   0.151   0.919  1.00  0.00     0.010 C 
HETATM   16  C26 UNL     1      -4.394  -1.615   0.564  1.00  0.00     0.010 C 
ENDBRANCH   9  14
ENDBRANCH   8   9
ENDBRANCH   5   8
ENDBRANCH   3   4
BRANCH   3  17
HETATM   17  C21 UNL     1      -0.521  -3.828  -0.833  1.00  0.00    -0.010 C 
HETATM   18  C22 UNL     1      -1.271  -4.361  -2.061  1.00  0.00     0.010 C 
HETATM   19  C23 UNL     1      -1.367  -4.033   0.363  1.00  0.00     0.010 C 
ENDBRANCH   3  17
ENDBRANCH   2   3
ENDBRANCH   1   2
BRANCH   1  20
HETATM   20  O2  UNL     1       0.945   0.243  -0.399  1.00  0.00    -0.395 OA
ATOM     21  H2  UNL     1       1.479   1.013  -0.556  1.00  0.00     0.210 HD
ENDBRANCH   1  20
BRANCH   1  22
HETATM   22  C11 UNL     1       2.803  -1.049  -1.146  1.00  0.00     0.090 C 
BRANCH  22  23
HETATM   23  C12 UNL     1       3.805  -2.096  -0.816  1.00  0.00     0.177 C 
BRANCH  23  24
HETATM   24  O3  UNL     1       3.318  -3.383  -0.694  1.00  0.00    -0.400 OA
ATOM     25  H3  UNL     1       3.958  -4.052  -0.483  1.00  0.00     0.209 HD
ENDBRANCH  23  24
ENDBRANCH  22  23
BRANCH  22  26
HETATM   26  C13 UNL     1       3.543   0.302  -1.313  1.00  0.00     0.167 C 
BRANCH  26  27
HETATM   27  N2  UNL     1       4.127   0.797  -0.234  1.00  0.00    -0.401 NA
BRANCH  27  28
HETATM   28  C14 UNL     1       4.673   1.216   0.743  1.00  0.00     0.207 A 
HETATM   29  N3  UNL     1       5.635   0.545   1.456  1.00  0.00    -0.327 N 
HETATM   30  C15 UNL     1       6.230   1.008   2.538  1.00  0.00     0.074 A 
ATOM     31  H3  UNL     1       5.910  -0.380   1.125  1.00  0.00     0.168 HD
HETATM   32  C17 UNL     1       5.901   2.253   3.037  1.00  0.00     0.064 A 
HETATM   33  C18 UNL     1       4.948   2.968   2.368  1.00  0.00     0.067 A 
HETATM   34  N4  UNL     1       4.431   4.185   2.614  1.00  0.00    -0.350 N 
HETATM   35  C20 UNL     1       4.341   2.487   1.257  1.00  0.00     0.119 A 
HETATM   36  C19 UNL     1       3.524   4.441   1.667  1.00  0.00     0.181 A 
ATOM     37  H4  UNL     1       4.686   4.802   3.385  1.00  0.00     0.166 HD
HETATM   38  N5  UNL     1       3.460   3.390   0.817  1.00  0.00    -0.347 N 
ATOM     39  H5  UNL     1       2.856   3.304  -0.001  1.00  0.00     0.167 HD
BRANCH  30  40
HETATM   40  C16 UNL     1       7.249   0.262   3.267  1.00  0.00     0.288 C 
HETATM   41  O4  UNL     1       7.814   0.701   4.294  1.00  0.00    -0.300 OA
ENDBRANCH  30  40
ENDBRANCH  27  28
ENDBRANCH  26  27
ENDBRANCH  22  26
ENDBRANCH   1  22
TORSDOF 17
