REMARK  16 active torsions:
REMARK  status: ('A' for Active; 'I' for Inactive)
REMARK    1  A    between atoms: C2_2  and  C3_3 
REMARK    2  A    between atoms: C3_3  and  C4_4 
REMARK    3  A    between atoms: C4_4  and  N1_5 
REMARK       I    between atoms: C5_7  and  N3_9 
REMARK    4  A    between atoms: C8_12  and  C9_13 
REMARK    5  A    between atoms: C9_13  and  C10_14 
REMARK    6  A    between atoms: C10_14  and  C11_15 
REMARK    7  A    between atoms: C13_17  and  C14_18 
REMARK    8  A    between atoms: C14_18  and  C15_19 
REMARK       I    between atoms: C15_19  and  N4_21 
REMARK    9  A    between atoms: N4_21  and  C16_23 
REMARK   10  A    between atoms: C16_23  and  C17_24 
REMARK   11  A    between atoms: C16_23  and  C24_31 
REMARK   12  A    between atoms: C17_24  and  C18_25 
REMARK   13  A    between atoms: C24_31  and  N5_32 
REMARK   14  A    between atoms: C24_31  and  C25_36 
REMARK   15  A    between atoms: C25_36  and  O2_37 
REMARK   16  A    between atoms: C25_36  and  O3_39 
ROOT
HETATM    1  C15 UNL     1       1.355   0.875  -0.052  1.00  0.00     0.218 C 
HETATM    2  O1  UNL     1       1.134   0.111  -1.020  1.00  0.00    -0.274 OA
HETATM    3  N4  UNL     1       2.622   0.887   0.521  1.00  0.00    -0.354 N 
ATOM      4  H4  UNL     1       2.794   1.512   1.308  1.00  0.00     0.162 HD
ENDROOT
BRANCH   1   5
HETATM    5  C14 UNL     1       0.308   1.736   0.468  1.00  0.00     0.109 C 
BRANCH   5   6
HETATM    6  C13 UNL     1      -1.072   1.503  -0.192  1.00  0.00     0.016 C 
HETATM    7  C8  UNL     1      -2.026   2.461   0.420  1.00  0.00    -0.007 C 
HETATM    8  C7  UNL     1      -3.054   1.976   1.347  1.00  0.00     0.025 C 
HETATM    9  C6  UNL     1      -2.872   0.498   1.716  1.00  0.00     0.126 C 
HETATM   10  N3  UNL     1      -2.621  -0.227   0.459  1.00  0.00    -0.355 N 
HETATM   11  C5  UNL     1      -3.579  -1.094  -0.093  1.00  0.00     0.186 C 
HETATM   12  C26 UNL     1      -1.322   0.055  -0.112  1.00  0.00     0.131 C 
HETATM   13  N1  UNL     1      -4.732  -1.168   0.464  1.00  0.00    -0.365 N 
HETATM   14  N2  UNL     1      -3.218  -1.842  -1.240  1.00  0.00    -0.064 NA
ATOM     15  H1  UNL     1      -4.903  -0.591   1.288  1.00  0.00     0.162 HD
BRANCH   7  16
HETATM   16  C9  UNL     1      -2.614   3.283  -0.690  1.00  0.00     0.005 C 
BRANCH  16  17
HETATM   17  C10 UNL     1      -3.301   4.537  -0.398  1.00  0.00     0.000 C 
BRANCH  17  18
HETATM   18  C11 UNL     1      -4.510   4.548   0.461  1.00  0.00    -0.005 C 
HETATM   19  C12 UNL     1      -5.054   5.992   0.567  1.00  0.00     0.005 C 
ENDBRANCH  17  18
ENDBRANCH  16  17
ENDBRANCH   7  16
BRANCH  13  20
HETATM   20  C4  UNL     1      -5.800  -2.015  -0.002  1.00  0.00     0.122 C 
BRANCH  20  21
HETATM   21  C3  UNL     1      -6.455  -1.479  -1.258  1.00  0.00     0.019 C 
BRANCH  21  22
HETATM   22  C2  UNL     1      -7.554  -2.456  -1.639  1.00  0.00    -0.003 C 
HETATM   23  C1  UNL     1      -6.890  -3.807  -1.878  1.00  0.00     0.005 C 
ENDBRANCH  21  22
ENDBRANCH  20  21
ENDBRANCH  13  20
ENDBRANCH   5   6
ENDBRANCH   1   5
BRANCH   3  24
HETATM   24  C16 UNL     1       3.750   0.020   0.032  1.00  0.00     0.120 C 
BRANCH  24  25
HETATM   25  C17 UNL     1       4.145  -0.812   1.193  1.00  0.00     0.032 C 
BRANCH  25  26
HETATM   26  C18 UNL     1       5.215  -1.806   1.074  1.00  0.00    -0.013 C 
HETATM   27  C19 UNL     1       4.972  -2.889   0.052  1.00  0.00     0.005 C 
HETATM   28  C20 UNL     1       6.310  -3.575  -0.186  1.00  0.00     0.000 C 
HETATM   29  C21 UNL     1       6.765  -4.110   1.147  1.00  0.00     0.000 C 
HETATM   30  C22 UNL     1       5.727  -3.970   2.232  1.00  0.00     0.000 C 
HETATM   31  C23 UNL     1       5.229  -2.579   2.426  1.00  0.00     0.005 C 
ENDBRANCH  25  26
ENDBRANCH  24  25
BRANCH  24  32
HETATM   32  C24 UNL     1       4.754   1.025  -0.445  1.00  0.00     0.260 C 
BRANCH  32  33
HETATM   33  N5  UNL     1       5.246   1.914   0.586  1.00  0.00    -0.068 N 
ATOM     34  H53 UNL     1       4.469   2.381   1.053  1.00  0.00     0.275 HD
ATOM     35  H52 UNL     1       5.623   1.378   1.368  1.00  0.00     0.275 HD
ATOM     36  H51 UNL     1       5.929   2.598   0.261  1.00  0.00     0.275 HD
ENDBRANCH  32  33
BRANCH  32  37
HETATM   37  C25 UNL     1       5.860   0.516  -1.315  1.00  0.00     0.286 C 
BRANCH  37  38
HETATM   38  O2  UNL     1       6.509   1.623  -1.947  1.00  0.00    -0.369 OA
ATOM     39  H2  UNL     1       7.211   1.300  -2.499  1.00  0.00     0.212 HD
ENDBRANCH  37  38
BRANCH  37  40
HETATM   40  O3  UNL     1       5.348  -0.225  -2.397  1.00  0.00    -0.369 OA
ATOM     41  H3  UNL     1       6.050  -0.548  -2.949  1.00  0.00     0.212 HD
ENDBRANCH  37  40
ENDBRANCH  32  37
ENDBRANCH  24  32
ENDBRANCH   3  24
TORSDOF 16
