REMARK  10 active torsions:
REMARK  status: ('A' for Active; 'I' for Inactive)
REMARK    1  A    between atoms: C2_2  and  C3_3 
REMARK    2  A    between atoms: C3_3  and  C4_4 
REMARK    3  A    between atoms: C16_17  and  O2_18 
REMARK    4  A    between atoms: O2_18  and  C17_19 
REMARK    5  A    between atoms: C19_21  and  C20_22 
REMARK    6  A    between atoms: C19_21  and  C22_24 
REMARK    7  A    between atoms: C22_24  and  O3_25 
REMARK    8  A    between atoms: C23_27  and  O4_28 
REMARK    9  A    between atoms: C24_30  and  N1_31 
REMARK       I    between atoms: N1_31  and  C25_33 
REMARK   10  A    between atoms: C27_36  and  O6_37 
ROOT
HETATM    1  C4  UNL     1       4.877  -0.133  -0.573  1.00  0.00    -0.022 C 
HETATM    2  C5  UNL     1       5.132  -1.392  -1.380  1.00  0.00     0.093 C 
HETATM    3  C6  UNL     1       6.132  -2.268  -0.730  1.00  0.00     0.149 C 
HETATM    4  O1  UNL     1       7.072  -2.837  -1.333  1.00  0.00    -0.293 OA
HETATM    5  C7  UNL     1       5.999  -2.471   0.708  1.00  0.00     0.046 C 
HETATM    6  C8  UNL     1       5.316  -1.589   1.402  1.00  0.00    -0.017 C 
HETATM    7  C9  UNL     1       4.656  -0.393   0.878  1.00  0.00     0.022 C 
HETATM    8  C10 UNL     1       3.176  -0.463   1.114  1.00  0.00     0.004 C 
HETATM    9  C11 UNL     1       2.578  -1.814   0.960  1.00  0.00     0.011 C 
HETATM   10  C12 UNL     1       1.411  -1.676   0.012  1.00  0.00    -0.007 C 
HETATM   11  C13 UNL     1       0.190  -2.339   0.546  1.00  0.00     0.011 C 
HETATM   12  C14 UNL     1       1.280  -0.259  -0.406  1.00  0.00    -0.006 C 
HETATM   13  C15 UNL     1       1.126  -0.143  -1.934  1.00  0.00     0.019 C 
HETATM   14  C16 UNL     1       0.159   0.516   0.213  1.00  0.00     0.131 C 
HETATM   15  C28 UNL     1       0.760   1.937   0.275  1.00  0.00     0.034 C 
HETATM   16  C29 UNL     1       2.181   1.691   0.644  1.00  0.00     0.013 C 
HETATM   17  C30 UNL     1       2.578   0.390   0.020  1.00  0.00    -0.025 C 
HETATM   18  C31 UNL     1       3.599   0.518  -1.053  1.00  0.00     0.021 C 
ENDROOT
BRANCH  14  19
HETATM   19  O2  UNL     1      -0.898   0.642  -0.683  1.00  0.00    -0.377 OA
BRANCH  19  20
HETATM   20  C17 UNL     1      -2.149   0.421  -0.118  1.00  0.00     0.153 C 
HETATM   21  C18 UNL     1      -2.875   1.760  -0.258  1.00  0.00     0.049 C 
HETATM   22  C19 UNL     1      -4.247   1.695   0.377  1.00  0.00     0.011 C 
HETATM   23  C23 UNL     1      -4.903   0.379   0.293  1.00  0.00     0.154 C 
HETATM   24  C24 UNL     1      -4.360  -0.627  -0.654  1.00  0.00     0.145 C 
HETATM   25  C27 UNL     1      -2.909  -0.512  -0.999  1.00  0.00     0.172 C 
BRANCH  22  26
HETATM   26  C20 UNL     1      -5.025   2.860  -0.172  1.00  0.00     0.010 C 
HETATM   27  C21 UNL     1      -6.413   3.009   0.316  1.00  0.00     0.006 C 
ENDBRANCH  22  26
BRANCH  22  28
HETATM   28  C22 UNL     1      -4.011   2.011   1.863  1.00  0.00     0.176 C 
BRANCH  28  29
HETATM   29  O3  UNL     1      -5.168   1.994   2.597  1.00  0.00    -0.400 OA
ATOM     30  H3  UNL     1      -5.022   2.189   3.515  1.00  0.00     0.209 HD
ENDBRANCH  28  29
ENDBRANCH  22  28
BRANCH  23  31
HETATM   31  O4  UNL     1      -5.038  -0.225   1.567  1.00  0.00    -0.393 OA
ATOM     32  H4  UNL     1      -5.461  -1.074   1.513  1.00  0.00     0.210 HD
ENDBRANCH  23  31
BRANCH  24  33
HETATM   33  N1  UNL     1      -4.559  -1.964  -0.097  1.00  0.00    -0.352 N 
HETATM   34  C25 UNL     1      -5.335  -2.949  -0.725  1.00  0.00     0.214 C 
HETATM   35  C26 UNL     1      -5.486  -4.274  -0.098  1.00  0.00     0.117 C 
HETATM   36  O5  UNL     1      -5.890  -2.679  -1.820  1.00  0.00    -0.274 OA
ATOM     37  H1  UNL     1      -4.112  -2.191   0.791  1.00  0.00     0.163 HD
ENDBRANCH  24  33
BRANCH  25  38
HETATM   38  O6  UNL     1      -2.789   0.004  -2.312  1.00  0.00    -0.391 OA
ATOM     39  H6  UNL     1      -3.273  -0.590  -2.873  1.00  0.00     0.210 HD
ENDBRANCH  25  38
ENDBRANCH  19  20
ENDBRANCH  14  19
BRANCH   1  40
HETATM   40  C3  UNL     1       6.085   0.747  -0.805  1.00  0.00     0.036 C 
BRANCH  40  41
HETATM   41  C2  UNL     1       6.044   2.022  -0.112  1.00  0.00    -0.036 C 
HETATM   42  C1  UNL     1       6.981   2.330   0.763  1.00  0.00     0.007 C 
ENDBRANCH  40  41
ENDBRANCH   1  40
TORSDOF 10
