REMARK  11 active torsions:
REMARK  status: ('A' for Active; 'I' for Inactive)
REMARK    1  A    between atoms: C2_2  and  C3_3 
REMARK    2  A    between atoms: C2_2  and  C10_14 
REMARK    3  A    between atoms: C3_3  and  C4_4 
REMARK    4  A    between atoms: C4_4  and  C5_5 
REMARK       I    between atoms: C5_5  and  N1_7 
REMARK    5  A    between atoms: N1_7  and  C6_9 
REMARK    6  A    between atoms: C6_9  and  C7_10 
REMARK    7  A    between atoms: C7_10  and  N2_11 
REMARK    8  A    between atoms: C17_21  and  O2_22 
REMARK    9  A    between atoms: C20_27  and  O4_28 
REMARK   10  A    between atoms: O4_28  and  C21_29 
REMARK   11  A    between atoms: C26_34  and  O5_35 
ROOT
HETATM    1  C10 UNL     1       2.047   0.602  -1.778  1.00  0.00    -0.002 C 
HETATM    2  C11 UNL     1       0.888   0.411  -2.743  1.00  0.00     0.006 C 
HETATM    3  C12 UNL     1      -0.010   1.547  -2.232  1.00  0.00     0.006 C 
HETATM    4  C13 UNL     1       0.385   1.754  -0.771  1.00  0.00    -0.002 C 
HETATM    5  C14 UNL     1      -0.847   1.800   0.019  1.00  0.00    -0.005 C 
HETATM    6  C15 UNL     1      -0.814   2.562   1.304  1.00  0.00     0.008 C 
HETATM    7  C16 UNL     1      -2.193   2.673   1.839  1.00  0.00     0.039 C 
HETATM    8  C17 UNL     1      -3.047   1.470   1.826  1.00  0.00     0.072 C 
HETATM    9  C18 UNL     1      -3.066   0.802   3.183  1.00  0.00     0.119 C 
HETATM   10  C19 UNL     1      -4.136  -0.244   3.210  1.00  0.00     0.158 C 
HETATM   11  O3  UNL     1      -4.689  -0.457   4.270  1.00  0.00    -0.295 OA
HETATM   12  C20 UNL     1      -4.455  -0.954   1.948  1.00  0.00     0.192 C 
HETATM   13  C27 UNL     1      -3.405  -0.835   0.898  1.00  0.00     0.052 C 
HETATM   14  C28 UNL     1      -2.808   0.519   0.700  1.00  0.00    -0.006 C 
HETATM   15  C29 UNL     1      -3.588   1.128  -0.491  1.00  0.00     0.019 C 
HETATM   16  C30 UNL     1      -1.415   0.410   0.217  1.00  0.00     0.001 C 
HETATM   17  C31 UNL     1      -0.426  -0.337   0.995  1.00  0.00     0.007 C 
HETATM   18  C32 UNL     1       0.765  -0.594   0.045  1.00  0.00     0.010 C 
HETATM   19  C33 UNL     1       1.382   0.650  -0.475  1.00  0.00    -0.036 C 
HETATM   20  C34 UNL     1       2.327   1.202   0.581  1.00  0.00     0.016 C 
ENDROOT
BRANCH   1  21
HETATM   21  C2  UNL     1       3.233  -0.208  -2.045  1.00  0.00    -0.013 C 
HETATM   22  C1  UNL     1       3.072  -1.707  -2.035  1.00  0.00     0.010 C 
BRANCH  21  23
HETATM   23  C3  UNL     1       3.897   0.116  -3.364  1.00  0.00     0.014 C 
BRANCH  23  24
HETATM   24  C4  UNL     1       5.238  -0.512  -3.558  1.00  0.00     0.103 C 
BRANCH  24  25
HETATM   25  C5  UNL     1       6.212  -0.018  -2.558  1.00  0.00     0.217 C 
HETATM   26  O1  UNL     1       6.021   0.928  -1.771  1.00  0.00    -0.274 OA
HETATM   27  N1  UNL     1       7.464  -0.702  -2.512  1.00  0.00    -0.359 N 
ATOM     28  H1  UNL     1       7.621  -1.471  -3.163  1.00  0.00     0.162 HD
BRANCH  27  29
HETATM   29  C6  UNL     1       8.514  -0.358  -1.592  1.00  0.00     0.152 C 
BRANCH  29  30
HETATM   30  C7  UNL     1       8.061  -0.550  -0.183  1.00  0.00     0.290 C 
BRANCH  30  31
HETATM   31  N2  UNL     1       9.108  -0.222   0.779  1.00  0.00     0.081 N 
HETATM   32  C8  UNL     1      10.148  -1.202   0.665  1.00  0.00     0.309 C 
HETATM   33  C9  UNL     1       8.477  -0.213   2.085  1.00  0.00     0.309 C 
ENDBRANCH  30  31
ENDBRANCH  29  30
ENDBRANCH  27  29
ENDBRANCH  24  25
ENDBRANCH  23  24
ENDBRANCH  21  23
ENDBRANCH   1  21
BRANCH   8  34
HETATM   34  O2  UNL     1      -4.377   1.947   1.669  1.00  0.00    -0.389 OA
ATOM     35  H2  UNL     1      -4.927   1.172   1.661  1.00  0.00     0.210 HD
ENDBRANCH   8  34
BRANCH  12  36
HETATM   36  O4  UNL     1      -5.687  -0.649   1.411  1.00  0.00    -0.370 OA
BRANCH  36  37
HETATM   37  C21 UNL     1      -6.569  -1.722   1.416  1.00  0.00     0.151 C 
HETATM   38  C22 UNL     1      -7.760  -1.315   2.259  1.00  0.00     0.034 C 
HETATM   39  C23 UNL     1      -8.419  -0.148   1.524  1.00  0.00     0.003 C 
HETATM   40  C24 UNL     1      -9.153  -0.689   0.314  1.00  0.00     0.003 C 
HETATM   41  C25 UNL     1      -8.598  -2.038  -0.018  1.00  0.00     0.034 C 
HETATM   42  C26 UNL     1      -7.084  -2.073   0.044  1.00  0.00     0.147 C 
BRANCH  42  43
HETATM   43  O5  UNL     1      -6.615  -1.273  -0.968  1.00  0.00    -0.393 OA
ATOM     44  H5  UNL     1      -6.940  -1.494  -1.833  1.00  0.00     0.210 HD
ENDBRANCH  42  43
ENDBRANCH  36  37
ENDBRANCH  12  36
TORSDOF 11
