REMARK  12 active torsions:
REMARK  status: ('A' for Active; 'I' for Inactive)
REMARK    1  A    between atoms: C2_2  and  C4_4 
REMARK       I    between atoms: C4_4  and  N1_6 
REMARK    2  A    between atoms: N1_6  and  C5_8 
REMARK    3  A    between atoms: C17_20  and  C18_21 
REMARK    4  A    between atoms: C17_20  and  S2_36 
REMARK    5  A    between atoms: C19_22  and  C20_23 
REMARK    6  A    between atoms: C20_23  and  C21_24 
REMARK    7  A    between atoms: C21_24  and  O2_25 
REMARK    8  A    between atoms: C21_24  and  N2_27 
REMARK       I    between atoms: N2_27  and  C22_29 
REMARK    9  A    between atoms: C22_29  and  C23_31 
REMARK   10  A    between atoms: C23_31  and  C24_32 
REMARK   11  A    between atoms: C24_32  and  S1_33 
REMARK   12  A    between atoms: S2_36  and  C25_37 
ROOT
HETATM    1  C5  UNL     1      -4.374  -1.030  -1.318  1.00  0.00     0.088 C 
HETATM    2  C6  UNL     1      -4.241  -0.996  -2.851  1.00  0.00     0.026 C 
HETATM    3  C7  UNL     1      -3.300   0.184  -3.143  1.00  0.00     0.007 C 
HETATM    4  C8  UNL     1      -3.027   0.761  -1.809  1.00  0.00    -0.004 C 
HETATM    5  C9  UNL     1      -3.035  -0.499  -0.930  1.00  0.00     0.013 C 
HETATM    6  C10 UNL     1      -2.891  -0.012   0.471  1.00  0.00     0.008 C 
HETATM    7  C11 UNL     1      -1.428   0.464   0.556  1.00  0.00     0.012 C 
HETATM    8  C12 UNL     1      -1.186   1.635  -0.324  1.00  0.00    -0.012 C 
HETATM    9  C13 UNL     1      -1.693   2.853   0.473  1.00  0.00     0.018 C 
HETATM   10  C14 UNL     1      -1.865   1.628  -1.639  1.00  0.00     0.001 C 
HETATM   11  C15 UNL     1      -0.732   1.393  -2.601  1.00  0.00     0.008 C 
HETATM   12  C16 UNL     1       0.322   2.341  -1.994  1.00  0.00     0.035 C 
HETATM   13  C17 UNL     1       0.290   1.885  -0.552  1.00  0.00     0.079 C 
ENDROOT
BRANCH  13  14
HETATM   14  C18 UNL     1       1.067   0.627  -0.403  1.00  0.00    -0.085 C 
HETATM   15  C19 UNL     1       1.719  -0.391  -0.298  1.00  0.00    -0.101 C 
BRANCH  15  16
HETATM   16  C20 UNL     1       2.502  -1.622  -0.199  1.00  0.00     0.147 C 
BRANCH  16  17
HETATM   17  C21 UNL     1       3.888  -1.249   0.298  1.00  0.00     0.231 C 
BRANCH  17  18
HETATM   18  O2  UNL     1       4.413  -0.368  -0.649  1.00  0.00    -0.376 OA
ATOM     19  H2  UNL     1       5.280  -0.135  -0.338  1.00  0.00     0.212 HD
ENDBRANCH  17  18
BRANCH  17  20
HETATM   20  N2  UNL     1       4.641  -2.486   0.338  1.00  0.00    -0.334 N 
HETATM   21  C22 UNL     1       5.177  -3.054   1.512  1.00  0.00     0.220 C 
HETATM   22  O3  UNL     1       4.987  -2.442   2.596  1.00  0.00    -0.274 OA
ATOM     23  H2  UNL     1       4.794  -2.979  -0.542  1.00  0.00     0.165 HD
BRANCH  21  24
HETATM   24  C23 UNL     1       5.939  -4.311   1.539  1.00  0.00     0.118 C 
BRANCH  24  25
HETATM   25  C24 UNL     1       6.386  -4.653   2.941  1.00  0.00     0.166 C 
BRANCH  25  26
HETATM   26  S1  UNL     1       7.221  -6.036   2.944  1.00  0.00     0.251 S 
HETATM   27  O4  UNL     1       6.599  -7.238   3.098  1.00  0.00    -0.212 OA
HETATM   28  O5  UNL     1       8.490  -6.081   2.103  1.00  0.00    -0.212 OA
ENDBRANCH  25  26
ENDBRANCH  24  25
ENDBRANCH  21  24
ENDBRANCH  17  20
ENDBRANCH  16  17
ENDBRANCH  15  16
ENDBRANCH  13  14
BRANCH  13  29
HETATM   29  S2  UNL     1       0.914   3.073   0.625  1.00  0.00    -0.140 SA
BRANCH  29  30
HETATM   30  C25 UNL     1       2.653   3.450   0.508  1.00  0.00     0.049 C 
HETATM   31  C26 UNL     1       3.084   4.349   1.657  1.00  0.00     0.015 C 
HETATM   32  C27 UNL     1       3.480   5.722   1.222  1.00  0.00     0.001 C 
HETATM   33  C28 UNL     1       2.553   6.379   0.252  1.00  0.00     0.000 C 
HETATM   34  C29 UNL     1       2.060   5.419  -0.811  1.00  0.00     0.001 C 
HETATM   35  C30 UNL     1       2.984   4.203  -0.754  1.00  0.00     0.015 C 
ENDBRANCH  29  30
ENDBRANCH  13  29
BRANCH   1  36
HETATM   36  N1  UNL     1      -4.695  -2.317  -0.824  1.00  0.00    -0.356 N 
HETATM   37  C4  UNL     1      -5.894  -2.527  -0.100  1.00  0.00     0.221 C 
HETATM   38  O1  UNL     1      -6.693  -1.559   0.111  1.00  0.00    -0.273 OA
ATOM     39  H1  UNL     1      -4.059  -3.097  -0.990  1.00  0.00     0.162 HD
BRANCH  37  40
HETATM   40  C2  UNL     1      -6.291  -3.846   0.446  1.00  0.00     0.070 C 
HETATM   41  C1  UNL     1      -7.610  -3.799   1.156  1.00  0.00     0.019 C 
HETATM   42  C3  UNL     1      -5.257  -4.294   1.488  1.00  0.00     0.019 C 
ENDBRANCH  37  40
ENDBRANCH   1  36
TORSDOF 12
