REMARK  9 active torsions:
REMARK  status: ('A' for Active; 'I' for Inactive)
REMARK    1  A    between atoms: C1_4  and  N2_5 
REMARK    2  A    between atoms: C1_4  and  C29_45 
REMARK    3  A    between atoms: N2_5  and  C2_7 
REMARK    4  A    between atoms: C2_7  and  C3_8 
REMARK    5  A    between atoms: C3_8  and  C4_9 
REMARK    6  A    between atoms: C4_9  and  C5_10 
REMARK       I    between atoms: N4_17  and  C9_18 
REMARK    7  A    between atoms: C9_18  and  C10_20 
REMARK    8  A    between atoms: C17_27  and  S1_28 
REMARK    9  A    between atoms: S1_28  and  N5_29 
ROOT
HETATM    1  C5  UNL     1       2.938  -0.594  -0.474  1.00  0.00     0.314 C 
HETATM    2  C6  UNL     1       3.415  -0.634   0.936  1.00  0.00     0.251 C 
HETATM    3  O1  UNL     1       4.388  -1.442   1.169  1.00  0.00    -0.271 OA
HETATM    4  N3  UNL     1       2.922   0.108   2.031  1.00  0.00    -0.351 N 
ATOM      5  H3  UNL     1       3.603   0.307   2.764  1.00  0.00     0.163 HD
HETATM    6  C7  UNL     1       1.647   0.607   2.257  1.00  0.00     0.127 C 
HETATM    7  C8  UNL     1       1.281   2.008   1.947  1.00  0.00     0.153 C 
HETATM    8  N4  UNL     1      -0.085   1.462   1.857  1.00  0.00    -0.341 N 
HETATM    9  C9  UNL     1      -1.343   1.935   2.218  1.00  0.00     0.225 C 
HETATM   10  O2  UNL     1      -1.346   3.113   2.758  1.00  0.00    -0.273 OA
HETATM   11  C24 UNL     1       0.558   0.306   1.275  1.00  0.00     0.145 C 
HETATM   12  C25 UNL     1       0.792   0.476  -0.142  1.00  0.00     0.248 C 
HETATM   13  C26 UNL     1       0.253  -0.751  -0.901  1.00  0.00     0.040 C 
HETATM   14  C27 UNL     1       0.901  -0.578  -2.278  1.00  0.00     0.032 C 
HETATM   15  C28 UNL     1       1.751   0.660  -2.108  1.00  0.00     0.274 C 
HETATM   16  N8  UNL     1       2.097   0.555  -0.696  1.00  0.00     0.108 N 
ENDROOT
BRANCH   9  17
HETATM   17  C10 UNL     1      -2.655   1.313   2.081  1.00  0.00     0.086 C 
HETATM   18  C11 UNL     1      -2.650  -0.077   2.676  1.00  0.00     0.049 C 
HETATM   19  C12 UNL     1      -4.020  -0.543   3.120  1.00  0.00    -0.075 C 
HETATM   20  C13 UNL     1      -5.002   0.570   3.100  1.00  0.00     0.004 C 
HETATM   21  C22 UNL     1      -4.450  -1.874   2.660  1.00  0.00     0.016 C 
HETATM   22  C14 UNL     1      -5.351   1.281   1.904  1.00  0.00     0.009 C 
HETATM   23  C15 UNL     1      -4.664   1.150   0.597  1.00  0.00    -0.039 C 
HETATM   24  C16 UNL     1      -3.137   1.210   0.666  1.00  0.00     0.054 C 
HETATM   25  C17 UNL     1      -5.197   0.127  -0.338  1.00  0.00     0.024 C 
HETATM   26  C19 UNL     1      -5.995  -1.011   0.113  1.00  0.00    -0.001 C 
HETATM   27  C20 UNL     1      -5.533  -2.158   0.851  1.00  0.00     0.011 C 
HETATM   28  C21 UNL     1      -5.894  -2.067   2.344  1.00  0.00     0.017 C 
HETATM   29  C23 UNL     1      -4.137  -2.341   1.286  1.00  0.00     0.017 C 
BRANCH  25  30
HETATM   30  S1  UNL     1      -3.931  -0.410  -1.566  1.00  0.00    -0.013 SA
BRANCH  30  31
HETATM   31  N5  UNL     1      -4.613  -1.616  -2.646  1.00  0.00    -0.302 N 
HETATM   32  C18 UNL     1      -5.409  -1.246  -3.577  1.00  0.00     0.207 C 
HETATM   33  N6  UNL     1      -6.005  -2.153  -4.494  1.00  0.00    -0.066 NA
HETATM   34  N7  UNL     1      -5.720   0.129  -3.713  1.00  0.00    -0.066 NA
ATOM     35  H5  UNL     1      -4.377  -2.602  -2.532  1.00  0.00     0.176 HD
ENDBRANCH  30  31
ENDBRANCH  25  30
ENDBRANCH   9  17
BRANCH   1  36
HETATM   36  C4  UNL     1       4.205  -0.443  -1.310  1.00  0.00     0.047 C 
BRANCH  36  37
HETATM   37  C3  UNL     1       4.923   0.828  -0.932  1.00  0.00     0.022 C 
BRANCH  37  38
HETATM   38  C2  UNL     1       6.180   1.048  -1.712  1.00  0.00     0.121 C 
BRANCH  38  39
HETATM   39  N2  UNL     1       7.156   0.029  -1.568  1.00  0.00    -0.380 N 
ATOM     40  H2  UNL     1       6.964  -0.771  -0.965  1.00  0.00     0.160 HD
BRANCH  39  41
HETATM   41  C1  UNL     1       8.391   0.108  -2.250  1.00  0.00     0.074 C 
HETATM   42  N1  UNL     1       8.386   0.084  -3.550  1.00  0.00    -0.389 N 
ATOM     43  H12 UNL     1       7.484   0.010  -4.021  1.00  0.00     0.157 HD
ATOM     44  H11 UNL     1       9.278   0.141  -4.042  1.00  0.00     0.157 HD
BRANCH  41  45
HETATM   45  C29 UNL     1       9.701   0.215  -1.566  1.00  0.00     0.052 A 
HETATM   46  C30 UNL     1       9.983  -0.973  -0.643  1.00  0.00     0.013 A 
HETATM   47  C31 UNL     1       9.803   0.403  -0.108  1.00  0.00     0.013 A 
ENDBRANCH  41  45
ENDBRANCH  39  41
ENDBRANCH  38  39
ENDBRANCH  37  38
ENDBRANCH  36  37
ENDBRANCH   1  36
TORSDOF 9
