REMARK  10 active torsions:
REMARK  status: ('A' for Active; 'I' for Inactive)
REMARK    1  A    between atoms: C8_8  and  C9_9 
REMARK       I    between atoms: C9_9  and  N1_11 
REMARK    2  A    between atoms: N1_11  and  N2_13 
REMARK    3  A    between atoms: N2_13  and  C10_14 
REMARK    4  A    between atoms: N2_13  and  C19_29 
REMARK    5  A    between atoms: C10_14  and  C11_15 
REMARK    6  A    between atoms: C11_15  and  C12_16 
REMARK    7  A    between atoms: C12_16  and  N3_17 
REMARK       I    between atoms: N4_21  and  C16_22 
REMARK    8  A    between atoms: C19_29  and  C20_30 
REMARK       I    between atoms: C20_30  and  N7_32 
REMARK    9  A    between atoms: N7_32  and  C21_34 
REMARK   10  A    between atoms: C28_41  and  O3_42 
ROOT
HETATM    1  N2  UNL     1      -0.110   0.329  -0.468  1.00  0.00    -0.220 NA
ENDROOT
BRANCH   1   2
HETATM    2  N1  UNL     1       0.539   1.523  -0.256  1.00  0.00    -0.285 N 
HETATM    3  C9  UNL     1       0.739   1.987   1.060  1.00  0.00     0.266 C 
HETATM    4  O1  UNL     1       0.315   1.281   2.019  1.00  0.00    -0.266 OA
ATOM      5  H1  UNL     1       0.874   2.071  -1.048  1.00  0.00     0.184 HD
BRANCH   3   6
HETATM    6  C8  UNL     1       1.414   3.257   1.383  1.00  0.00     0.033 A 
HETATM    7  C7  UNL     1       2.190   3.920   0.454  1.00  0.00     0.024 A 
HETATM    8  C6  UNL     1       2.812   5.137   0.799  1.00  0.00    -0.050 A 
HETATM    9  C5  UNL     1       3.685   6.014  -0.019  1.00  0.00     0.040 A 
HETATM   10  C33 UNL     1       2.627   5.630   2.056  1.00  0.00    -0.044 A 
HETATM   11  C4  UNL     1       4.049   7.121   0.920  1.00  0.00     0.018 A 
HETATM   12  C2  UNL     1       3.358   6.899   2.212  1.00  0.00    -0.020 A 
HETATM   13  C1  UNL     1       2.431   8.039   2.591  1.00  0.00     0.020 C 
HETATM   14  C3  UNL     1       4.370   6.672   3.340  1.00  0.00     0.020 C 
HETATM   15  C32 UNL     1       1.843   4.963   3.000  1.00  0.00     0.009 A 
HETATM   16  C31 UNL     1       1.244   3.781   2.653  1.00  0.00     0.017 A 
ENDBRANCH   3   6
ENDBRANCH   1   2
BRANCH   1  17
HETATM   17  C10 UNL     1       0.181  -0.361  -1.669  1.00  0.00     0.116 C 
BRANCH  17  18
HETATM   18  C11 UNL     1       1.688  -0.412  -1.906  1.00  0.00     0.046 C 
BRANCH  18  19
HETATM   19  C12 UNL     1       1.979  -1.145  -3.181  1.00  0.00     0.273 C 
BRANCH  19  20
HETATM   20  N3  UNL     1       1.524  -2.493  -3.242  1.00  0.00     0.090 N 
HETATM   21  C13 UNL     1       1.673  -3.097  -4.527  1.00  0.00     0.274 C 
HETATM   22  C14 UNL     1       2.966  -2.873  -5.229  1.00  0.00     0.050 C 
HETATM   23  C15 UNL     1       3.901  -3.995  -4.843  1.00  0.00     0.127 C 
HETATM   24  N4  UNL     1       3.941  -4.009  -3.368  1.00  0.00    -0.354 N 
HETATM   25  C16 UNL     1       5.153  -3.541  -2.834  1.00  0.00     0.184 C 
HETATM   26  C17 UNL     1       2.860  -4.458  -2.544  1.00  0.00     0.155 C 
HETATM   27  N5  UNL     1       5.457  -3.607  -1.627  1.00  0.00    -0.374 N 
HETATM   28  N6  UNL     1       6.126  -2.949  -3.721  1.00  0.00    -0.064 NA
ATOM     29  H52 UNL     1       4.770  -4.025  -1.000  1.00  0.00     0.158 HD
ATOM     30  H51 UNL     1       6.337  -3.267  -1.239  1.00  0.00     0.158 HD
HETATM   31  C18 UNL     1       1.953  -3.320  -2.160  1.00  0.00     0.292 C 
ENDBRANCH  19  20
ENDBRANCH  18  19
ENDBRANCH  17  18
ENDBRANCH   1  17
BRANCH   1  32
HETATM   32  C19 UNL     1      -1.512   0.441  -0.211  1.00  0.00     0.216 C 
BRANCH  32  33
HETATM   33  C20 UNL     1      -2.096  -0.879   0.135  1.00  0.00     0.232 C 
HETATM   34  O2  UNL     1      -1.452  -1.939   0.182  1.00  0.00    -0.272 OA
HETATM   35  N7  UNL     1      -3.505  -0.928   0.437  1.00  0.00    -0.355 N 
ATOM     36  H7  UNL     1      -4.070  -0.079   0.413  1.00  0.00     0.162 HD
BRANCH  35  37
HETATM   37  C21 UNL     1      -4.096  -2.180   0.769  1.00  0.00     0.092 C 
HETATM   38  C22 UNL     1      -5.377  -2.461   0.057  1.00  0.00     0.012 C 
HETATM   39  C23 UNL     1      -5.860  -3.839   0.455  1.00  0.00     0.011 C 
HETATM   40  C30 UNL     1      -6.452  -1.465   0.459  1.00  0.00     0.044 C 
HETATM   41  C24 UNL     1      -6.007  -3.931   1.958  1.00  0.00    -0.011 C 
HETATM   42  C25 UNL     1      -4.700  -3.635   2.619  1.00  0.00     0.011 C 
HETATM   43  C29 UNL     1      -7.089  -2.955   2.374  1.00  0.00     0.042 C 
HETATM   44  C26 UNL     1      -4.323  -2.194   2.293  1.00  0.00     0.012 C 
HETATM   45  C27 UNL     1      -5.396  -1.221   2.687  1.00  0.00     0.044 C 
HETATM   46  C28 UNL     1      -6.674  -1.564   1.937  1.00  0.00     0.059 C 
BRANCH  46  47
HETATM   47  O3  UNL     1      -7.641  -0.635   2.341  1.00  0.00    -0.390 OA
ATOM     48  H3  UNL     1      -8.439  -0.849   1.873  1.00  0.00     0.210 HD
ENDBRANCH  46  47
ENDBRANCH  35  37
ENDBRANCH  32  33
ENDBRANCH   1  32
TORSDOF 10
