REMARK  10 active torsions:
REMARK  status: ('A' for Active; 'I' for Inactive)
REMARK    1  A    between atoms: O1_2  and  C2_3 
REMARK    2  A    between atoms: C2_3  and  C3_4 
REMARK    3  A    between atoms: C3_4  and  N1_5 
REMARK    4  A    between atoms: C3_4  and  C19_30 
REMARK       I    between atoms: N1_5  and  C4_7 
REMARK    5  A    between atoms: C4_7  and  C5_9 
REMARK    6  A    between atoms: C7_11  and  O3_12 
REMARK    7  A    between atoms: C15_20  and  C16_21 
REMARK    8  A    between atoms: C16_21  and  C17_26 
REMARK    9  A    between atoms: N2_22  and  O4_24 
REMARK   10  A    between atoms: C17_26  and  O6_28 
ROOT
HETATM    1  C5  UNL     1       0.211  -0.634  -0.213  1.00  0.00     0.113 C 
HETATM    2  C6  UNL     1      -0.690  -1.393  -1.118  1.00  0.00     0.021 C 
HETATM    3  C7  UNL     1      -1.759  -1.976  -0.597  1.00  0.00     0.052 C 
HETATM    4  C9  UNL     1      -2.004  -1.855   0.806  1.00  0.00     0.013 C 
HETATM    5  C10 UNL     1      -1.366  -2.773   1.817  1.00  0.00     0.021 C 
HETATM    6  C11 UNL     1      -2.381  -3.758   1.333  1.00  0.00    -0.008 A 
HETATM    7  C12 UNL     1      -3.819  -3.730   1.336  1.00  0.00     0.011 A 
HETATM    8  C13 UNL     1      -3.237  -2.446   1.398  1.00  0.00     0.005 A 
HETATM    9  C14 UNL     1      -1.869  -0.373   1.167  1.00  0.00     0.029 C 
HETATM   10  C15 UNL     1      -0.588   0.237   0.685  1.00  0.00     0.061 C 
ENDROOT
BRANCH   1  11
HETATM   11  C4  UNL     1       1.310   0.020  -0.944  1.00  0.00     0.226 C 
HETATM   12  N1  UNL     1       2.264   0.786  -0.227  1.00  0.00    -0.348 N 
ATOM     13  H1  UNL     1       2.176   0.874   0.785  1.00  0.00     0.163 HD
HETATM   14  O2  UNL     1       1.467  -0.055  -2.188  1.00  0.00    -0.273 OA
BRANCH  12  15
HETATM   15  C3  UNL     1       3.357   1.443  -0.903  1.00  0.00     0.173 C 
BRANCH  15  16
HETATM   16  C2  UNL     1       4.671   0.933  -0.389  1.00  0.00     0.197 C 
BRANCH  16  17
HETATM   17  O1  UNL     1       4.797  -0.444  -0.596  1.00  0.00    -0.394 OA
HETATM   18  C1  UNL     1       6.010  -0.912  -0.122  1.00  0.00     0.201 C 
ENDBRANCH  16  17
ENDBRANCH  15  16
BRANCH  15  19
HETATM   19  C19 UNL     1       3.332   2.944  -0.684  1.00  0.00     0.377 C 
HETATM   20  F1  UNL     1       4.391   3.474  -1.389  1.00  0.00    -0.212 F 
HETATM   21  F2  UNL     1       3.375   3.251   0.655  1.00  0.00    -0.212 F 
ENDBRANCH  15  19
ENDBRANCH  12  15
ENDBRANCH   1  11
BRANCH  10  22
HETATM   22  C16 UNL     1      -0.939   1.561   0.125  1.00  0.00     0.112 C 
HETATM   23  N2  UNL     1      -0.566   1.859  -1.059  1.00  0.00    -0.267 N 
ATOM     24  H2  UNL     1      -0.034   1.158  -1.574  1.00  0.00     0.194 HD
BRANCH  23  25
HETATM   25  O4  UNL     1      -0.822   3.038  -1.688  1.00  0.00    -0.290 OA
ATOM     26  H4  UNL     1      -0.544   3.260  -2.569  1.00  0.00     0.244 HD
ENDBRANCH  23  25
BRANCH  22  27
HETATM   27  C17 UNL     1      -1.705   2.512   0.910  1.00  0.00     0.307 C 
HETATM   28  O5  UNL     1      -2.090   2.242   2.092  1.00  0.00    -0.258 OA
BRANCH  27  29
HETATM   29  O6  UNL     1      -2.067   3.766   0.436  1.00  0.00    -0.322 OA
HETATM   30  C18 UNL     1      -2.814   4.695   1.202  1.00  0.00     0.213 C 
ENDBRANCH  27  29
ENDBRANCH  22  27
ENDBRANCH  10  22
BRANCH   3  31
HETATM   31  O3  UNL     1      -2.580  -2.674  -1.463  1.00  0.00    -0.360 OA
HETATM   32  C8  UNL     1      -2.541  -2.545  -2.864  1.00  0.00     0.209 C 
ENDBRANCH   3  31
TORSDOF 10
