REMARK  10 active torsions:
REMARK  status: ('A' for Active; 'I' for Inactive)
REMARK    1  A    between atoms: O1_2  and  C2_3 
REMARK    2  A    between atoms: C2_3  and  C3_4 
REMARK    3  A    between atoms: C3_4  and  C4_5 
REMARK    4  A    between atoms: C4_5  and  N1_6 
REMARK    5  A    between atoms: N1_6  and  C5_7 
REMARK    6  A    between atoms: N1_6  and  C8_10 
REMARK    7  A    between atoms: C12_17  and  C13_18 
REMARK    8  A    between atoms: C12_17  and  C19_28 
REMARK    9  A    between atoms: C13_18  and  C14_19 
REMARK   10  A    between atoms: C15_21  and  O4_23 
ROOT
HETATM    1  C3  UNL     1      -0.682  -0.426  -0.167  1.00  0.00     0.162 C 
HETATM    2  C11 UNL     1      -0.246  -0.549   1.271  1.00  0.00     0.240 C 
HETATM    3  O2  UNL     1      -0.967  -0.481   2.313  1.00  0.00    -0.272 OA
HETATM    4  N2  UNL     1       1.128  -0.754   1.265  1.00  0.00    -0.337 N 
ATOM      5  H2  UNL     1       1.644  -1.369   1.894  1.00  0.00     0.163 HD
HETATM    6  C12 UNL     1       1.700   0.057   0.212  1.00  0.00     0.201 C 
HETATM    7  C20 UNL     1       0.577   0.069  -0.823  1.00  0.00     0.300 C 
HETATM    8  F4  UNL     1       0.854  -0.798  -1.886  1.00  0.00    -0.201 F 
HETATM    9  F5  UNL     1       0.440   1.319  -1.368  1.00  0.00    -0.201 F 
ENDROOT
BRANCH   6  10
HETATM   10  C13 UNL     1       2.850  -0.568  -0.462  1.00  0.00     0.087 C 
BRANCH  10  11
HETATM   11  C14 UNL     1       4.089  -0.908   0.262  1.00  0.00     0.197 C 
HETATM   12  O3  UNL     1       4.810   0.116   0.818  1.00  0.00    -0.342 OA
HETATM   13  C15 UNL     1       5.917   0.348   0.032  1.00  0.00     0.165 C 
HETATM   14  C16 UNL     1       5.803   1.507  -0.894  1.00  0.00     0.079 C 
HETATM   15  C17 UNL     1       6.251  -0.938  -0.668  1.00  0.00     0.149 C 
HETATM   16  C18 UNL     1       4.994  -1.707  -0.577  1.00  0.00     0.161 C 
HETATM   17  O5  UNL     1       4.708  -2.769  -1.062  1.00  0.00    -0.295 OA
BRANCH  13  18
HETATM   18  O4  UNL     1       6.974   0.634   0.917  1.00  0.00    -0.365 OA
ATOM     19  H4  UNL     1       7.738   0.794   0.375  1.00  0.00     0.213 HD
ENDBRANCH  13  18
ENDBRANCH  10  11
ENDBRANCH   6  10
BRANCH   6  20
HETATM   20  C19 UNL     1       1.897   1.415   0.799  1.00  0.00     0.418 C 
HETATM   21  F1  UNL     1       2.735   1.417   1.913  1.00  0.00    -0.168 F 
HETATM   22  F2  UNL     1       0.665   1.803   1.379  1.00  0.00    -0.168 F 
HETATM   23  F3  UNL     1       2.181   2.392  -0.103  1.00  0.00    -0.168 F 
ENDBRANCH   6  20
BRANCH   1  24
HETATM   24  C2  UNL     1      -1.021  -1.861  -0.551  1.00  0.00     0.198 C 
BRANCH  24  25
HETATM   25  O1  UNL     1      -1.431  -1.953  -1.850  1.00  0.00    -0.394 OA
HETATM   26  C1  UNL     1      -1.701  -3.270  -2.172  1.00  0.00     0.201 C 
ENDBRANCH  24  25
ENDBRANCH   1  24
BRANCH   1  27
HETATM   27  C4  UNL     1      -1.822   0.477  -0.346  1.00  0.00     0.086 C 
BRANCH  27  28
HETATM   28  N1  UNL     1      -3.022   0.489   0.311  1.00  0.00    -0.384 N 
BRANCH  28  29
HETATM   29  C5  UNL     1      -4.030  -0.420   0.237  1.00  0.00     0.075 C 
HETATM   30  C6  UNL     1      -4.609  -0.887   1.579  1.00  0.00     0.032 C 
HETATM   31  C7  UNL     1      -5.250  -0.040  -0.599  1.00  0.00     0.032 C 
ENDBRANCH  28  29
BRANCH  28  32
HETATM   32  C8  UNL     1      -3.323   1.857   0.688  1.00  0.00     0.075 C 
HETATM   33  C9  UNL     1      -4.165   2.067   1.883  1.00  0.00     0.032 C 
HETATM   34  C10 UNL     1      -3.744   2.705  -0.469  1.00  0.00     0.032 C 
ENDBRANCH  28  32
ENDBRANCH  27  28
ENDBRANCH   1  27
TORSDOF 10
