REMARK  12 active torsions:
REMARK  status: ('A' for Active; 'I' for Inactive)
REMARK    1  A    between atoms: O1_2  and  C2_3 
REMARK    2  A    between atoms: N1_7  and  S1_8 
REMARK    3  A    between atoms: S1_8  and  C5_11 
REMARK    4  A    between atoms: C5_11  and  C6_12 
REMARK    5  A    between atoms: C5_11  and  C9_15 
REMARK    6  A    between atoms: C9_15  and  C11_17 
REMARK    7  A    between atoms: C11_17  and  O4_18 
REMARK    8  A    between atoms: O4_18  and  C12_19 
REMARK    9  A    between atoms: C16_23  and  C17_24 
REMARK   10  A    between atoms: C17_24  and  O5_25 
REMARK   11  A    between atoms: C17_24  and  O6_27 
REMARK   12  A    between atoms: C17_24  and  C18_29 
ROOT
HETATM    1  C2  UNL     1      -2.983   1.809  -0.838  1.00  0.00     0.185 C 
HETATM    2  C3  UNL     1      -1.463   2.146  -0.739  1.00  0.00     0.219 C 
HETATM    3  F1  UNL     1      -1.232   3.470  -0.678  1.00  0.00    -0.245 F 
HETATM    4  C4  UNL     1      -1.230   1.431   0.624  1.00  0.00     0.175 C 
HETATM    5  N1  UNL     1      -1.778   0.175   0.381  1.00  0.00    -0.295 N 
HETATM    6  C16 UNL     1      -2.993   0.372  -0.410  1.00  0.00     0.199 C 
ENDROOT
BRANCH   5   7
HETATM    7  S1  UNL     1      -0.862  -1.144  -0.090  1.00  0.00     0.234 S 
HETATM    8  O2  UNL     1      -1.799  -2.302  -0.469  1.00  0.00    -0.205 OA
HETATM    9  O3  UNL     1      -0.222  -0.785  -1.426  1.00  0.00    -0.205 OA
BRANCH   7  10
HETATM   10  C5  UNL     1       0.374  -1.753   1.035  1.00  0.00     0.138 C 
BRANCH  10  11
HETATM   11  C6  UNL     1       0.649  -3.183   0.645  1.00  0.00    -0.002 C 
HETATM   12  C7  UNL     1       1.625  -3.940   1.489  1.00  0.00     0.011 C 
HETATM   13  C8  UNL     1       1.027  -3.428  -0.784  1.00  0.00     0.011 C 
ENDBRANCH  10  11
BRANCH  10  14
HETATM   14  C9  UNL     1       1.470  -0.839   1.278  1.00  0.00     0.026 C 
HETATM   15  C10 UNL     1       2.537  -1.318   2.278  1.00  0.00     0.013 C 
BRANCH  14  16
HETATM   16  C11 UNL     1       2.162  -0.197   0.098  1.00  0.00     0.174 C 
BRANCH  16  17
HETATM   17  O4  UNL     1       3.172   0.622   0.680  1.00  0.00    -0.381 OA
BRANCH  17  18
HETATM   18  C12 UNL     1       3.888   1.275  -0.320  1.00  0.00     0.050 C 
HETATM   19  C13 UNL     1       3.000   2.163  -1.169  1.00  0.00     0.045 C 
HETATM   20  C14 UNL     1       4.655   0.350  -1.208  1.00  0.00     0.045 C 
HETATM   21  C15 UNL     1       4.879   2.183   0.376  1.00  0.00     0.045 C 
ENDBRANCH  17  18
ENDBRANCH  16  17
ENDBRANCH  14  16
ENDBRANCH  10  14
ENDBRANCH   7  10
ENDBRANCH   5   7
BRANCH   6  22
HETATM   22  C17 UNL     1      -4.169   0.050   0.482  1.00  0.00     0.285 C 
BRANCH  22  23
HETATM   23  O5  UNL     1      -4.348   0.888   1.546  1.00  0.00    -0.357 OA
ATOM     24  H5  UNL     1      -5.088   0.686   2.107  1.00  0.00     0.213 HD
ENDBRANCH  22  23
BRANCH  22  25
HETATM   25  O6  UNL     1      -3.733  -1.176   1.144  1.00  0.00    -0.357 OA
ATOM     26  H6  UNL     1      -4.473  -1.378   1.705  1.00  0.00     0.213 HD
ENDBRANCH  22  25
BRANCH  22  27
HETATM   27  C18 UNL     1      -5.417  -0.356  -0.187  1.00  0.00     0.446 C 
HETATM   28  F2  UNL     1      -6.007   0.490  -1.053  1.00  0.00    -0.166 F 
HETATM   29  F3  UNL     1      -5.270  -1.576  -0.880  1.00  0.00    -0.166 F 
HETATM   30  F4  UNL     1      -6.385  -0.665   0.788  1.00  0.00    -0.166 F 
ENDBRANCH  22  27
ENDBRANCH   6  22
BRANCH   1  31
HETATM   31  O1  UNL     1      -3.633   2.609   0.103  1.00  0.00    -0.385 OA
HETATM   32  C1  UNL     1      -4.382   3.624  -0.433  1.00  0.00     0.202 C 
ENDBRANCH   1  31
TORSDOF 12
