REMARK  7 active torsions:
REMARK  status: ('A' for Active; 'I' for Inactive)
REMARK    1  A    between atoms: C6_7  and  C7_8 
REMARK    2  A    between atoms: C7_8  and  C8_10 
REMARK    3  A    between atoms: C8_10  and  O2_11 
REMARK    4  A    between atoms: O2_11  and  C9_12 
REMARK    5  A    between atoms: C9_12  and  C10_13 
REMARK    6  A    between atoms: C10_13  and  C11_14 
REMARK    7  A    between atoms: C23_26  and  O3_27 
ROOT
HETATM    1  C1  UNL     1       1.903  -3.340  -0.699  1.00  0.00     0.314 C 
HETATM    2  N1  UNL     1       0.703  -2.885  -0.003  1.00  0.00     0.119 N 
HETATM    3  C2  UNL     1      -0.375  -3.833  -0.323  1.00  0.00     0.280 C 
HETATM    4  C3  UNL     1      -0.659  -2.913  -1.515  1.00  0.00     0.102 C 
HETATM    5  C4  UNL     1      -0.022  -1.829  -0.689  1.00  0.00     0.263 C 
HETATM    6  C5  UNL     1       0.914  -0.917  -1.375  1.00  0.00     0.084 C 
HETATM    7  C6  UNL     1       0.694   0.560  -1.221  1.00  0.00     0.069 C 
HETATM    8  C17 UNL     1      -0.689   0.979  -0.978  1.00  0.00     0.026 C 
HETATM    9  C18 UNL     1      -0.888   2.137  -0.042  1.00  0.00     0.008 C 
HETATM   10  C19 UNL     1      -2.358   2.560  -0.297  1.00  0.00     0.006 C 
HETATM   11  C20 UNL     1      -3.147   1.458   0.426  1.00  0.00    -0.004 C 
HETATM   12  C21 UNL     1      -4.543   1.876   0.634  1.00  0.00    -0.004 C 
HETATM   13  C22 UNL     1      -5.099   1.459   1.991  1.00  0.00     0.037 C 
HETATM   14  C23 UNL     1      -6.560   1.140   1.721  1.00  0.00     0.118 C 
HETATM   15  C24 UNL     1      -6.480   0.531   0.342  1.00  0.00     0.036 C 
HETATM   16  C25 UNL     1      -5.539   1.451  -0.376  1.00  0.00    -0.008 C 
HETATM   17  C26 UNL     1      -4.900   0.796  -1.577  1.00  0.00     0.005 C 
HETATM   18  C27 UNL     1      -3.986  -0.290  -1.167  1.00  0.00     0.008 C 
HETATM   19  C28 UNL     1      -2.931   0.101  -0.157  1.00  0.00     0.019 C 
HETATM   20  C29 UNL     1      -1.580  -0.201  -0.651  1.00  0.00     0.134 C 
HETATM   21  O4  UNL     1      -0.872  -1.132   0.145  1.00  0.00    -0.346 OA
ENDROOT
BRANCH   7  22
HETATM   22  C7  UNL     1       1.716   1.108  -0.313  1.00  0.00     0.155 C 
HETATM   23  O1  UNL     1       1.420   1.553   0.757  1.00  0.00    -0.295 OA
BRANCH  22  24
HETATM   24  C8  UNL     1       3.162   1.128  -0.691  1.00  0.00     0.246 C 
BRANCH  24  25
HETATM   25  O2  UNL     1       4.009   1.618   0.261  1.00  0.00    -0.384 OA
BRANCH  25  26
HETATM   26  C9  UNL     1       4.135   0.950   1.437  1.00  0.00     0.172 C 
BRANCH  26  27
HETATM   27  C10 UNL     1       4.706  -0.452   1.336  1.00  0.00     0.064 C 
BRANCH  27  28
HETATM   28  C11 UNL     1       6.084  -0.485   0.805  1.00  0.00    -0.056 A 
HETATM   29  C12 UNL     1       6.449  -0.621  -0.506  1.00  0.00     0.007 A 
HETATM   30  C13 UNL     1       7.779  -0.637  -0.898  1.00  0.00     0.001 A 
HETATM   31  C14 UNL     1       8.760  -0.510   0.065  1.00  0.00     0.000 A 
HETATM   32  C15 UNL     1       8.434  -0.371   1.399  1.00  0.00     0.001 A 
HETATM   33  C16 UNL     1       7.105  -0.359   1.763  1.00  0.00     0.007 A 
ENDBRANCH  27  28
ENDBRANCH  26  27
ENDBRANCH  25  26
ENDBRANCH  24  25
ENDBRANCH  22  24
ENDBRANCH   7  22
BRANCH  14  34
HETATM   34  O3  UNL     1      -7.291   2.315   1.628  1.00  0.00    -0.396 OA
ATOM     35  H3  UNL     1      -8.204   2.116   1.459  1.00  0.00     0.210 HD
ENDBRANCH  14  34
TORSDOF 7
