REMARK  6 active torsions:
REMARK  status: ('A' for Active; 'I' for Inactive)
REMARK    1  A    between atoms: N1_6  and  S1_7 
REMARK    2  A    between atoms: S1_7  and  C6_10 
REMARK    3  A    between atoms: N2_16  and  C12_17 
REMARK    4  A    between atoms: C12_17  and  C13_18 
REMARK       I    between atoms: C13_18  and  N3_20 
REMARK    5  A    between atoms: N3_20  and  C14_22 
REMARK    6  A    between atoms: C14_22  and  C15_23 
ROOT
HETATM    1  C6  UNL     1       2.732  -1.026   2.065  1.00  0.00     0.076 A 
HETATM    2  C7  UNL     1       2.745  -0.258   3.203  1.00  0.00     0.026 A 
HETATM    3  C8  UNL     1       1.518   0.113   3.785  1.00  0.00     0.022 A 
HETATM    4  C9  UNL     1       0.348  -0.266   3.255  1.00  0.00     0.027 A 
HETATM    5  C10 UNL     1       0.334  -1.041   2.107  1.00  0.00     0.049 A 
HETATM    6  C11 UNL     1       1.520  -1.419   1.517  1.00  0.00     0.055 A 
HETATM    7  N2  UNL     1      -0.902  -1.443   1.539  1.00  0.00    -0.370 N 
HETATM    8  C21 UNL     1      -2.079  -1.765   2.267  1.00  0.00     0.134 C 
HETATM    9  C22 UNL     1      -2.293  -1.257   3.625  1.00  0.00     0.099 C 
HETATM   10  S2  UNL     1      -1.207   0.156   3.958  1.00  0.00    -0.126 SA
ENDROOT
BRANCH   7  11
HETATM   11  C12 UNL     1      -0.966  -1.547   0.094  1.00  0.00     0.225 C 
BRANCH  11  12
HETATM   12  C13 UNL     1      -1.805  -0.536  -0.574  1.00  0.00     0.235 C 
HETATM   13  O3  UNL     1      -1.920  -0.611  -1.853  1.00  0.00    -0.272 OA
HETATM   14  N3  UNL     1      -2.506   0.524   0.034  1.00  0.00    -0.359 N 
ATOM     15  H3  UNL     1      -2.429   0.621   1.046  1.00  0.00     0.162 HD
BRANCH  14  16
HETATM   16  C14 UNL     1      -3.314   1.470  -0.660  1.00  0.00     0.127 C 
BRANCH  16  17
HETATM   17  C15 UNL     1      -4.504   0.904  -1.394  1.00  0.00     0.003 C 
HETATM   18  C16 UNL     1      -5.367   0.228  -0.372  1.00  0.00     0.006 C 
HETATM   19  C17 UNL     1      -6.792   0.047  -0.812  1.00  0.00     0.000 C 
HETATM   20  C18 UNL     1      -7.354   1.462  -1.016  1.00  0.00     0.000 C 
HETATM   21  C19 UNL     1      -6.629   1.991  -2.234  1.00  0.00     0.000 C 
HETATM   22  C20 UNL     1      -5.161   2.043  -2.105  1.00  0.00     0.006 C 
ENDBRANCH  16  17
ENDBRANCH  14  16
ENDBRANCH  11  12
ENDBRANCH   7  11
BRANCH   1  23
HETATM   23  S1  UNL     1       4.264  -1.476   1.354  1.00  0.00     0.243 S 
HETATM   24  O1  UNL     1       4.211  -2.853   0.754  1.00  0.00    -0.206 OA
HETATM   25  O2  UNL     1       5.283  -1.534   2.464  1.00  0.00    -0.206 OA
BRANCH  23  26
HETATM   26  N1  UNL     1       4.796  -0.319   0.221  1.00  0.00    -0.206 NA
HETATM   27  C5  UNL     1       3.919  -0.148  -0.890  1.00  0.00     0.107 C 
HETATM   28  C4  UNL     1       4.589  -0.255  -2.240  1.00  0.00     0.016 C 
HETATM   29  C3  UNL     1       5.842   0.551  -2.365  1.00  0.00     0.006 C 
HETATM   30  C2  UNL     1       6.520   0.726  -1.035  1.00  0.00    -0.004 C 
HETATM   31  C1  UNL     1       8.004   0.913  -1.123  1.00  0.00     0.011 C 
HETATM   32  C23 UNL     1       6.159  -0.513  -0.205  1.00  0.00     0.111 C 
ENDBRANCH  23  26
ENDBRANCH   1  23
TORSDOF 6
