REMARK  7 active torsions:
REMARK  status: ('A' for Active; 'I' for Inactive)
REMARK    1  A    between atoms: C3_5  and  N2_6 
REMARK    2  A    between atoms: N2_6  and  C4_8 
REMARK    3  A    between atoms: C4_8  and  C5_9 
REMARK    4  A    between atoms: C5_9  and  C6_10 
REMARK    5  A    between atoms: C5_9  and  C7_15 
REMARK    6  A    between atoms: C6_10  and  N3_11 
REMARK    7  A    between atoms: C7_15  and  N4_16 
ROOT
HETATM    1  C5  UNL     1       0.695  -0.269   0.110  1.00  0.00     0.049 C 
ENDROOT
BRANCH   1   2
HETATM    2  C4  UNL     1      -0.549  -0.673  -0.714  1.00  0.00     0.146 C 
BRANCH   2   3
HETATM    3  N2  UNL     1      -1.627  -1.070   0.140  1.00  0.00    -0.225 N 
ATOM      4  H2  UNL     1      -1.389  -1.740   0.871  1.00  0.00     0.177 HD
BRANCH   3   5
HETATM    5  C3  UNL     1      -2.835  -0.699   0.107  1.00  0.00     0.683 A 
HETATM    6  N1  UNL     1      -3.372   0.169  -0.765  1.00  0.00    -0.181 N 
HETATM    7  C2  UNL     1      -4.664   0.534  -0.765  1.00  0.00     0.097 A 
ATOM      8  H1  UNL     1      -2.760   0.577  -1.472  1.00  0.00     0.185 HD
HETATM    9  C1  UNL     1      -5.223   1.508  -1.760  1.00  0.00     0.089 C 
HETATM   10  N9  UNL     1      -5.488   0.018   0.148  1.00  0.00    -0.297 N 
HETATM   11  C11 UNL     1      -4.982  -0.867   1.053  1.00  0.00     0.339 A 
ATOM     12  H9  UNL     1      -6.474   0.279   0.169  1.00  0.00     0.172 HD
HETATM   13  N8  UNL     1      -3.682  -1.209   1.020  1.00  0.00    -0.141 N 
HETATM   14  O1  UNL     1      -5.764  -1.366   1.931  1.00  0.00    -0.246 OA
ATOM     15  H8  UNL     1      -3.327  -1.874   1.707  1.00  0.00     0.189 HD
ENDBRANCH   3   5
ENDBRANCH   2   3
ENDBRANCH   1   2
BRANCH   1  16
HETATM   16  C6  UNL     1       1.024  -1.517   0.890  1.00  0.00     0.237 C 
BRANCH  16  17
HETATM   17  N3  UNL     1       1.325  -2.662   0.103  1.00  0.00    -0.079 N 
ATOM     18  H33 UNL     1       0.565  -2.848  -0.551  1.00  0.00     0.274 HD
ATOM     19  H32 UNL     1       2.077  -2.449  -0.552  1.00  0.00     0.274 HD
ATOM     20  H31 UNL     1       1.548  -3.506   0.631  1.00  0.00     0.274 HD
ENDBRANCH  16  17
ENDBRANCH   1  16
BRANCH   1  21
HETATM   21  C7  UNL     1       1.745   0.141  -0.848  1.00  0.00     0.156 C 
BRANCH  21  22
HETATM   22  N4  UNL     1       2.982   0.596  -0.345  1.00  0.00    -0.287 N 
HETATM   23  C8  UNL     1       4.070   0.783  -1.246  1.00  0.00     0.128 A 
HETATM   24  C9  UNL     1       5.252   1.231  -0.852  1.00  0.00     0.125 A 
HETATM   25  N5  UNL     1       5.456   1.544   0.526  1.00  0.00    -0.200 N 
HETATM   26  C10 UNL     1       4.429   1.390   1.500  1.00  0.00     0.690 A 
ATOM     27  H5  UNL     1       6.369   1.890   0.823  1.00  0.00     0.183 HD
HETATM   28  N6  UNL     1       4.566   1.658   2.746  1.00  0.00    -0.233 N 
HETATM   29  N7  UNL     1       3.174   0.898   0.991  1.00  0.00    -0.131 N 
ATOM     30  H62 UNL     1       5.454   2.006   3.106  1.00  0.00     0.174 HD
ATOM     31  H61 UNL     1       3.830   1.548   3.444  1.00  0.00     0.174 HD
ATOM     32  H7  UNL     1       2.398   0.768   1.640  1.00  0.00     0.206 HD
ENDBRANCH  21  22
ENDBRANCH   1  21
TORSDOF 7
