REMARK  4 active torsions:
REMARK  status: ('A' for Active; 'I' for Inactive)
REMARK    1  A    between atoms: C1_2  and  C2_4 
REMARK    2  A    between atoms: C4_6  and  O2_7 
REMARK    3  A    between atoms: C5_9  and  N2_10 
REMARK    4  A    between atoms: N2_10  and  C6_12 
ROOT
HETATM    1  C2  UNL     1       2.820   0.196   0.614  1.00  0.00     0.079 C 
HETATM    2  C3  UNL     1       2.407  -1.231   0.800  1.00  0.00     0.047 C 
HETATM    3  C4  UNL     1       0.846  -1.168   0.772  1.00  0.00     0.141 C 
HETATM    4  C5  UNL     1       0.660  -0.173  -0.283  1.00  0.00     0.106 C 
HETATM    5  C11 UNL     1       1.597   0.966   0.240  1.00  0.00     0.041 C 
ENDROOT
BRANCH   4   6
HETATM    6  N2  UNL     1      -0.538   0.450  -0.577  1.00  0.00    -0.410 N 
ATOM      7  H2  UNL     1      -0.557   1.467  -0.503  1.00  0.00     0.154 HD
BRANCH   6   8
HETATM    8  C6  UNL     1      -1.713  -0.169  -0.962  1.00  0.00     0.077 C 
HETATM    9  C7  UNL     1      -2.419  -1.004   0.083  1.00  0.00     0.024 C 
HETATM   10  C8  UNL     1      -3.588  -0.104   0.555  1.00  0.00     0.002 C 
HETATM   11  C9  UNL     1      -4.035   0.473  -0.751  1.00  0.00     0.002 C 
HETATM   12  C10 UNL     1      -2.727   0.861  -1.404  1.00  0.00     0.024 C 
ENDBRANCH   6   8
ENDBRANCH   4   6
BRANCH   3  13
HETATM   13  O2  UNL     1       0.500  -2.485   0.440  1.00  0.00    -0.394 OA
ATOM     14  H2  UNL     1      -0.449  -2.447   0.423  1.00  0.00     0.210 HD
ENDBRANCH   3  13
BRANCH   1  15
HETATM   15  C1  UNL     1       3.817   0.385  -0.476  1.00  0.00     0.235 C 
HETATM   16  N1  UNL     1       4.208   1.683  -0.891  1.00  0.00    -0.062 NA
HETATM   17  O1  UNL     1       4.328  -0.625  -1.050  1.00  0.00    -0.277 OA
ENDBRANCH   1  15
TORSDOF 4
