REMARK  5 active torsions:
REMARK  status: ('A' for Active; 'I' for Inactive)
REMARK    1  A    between atoms: C6_6  and  C7_7 
REMARK    2  A    between atoms: C7_7  and  C8_8 
REMARK    3  A    between atoms: C8_8  and  C9_9 
REMARK    4  A    between atoms: C9_9  and  O1_10 
REMARK    5  A    between atoms: O1_10  and  C10_11 
ROOT
HETATM    1  C8  UNL     1      -0.249  -0.517  -0.097  1.00  0.00     0.031 C 
ENDROOT
BRANCH   1   2
HETATM    2  C7  UNL     1      -1.154   0.487  -0.743  1.00  0.00     0.041 C 
BRANCH   2   3
HETATM    3  C6  UNL     1      -2.578   0.179  -0.653  1.00  0.00    -0.057 A 
HETATM    4  C5  UNL     1      -3.273   0.658   0.440  1.00  0.00     0.019 A 
HETATM    5  C4  UNL     1      -4.618   0.435   0.638  1.00  0.00    -0.025 A 
HETATM    6  C3  UNL     1      -5.305   0.919   1.736  1.00  0.00     0.012 A 
HETATM    7  C20 UNL     1      -5.314  -0.303  -0.299  1.00  0.00    -0.026 A 
HETATM    8  C2  UNL     1      -6.651   0.696   1.935  1.00  0.00     0.001 A 
HETATM    9  C1  UNL     1      -7.334  -0.051   0.978  1.00  0.00     0.001 A 
HETATM   10  C21 UNL     1      -6.666  -0.540  -0.120  1.00  0.00     0.012 A 
HETATM   11  C19 UNL     1      -4.619  -0.783  -1.394  1.00  0.00     0.013 A 
HETATM   12  C18 UNL     1      -3.277  -0.559  -1.590  1.00  0.00     0.008 A 
ENDBRANCH   2   3
ENDBRANCH   1   2
BRANCH   1  13
HETATM   13  C9  UNL     1       1.176  -0.037  -0.288  1.00  0.00     0.176 C 
BRANCH  13  14
HETATM   14  O1  UNL     1       2.086  -0.952   0.306  1.00  0.00    -0.351 OA
BRANCH  14  15
HETATM   15  C10 UNL     1       3.451  -0.757   0.278  1.00  0.00     0.069 A 
HETATM   16  C11 UNL     1       4.254  -1.697   0.880  1.00  0.00     0.039 A 
HETATM   17  C12 UNL     1       5.628  -1.504   0.854  1.00  0.00     0.033 A 
HETATM   18  C13 UNL     1       6.210  -0.406   0.246  1.00  0.00     0.042 A 
HETATM   19  N1  UNL     1       7.483   0.021   0.076  1.00  0.00    -0.365 N 
HETATM   20  C16 UNL     1       5.361   0.509  -0.344  1.00  0.00    -0.005 A 
HETATM   21  C14 UNL     1       7.496   1.185  -0.605  1.00  0.00     0.089 A 
ATOM     22  H1  UNL     1       8.313  -0.467   0.414  1.00  0.00     0.165 HD
HETATM   23  C15 UNL     1       6.180   1.489  -0.867  1.00  0.00     0.030 A 
HETATM   24  C17 UNL     1       3.988   0.350  -0.337  1.00  0.00     0.050 A 
ENDBRANCH  14  15
ENDBRANCH  13  14
ENDBRANCH   1  13
TORSDOF 5
