REMARK  6 active torsions:
REMARK  status: ('A' for Active; 'I' for Inactive)
REMARK    1  A    between atoms: O1_2  and  N1_3 
REMARK    2  A    between atoms: C2_4  and  C3_5 
REMARK    3  A    between atoms: C3_5  and  N2_6 
REMARK    4  A    between atoms: C3_5  and  O2_10 
REMARK    5  A    between atoms: C4_12  and  O3_13 
REMARK    6  A    between atoms: C7_20  and  N4_21 
ROOT
HETATM    1  N1  UNL     1      -0.269   0.628   0.395  1.00  0.00    -0.212 N 
HETATM    2  C2  UNL     1      -1.270  -0.242   0.183  1.00  0.00     0.134 A 
HETATM    3  C4  UNL     1      -0.957  -1.549  -0.227  1.00  0.00     0.148 A 
HETATM    4  C5  UNL     1       0.358  -1.921  -0.404  1.00  0.00     0.236 A 
HETATM    5  O4  UNL     1       0.641  -3.111  -0.778  1.00  0.00    -0.283 OA
HETATM    6  C6  UNL     1       1.370  -1.016  -0.181  1.00  0.00     0.137 A 
HETATM    7  N3  UNL     1       2.655  -1.394  -0.354  1.00  0.00    -0.185 N 
ATOM      8  H3  UNL     1       2.880  -2.343  -0.652  1.00  0.00     0.184 HD
HETATM    9  C7  UNL     1       3.632  -0.501  -0.128  1.00  0.00     0.679 A 
HETATM   10  N5  UNL     1       3.363   0.739   0.260  1.00  0.00    -0.154 N 
ATOM     11  H5  UNL     1       4.121   1.401   0.426  1.00  0.00     0.187 HD
HETATM   12  C8  UNL     1       2.092   1.114   0.432  1.00  0.00     0.291 A 
HETATM   13  O5  UNL     1       1.852   2.302   0.804  1.00  0.00    -0.265 OA
HETATM   14  C9  UNL     1       1.021   0.271   0.224  1.00  0.00     0.162 A 
ENDROOT
BRANCH   2  15
HETATM   15  C3  UNL     1      -2.700   0.052   0.355  1.00  0.00     0.372 C 
BRANCH  15  16
HETATM   16  N2  UNL     1      -3.483  -0.461  -0.758  1.00  0.00    -0.047 N 
ATOM     17  H23 UNL     1      -3.135  -0.114  -1.652  1.00  0.00     0.277 HD
ATOM     18  H22 UNL     1      -3.321  -1.458  -0.902  1.00  0.00     0.277 HD
ATOM     19  H21 UNL     1      -4.475  -0.257  -0.639  1.00  0.00     0.277 HD
ENDBRANCH  15  16
BRANCH  15  20
HETATM   20  O2  UNL     1      -3.150  -0.523   1.568  1.00  0.00    -0.365 OA
ATOM     21  H2  UNL     1      -4.074  -0.333   1.679  1.00  0.00     0.212 HD
ENDBRANCH  15  20
ENDBRANCH   2  15
BRANCH   1  22
HETATM   22  O1  UNL     1      -0.563   1.916   0.784  1.00  0.00    -0.278 OA
HETATM   23  C1  UNL     1      -1.048   2.923  -0.055  1.00  0.00     0.238 C 
ENDBRANCH   1  22
BRANCH   3  24
HETATM   24  O3  UNL     1      -1.972  -2.452  -0.449  1.00  0.00    -0.355 OA
ATOM     25  H3  UNL     1      -1.760  -3.336  -0.726  1.00  0.00     0.218 HD
ENDBRANCH   3  24
BRANCH   9  26
HETATM   26  N4  UNL     1       4.860  -0.862  -0.294  1.00  0.00    -0.234 N 
ATOM     27  H42 UNL     1       5.067  -1.815  -0.592  1.00  0.00     0.174 HD
ATOM     28  H41 UNL     1       5.602  -0.184  -0.122  1.00  0.00     0.174 HD
ENDBRANCH   9  26
TORSDOF 6
