REMARK  5 active torsions:
REMARK  status: ('A' for Active; 'I' for Inactive)
REMARK    1  A    between atoms: N1_2  and  C2_4 
REMARK    2  A    between atoms: C3_7  and  C4_8 
REMARK    3  A    between atoms: C5_11  and  O1_12 
REMARK    4  A    between atoms: C7_14  and  O2_15 
REMARK    5  A    between atoms: C9_23  and  N6_24 
ROOT
HETATM    1  C2  UNL     1      -2.888  -0.006  -0.089  1.00  0.00     0.694 A 
HETATM    2  N2  UNL     1      -1.734   0.709   0.034  1.00  0.00    -0.173 N 
ATOM      3  H2  UNL     1      -1.780   1.720   0.159  1.00  0.00     0.186 HD
HETATM    4  C3  UNL     1      -0.547   0.107  -0.007  1.00  0.00     0.169 A 
HETATM    5  N5  UNL     1      -0.566  -1.257  -0.177  1.00  0.00    -0.173 N 
ATOM      6  H5  UNL     1       0.329  -1.746  -0.212  1.00  0.00     0.186 HD
HETATM    7  C9  UNL     1      -1.676  -1.981  -0.299  1.00  0.00     0.692 A 
HETATM    8  N7  UNL     1      -2.853  -1.332  -0.253  1.00  0.00    -0.023 N 
ATOM      9  H7  UNL     1      -3.724  -1.855  -0.344  1.00  0.00     0.203 HD
ENDROOT
BRANCH   4  10
HETATM   10  C4  UNL     1       0.754   0.741   0.109  1.00  0.00     0.148 A 
HETATM   11  N3  UNL     1       1.883  -0.034   0.045  1.00  0.00    -0.326 N 
HETATM   12  C5  UNL     1       3.109   0.486   0.145  1.00  0.00     0.195 A 
ATOM     13  H3  UNL     1       1.783  -1.041  -0.083  1.00  0.00     0.168 HD
HETATM   14  C7  UNL     1       3.304   1.839   0.319  1.00  0.00     0.195 A 
HETATM   15  N4  UNL     1       2.215   2.608   0.384  1.00  0.00    -0.299 N 
HETATM   16  C8  UNL     1       0.948   2.070   0.280  1.00  0.00     0.278 A 
ATOM     17  H4  UNL     1       2.321   3.614   0.513  1.00  0.00     0.171 HD
HETATM   18  O3  UNL     1       0.012   2.880   0.354  1.00  0.00    -0.265 OA
BRANCH  12  19
HETATM   19  O1  UNL     1       4.230  -0.327   0.077  1.00  0.00    -0.338 OA
HETATM   20  C6  UNL     1       4.073  -1.723  -0.101  1.00  0.00     0.211 C 
ENDBRANCH  12  19
BRANCH  14  21
HETATM   21  O2  UNL     1       4.569   2.398   0.425  1.00  0.00    -0.343 OA
ATOM     22  H2  UNL     1       4.703   3.331   0.545  1.00  0.00     0.219 HD
ENDBRANCH  14  21
ENDBRANCH   4  10
BRANCH   1  23
HETATM   23  N1  UNL     1      -4.006   0.621  -0.043  1.00  0.00    -0.230 N 
HETATM   24  C1  UNL     1      -5.252  -0.097  -0.168  1.00  0.00     0.165 C 
ATOM     25  H1  UNL     1      -4.015   1.633   0.083  1.00  0.00     0.177 HD
ENDBRANCH   1  23
BRANCH   7  26
HETATM   26  N6  UNL     1      -1.678  -3.260  -0.459  1.00  0.00    -0.234 N 
ATOM     27  H62 UNL     1      -0.785  -3.752  -0.494  1.00  0.00     0.174 HD
ATOM     28  H61 UNL     1      -2.529  -3.815  -0.553  1.00  0.00     0.174 HD
ENDBRANCH   7  26
TORSDOF 5
