REMARK  6 active torsions:
REMARK  status: ('A' for Active; 'I' for Inactive)
REMARK    1  A    between atoms: O1_2  and  N1_3 
REMARK    2  A    between atoms: N1_3  and  C2_5 
REMARK    3  A    between atoms: C4_9  and  N3_10 
REMARK    4  A    between atoms: C5_15  and  N5_16 
REMARK    5  A    between atoms: N5_16  and  O2_18 
REMARK    6  A    between atoms: C7_22  and  N7_23 
ROOT
HETATM    1  C2  UNL     1      -2.287   0.514  -0.160  1.00  0.00     0.705 A 
HETATM    2  N2  UNL     1      -1.380   1.310  -0.795  1.00  0.00    -0.184 N 
ATOM      3  H2  UNL     1      -1.600   2.146  -1.336  1.00  0.00     0.184 HD
HETATM    4  C3  UNL     1      -0.162   0.816  -0.593  1.00  0.00     0.124 A 
HETATM    5  C4  UNL     1       1.014   1.381  -1.099  1.00  0.00     0.144 C 
HETATM    6  N4  UNL     1       2.256   0.894  -0.950  1.00  0.00    -0.173 N 
ATOM      7  H4  UNL     1       2.936   1.163  -1.661  1.00  0.00     0.186 HD
HETATM    8  C5  UNL     1       2.706   0.090   0.033  1.00  0.00     0.707 C 
HETATM    9  N6  UNL     1       1.984  -0.777   0.805  1.00  0.00    -0.173 N 
ATOM     10  H6  UNL     1       2.474  -1.184   1.601  1.00  0.00     0.186 HD
HETATM   11  C7  UNL     1       0.704  -1.157   0.640  1.00  0.00     0.144 C 
HETATM   12  C8  UNL     1      -0.303  -0.315   0.185  1.00  0.00     0.126 A 
HETATM   13  N8  UNL     1      -1.631  -0.486   0.444  1.00  0.00    -0.180 N 
HETATM   14  C9  UNL     1      -2.154  -1.571   1.241  1.00  0.00     0.176 C 
ENDROOT
BRANCH   1  15
HETATM   15  N1  UNL     1      -3.548   0.789  -0.211  1.00  0.00    -0.096 N 
ATOM     16  H1  UNL     1      -3.824   1.616  -0.741  1.00  0.00     0.213 HD
BRANCH  15  17
HETATM   17  O1  UNL     1      -4.509   0.093   0.363  1.00  0.00    -0.272 OA
HETATM   18  C1  UNL     1      -5.887   0.293   0.222  1.00  0.00     0.238 C 
ENDBRANCH  15  17
ENDBRANCH   1  15
BRANCH   5  19
HETATM   19  N3  UNL     1       0.865   2.474  -1.767  1.00  0.00    -0.383 N 
ATOM     20  H32 UNL     1      -0.079   2.844  -1.880  1.00  0.00     0.157 HD
ATOM     21  H31 UNL     1       1.722   2.886  -2.136  1.00  0.00     0.157 HD
ENDBRANCH   5  19
BRANCH  11  22
HETATM   22  N7  UNL     1       0.353  -2.355   0.900  1.00  0.00    -0.383 N 
ATOM     23  H72 UNL     1       1.092  -2.973   1.234  1.00  0.00     0.157 HD
ATOM     24  H71 UNL     1      -0.617  -2.643   0.775  1.00  0.00     0.157 HD
ENDBRANCH  11  22
BRANCH   8  25
HETATM   25  N5  UNL     1       4.091   0.172   0.266  1.00  0.00    -0.095 N 
HETATM   26  C6  UNL     1       4.984  -0.766  -0.353  1.00  0.00     0.205 C 
BRANCH  25  27
HETATM   27  O2  UNL     1       4.586   1.123   1.068  1.00  0.00    -0.274 OA
ATOM     28  H2  UNL     1       5.521   1.178   1.225  1.00  0.00     0.245 HD
ENDBRANCH  25  27
ENDBRANCH   8  25
TORSDOF 6
