REMARK  5 active torsions:
REMARK  status: ('A' for Active; 'I' for Inactive)
REMARK    1  A    between atoms: N1_2  and  C3_4 
REMARK    2  A    between atoms: C3_4  and  C4_5 
REMARK    3  A    between atoms: C4_5  and  C5_6 
REMARK    4  A    between atoms: C5_6  and  N2_7 
REMARK    5  A    between atoms: C8_12  and  N4_13 
ROOT
HETATM    1  N2  UNL     1       0.850  -0.101  -0.884  1.00  0.00    -0.184 N 
HETATM    2  C6  UNL     1       1.797   0.139   0.011  1.00  0.00     0.069 A 
HETATM    3  C7  UNL     1       2.656   1.080  -0.496  1.00  0.00     0.053 A 
HETATM    4  N3  UNL     1       2.232   1.416  -1.706  1.00  0.00    -0.194 N 
ATOM      5  H3  UNL     1       2.664   2.094  -2.334  1.00  0.00     0.184 HD
HETATM    6  C8  UNL     1       1.123   0.694  -1.949  1.00  0.00     0.678 A 
HETATM    7  C9  UNL     1       3.799   1.474   0.394  1.00  0.00     0.079 C 
HETATM    8  C10 UNL     1       4.368   0.237   1.027  1.00  0.00     0.120 C 
HETATM    9  N5  UNL     1       3.433  -0.620   1.650  1.00  0.00    -0.416 N 
ATOM     10  H5  UNL     1       3.730  -1.362   2.284  1.00  0.00     0.153 HD
HETATM   11  C11 UNL     1       2.052  -0.400   1.351  1.00  0.00     0.174 C 
ENDROOT
BRANCH   1  12
HETATM   12  C5  UNL     1      -0.290  -1.006  -0.827  1.00  0.00     0.149 C 
BRANCH  12  13
HETATM   13  C4  UNL     1      -1.513  -0.318  -0.264  1.00  0.00     0.051 C 
BRANCH  13  14
HETATM   14  C3  UNL     1      -2.658  -1.288  -0.215  1.00  0.00     0.273 C 
BRANCH  14  15
HETATM   15  N1  UNL     1      -3.869  -0.705   0.302  1.00  0.00     0.080 N 
HETATM   16  C1  UNL     1      -3.776  -0.374   1.705  1.00  0.00     0.309 C 
HETATM   17  C2  UNL     1      -4.341   0.406  -0.491  1.00  0.00     0.309 C 
ENDBRANCH  14  15
ENDBRANCH  13  14
ENDBRANCH  12  13
ENDBRANCH   1  12
BRANCH   6  18
HETATM   18  N4  UNL     1       0.405   0.740  -3.037  1.00  0.00    -0.234 N 
ATOM     19  H42 UNL     1      -0.436   0.193  -3.221  1.00  0.00     0.174 HD
ATOM     20  H41 UNL     1       0.610   1.338  -3.838  1.00  0.00     0.174 HD
ENDBRANCH   6  18
TORSDOF 5
