REMARK  5 active torsions:
REMARK  status: ('A' for Active; 'I' for Inactive)
REMARK    1  A    between atoms: S1_2  and  C2_3 
REMARK    2  A    between atoms: N1_8  and  C5_9 
REMARK    3  A    between atoms: C5_9  and  C6_10 
REMARK    4  A    between atoms: N2_17  and  C11_18 
REMARK    5  A    between atoms: C18_25  and  C19_26 
ROOT
HETATM    1  C2  UNL     1       0.567  -1.928  -0.819  1.00  0.00     0.103 A 
HETATM    2  C3  UNL     1       1.898  -2.289  -1.012  1.00  0.00     0.113 A 
HETATM    3 BR1  UNL     1       2.374  -3.820  -2.065  1.00  0.00    -0.042 Br
HETATM    4  C4  UNL     1       2.943  -1.579  -0.465  1.00  0.00     0.272 A 
HETATM    5  O1  UNL     1       4.151  -1.946  -0.660  1.00  0.00    -0.266 OA
HETATM    6  N1  UNL     1       2.605  -0.508   0.271  1.00  0.00    -0.262 N 
HETATM    7  C10 UNL     1       1.287  -0.182   0.440  1.00  0.00     0.337 A 
HETATM    8  O3  UNL     1       1.091   0.822   1.141  1.00  0.00    -0.246 OA
HETATM    9  N2  UNL     1       0.257  -0.837  -0.069  1.00  0.00    -0.263 N 
ENDROOT
BRANCH   9  10
HETATM   10  C11 UNL     1      -1.118  -0.521   0.087  1.00  0.00     0.008 C 
HETATM   11  C12 UNL     1      -1.816  -0.169  -1.207  1.00  0.00     0.034 C 
HETATM   12  C13 UNL     1      -1.907   1.326  -1.450  1.00  0.00     0.015 C 
HETATM   13  C21 UNL     1      -3.256  -0.662  -1.101  1.00  0.00     0.031 C 
HETATM   14  C14 UNL     1      -2.674   2.024  -0.364  1.00  0.00    -0.012 C 
HETATM   15  C15 UNL     1      -1.837   1.799   0.890  1.00  0.00     0.015 C 
HETATM   16  C20 UNL     1      -4.046   1.471  -0.242  1.00  0.00     0.025 C 
HETATM   17  C16 UNL     1      -1.628   0.352   1.124  1.00  0.00     0.034 C 
HETATM   18  C17 UNL     1      -3.106  -0.139   1.332  1.00  0.00     0.031 C 
HETATM   19  C18 UNL     1      -3.912   0.004   0.096  1.00  0.00     0.050 C 
BRANCH  19  20
HETATM   20  C19 UNL     1      -5.213  -0.656   0.279  1.00  0.00     0.181 C 
HETATM   21  O4  UNL     1      -5.464  -1.216   1.371  1.00  0.00    -0.647 OA
HETATM   22  O5  UNL     1      -6.192  -0.693  -0.705  1.00  0.00    -0.647 OA
ENDBRANCH  19  20
ENDBRANCH   9  10
BRANCH   1  23
HETATM   23  S1  UNL     1      -0.614  -3.017  -1.590  1.00  0.00    -0.115 SA
HETATM   24  C1  UNL     1      -1.117  -4.363  -0.522  1.00  0.00     0.097 C 
ENDBRANCH   1  23
BRANCH   6  25
HETATM   25  C5  UNL     1       3.607   0.348   0.869  1.00  0.00     0.169 C 
BRANCH  25  26
HETATM   26  C6  UNL     1       3.943   1.585   0.098  1.00  0.00     0.140 C 
HETATM   27  C7  UNL     1       4.473   1.349  -1.266  1.00  0.00     0.036 C 
HETATM   28  C8  UNL     1       5.971   1.171  -0.977  1.00  0.00     0.029 C 
HETATM   29  C9  UNL     1       6.118   2.186   0.155  1.00  0.00     0.168 C 
HETATM   30  O2  UNL     1       4.925   2.271   0.812  1.00  0.00    -0.384 OA
ENDBRANCH  25  26
ENDBRANCH   6  25
TORSDOF 5
