REMARK  4 active torsions:
REMARK  status: ('A' for Active; 'I' for Inactive)
REMARK    1  A    between atoms: O1_2  and  C2_3 
REMARK    2  A    between atoms: C8_11  and  C9_12 
REMARK    3  A    between atoms: C9_12  and  C10_13 
REMARK    4  A    between atoms: N4_29  and  C21_30 
ROOT
HETATM    1  C2  UNL     1      -0.532   4.325  -0.021  1.00  0.00     0.069 A 
HETATM    2  C3  UNL     1       0.835   4.474  -0.191  1.00  0.00     0.039 A 
HETATM    3  C4  UNL     1       1.600   3.343  -0.162  1.00  0.00     0.033 A 
HETATM    4  C5  UNL     1       1.033   2.116   0.028  1.00  0.00     0.045 A 
HETATM    5  N1  UNL     1       1.813   1.033   0.051  1.00  0.00    -0.339 N 
ATOM      6  H1  UNL     1       2.818   1.155  -0.075  1.00  0.00     0.167 HD
HETATM    7  C6  UNL     1       1.345  -0.190   0.229  1.00  0.00     0.143 A 
HETATM    8  C7  UNL     1       0.007  -0.406   0.402  1.00  0.00     0.090 A 
HETATM    9  C8  UNL     1      -0.858   0.660   0.391  1.00  0.00     0.008 A 
HETATM   10  C18 UNL     1      -0.334   1.939   0.201  1.00  0.00     0.006 A 
HETATM   11  C19 UNL     1      -1.103   3.063   0.173  1.00  0.00     0.051 A 
HETATM   12  N3  UNL     1      -0.185  -1.677   0.550  1.00  0.00    -0.329 N 
ATOM     13  H3  UNL     1      -1.101  -2.102   0.696  1.00  0.00     0.168 HD
HETATM   14  C20 UNL     1       1.026  -2.409   0.486  1.00  0.00     0.185 A 
HETATM   15  S1  UNL     1       1.221  -4.031   0.637  1.00  0.00    -0.040 SA
HETATM   16  N4  UNL     1       2.040  -1.448   0.275  1.00  0.00    -0.272 N 
ENDROOT
BRANCH   9  17
HETATM   17  C9  UNL     1      -2.133   0.488   0.553  1.00  0.00     0.028 C 
BRANCH  17  18
HETATM   18  C10 UNL     1      -2.757  -0.826   0.758  1.00  0.00    -0.007 A 
HETATM   19  C11 UNL     1      -2.981  -1.435   1.971  1.00  0.00     0.100 A 
HETATM   20  N2  UNL     1      -3.602  -2.624   1.737  1.00  0.00    -0.364 N 
HETATM   21  C12 UNL     1      -3.790  -2.807   0.418  1.00  0.00     0.043 A 
ATOM     22  H2  UNL     1      -3.885  -3.284   2.461  1.00  0.00     0.165 HD
HETATM   23  C13 UNL     1      -4.359  -3.823  -0.319  1.00  0.00     0.030 A 
HETATM   24  C17 UNL     1      -3.256  -1.673  -0.200  1.00  0.00     0.002 A 
HETATM   25  C14 UNL     1      -4.412  -3.735  -1.693  1.00  0.00     0.002 A 
HETATM   26  C15 UNL     1      -3.891  -2.624  -2.320  1.00  0.00     0.001 A 
HETATM   27  C16 UNL     1      -3.324  -1.615  -1.582  1.00  0.00     0.014 A 
ENDBRANCH  17  18
ENDBRANCH   9  17
BRANCH  16  28
HETATM   28  C21 UNL     1       3.445  -1.625   0.155  1.00  0.00     0.043 A 
HETATM   29  C22 UNL     1       4.006  -2.740  -0.428  1.00  0.00     0.030 A 
HETATM   30  C23 UNL     1       5.375  -2.916  -0.522  1.00  0.00     0.002 A 
HETATM   31  C24 UNL     1       6.234  -1.963  -0.028  1.00  0.00     0.000 A 
HETATM   32  C25 UNL     1       5.717  -0.835   0.562  1.00  0.00     0.002 A 
HETATM   33  C26 UNL     1       4.333  -0.679   0.646  1.00  0.00     0.030 A 
ENDBRANCH  16  28
BRANCH   1  34
HETATM   34  O1  UNL     1      -1.385   5.406  -0.035  1.00  0.00    -0.356 OA
HETATM   35  C1  UNL     1      -0.984   6.732  -0.216  1.00  0.00     0.210 C 
ENDBRANCH   1  34
TORSDOF 4
