REMARK  6 active torsions:
REMARK  status: ('A' for Active; 'I' for Inactive)
REMARK    1  A    between atoms: C2_7  and  O1_8 
REMARK    2  A    between atoms: C3_10  and  C4_11 
REMARK    3  A    between atoms: N4_12  and  N5_14 
REMARK       I    between atoms: N5_14  and  C5_16 
REMARK       I    between atoms: C5_16  and  N6_18 
REMARK    4  A    between atoms: N6_18  and  N7_19 
REMARK    5  A    between atoms: C6_21  and  C7_22 
REMARK    6  A    between atoms: C9_26  and  N9_27 
ROOT
HETATM    1  N5  UNL     1      -1.134  -0.436  -1.314  1.00  0.00    -0.238 N 
ATOM      2  H5  UNL     1      -1.035  -1.084  -0.532  1.00  0.00     0.193 HD
HETATM    3  C5  UNL     1      -0.083   0.541  -1.592  1.00  0.00     0.430 C 
HETATM    4  O2  UNL     1      -0.354   1.271  -2.594  1.00  0.00    -0.227 OA
HETATM    5  N6  UNL     1       1.004   0.560  -0.803  1.00  0.00    -0.264 NA
ENDROOT
BRANCH   1   6
HETATM    6  N4  UNL     1      -2.211  -0.479  -2.075  1.00  0.00    -0.305 N 
HETATM    7  C4  UNL     1      -3.407  -0.300  -2.031  1.00  0.00     0.142 C 
ATOM      8  H4  UNL     1      -1.946  -0.757  -3.020  1.00  0.00     0.186 HD
BRANCH   7   9
HETATM    9  C3  UNL     1      -4.279   0.098  -0.959  1.00  0.00     0.120 A 
HETATM   10  N1  UNL     1      -5.648   0.230  -1.030  1.00  0.00    -0.277 N 
HETATM   11  C1  UNL     1      -6.413  -0.012  -2.250  1.00  0.00     0.179 C 
HETATM   12  N2  UNL     1      -6.106   0.592   0.137  1.00  0.00    -0.238 N 
HETATM   13  N3  UNL     1      -5.168   0.723   1.015  1.00  0.00    -0.263 N 
ATOM     14  H2  UNL     1      -7.094   0.753   0.334  1.00  0.00     0.208 HD
HETATM   15  C2  UNL     1      -4.008   0.416   0.347  1.00  0.00     0.186 A 
ATOM     16  H3  UNL     1      -5.267   0.995   1.993  1.00  0.00     0.190 HD
BRANCH  15  17
HETATM   17  O1  UNL     1      -2.759   0.447   0.966  1.00  0.00    -0.343 OA
ATOM     18  H1  UNL     1      -1.957   0.235   0.504  1.00  0.00     0.219 HD
ENDBRANCH  15  17
ENDBRANCH   7   9
ENDBRANCH   1   6
BRANCH   5  19
HETATM   19  N7  UNL     1       2.071   0.582  -0.031  1.00  0.00    -0.238 N 
HETATM   20  C6  UNL     1       2.927  -0.386   0.013  1.00  0.00     0.171 C 
ATOM     21  H7  UNL     1       2.229   1.399   0.558  1.00  0.00     0.201 HD
BRANCH  20  22
HETATM   22  C7  UNL     1       4.078  -0.260   0.904  1.00  0.00     0.138 A 
HETATM   23  N8  UNL     1       4.228   0.846   1.669  1.00  0.00    -0.346 N 
HETATM   24  C8  UNL     1       5.313   0.904   2.452  1.00  0.00     0.139 A 
ATOM     25  H8  UNL     1       3.544   1.603   1.650  1.00  0.00     0.167 HD
HETATM   26  C9  UNL     1       6.247  -0.109   2.491  1.00  0.00     0.129 A 
HETATM   27  N10 UNL     1       6.075  -1.203   1.718  1.00  0.00    -0.283 N 
HETATM   28  N11 UNL     1       4.995  -1.243   0.949  1.00  0.00    -0.283 N 
ATOM     29  H10 UNL     1       6.749  -1.968   1.725  1.00  0.00     0.188 HD
ATOM     30  H11 UNL     1       4.852  -2.063   0.360  1.00  0.00     0.188 HD
BRANCH  26  31
HETATM   31  N9  UNL     1       7.268  -0.000   3.259  1.00  0.00    -0.383 N 
ATOM     32  H92 UNL     1       7.398   0.826   3.843  1.00  0.00     0.157 HD
ATOM     33  H91 UNL     1       7.959  -0.750   3.288  1.00  0.00     0.157 HD
ENDBRANCH  26  31
ENDBRANCH  20  22
ENDBRANCH   5  19
TORSDOF 6
