REMARK  0 active torsions:
REMARK  status: ('A' for Active; 'I' for Inactive)
REMARK       I    between atoms: N1_1  and  C1_5 
REMARK       I    between atoms: C1_5  and  N2_6 
REMARK       I    between atoms: C1_5  and  N3_10 
ROOT
HETATM    1  N1  UNL     1      -2.120   0.057   1.115  1.00  0.00    -0.032 N 
ATOM      2  H11 UNL     1      -1.941  -0.448   1.983  1.00  0.00     0.278 HD
ATOM      3  H12 UNL     1      -3.118   0.164   0.932  1.00  0.00     0.278 HD
ATOM      4  H13 UNL     1      -1.876   1.045   1.189  1.00  0.00     0.278 HD
HETATM    5  C1  UNL     1      -1.420  -0.605  -0.000  1.00  0.00     0.494 C 
HETATM    6  N2  UNL     1      -1.670   0.102  -1.215  1.00  0.00    -0.032 N 
ATOM      7  H21 UNL     1      -1.185  -0.356  -1.987  1.00  0.00     0.278 HD
ATOM      8  H22 UNL     1      -1.426   1.090  -1.141  1.00  0.00     0.278 HD
ATOM      9  H23 UNL     1      -2.668   0.209  -1.398  1.00  0.00     0.278 HD
HETATM   10  N3  UNL     1      -0.128  -0.882   0.371  1.00  0.00    -0.172 N 
ATOM     11  H3  UNL     1      -0.084  -1.727   0.940  1.00  0.00     0.181 HD
HETATM   12  C2  UNL     1       1.010  -0.391   0.208  1.00  0.00     0.696 A 
HETATM   13  N4  UNL     1       1.419   0.686  -0.449  1.00  0.00    -0.185 N 
ATOM     14  H4  UNL     1       0.816   1.329  -0.963  1.00  0.00     0.185 HD
HETATM   15  C3  UNL     1       2.741   0.796  -0.332  1.00  0.00     0.215 A 
HETATM   16  N5  UNL     1       3.150  -0.242   0.419  1.00  0.00    -0.281 N 
ATOM     17  H5  UNL     1       4.117  -0.429   0.684  1.00  0.00     0.188 HD
HETATM   18  N6  UNL     1       2.120  -0.976   0.759  1.00  0.00    -0.131 N 
ATOM     19  H6  UNL     1       2.140  -1.823   1.327  1.00  0.00     0.205 HD
ENDROOT
TORSDOF 0
