REMARK  3 active torsions:
REMARK  status: ('A' for Active; 'I' for Inactive)
REMARK    1  A    between atoms: N1_1  and  C1_4 
REMARK    2  A    between atoms: C2_10  and  C3_11 
REMARK    3  A    between atoms: C3_11  and  N5_12 
ROOT
HETATM    1  C1  UNL     1       0.697   0.781  -0.185  1.00  0.00     0.137 A 
HETATM    2  N2  UNL     1       1.917   0.252   0.120  1.00  0.00    -0.268 N 
ATOM      3  H2  UNL     1       2.764   0.788   0.307  1.00  0.00     0.186 HD
HETATM    4  N3  UNL     1       1.825  -1.072   0.135  1.00  0.00    -0.021 NA
HETATM    5  N4  UNL     1       0.564  -1.382  -0.156  1.00  0.00    -0.283 N 
ATOM      6  H4  UNL     1       0.196  -2.331  -0.219  1.00  0.00     0.184 HD
HETATM    7  C2  UNL     1      -0.142  -0.284  -0.351  1.00  0.00     0.093 A 
ENDROOT
BRANCH   7   8
HETATM    8  C3  UNL     1      -1.604  -0.165  -0.652  1.00  0.00     0.291 C 
BRANCH   8   9
HETATM    9  N5  UNL     1      -2.269  -0.810   0.560  1.00  0.00    -0.074 N 
ATOM     10  H53 UNL     1      -1.954  -1.759   0.760  1.00  0.00     0.274 HD
ATOM     11  H52 UNL     1      -1.988  -0.414   1.457  1.00  0.00     0.274 HD
ATOM     12  H51 UNL     1      -3.265  -0.729   0.355  1.00  0.00     0.274 HD
ENDBRANCH   8   9
ENDBRANCH   7   8
BRANCH   1  13
HETATM   13  N1  UNL     1       0.330   2.012  -0.201  1.00  0.00    -0.383 N 
ATOM     14  H12 UNL     1       0.957   2.807  -0.077  1.00  0.00     0.157 HD
ATOM     15  H11 UNL     1      -0.582   2.408  -0.429  1.00  0.00     0.157 HD
ENDBRANCH   1  13
TORSDOF 3
