REMARK  2 active torsions:
REMARK  status: ('A' for Active; 'I' for Inactive)
REMARK    1  A    between atoms: N1_1  and  C1_4 
REMARK    2  A    between atoms: N4_10  and  N5_12 
ROOT
HETATM    1  C1  UNL     1       1.776   0.033   0.035  1.00  0.00     0.160 A 
HETATM    2  N2  UNL     1       1.244  -1.192   0.013  1.00  0.00    -0.278 N 
ATOM      3  H2  UNL     1       1.844  -2.017  -0.019  1.00  0.00     0.189 HD
HETATM    4  N3  UNL     1      -0.021  -1.314   0.032  1.00  0.00    -0.277 N 
ATOM      5  H3  UNL     1      -0.448  -2.240   0.016  1.00  0.00     0.189 HD
HETATM    6  C2  UNL     1      -0.786  -0.224   0.073  1.00  0.00     0.181 A 
HETATM    7  N4  UNL     1      -2.100  -0.152   0.098  1.00  0.00    -0.285 N 
ATOM      8  H4  UNL     1      -2.694  -0.981   0.087  1.00  0.00     0.188 HD
HETATM    9  S1  UNL     1       0.388   1.026   0.084  1.00  0.00    -0.014 SA
ENDROOT
BRANCH   7  10
HETATM   10  N5  UNL     1      -2.618   1.134   0.140  1.00  0.00    -0.343 N 
ATOM     11  H52 UNL     1      -2.011   1.954   0.150  1.00  0.00     0.176 HD
ATOM     12  H51 UNL     1      -3.636   1.190   0.159  1.00  0.00     0.176 HD
ENDBRANCH   7  10
BRANCH   1  13
HETATM   13  N1  UNL     1       3.023   0.406   0.022  1.00  0.00    -0.378 N 
ATOM     14  H12 UNL     1       3.852  -0.187  -0.007  1.00  0.00     0.158 HD
ATOM     15  H11 UNL     1       3.429   1.341   0.039  1.00  0.00     0.158 HD
ENDBRANCH   1  13
TORSDOF 2
