REMARK  14 active torsions:
REMARK  status: ('A' for Active; 'I' for Inactive)
REMARK       I    between atoms: C2_2  and  N1_4 
REMARK    1  A    between atoms: N1_4  and  C3_6 
REMARK    2  A    between atoms: C4_8  and  C5_9 
REMARK       I    between atoms: C5_9  and  N2_11 
REMARK    3  A    between atoms: N2_11  and  O4_12 
REMARK    4  A    between atoms: O4_12  and  C6_13 
REMARK    5  A    between atoms: C6_13  and  C9_16 
REMARK    6  A    between atoms: N5_24  and  C12_25 
REMARK    7  A    between atoms: C12_25  and  C13_26 
REMARK    8  A    between atoms: C13_26  and  S1_27 
REMARK    9  A    between atoms: S1_27  and  C14_28 
REMARK   10  A    between atoms: C15_33  and  S2_34 
REMARK   11  A    between atoms: C16_39  and  C18_42 
REMARK   12  A    between atoms: C18_42  and  O10_43 
REMARK   13  A    between atoms: N9_45  and  O11_47 
REMARK   14  A    between atoms: N10_50  and  O12_51 
ROOT
HETATM    1  C3  UNL     1      -0.151   0.376  -2.333  1.00  0.00     0.267 C 
HETATM    2  O2  UNL     1      -1.207   0.888  -1.501  1.00  0.00    -0.319 OA
HETATM    3  C4  UNL     1      -0.717   0.824  -0.245  1.00  0.00     0.302 C 
HETATM    4  C10 UNL     1      -0.522  -0.634   0.147  1.00  0.00     0.159 C 
HETATM    5  N3  UNL     1      -1.391  -1.222   0.812  1.00  0.00    -0.278 N 
ATOM      6  H3  UNL     1      -2.193  -0.632   1.033  1.00  0.00     0.179 HD
HETATM    7  C11 UNL     1      -1.500  -2.462   1.300  1.00  0.00     0.183 C 
HETATM    8  N4  UNL     1      -1.566  -3.565   1.709  1.00  0.00    -0.172 NA
HETATM    9  N5  UNL     1       0.761  -0.952  -0.392  1.00  0.00    -0.309 N 
HETATM   10  C19 UNL     1       0.938   0.104  -1.416  1.00  0.00     0.245 C 
HETATM   11  N10 UNL     1       0.675   1.214  -0.397  1.00  0.00    -0.119 NA
ENDROOT
BRANCH   3  12
HETATM   12  C5  UNL     1      -1.490   1.571   0.768  1.00  0.00     0.380 C 
HETATM   13  O3  UNL     1      -0.893   2.249   1.568  1.00  0.00    -0.249 OA
HETATM   14  N2  UNL     1      -2.924   1.377   0.644  1.00  0.00    -0.235 NA
BRANCH  14  15
HETATM   15  O4  UNL     1      -4.047   1.233   0.557  1.00  0.00    -0.184 OA
BRANCH  15  16
HETATM   16  C6  UNL     1      -5.139   1.916   1.005  1.00  0.00     0.183 C 
HETATM   17  C7  UNL     1      -6.401   1.262   0.429  1.00  0.00     0.061 C 
HETATM   18  C8  UNL     1      -5.293   1.989   2.490  1.00  0.00     0.061 C 
BRANCH  16  19
HETATM   19  C9  UNL     1      -5.102   3.286   0.394  1.00  0.00     0.212 C 
HETATM   20  O5  UNL     1      -4.173   3.691  -0.339  1.00  0.00    -0.646 OA
HETATM   21  O6  UNL     1      -6.207   4.106   0.710  1.00  0.00    -0.646 OA
ENDBRANCH  16  19
ENDBRANCH  15  16
ENDBRANCH  14  15
ENDBRANCH   3  12
BRANCH   9  22
HETATM   22  C12 UNL     1       1.671  -1.931   0.048  1.00  0.00     0.050 C 
HETATM   23  C16 UNL     1       1.805  -3.192  -0.193  1.00  0.00     0.120 C 
HETATM   24  C17 UNL     1       2.940  -3.902   0.501  1.00  0.00     0.106 C 
HETATM   25  N8  UNL     1       3.819  -4.470   1.012  1.00  0.00    -0.191 NA
BRANCH  22  26
HETATM   26  C13 UNL     1       2.739  -1.408   1.048  1.00  0.00     0.140 C 
BRANCH  26  27
HETATM   27  S1  UNL     1       3.870  -0.360   0.172  1.00  0.00    -0.097 SA
BRANCH  27  28
HETATM   28  C14 UNL     1       5.236   0.251   1.141  1.00  0.00     0.129 A 
HETATM   29  N6  UNL     1       6.412  -0.357   1.374  1.00  0.00    -0.287 N 
HETATM   30  N7  UNL     1       7.293   0.237   2.044  1.00  0.00    -0.281 N 
ATOM     31  H6  UNL     1       6.588  -1.293   1.010  1.00  0.00     0.188 HD
HETATM   32  C15 UNL     1       7.078   1.462   2.520  1.00  0.00     0.209 A 
ATOM     33  H7  UNL     1       8.184  -0.225   2.226  1.00  0.00     0.188 HD
HETATM   34  S3  UNL     1       5.486   1.751   1.952  1.00  0.00    -0.030 SA
BRANCH  32  35
HETATM   35  S2  UNL     1       8.129   2.498   3.474  1.00  0.00     0.163 S 
HETATM   36  O7  UNL     1       9.574   2.272   3.126  1.00  0.00    -0.590 OA
HETATM   37  O8  UNL     1       7.849   3.942   3.086  1.00  0.00    -0.590 OA
HETATM   38  O9  UNL     1       7.787   2.318   5.079  1.00  0.00    -0.590 OA
ENDBRANCH  32  35
ENDBRANCH  27  28
ENDBRANCH  26  27
ENDBRANCH  22  26
BRANCH  23  39
HETATM   39  C18 UNL     1       1.057  -4.080  -1.050  1.00  0.00     0.183 C 
HETATM   40  N9  UNL     1       0.068  -3.702  -1.750  1.00  0.00    -0.246 N 
ATOM     41  H9  UNL     1      -0.201  -2.720  -1.693  1.00  0.00     0.196 HD
BRANCH  39  42
HETATM   42  O10 UNL     1       1.412  -5.430  -1.143  1.00  0.00    -0.344 OA
ATOM     43  H10 UNL     1       0.920  -6.015  -1.707  1.00  0.00     0.219 HD
ENDBRANCH  39  42
BRANCH  40  44
HETATM   44  O11 UNL     1      -0.655  -4.500  -2.565  1.00  0.00    -0.288 OA
ATOM     45  H11 UNL     1      -1.395  -4.217  -3.089  1.00  0.00     0.244 HD
ENDBRANCH  40  44
ENDBRANCH  23  39
ENDBRANCH   9  22
BRANCH  11  46
HETATM   46  O12 UNL     1       0.833   2.378  -1.005  1.00  0.00    -0.307 OA
ATOM     47  H12 UNL     1       1.743   2.633  -1.104  1.00  0.00     0.237 HD
ENDBRANCH  11  46
BRANCH   1  48
HETATM   48  N1  UNL     1      -0.693  -0.564  -3.232  1.00  0.00    -0.332 N 
HETATM   49  C2  UNL     1      -0.653  -0.388  -4.634  1.00  0.00     0.215 C 
HETATM   50  C1  UNL     1      -1.309  -1.488  -5.480  1.00  0.00     0.117 C 
HETATM   51  O1  UNL     1      -0.152   0.565  -5.266  1.00  0.00    -0.274 OA
ATOM     52  H1  UNL     1      -1.132  -1.405  -2.856  1.00  0.00     0.165 HD
ENDBRANCH   1  48
TORSDOF 14
