REMARK  17 active torsions:
REMARK  status: ('A' for Active; 'I' for Inactive)
REMARK    1  A    between atoms: C1_2  and  C2_4 
REMARK    2  A    between atoms: C3_5  and  S1_6 
REMARK    3  A    between atoms: S1_6  and  C4_7 
REMARK    4  A    between atoms: C4_7  and  C5_8 
REMARK    5  A    between atoms: C5_8  and  O3_9 
REMARK    6  A    between atoms: C5_8  and  C6_11 
REMARK    7  A    between atoms: C6_11  and  O4_12 
REMARK    8  A    between atoms: C6_11  and  C7_14 
REMARK    9  A    between atoms: C7_14  and  O5_15 
REMARK   10  A    between atoms: C8_19  and  C9_20 
REMARK       I    between atoms: N2_25  and  C12_27 
REMARK   11  A    between atoms: C12_27  and  C13_29 
REMARK   12  A    between atoms: C14_33  and  C15_34 
REMARK   13  A    between atoms: C16_35  and  N4_36 
REMARK   14  A    between atoms: C18_40  and  S2_41 
REMARK   15  A    between atoms: C19_47  and  N6_48 
REMARK   16  A    between atoms: N6_48  and  O15_49 
REMARK   17  A    between atoms: N6_48  and  O16_51 
ROOT
HETATM    1  C2  UNL     1       1.932  -1.384  -0.883  1.00  0.00     0.096 C 
HETATM    2  C3  UNL     1       3.092  -0.979  -0.346  1.00  0.00     0.085 C 
HETATM    3  N1  UNL     1       3.001  -0.251   0.844  1.00  0.00    -0.369 N 
ATOM      4  H1  UNL     1       3.770  -0.316   1.511  1.00  0.00     0.161 HD
HETATM    5  C8  UNL     1       1.867   0.593   1.179  1.00  0.00     0.189 C 
HETATM    6  C10 UNL     1       0.597   0.213   0.514  1.00  0.00     0.094 C 
HETATM    7  C11 UNL     1       0.632  -1.085  -0.211  1.00  0.00     0.034 C 
HETATM    8  N2  UNL     1      -0.257  -1.916  -0.306  1.00  0.00    -0.327 N 
ATOM      9  H2  UNL     1       0.139  -2.670  -0.867  1.00  0.00     0.168 HD
HETATM   10  C12 UNL     1      -1.508  -2.307  -0.022  1.00  0.00     0.261 C 
HETATM   11  O8  UNL     1      -1.847  -2.464   1.212  1.00  0.00    -0.270 OA
ENDROOT
BRANCH  10  12
HETATM   12  C13 UNL     1      -2.570  -2.596  -0.997  1.00  0.00     0.320 C 
HETATM   13  O9  UNL     1      -3.654  -3.338  -0.436  1.00  0.00    -0.257 OA
HETATM   14  N3  UNL     1      -4.646  -2.513  -0.059  1.00  0.00    -0.261 N 
HETATM   15  C14 UNL     1      -4.477  -1.275  -0.425  1.00  0.00     0.119 C 
ATOM     16  H3  UNL     1      -5.460  -2.829   0.468  1.00  0.00     0.194 HD
HETATM   17  C20 UNL     1      -3.371  -1.363  -1.382  1.00  0.00     0.219 C 
HETATM   18  O17 UNL     1      -3.082  -0.622  -2.356  1.00  0.00    -0.287 OA
BRANCH  15  19
HETATM   19  C15 UNL     1      -5.388  -0.159  -0.151  1.00  0.00     0.072 A 
HETATM   20  C16 UNL     1      -5.118   1.138  -0.461  1.00  0.00     0.121 A 
HETATM   21  C17 UNL     1      -6.177   2.069  -0.466  1.00  0.00     0.082 A 
HETATM   22  C18 UNL     1      -7.457   1.741  -0.165  1.00  0.00     0.154 A 
HETATM   23  N5  UNL     1      -7.704   0.468   0.147  1.00  0.00    -0.331 N 
HETATM   24  C19 UNL     1      -6.740  -0.475   0.166  1.00  0.00     0.152 A 
ATOM     25  H5  UNL     1      -8.659   0.197   0.380  1.00  0.00     0.168 HD
BRANCH  20  26
HETATM   26  N4  UNL     1      -3.813   1.691  -0.649  1.00  0.00    -0.115 N 
HETATM   27  O10 UNL     1      -3.689   2.660  -1.410  1.00  0.00    -0.532 OA
HETATM   28  O11 UNL     1      -2.740   1.177  -0.016  1.00  0.00    -0.532 OA
ENDBRANCH  20  26
BRANCH  22  29
HETATM   29  S2  UNL     1      -8.767   2.921  -0.171  1.00  0.00     0.154 S 
HETATM   30  O12 UNL     1      -8.156   4.256  -0.463  1.00  0.00    -0.590 OA
HETATM   31  O13 UNL     1      -9.305   2.960   1.245  1.00  0.00    -0.590 OA
HETATM   32  O14 UNL     1      -9.931   2.477  -1.264  1.00  0.00    -0.590 OA
ENDBRANCH  22  29
BRANCH  24  33
HETATM   33  N6  UNL     1      -7.147  -1.773   0.522  1.00  0.00    -0.018 NA
BRANCH  33  34
HETATM   34  O15 UNL     1      -8.542  -1.749   0.592  1.00  0.00    -0.283 OA
ATOM     35  H15 UNL     1      -8.817  -2.626   0.833  1.00  0.00     0.240 HD
ENDBRANCH  33  34
BRANCH  33  36
HETATM   36  O16 UNL     1      -6.781  -2.020   1.803  1.00  0.00    -0.283 OA
ATOM     37  H16 UNL     1      -7.056  -2.897   2.044  1.00  0.00     0.240 HD
ENDBRANCH  33  36
ENDBRANCH  24  33
ENDBRANCH  15  19
ENDBRANCH  10  12
BRANCH   1  38
HETATM   38  C1  UNL     1       1.965  -2.144  -2.107  1.00  0.00     0.214 C 
HETATM   39  O1  UNL     1       0.863  -2.527  -2.613  1.00  0.00    -0.644 OA
HETATM   40  O2  UNL     1       3.157  -2.450  -2.718  1.00  0.00    -0.644 OA
ENDBRANCH   1  38
BRANCH   2  41
HETATM   41  S1  UNL     1       4.630  -1.363  -1.108  1.00  0.00    -0.109 SA
BRANCH  41  42
HETATM   42  C4  UNL     1       6.006  -0.574  -0.295  1.00  0.00     0.115 C 
BRANCH  42  43
HETATM   43  C5  UNL     1       6.163   0.887  -0.575  1.00  0.00     0.158 C 
BRANCH  43  44
HETATM   44  O3  UNL     1       5.040   1.583  -0.185  1.00  0.00    -0.392 OA
ATOM     45  H3  UNL     1       5.140   2.511  -0.363  1.00  0.00     0.210 HD
ENDBRANCH  43  44
BRANCH  43  46
HETATM   46  C6  UNL     1       7.378   1.399   0.197  1.00  0.00     0.171 C 
BRANCH  46  47
HETATM   47  O4  UNL     1       7.250   1.255   1.568  1.00  0.00    -0.391 OA
ATOM     48  H4  UNL     1       8.005   1.573   2.048  1.00  0.00     0.210 HD
ENDBRANCH  46  47
BRANCH  46  49
HETATM   49  C7  UNL     1       8.649   0.771  -0.256  1.00  0.00     0.198 C 
BRANCH  49  50
HETATM   50  O5  UNL     1       9.721   1.426   0.368  1.00  0.00    -0.398 OA
ATOM     51  H5  UNL     1      10.532   1.025   0.079  1.00  0.00     0.209 HD
ENDBRANCH  49  50
ENDBRANCH  46  49
ENDBRANCH  43  46
ENDBRANCH  42  43
ENDBRANCH  41  42
ENDBRANCH   2  41
BRANCH   5  52
HETATM   52  C9  UNL     1       1.722   0.690   2.649  1.00  0.00     0.197 C 
HETATM   53  O6  UNL     1       2.527   0.107   3.386  1.00  0.00    -0.646 OA
HETATM   54  O7  UNL     1       0.647   1.461   3.113  1.00  0.00    -0.646 OA
ENDBRANCH   5  52
TORSDOF 17
