REMARK  12 active torsions:
REMARK  status: ('A' for Active; 'I' for Inactive)
REMARK       I    between atoms: C2_2  and  N1_4 
REMARK    1  A    between atoms: N1_4  and  C3_6 
REMARK    2  A    between atoms: C4_7  and  S1_8 
REMARK    3  A    between atoms: S1_8  and  C5_9 
REMARK    4  A    between atoms: C6_11  and  C7_12 
REMARK    5  A    between atoms: C7_12  and  S2_13 
REMARK    6  A    between atoms: S2_13  and  C8_14 
REMARK    7  A    between atoms: C8_14  and  C9_15 
REMARK    8  A    between atoms: C9_15  and  C10_16 
REMARK    9  A    between atoms: C11_19  and  O4_20 
REMARK   10  A    between atoms: C12_22  and  O5_23 
REMARK   11  A    between atoms: C14_27  and  O7_28 
REMARK   12  A    between atoms: C15_30  and  O8_31 
ROOT
HETATM    1  C3  UNL     1      -2.091  -0.422   0.179  1.00  0.00     0.130 C 
HETATM    2  C4  UNL     1      -1.929  -1.298  -1.049  1.00  0.00     0.209 C 
HETATM    3  O6  UNL     1      -3.279  -1.486  -1.368  1.00  0.00    -0.365 OA
HETATM    4  C13 UNL     1      -3.797  -0.167  -1.437  1.00  0.00     0.160 C 
HETATM    5  C14 UNL     1      -5.260  -0.169  -1.501  1.00  0.00     0.176 C 
HETATM    6  C15 UNL     1      -6.004   0.320  -0.316  1.00  0.00     0.149 C 
HETATM    7  C16 UNL     1      -5.346   1.529   0.294  1.00  0.00     0.035 C 
HETATM    8  C17 UNL     1      -3.962   1.118   0.728  1.00  0.00     0.012 C 
HETATM    9  C18 UNL     1      -3.122   0.579  -0.367  1.00  0.00     0.043 C 
ENDROOT
BRANCH   2  10
HETATM   10  S1  UNL     1      -1.017  -0.494  -2.359  1.00  0.00    -0.101 SA
BRANCH  10  11
HETATM   11  C5  UNL     1       0.689  -0.211  -1.914  1.00  0.00     0.217 C 
HETATM   12  O2  UNL     1       0.880   0.678  -0.897  1.00  0.00    -0.364 OA
HETATM   13  C6  UNL     1       2.122   0.408  -0.307  1.00  0.00     0.163 C 
HETATM   14  C11 UNL     1       2.704  -0.806  -0.910  1.00  0.00     0.180 C 
HETATM   15  C12 UNL     1       1.467  -1.453  -1.578  1.00  0.00     0.188 C 
BRANCH  13  16
HETATM   16  C7  UNL     1       2.970   1.630  -0.259  1.00  0.00     0.108 C 
BRANCH  16  17
HETATM   17  S2  UNL     1       4.581   1.522   0.444  1.00  0.00    -0.166 SA
BRANCH  17  18
HETATM   18  C8  UNL     1       5.826   0.648  -0.488  1.00  0.00     0.082 C 
BRANCH  18  19
HETATM   19  C9  UNL     1       7.134   0.745   0.310  1.00  0.00     0.109 C 
BRANCH  19  20
HETATM   20  C10 UNL     1       7.486   2.168   0.479  1.00  0.00     0.231 C 
HETATM   21  N2  UNL     1       8.681   2.507   1.157  1.00  0.00    -0.062 NA
HETATM   22  O3  UNL     1       6.746   3.050   0.033  1.00  0.00    -0.277 OA
ENDBRANCH  19  20
ENDBRANCH  18  19
ENDBRANCH  17  18
ENDBRANCH  16  17
ENDBRANCH  13  16
BRANCH  14  23
HETATM   23  O4  UNL     1       3.164  -1.672   0.095  1.00  0.00    -0.390 OA
ATOM     24  H4  UNL     1       3.539  -2.454  -0.293  1.00  0.00     0.210 HD
ENDBRANCH  14  23
BRANCH  15  25
HETATM   25  O5  UNL     1       1.902  -2.168  -2.670  1.00  0.00    -0.389 OA
ATOM     26  H5  UNL     1       2.394  -2.953  -2.458  1.00  0.00     0.210 HD
ENDBRANCH  15  25
ENDBRANCH  10  11
ENDBRANCH   2  10
BRANCH   1  27
HETATM   27  N1  UNL     1      -2.571  -1.115   1.323  1.00  0.00    -0.353 N 
HETATM   28  C2  UNL     1      -1.919  -1.215   2.568  1.00  0.00     0.214 C 
HETATM   29  C1  UNL     1      -2.472  -1.954   3.727  1.00  0.00     0.117 C 
HETATM   30  O1  UNL     1      -0.809  -0.650   2.712  1.00  0.00    -0.274 OA
ATOM     31  H1  UNL     1      -3.472  -1.584   1.234  1.00  0.00     0.163 HD
ENDBRANCH   1  27
BRANCH   5  32
HETATM   32  O7  UNL     1      -5.693  -1.497  -1.734  1.00  0.00    -0.390 OA
ATOM     33  H7  UNL     1      -6.642  -1.498  -1.776  1.00  0.00     0.210 HD
ENDBRANCH   5  32
BRANCH   6  34
HETATM   34  O8  UNL     1      -6.251  -0.682   0.638  1.00  0.00    -0.393 OA
ATOM     35  H8  UNL     1      -6.728  -0.369   1.398  1.00  0.00     0.210 HD
ENDBRANCH   6  34
TORSDOF 12
