REMARK  12 active torsions:
REMARK  status: ('A' for Active; 'I' for Inactive)
REMARK    1  A    between atoms: C3_3  and  O1_4 
REMARK    2  A    between atoms: O1_4  and  C4_5 
REMARK    3  A    between atoms: C6_9  and  N1_10 
REMARK    4  A    between atoms: C7_14  and  O4_15 
REMARK    5  A    between atoms: O4_15  and  C8_16 
REMARK    6  A    between atoms: C8_16  and  C9_17 
REMARK    7  A    between atoms: C9_17  and  O5_18 
REMARK    8  A    between atoms: C10_20  and  N2_21 
REMARK       I    between atoms: N2_21  and  C11_23 
REMARK    9  A    between atoms: C13_27  and  N4_28 
REMARK       I    between atoms: N4_28  and  C14_30 
REMARK   10  A    between atoms: C14_30  and  O8_32 
REMARK   11  A    between atoms: O8_32  and  C15_33 
REMARK   12  A    between atoms: C19_37  and  O9_38 
ROOT
HETATM    1  C4  UNL     1       2.034   1.383   0.150  1.00  0.00     0.322 C 
HETATM    2  O2  UNL     1       2.876   2.276  -0.496  1.00  0.00    -0.206 OA
HETATM    3  O3  UNL     1       3.373   3.112   0.357  1.00  0.00    -0.236 OA
HETATM    4  C5  UNL     1       3.877   2.565   1.509  1.00  0.00     0.245 C 
HETATM    5  C6  UNL     1       4.787   1.397   1.313  1.00  0.00     0.241 C 
HETATM    6  C7  UNL     1       4.343   0.422   0.273  1.00  0.00     0.181 C 
HETATM    7  C10 UNL     1       2.861   0.156   0.480  1.00  0.00     0.174 C 
ENDROOT
BRANCH   1   8
HETATM    8  O1  UNL     1       1.053   0.974  -0.742  1.00  0.00    -0.350 OA
BRANCH   8   9
HETATM    9  C3  UNL     1      -0.223   1.201  -0.331  1.00  0.00     0.133 C 
HETATM   10  C2  UNL     1      -0.897   2.082  -1.391  1.00  0.00     0.041 C 
HETATM   11  C1  UNL     1      -0.331   3.460  -1.432  1.00  0.00     0.015 C 
HETATM   12  C19 UNL     1      -2.332   2.000  -0.989  1.00  0.00     0.147 C 
HETATM   13  C13 UNL     1      -2.498   0.658  -0.277  1.00  0.00     0.118 C 
HETATM   14  C12 UNL     1      -1.125  -0.019  -0.397  1.00  0.00     0.060 C 
BRANCH  12  15
HETATM   15  O9  UNL     1      -2.673   3.042  -0.162  1.00  0.00    -0.393 OA
ATOM     16  H9  UNL     1      -3.586   2.990   0.094  1.00  0.00     0.210 HD
ENDBRANCH  12  15
BRANCH  13  17
HETATM   17  N4  UNL     1      -3.536  -0.104  -0.894  1.00  0.00    -0.330 N 
HETATM   18  C14 UNL     1      -4.607  -0.576  -0.100  1.00  0.00     0.361 C 
HETATM   19  O7  UNL     1      -4.672  -0.343   1.147  1.00  0.00    -0.238 OA
ATOM     20  H4  UNL     1      -3.506  -0.305  -1.894  1.00  0.00     0.165 HD
BRANCH  18  21
HETATM   21  O8  UNL     1      -5.669  -1.329  -0.614  1.00  0.00    -0.294 OA
BRANCH  21  22
HETATM   22  C15 UNL     1      -6.725  -1.787   0.209  1.00  0.00     0.061 C 
HETATM   23  C16 UNL     1      -7.454  -0.624   0.866  1.00  0.00     0.046 C 
HETATM   24  C17 UNL     1      -7.694  -2.537  -0.677  1.00  0.00     0.046 C 
HETATM   25  C18 UNL     1      -6.217  -2.685   1.314  1.00  0.00     0.046 C 
ENDBRANCH  21  22
ENDBRANCH  18  21
ENDBRANCH  13  17
ENDBRANCH   8   9
ENDBRANCH   1   8
BRANCH   7  26
HETATM   26  N2  UNL     1       2.462  -0.998  -0.304  1.00  0.00    -0.333 N 
HETATM   27  C11 UNL     1       2.030  -2.211   0.268  1.00  0.00     0.329 C 
HETATM   28  N3  UNL     1       1.662  -3.281  -0.576  1.00  0.00    -0.040 NA
HETATM   29  O6  UNL     1       1.961  -2.377   1.522  1.00  0.00    -0.251 OA
ATOM     30  H2  UNL     1       2.496  -0.927  -1.321  1.00  0.00     0.164 HD
ENDBRANCH   7  26
BRANCH   6  31
HETATM   31  O4  UNL     1       5.032  -0.763   0.407  1.00  0.00    -0.379 OA
BRANCH  31  32
HETATM   32  C8  UNL     1       5.754  -1.104  -0.728  1.00  0.00     0.194 C 
BRANCH  32  33
HETATM   33  C9  UNL     1       6.465  -2.418  -0.460  1.00  0.00     0.190 C 
BRANCH  33  34
HETATM   34  O5  UNL     1       7.338  -2.339   0.614  1.00  0.00    -0.399 OA
ATOM     35  H5  UNL     1       7.783  -3.161   0.782  1.00  0.00     0.209 HD
ENDBRANCH  33  34
ENDBRANCH  32  33
ENDBRANCH  31  32
ENDBRANCH   6  31
BRANCH   5  36
HETATM   36  N1  UNL     1       6.141   1.844   1.067  1.00  0.00    -0.070 N 
ATOM     37  H13 UNL     1       6.188   2.497   0.285  1.00  0.00     0.274 HD
ATOM     38  H12 UNL     1       6.475   2.465   1.804  1.00  0.00     0.274 HD
ATOM     39  H11 UNL     1       6.762   1.046   0.933  1.00  0.00     0.274 HD
ENDBRANCH   5  36
TORSDOF 12
