REMARK  14 active torsions:
REMARK  status: ('A' for Active; 'I' for Inactive)
REMARK    1  A    between atoms: N1_1  and  N2_4 
REMARK    2  A    between atoms: N2_4  and  N3_5 
REMARK    3  A    between atoms: N3_5  and  C1_7 
REMARK    4  A    between atoms: C2_8  and  C3_9 
REMARK    5  A    between atoms: C3_9  and  O1_10 
REMARK    6  A    between atoms: C4_13  and  O3_14 
REMARK    7  A    between atoms: O3_14  and  C5_15 
REMARK    8  A    between atoms: C6_17  and  C7_18 
REMARK    9  A    between atoms: C7_18  and  O5_19 
REMARK   10  A    between atoms: C8_21  and  N4_22 
REMARK   11  A    between atoms: N4_22  and  S1_24 
REMARK   12  A    between atoms: S1_24  and  N5_25 
REMARK   13  A    between atoms: C10_31  and  N6_32 
REMARK   14  A    between atoms: C11_36  and  C12_37 
ROOT
HETATM    1  O3  UNL     1      -0.646   0.374   0.369  1.00  0.00    -0.329 OA
ENDROOT
BRANCH   1   2
HETATM    2  C4  UNL     1      -1.418  -0.774   0.493  1.00  0.00     0.271 C 
HETATM    3  O2  UNL     1      -1.756  -0.908   1.837  1.00  0.00    -0.351 OA
HETATM    4  C2  UNL     1      -3.032  -1.463   1.861  1.00  0.00     0.174 C 
HETATM    5  C1  UNL     1      -3.758  -0.783   0.717  1.00  0.00     0.155 C 
HETATM    6  C11 UNL     1      -2.667  -0.763  -0.326  1.00  0.00     0.088 C 
BRANCH   4   7
HETATM    7  C3  UNL     1      -3.708  -1.288   3.185  1.00  0.00     0.198 C 
BRANCH   7   8
HETATM    8  O1  UNL     1      -2.945  -1.910   4.151  1.00  0.00    -0.398 OA
ATOM      9  H1  UNL     1      -3.374  -1.799   4.991  1.00  0.00     0.209 HD
ENDBRANCH   7   8
ENDBRANCH   4   7
BRANCH   5  10
HETATM   10  N3  UNL     1      -4.910  -1.547   0.287  1.00  0.00    -0.245 N 
ATOM     11  H3  UNL     1      -4.818  -2.402  -0.261  1.00  0.00     0.197 HD
BRANCH  10  12
HETATM   12  N2  UNL     1      -6.018  -1.097   0.626  1.00  0.00    -0.248 NA
BRANCH  12  13
HETATM   13  N1  UNL     1      -7.111  -0.615   0.955  1.00  0.00    -0.261 N 
ATOM     14  H12 UNL     1      -6.340  -0.053   0.595  1.00  0.00     0.193 HD
ATOM     15  H11 UNL     1      -8.020  -0.246   1.233  1.00  0.00     0.193 HD
ENDBRANCH  12  13
ENDBRANCH  10  12
ENDBRANCH   5  10
BRANCH   6  16
HETATM   16  C12 UNL     1      -2.800   0.370  -1.290  1.00  0.00     0.104 C 
HETATM   17  S2  UNL     1      -4.373   0.199  -2.206  1.00  0.00    -0.152 SA
HETATM   18  C13 UNL     1      -4.288   1.970  -1.813  1.00  0.00     0.127 C 
HETATM   19  C14 UNL     1      -3.233   1.683  -0.765  1.00  0.00     0.004 C 
HETATM   20  N7  UNL     1      -2.875   2.385   0.231  1.00  0.00    -0.404 N 
ATOM     21  H72 UNL     1      -2.164   2.192   0.937  1.00  0.00     0.155 HD
ATOM     22  H71 UNL     1      -3.174   3.291   0.593  1.00  0.00     0.155 HD
ENDBRANCH   6  16
ENDBRANCH   1   2
BRANCH   1  23
HETATM   23  C5  UNL     1       0.642   0.128  -0.040  1.00  0.00     0.293 C 
HETATM   24  O4  UNL     1       1.573   0.443   0.980  1.00  0.00    -0.350 OA
HETATM   25  C6  UNL     1       2.684  -0.382   0.701  1.00  0.00     0.171 C 
HETATM   26  C8  UNL     1       3.378   0.142  -0.492  1.00  0.00     0.127 C 
HETATM   27  C9  UNL     1       2.540   0.992  -1.424  1.00  0.00     0.066 C 
HETATM   28  C10 UNL     1       1.068   0.829  -1.301  1.00  0.00     0.240 C 
BRANCH  25  29
HETATM   29  C7  UNL     1       3.618  -0.404   1.891  1.00  0.00     0.198 C 
BRANCH  29  30
HETATM   30  O5  UNL     1       4.091   0.864   2.203  1.00  0.00    -0.398 OA
ATOM     31  H5  UNL     1       4.677   0.850   2.950  1.00  0.00     0.209 HD
ENDBRANCH  29  30
ENDBRANCH  25  29
BRANCH  26  32
HETATM   32  N4  UNL     1       3.908  -1.011  -1.240  1.00  0.00    -0.296 N 
ATOM     33  H4  UNL     1       3.349  -1.785  -1.600  1.00  0.00     0.174 HD
BRANCH  32  34
HETATM   34  S1  UNL     1       5.607  -0.856  -1.414  1.00  0.00     0.313 S 
HETATM   35  O6  UNL     1       6.120   0.088  -0.369  1.00  0.00    -0.183 OA
HETATM   36  O7  UNL     1       6.311  -2.193  -1.295  1.00  0.00    -0.183 OA
BRANCH  34  37
HETATM   37  N5  UNL     1       5.938  -0.147  -2.976  1.00  0.00    -0.312 N 
ATOM     38  H52 UNL     1       5.230   0.124  -3.658  1.00  0.00     0.170 HD
ATOM     39  H51 UNL     1       6.949  -0.055  -3.079  1.00  0.00     0.170 HD
ENDBRANCH  34  37
ENDBRANCH  32  34
ENDBRANCH  26  32
BRANCH  28  40
HETATM   40  N6  UNL     1       0.510   2.191  -1.204  1.00  0.00    -0.070 N 
ATOM     41  H63 UNL     1      -0.497   2.211  -1.045  1.00  0.00     0.274 HD
ATOM     42  H62 UNL     1       0.777   2.683  -0.351  1.00  0.00     0.274 HD
ATOM     43  H61 UNL     1       0.799   2.666  -2.059  1.00  0.00     0.274 HD
ENDBRANCH  28  40
ENDBRANCH   1  23
TORSDOF 14
