REMARK  2 active torsions:
REMARK  status: ('A' for Active; 'I' for Inactive)
REMARK       I    between atoms: N2_3  and  C2_4 
REMARK    1  A    between atoms: C2_4  and  C3_6 
REMARK       I    between atoms: N4_12  and  C7_13 
REMARK       I    between atoms: C7_13  and  N5_15 
REMARK    2  A    between atoms: N5_15  and  N6_17 
REMARK       I    between atoms: N6_17  and  C8_19 
ROOT
HETATM    1  N1  UNL     1      -3.904   0.700   4.271  1.00  0.00    -0.156 NA
HETATM    2  C1  UNL     1      -3.818   0.745   3.117  1.00  0.00     0.271 C 
HETATM    3  N2  UNL     1      -3.675   0.764   1.786  1.00  0.00    -0.292 NA
HETATM    4  C2  UNL     1      -3.537   0.788   0.449  1.00  0.00     0.310 C 
HETATM    5  O1  UNL     1      -4.268   1.464  -0.354  1.00  0.00    -0.256 OA
ENDROOT
BRANCH   4   6
HETATM    6  C3  UNL     1      -2.442  -0.032  -0.250  1.00  0.00     0.129 C 
HETATM    7  C4  UNL     1      -2.705  -1.497  -0.134  1.00  0.00     0.135 C 
HETATM    8  N3  UNL     1      -1.563  -2.300   0.076  1.00  0.00    -0.400 N 
HETATM    9  C5  UNL     1      -0.620  -2.429  -0.959  1.00  0.00     0.075 C 
ATOM     10  H3  UNL     1      -1.424  -2.780   0.965  1.00  0.00     0.158 HD
HETATM   11  C6  UNL     1      -0.192  -1.122  -1.609  1.00  0.00     0.171 C 
HETATM   12  N4  UNL     1      -0.063  -0.103  -0.601  1.00  0.00    -0.327 N 
HETATM   13  C7  UNL     1       1.190   0.515  -0.461  1.00  0.00     0.337 C 
HETATM   14  C9  UNL     1      -1.103   0.365   0.307  1.00  0.00     0.145 C 
HETATM   15  O2  UNL     1       1.274   1.414   0.465  1.00  0.00    -0.245 OA
HETATM   16  N5  UNL     1       2.352   0.281  -1.196  1.00  0.00    -0.249 N 
ATOM     17  H5  UNL     1       2.330  -0.416  -1.941  1.00  0.00     0.192 HD
BRANCH  16  18
HETATM   18  N6  UNL     1       3.562   0.976  -0.946  1.00  0.00    -0.270 N 
HETATM   19  C8  UNL     1       4.477   0.530   0.044  1.00  0.00     0.200 C 
HETATM   20  N7  UNL     1       4.099  -0.443   0.799  1.00  0.00    -0.372 N 
HETATM   21  N8  UNL     1       5.751   1.095   0.232  1.00  0.00    -0.062 NA
ATOM     22  H72 UNL     1       3.175  -0.853   0.663  1.00  0.00     0.158 HD
ATOM     23  H71 UNL     1       4.756  -0.763   1.510  1.00  0.00     0.158 HD
ATOM     24  H6  UNL     1       3.780   1.812  -1.488  1.00  0.00     0.189 HD
ENDBRANCH  16  18
ENDBRANCH   4   6
TORSDOF 2
