REMARK  2 active torsions:
REMARK  status: ('A' for Active; 'I' for Inactive)
REMARK       I    between atoms: C1_4  and  N3_6 
REMARK       I    between atoms: N3_6  and  C2_8 
REMARK    1  A    between atoms: C2_8  and  C3_10 
REMARK    2  A    between atoms: C6_16  and  N4_17 
REMARK       I    between atoms: N4_17  and  C7_19 
ROOT
HETATM    1  C3  UNL     1       0.060  -0.724   0.374  1.00  0.00     0.116 C 
HETATM    2  C4  UNL     1      -0.357  -2.055  -0.148  1.00  0.00     0.156 C 
HETATM    3  S1  UNL     1      -0.890  -1.672  -1.823  1.00  0.00     0.147 S 
HETATM    4  O2  UNL     1       0.066  -2.203  -2.830  1.00  0.00    -0.228 OA
HETATM    5  O3  UNL     1      -2.290  -2.128  -2.028  1.00  0.00    -0.228 OA
HETATM    6  C5  UNL     1      -0.807   0.123  -1.734  1.00  0.00     0.166 C 
HETATM    7  C6  UNL     1      -0.818   0.325  -0.252  1.00  0.00     0.113 C 
ENDROOT
BRANCH   1   8
HETATM    8  C2  UNL     1       1.497  -0.446   0.204  1.00  0.00     0.231 C 
HETATM    9  N3  UNL     1       2.049   0.789   0.654  1.00  0.00    -0.301 N 
HETATM   10  C1  UNL     1       3.402   1.127   0.530  1.00  0.00     0.188 C 
ATOM     11  H3  UNL     1       1.423   1.465   1.091  1.00  0.00     0.171 HD
HETATM   12  N1  UNL     1       3.863   2.244   0.945  1.00  0.00    -0.373 N 
HETATM   13  N2  UNL     1       4.308   0.213  -0.074  1.00  0.00    -0.064 NA
ATOM     14  H12 UNL     1       4.849   2.490   0.855  1.00  0.00     0.158 HD
ATOM     15  H11 UNL     1       3.213   2.900   1.378  1.00  0.00     0.158 HD
HETATM   16  O1  UNL     1       2.269  -1.277  -0.334  1.00  0.00    -0.273 OA
ENDBRANCH   1   8
BRANCH   7  17
HETATM   17  N4  UNL     1      -2.172   0.114   0.242  1.00  0.00    -0.339 N 
HETATM   18  C7  UNL     1      -2.830   1.099   1.020  1.00  0.00     0.329 C 
HETATM   19  N5  UNL     1      -4.146   0.877   1.492  1.00  0.00    -0.040 NA
HETATM   20  O4  UNL     1      -2.225   2.164   1.280  1.00  0.00    -0.251 OA
ATOM     21  H4  UNL     1      -2.655  -0.758   0.024  1.00  0.00     0.164 HD
ENDBRANCH   7  17
TORSDOF 2
