REMARK  14 active torsions:
REMARK  status: ('A' for Active; 'I' for Inactive)
REMARK    1  A    between atoms: O1_2  and  C2_3 
REMARK    2  A    between atoms: C2_3  and  C3_5 
REMARK    3  A    between atoms: C6_10  and  N2_11 
REMARK    4  A    between atoms: N2_11  and  C7_13 
REMARK    5  A    between atoms: C7_13  and  C8_14 
REMARK    6  A    between atoms: C8_14  and  C9_15 
REMARK    7  A    between atoms: C9_15  and  O3_16 
REMARK    8  A    between atoms: O3_16  and  C10_17 
REMARK    9  A    between atoms: C12_19  and  O4_20 
REMARK   10  A    between atoms: C17_26  and  N4_27 
REMARK   11  A    between atoms: N4_27  and  C18_29 
REMARK   12  A    between atoms: C18_29  and  C19_30 
REMARK   13  A    between atoms: C19_30  and  C20_31 
REMARK   14  A    between atoms: C20_31  and  N5_32 
ROOT
HETATM    1  C3  UNL     1      -3.642   4.041  -0.041  1.00  0.00     0.112 A 
HETATM    2  C4  UNL     1      -2.290   4.167  -0.275  1.00  0.00     0.069 A 
HETATM    3  C5  UNL     1      -1.756   2.897  -0.179  1.00  0.00     0.080 A 
HETATM    4  N1  UNL     1      -0.492   2.407  -0.312  1.00  0.00    -0.337 N 
ATOM      5  H1  UNL     1       0.276   3.043  -0.526  1.00  0.00     0.168 HD
HETATM    6  C6  UNL     1      -0.247   1.094  -0.164  1.00  0.00     0.146 A 
HETATM    7  C17 UNL     1      -1.279   0.190   0.130  1.00  0.00     0.147 A 
HETATM    8  N6  UNL     1      -2.515   0.690   0.257  1.00  0.00    -0.324 N 
ATOM      9  H6  UNL     1      -3.285   0.056   0.471  1.00  0.00     0.169 HD
HETATM   10  C23 UNL     1      -2.777   2.022   0.109  1.00  0.00     0.135 A 
HETATM   11  N7  UNL     1      -3.902   2.744   0.186  1.00  0.00    -0.336 N 
ATOM     12  H7  UNL     1      -4.826   2.362   0.389  1.00  0.00     0.168 HD
ENDROOT
BRANCH   6  13
HETATM   13  N2  UNL     1       0.902   0.587  -0.275  1.00  0.00    -0.373 N 
ATOM     14  H2  UNL     1       0.945  -0.423  -0.138  1.00  0.00     0.161 HD
BRANCH  13  15
HETATM   15  C7  UNL     1       2.138   1.207  -0.560  1.00  0.00     0.123 C 
BRANCH  15  16
HETATM   16  C8  UNL     1       2.834   0.627  -1.781  1.00  0.00     0.046 C 
BRANCH  16  17
HETATM   17  C9  UNL     1       4.145   1.328  -2.033  1.00  0.00     0.177 C 
BRANCH  17  18
HETATM   18  O3  UNL     1       4.993   1.218  -0.981  1.00  0.00    -0.349 OA
BRANCH  18  19
HETATM   19  C10 UNL     1       5.636   0.203  -0.345  1.00  0.00     0.095 A 
HETATM   20  C11 UNL     1       5.591  -1.131  -0.669  1.00  0.00     0.075 A 
HETATM   21  C12 UNL     1       6.308  -2.074   0.075  1.00  0.00     0.070 A 
HETATM   22  C14 UNL     1       7.083  -1.725   1.151  1.00  0.00     0.039 A 
HETATM   23  C15 UNL     1       7.137  -0.394   1.485  1.00  0.00     0.032 A 
HETATM   24  C16 UNL     1       6.438   0.540   0.764  1.00  0.00     0.079 A 
HETATM   25  N3  UNL     1       6.497   1.929   1.116  1.00  0.00    -0.100 NA
BRANCH  21  26
HETATM   26  O4  UNL     1       6.209  -3.395  -0.315  1.00  0.00    -0.356 OA
HETATM   27  C13 UNL     1       6.866  -4.444   0.331  1.00  0.00     0.210 C 
ENDBRANCH  21  26
ENDBRANCH  18  19
ENDBRANCH  17  18
ENDBRANCH  16  17
ENDBRANCH  15  16
ENDBRANCH  13  15
ENDBRANCH   6  13
BRANCH   7  28
HETATM   28  N4  UNL     1      -1.004  -1.053   0.260  1.00  0.00    -0.373 N 
ATOM     29  H4  UNL     1      -0.024  -1.308   0.138  1.00  0.00     0.161 HD
BRANCH  28  30
HETATM   30  C18 UNL     1      -1.892  -2.122   0.553  1.00  0.00     0.123 C 
BRANCH  30  31
HETATM   31  C19 UNL     1      -2.680  -2.601  -0.638  1.00  0.00     0.050 C 
BRANCH  31  32
HETATM   32  C20 UNL     1      -3.569  -3.736  -0.189  1.00  0.00     0.273 C 
BRANCH  32  33
HETATM   33  N5  UNL     1      -4.493  -3.365   0.839  1.00  0.00     0.080 N 
HETATM   34  C21 UNL     1      -5.522  -2.443   0.397  1.00  0.00     0.309 C 
HETATM   35  C22 UNL     1      -5.081  -4.528   1.458  1.00  0.00     0.309 C 
ENDBRANCH  32  33
ENDBRANCH  31  32
ENDBRANCH  30  31
ENDBRANCH  28  30
ENDBRANCH   7  28
BRANCH   1  36
HETATM   36  C2  UNL     1      -4.619   5.151  -0.044  1.00  0.00     0.309 C 
HETATM   37  O2  UNL     1      -4.268   6.320  -0.267  1.00  0.00    -0.258 OA
BRANCH  36  38
HETATM   38  O1  UNL     1      -5.942   4.875   0.207  1.00  0.00    -0.321 OA
HETATM   39  C1  UNL     1      -6.962   5.864   0.229  1.00  0.00     0.213 C 
ENDBRANCH  36  38
ENDBRANCH   1  36
TORSDOF 14
