REMARK  23 active torsions:
REMARK  status: ('A' for Active; 'I' for Inactive)
REMARK    1  A    between atoms: C2_2  and  C3_3 
REMARK    2  A    between atoms: C3_3  and  N1_4 
REMARK    3  A    between atoms: N1_4  and  C4_6 
REMARK    4  A    between atoms: C4_6  and  C5_7 
REMARK    5  A    between atoms: C5_7  and  N2_8 
REMARK    6  A    between atoms: C5_7  and  C6_12 
REMARK    7  A    between atoms: C6_12  and  N3_13 
REMARK    8  A    between atoms: C6_12  and  C33_55 
REMARK       I    between atoms: N3_13  and  C7_15 
REMARK    9  A    between atoms: C7_15  and  C8_17 
REMARK   10  A    between atoms: C8_17  and  C9_18 
REMARK   11  A    between atoms: C8_17  and  N4_22 
REMARK   12  A    between atoms: C9_18  and  C10_19 
REMARK       I    between atoms: N4_22  and  C13_24 
REMARK   13  A    between atoms: C13_24  and  C14_26 
REMARK   14  A    between atoms: N5_30  and  C18_31 
REMARK   15  A    between atoms: C18_31  and  O3_32 
REMARK   16  A    between atoms: C18_31  and  C19_34 
REMARK   17  A    between atoms: C19_34  and  N6_35 
REMARK   18  A    between atoms: C19_34  and  C30_52 
REMARK       I    between atoms: N6_35  and  C20_37 
REMARK   19  A    between atoms: C20_37  and  C21_39 
REMARK   20  A    between atoms: C21_39  and  N7_40 
REMARK   21  A    between atoms: C21_39  and  C27_49 
REMARK       I    between atoms: N7_40  and  C22_42 
REMARK   22  A    between atoms: C22_42  and  O6_44 
REMARK   23  A    between atoms: O6_44  and  C23_45 
ROOT
HETATM    1  C14 UNL     1      -0.733   0.449   0.650  1.00  0.00     0.178 C 
HETATM    2  C15 UNL     1      -0.878  -1.103   0.627  1.00  0.00     0.037 C 
HETATM    3  C16 UNL     1      -0.630  -1.269  -0.877  1.00  0.00     0.022 C 
HETATM    4  C17 UNL     1      -1.317  -0.113  -1.495  1.00  0.00     0.126 C 
HETATM    5  N5  UNL     1      -1.744   0.778  -0.315  1.00  0.00    -0.350 N 
ENDROOT
BRANCH   1   6
HETATM    6  C13 UNL     1       0.628   0.700   0.029  1.00  0.00     0.241 C 
HETATM    7  N4  UNL     1       1.783   0.056   0.465  1.00  0.00    -0.346 N 
ATOM      8  H4  UNL     1       1.727  -0.500   1.318  1.00  0.00     0.163 HD
HETATM    9  O2  UNL     1       0.588   1.499  -0.908  1.00  0.00    -0.271 OA
BRANCH   7  10
HETATM   10  C8  UNL     1       3.057   0.126  -0.217  1.00  0.00     0.177 C 
BRANCH  10  11
HETATM   11  C7  UNL     1       4.227  -0.069   0.615  1.00  0.00     0.244 C 
HETATM   12  N3  UNL     1       5.231  -0.973   0.247  1.00  0.00    -0.330 N 
ATOM     13  H3  UNL     1       4.894  -1.436  -0.597  1.00  0.00     0.168 HD
HETATM   14  O1  UNL     1       4.356   0.577   1.681  1.00  0.00    -0.271 OA
BRANCH  12  15
HETATM   15  C6  UNL     1       6.474  -1.523   0.510  1.00  0.00     0.025 C 
BRANCH  15  16
HETATM   16  C5  UNL     1       7.288  -1.065   1.625  1.00  0.00     0.246 C 
BRANCH  16  17
HETATM   17  C4  UNL     1       8.663  -1.671   1.802  1.00  0.00     0.152 C 
BRANCH  17  18
HETATM   18  N1  UNL     1       9.623  -1.416   0.782  1.00  0.00    -0.419 N 
ATOM     19  H1  UNL     1       9.950  -2.187   0.200  1.00  0.00     0.153 HD
BRANCH  18  20
HETATM   20  C3  UNL     1      10.125  -0.137   0.562  1.00  0.00     0.113 C 
BRANCH  20  21
HETATM   21  C2  UNL     1      11.247  -0.178  -0.502  1.00  0.00     0.015 C 
HETATM   22  C1  UNL     1      11.656   1.288  -0.667  1.00  0.00     0.006 C 
ENDBRANCH  20  21
ENDBRANCH  18  20
ENDBRANCH  17  18
ENDBRANCH  16  17
BRANCH  16  23
HETATM   23  N2  UNL     1       7.495   0.360   1.614  1.00  0.00    -0.068 N 
ATOM     24  H23 UNL     1       7.995   0.708   2.432  1.00  0.00     0.275 HD
ATOM     25  H22 UNL     1       8.173   0.671   0.918  1.00  0.00     0.275 HD
ATOM     26  H21 UNL     1       6.568   0.769   1.495  1.00  0.00     0.275 HD
ENDBRANCH  16  23
ENDBRANCH  15  16
BRANCH  15  27
HETATM   27  C33 UNL     1       6.414  -2.990   0.193  1.00  0.00     0.025 C 
HETATM   28  C34 UNL     1       7.654  -3.652  -0.325  1.00  0.00     0.016 C 
HETATM   29  C35 UNL     1       5.986  -3.754   1.483  1.00  0.00     0.016 C 
ENDBRANCH  15  27
ENDBRANCH  12  15
ENDBRANCH  10  11
BRANCH  10  30
HETATM   30  C9  UNL     1       3.135   1.303  -1.128  1.00  0.00     0.038 C 
BRANCH  30  31
HETATM   31  C10 UNL     1       4.215   1.391  -2.151  1.00  0.00    -0.020 C 
HETATM   32  C11 UNL     1       5.621   1.454  -1.754  1.00  0.00     0.009 C 
HETATM   33  C12 UNL     1       3.974   0.271  -3.213  1.00  0.00     0.009 C 
ENDBRANCH  30  31
ENDBRANCH  10  30
ENDBRANCH   7  10
ENDBRANCH   1   6
BRANCH   5  34
HETATM   34  C18 UNL     1      -2.920   1.473  -0.482  1.00  0.00     0.138 C 
BRANCH  34  35
HETATM   35  O3  UNL     1      -3.312   1.520  -1.755  1.00  0.00    -0.348 OA
ATOM     36  H3  UNL     1      -4.124   2.000  -1.870  1.00  0.00     0.219 HD
ENDBRANCH  34  35
BRANCH  34  37
HETATM   37  C19 UNL     1      -3.857   2.167   0.390  1.00  0.00     0.162 C 
BRANCH  37  38
HETATM   38  N6  UNL     1      -5.211   1.914  -0.155  1.00  0.00    -0.347 N 
HETATM   39  C20 UNL     1      -6.285   2.811  -0.149  1.00  0.00     0.241 C 
HETATM   40  O4  UNL     1      -6.267   3.954   0.326  1.00  0.00    -0.271 OA
ATOM     41  H6  UNL     1      -5.376   0.999  -0.574  1.00  0.00     0.163 HD
BRANCH  39  42
HETATM   42  C21 UNL     1      -7.567   2.276  -0.791  1.00  0.00     0.182 C 
BRANCH  42  43
HETATM   43  N7  UNL     1      -8.064   1.266   0.154  1.00  0.00    -0.323 N 
HETATM   44  C22 UNL     1      -8.528   0.008  -0.345  1.00  0.00     0.362 C 
HETATM   45  O5  UNL     1      -8.550  -0.191  -1.604  1.00  0.00    -0.238 OA
ATOM     46  H7  UNL     1      -8.078   1.460   1.155  1.00  0.00     0.165 HD
BRANCH  44  47
HETATM   47  O6  UNL     1      -8.935  -0.991   0.489  1.00  0.00    -0.294 OA
BRANCH  47  48
HETATM   48  C23 UNL     1      -9.421  -2.256   0.076  1.00  0.00     0.061 C 
HETATM   49  C24 UNL     1      -8.482  -2.993  -0.846  1.00  0.00     0.046 C 
HETATM   50  C25 UNL     1     -10.810  -2.204  -0.459  1.00  0.00     0.046 C 
HETATM   51  C26 UNL     1      -9.459  -3.127   1.358  1.00  0.00     0.046 C 
ENDBRANCH  47  48
ENDBRANCH  44  47
ENDBRANCH  42  43
BRANCH  42  52
HETATM   52  C27 UNL     1      -8.545   3.424  -0.820  1.00  0.00     0.009 C 
HETATM   53  C28 UNL     1      -9.843   2.970  -1.465  1.00  0.00     0.012 C 
HETATM   54  C29 UNL     1      -8.839   3.903   0.596  1.00  0.00     0.012 C 
ENDBRANCH  42  52
ENDBRANCH  39  42
ENDBRANCH  37  38
BRANCH  37  55
HETATM   55  C30 UNL     1      -3.902   1.802   1.833  1.00  0.00     0.008 C 
HETATM   56  C31 UNL     1      -4.200   0.359   2.122  1.00  0.00     0.012 C 
HETATM   57  C32 UNL     1      -2.884   2.455   2.694  1.00  0.00     0.012 C 
ENDBRANCH  37  55
ENDBRANCH  34  37
ENDBRANCH   5  34
TORSDOF 23
