REMARK  24 active torsions:
REMARK  status: ('A' for Active; 'I' for Inactive)
REMARK    1  A    between atoms: C2_2  and  C3_3 
REMARK    2  A    between atoms: C3_3  and  N1_4 
REMARK    3  A    between atoms: C3_3  and  C9_16 
REMARK       I    between atoms: N1_4  and  C4_6 
REMARK    4  A    between atoms: C4_6  and  C5_8 
REMARK    5  A    between atoms: C5_8  and  N2_9 
REMARK    6  A    between atoms: C5_8  and  C6_13 
REMARK       I    between atoms: C9_16  and  N3_18 
REMARK    7  A    between atoms: N3_18  and  C10_20 
REMARK    8  A    between atoms: C10_20  and  C11_21 
REMARK    9  A    between atoms: C10_20  and  C18_28 
REMARK   10  A    between atoms: C11_21  and  C12_22 
REMARK   11  A    between atoms: C18_28  and  O3_29 
REMARK   12  A    between atoms: C18_28  and  N4_31 
REMARK   13  A    between atoms: N4_31  and  C19_33 
REMARK   14  A    between atoms: C19_33  and  C20_34 
REMARK   15  A    between atoms: C19_33  and  C34_56 
REMARK       I    between atoms: C20_34  and  N5_36 
REMARK   16  A    between atoms: N5_36  and  C21_38 
REMARK   17  A    between atoms: C21_38  and  C22_39 
REMARK   18  A    between atoms: C21_38  and  C31_53 
REMARK   19  A    between atoms: C22_39  and  O5_40 
REMARK   20  A    between atoms: C22_39  and  N6_42 
REMARK   21  A    between atoms: N6_42  and  C23_44 
REMARK   22  A    between atoms: C23_44  and  C24_45 
REMARK   23  A    between atoms: C23_44  and  C26_47 
REMARK   24  A    between atoms: C26_47  and  C27_49 
ROOT
HETATM    1  C18 UNL     1       1.629  -0.527  -0.791  1.00  0.00     0.135 C 
ENDROOT
BRANCH   1   2
HETATM    2  C10 UNL     1       2.813   0.319  -0.923  1.00  0.00     0.159 C 
BRANCH   2   3
HETATM    3  N3  UNL     1       3.310   0.576   0.458  1.00  0.00    -0.347 N 
HETATM    4  C9  UNL     1       4.658   0.403   0.829  1.00  0.00     0.241 C 
HETATM    5  O2  UNL     1       5.457   0.016  -0.060  1.00  0.00    -0.271 OA
ATOM      6  H3  UNL     1       2.646   0.891   1.165  1.00  0.00     0.163 HD
BRANCH   4   7
HETATM    7  C3  UNL     1       5.157   0.654   2.187  1.00  0.00     0.176 C 
BRANCH   7   8
HETATM    8  C2  UNL     1       4.720   2.044   2.648  1.00  0.00     0.030 C 
HETATM    9  C1  UNL     1       5.115   2.323   4.065  1.00  0.00     0.007 C 
ENDBRANCH   7   8
BRANCH   7  10
HETATM   10  N1  UNL     1       6.583   0.487   2.247  1.00  0.00    -0.346 N 
HETATM   11  C4  UNL     1       7.265  -0.412   3.107  1.00  0.00     0.249 C 
HETATM   12  O1  UNL     1       6.632  -1.162   3.903  1.00  0.00    -0.271 OA
ATOM     13  H1  UNL     1       7.150   1.060   1.622  1.00  0.00     0.163 HD
BRANCH  11  14
HETATM   14  C5  UNL     1       8.741  -0.499   3.103  1.00  0.00     0.278 C 
BRANCH  14  15
HETATM   15  N2  UNL     1       9.273   0.450   2.127  1.00  0.00    -0.066 N 
ATOM     16  H23 UNL     1       8.874   0.316   1.198  1.00  0.00     0.275 HD
ATOM     17  H22 UNL     1       8.941   1.401   2.289  1.00  0.00     0.275 HD
ATOM     18  H21 UNL     1      10.291   0.390   2.124  1.00  0.00     0.275 HD
ENDBRANCH  14  15
BRANCH  14  19
HETATM   19  C6  UNL     1       9.280  -1.882   2.887  1.00  0.00     0.017 C 
HETATM   20  C7  UNL     1      10.795  -1.799   2.911  1.00  0.00     0.012 C 
HETATM   21  C8  UNL     1       8.850  -2.475   1.566  1.00  0.00     0.012 C 
ENDBRANCH  14  19
ENDBRANCH  11  14
ENDBRANCH   7  10
ENDBRANCH   4   7
ENDBRANCH   2   3
BRANCH   2  22
HETATM   22  C11 UNL     1       2.717   1.624  -1.595  1.00  0.00     0.038 C 
BRANCH  22  23
HETATM   23  C12 UNL     1       2.349   1.663  -3.033  1.00  0.00    -0.012 C 
HETATM   24  C13 UNL     1       2.336   3.147  -3.452  1.00  0.00     0.005 C 
HETATM   25  C14 UNL     1       1.562   3.215  -4.752  1.00  0.00     0.000 C 
HETATM   26  C15 UNL     1       1.703   1.919  -5.491  1.00  0.00     0.000 C 
HETATM   27  C16 UNL     1       3.055   1.266  -5.340  1.00  0.00     0.000 C 
HETATM   28  C17 UNL     1       3.423   1.003  -3.900  1.00  0.00     0.005 C 
ENDBRANCH  22  23
ENDBRANCH   2  22
ENDBRANCH   1   2
BRANCH   1  29
HETATM   29  O3  UNL     1       1.829  -1.552  -0.005  1.00  0.00    -0.348 OA
ATOM     30  H3  UNL     1       1.059  -2.102   0.081  1.00  0.00     0.219 HD
ENDBRANCH   1  29
BRANCH   1  31
HETATM   31  N4  UNL     1       0.358  -0.449  -1.323  1.00  0.00    -0.359 N 
ATOM     32  H4  UNL     1       0.145   0.346  -1.925  1.00  0.00     0.162 HD
BRANCH  31  33
HETATM   33  C19 UNL     1      -0.709  -1.428  -1.084  1.00  0.00     0.179 C 
BRANCH  33  34
HETATM   34  C20 UNL     1      -1.517  -1.039   0.096  1.00  0.00     0.241 C 
HETATM   35  O4  UNL     1      -1.205  -0.055   0.854  1.00  0.00    -0.271 OA
HETATM   36  N5  UNL     1      -2.677  -1.756   0.429  1.00  0.00    -0.347 N 
ATOM     37  H5  UNL     1      -2.961  -2.531  -0.171  1.00  0.00     0.163 HD
BRANCH  36  38
HETATM   38  C21 UNL     1      -3.501  -1.437   1.608  1.00  0.00     0.162 C 
BRANCH  38  39
HETATM   39  C22 UNL     1      -4.597  -0.556   1.253  1.00  0.00     0.135 C 
BRANCH  39  40
HETATM   40  O5  UNL     1      -4.314   0.469   0.480  1.00  0.00    -0.348 OA
ATOM     41  H5  UNL     1      -5.032   1.046   0.247  1.00  0.00     0.219 HD
ENDBRANCH  39  40
BRANCH  39  42
HETATM   42  N6  UNL     1      -5.939  -0.625   1.607  1.00  0.00    -0.361 N 
ATOM     43  H6  UNL     1      -6.247  -1.407   2.186  1.00  0.00     0.162 HD
BRANCH  42  44
HETATM   44  C23 UNL     1      -6.937   0.368   1.192  1.00  0.00     0.153 C 
BRANCH  44  45
HETATM   45  C24 UNL     1      -7.736   0.916   2.317  1.00  0.00     0.028 C 
HETATM   46  C25 UNL     1      -6.833   1.600   3.349  1.00  0.00     0.007 C 
ENDBRANCH  44  45
BRANCH  44  47
HETATM   47  C26 UNL     1      -7.718  -0.109   0.021  1.00  0.00     0.157 C 
HETATM   48  O6  UNL     1      -7.359  -1.168  -0.492  1.00  0.00    -0.295 OA
BRANCH  47  49
HETATM   49  C27 UNL     1      -8.873   0.613  -0.526  1.00  0.00     0.012 C 
HETATM   50  C28 UNL     1      -8.583   2.093  -0.784  1.00  0.00     0.022 C 
HETATM   51  C29 UNL     1      -9.160   0.063  -1.946  1.00  0.00     0.022 C 
HETATM   52  C30 UNL     1     -10.156   0.454   0.215  1.00  0.00     0.022 C 
ENDBRANCH  47  49
ENDBRANCH  44  47
ENDBRANCH  42  44
ENDBRANCH  39  42
ENDBRANCH  38  39
BRANCH  38  53
HETATM   53  C31 UNL     1      -3.766  -2.675   2.320  1.00  0.00     0.008 C 
HETATM   54  C32 UNL     1      -4.531  -2.600   3.613  1.00  0.00     0.012 C 
HETATM   55  C33 UNL     1      -2.469  -3.490   2.572  1.00  0.00     0.012 C 
ENDBRANCH  38  53
ENDBRANCH  36  38
ENDBRANCH  33  34
BRANCH  33  56
HETATM   56  C34 UNL     1      -1.558  -1.665  -2.264  1.00  0.00     0.009 C 
HETATM   57  C35 UNL     1      -2.259  -0.412  -2.768  1.00  0.00     0.012 C 
HETATM   58  C36 UNL     1      -0.793  -2.322  -3.417  1.00  0.00     0.012 C 
ENDBRANCH  33  56
ENDBRANCH  31  33
ENDBRANCH   1  31
TORSDOF 24
