REMARK  7 active torsions:
REMARK  status: ('A' for Active; 'I' for Inactive)
REMARK    1  A    between atoms: N1_2  and  N2_3 
REMARK    2  A    between atoms: N1_2  and  S1_6 
REMARK    3  A    between atoms: N2_3  and  O1_4 
REMARK    4  A    between atoms: S1_6  and  N3_9 
REMARK    5  A    between atoms: C2_10  and  N4_11 
REMARK    6  A    between atoms: C3_16  and  N6_17 
REMARK    7  A    between atoms: C8_27  and  N9_28 
ROOT
HETATM    1  N3  UNL     1       1.541   0.179   0.864  1.00  0.00     0.118 N 
HETATM    2  C2  UNL     1       0.768  -0.922   0.873  1.00  0.00     0.722 A 
HETATM    3  N5  UNL     1      -0.538  -0.810   0.611  1.00  0.00    -0.020 N 
ATOM      4  H5  UNL     1      -1.104  -1.659   0.624  1.00  0.00     0.203 HD
HETATM    5  C3  UNL     1      -1.151   0.352   0.332  1.00  0.00     0.709 A 
HETATM    6  N8  UNL     1      -0.349   1.447   0.329  1.00  0.00    -0.020 N 
ATOM      7  H8  UNL     1      -0.755   2.360   0.124  1.00  0.00     0.203 HD
HETATM    8  C8  UNL     1       0.960   1.358   0.588  1.00  0.00     0.722 A 
ENDROOT
BRANCH   1   9
HETATM    9  S1  UNL     1       3.219   0.152   1.183  1.00  0.00     0.354 S 
HETATM   10  O2  UNL     1       3.751   1.553   1.178  1.00  0.00    -0.185 OA
HETATM   11  O3  UNL     1       3.507  -0.447   2.554  1.00  0.00    -0.185 OA
BRANCH   9  12
HETATM   12  N1  UNL     1       4.095  -0.800   0.047  1.00  0.00    -0.084 NA
HETATM   13  C1  UNL     1       4.481   0.101  -1.044  1.00  0.00     0.155 C 
BRANCH  12  14
HETATM   14  N2  UNL     1       5.301  -1.245   0.615  1.00  0.00     0.008 NA
BRANCH  14  15
HETATM   15  O1  UNL     1       5.856  -2.240  -0.083  1.00  0.00    -0.280 OA
ATOM     16  H1  UNL     1       6.671  -2.541   0.301  1.00  0.00     0.240 HD
ENDBRANCH  14  15
ENDBRANCH  12  14
ENDBRANCH   9  12
ENDBRANCH   1   9
BRANCH   2  17
HETATM   17  N4  UNL     1       1.298  -2.045   1.131  1.00  0.00    -0.232 N 
ATOM     18  H42 UNL     1       2.295  -2.130   1.331  1.00  0.00     0.174 HD
ATOM     19  H41 UNL     1       0.712  -2.880   1.138  1.00  0.00     0.174 HD
ENDBRANCH   2  17
BRANCH   8  20
HETATM   20  N9  UNL     1       1.680   2.454   0.569  1.00  0.00    -0.232 N 
ATOM     21  H92 UNL     1       2.678   2.386   0.767  1.00  0.00     0.174 HD
ATOM     22  H91 UNL     1       1.239   3.349   0.359  1.00  0.00     0.174 HD
ENDBRANCH   8  20
BRANCH   5  23
HETATM   23  N6  UNL     1      -2.535   0.433   0.060  1.00  0.00    -0.213 N 
HETATM   24  C4  UNL     1      -3.512   0.643   1.094  1.00  0.00     0.168 C 
HETATM   25  C5  UNL     1      -4.775  -0.143   0.870  1.00  0.00     0.252 C 
HETATM   26  N7  UNL     1      -5.208  -0.090  -0.521  1.00  0.00    -0.072 N 
HETATM   27  C6  UNL     1      -4.146  -0.675  -1.324  1.00  0.00     0.252 C 
ATOM     28  H72 UNL     1      -6.115  -0.532  -0.674  1.00  0.00     0.277 HD
ATOM     29  H71 UNL     1      -5.467   0.849  -0.824  1.00  0.00     0.277 HD
HETATM   30  C7  UNL     1      -2.986   0.299  -1.308  1.00  0.00     0.168 C 
ENDBRANCH   5  23
TORSDOF 7
