REMARK  5 active torsions:
REMARK  status: ('A' for Active; 'I' for Inactive)
REMARK    1  A    between atoms: C2_2  and  N1_4 
REMARK       I    between atoms: N1_4  and  C4_6 
REMARK    2  A    between atoms: C4_6  and  C5_8 
REMARK    3  A    between atoms: C5_8  and  N2_9 
REMARK    4  A    between atoms: C5_8  and  C7_16 
REMARK       I    between atoms: N2_9  and  C6_11 
REMARK    5  A    between atoms: C12_22  and  C13_23 
ROOT
HETATM    1  C5  UNL     1       0.232   1.161   0.105  1.00  0.00     0.114 C 
ENDROOT
BRANCH   1   2
HETATM    2  C4  UNL     1       1.634   0.785  -0.284  1.00  0.00     0.269 C 
HETATM    3  N1  UNL     1       2.175  -0.422   0.186  1.00  0.00    -0.352 N 
ATOM      4  H1  UNL     1       1.603  -1.022   0.780  1.00  0.00     0.163 HD
HETATM    5  O1  UNL     1       2.343   1.499  -1.014  1.00  0.00    -0.266 OA
BRANCH   3   6
HETATM    6  C2  UNL     1       3.533  -0.846  -0.150  1.00  0.00     0.076 C 
HETATM    7  C1  UNL     1       4.378  -1.029   1.083  1.00  0.00     0.032 C 
HETATM    8  C3  UNL     1       3.470  -2.176  -0.870  1.00  0.00     0.032 C 
ENDBRANCH   3   6
ENDBRANCH   1   2
BRANCH   1   9
HETATM    9  N2  UNL     1      -0.305   2.298  -0.524  1.00  0.00    -0.326 N 
HETATM   10  C6  UNL     1       0.018   2.761  -1.782  1.00  0.00     0.186 C 
HETATM   11  N3  UNL     1       0.736   3.860  -1.841  1.00  0.00    -0.373 N 
HETATM   12  N4  UNL     1      -0.345   2.194  -2.994  1.00  0.00    -0.064 NA
ATOM     13  H32 UNL     1       1.003   4.277  -0.949  1.00  0.00     0.158 HD
ATOM     14  H31 UNL     1       0.975   4.202  -2.772  1.00  0.00     0.158 HD
ATOM     15  H2  UNL     1      -0.999   2.831  -0.000  1.00  0.00     0.169 HD
ENDBRANCH   1   9
BRANCH   1  16
HETATM   16  C7  UNL     1      -0.426   0.358   1.098  1.00  0.00     0.003 A 
HETATM   17  C8  UNL     1       0.155   0.206   2.380  1.00  0.00     0.016 A 
HETATM   18  C9  UNL     1      -0.393  -0.468   3.436  1.00  0.00     0.020 A 
HETATM   19  C10 UNL     1      -1.604  -1.054   3.263  1.00  0.00     0.011 A 
HETATM   20 BR1  UNL     1      -2.456  -2.016   4.675  1.00  0.00    -0.051 Br
HETATM   21  C11 UNL     1      -2.199  -0.928   2.029  1.00  0.00     0.027 A 
HETATM   22  C12 UNL     1      -1.655  -0.243   0.928  1.00  0.00    -0.037 A 
BRANCH  22  23
HETATM   23  C13 UNL     1      -2.364  -0.262  -0.325  1.00  0.00    -0.023 C 
HETATM   24  C14 UNL     1      -1.671  -0.915  -1.495  1.00  0.00     0.019 C 
HETATM   25  C15 UNL     1      -3.203   0.931  -0.693  1.00  0.00     0.019 C 
HETATM   26  C16 UNL     1      -3.486  -1.349  -0.127  1.00  0.00     0.019 C 
ENDBRANCH  22  23
ENDBRANCH   1  16
TORSDOF 5
