REMARK  8 active torsions:
REMARK  status: ('A' for Active; 'I' for Inactive)
REMARK    1  A    between atoms: C2_2  and  C4_4 
REMARK    2  A    between atoms: C4_4  and  N1_6 
REMARK    3  A    between atoms: N1_6  and  N2_8 
REMARK       I    between atoms: N2_8  and  C5_10 
REMARK    4  A    between atoms: C5_10  and  C6_12 
REMARK    5  A    between atoms: C6_12  and  N3_13 
REMARK    6  A    between atoms: N3_13  and  C7_15 
REMARK    7  A    between atoms: C7_15  and  N4_17 
REMARK    8  A    between atoms: N4_17  and  C8_19 
ROOT
HETATM    1  N3  UNL     1       0.893  -1.646   0.028  1.00  0.00    -0.358 N 
ATOM      2  H3  UNL     1       0.957  -2.454   0.648  1.00  0.00     0.162 HD
ENDROOT
BRANCH   1   3
HETATM    3  C6  UNL     1      -0.357  -1.342  -0.604  1.00  0.00     0.226 C 
BRANCH   3   4
HETATM    4  C5  UNL     1      -1.021  -0.123  -0.114  1.00  0.00     0.253 C 
HETATM    5  N2  UNL     1      -2.241   0.282  -0.683  1.00  0.00    -0.268 N 
ATOM      6  H2  UNL     1      -2.670  -0.258  -1.435  1.00  0.00     0.190 HD
HETATM    7  O1  UNL     1      -0.498   0.538   0.795  1.00  0.00    -0.270 OA
BRANCH   5   8
HETATM    8  N1  UNL     1      -2.852   1.440  -0.196  1.00  0.00    -0.291 N 
ATOM      9  H1  UNL     1      -2.378   2.330  -0.352  1.00  0.00     0.187 HD
BRANCH   8  10
HETATM   10  C4  UNL     1      -4.077   1.461   0.496  1.00  0.00     0.095 C 
HETATM   11  S1  UNL     1      -4.699   2.877   1.017  1.00  0.00    -0.064 SA
BRANCH  10  12
HETATM   12  C2  UNL     1      -4.810   0.213   0.758  1.00  0.00     0.040 C 
HETATM   13  C1  UNL     1      -6.096   0.515   1.550  1.00  0.00     0.017 C 
HETATM   14  C3  UNL     1      -5.179  -0.513  -0.533  1.00  0.00     0.017 C 
ENDBRANCH  10  12
ENDBRANCH   8  10
ENDBRANCH   5   8
ENDBRANCH   3   4
ENDBRANCH   1   3
BRANCH   1  15
HETATM   15  C7  UNL     1       2.065  -0.830  -0.196  1.00  0.00     0.172 C 
HETATM   16  S2  UNL     1       1.923   0.459  -1.162  1.00  0.00    -0.041 SA
BRANCH  15  17
HETATM   17  N4  UNL     1       3.253  -1.155   0.439  1.00  0.00    -0.333 N 
ATOM     18  H4  UNL     1       3.249  -1.961   1.065  1.00  0.00     0.168 HD
BRANCH  17  19
HETATM   19  C8  UNL     1       4.467  -0.454   0.284  1.00  0.00     0.034 A 
HETATM   20  C9  UNL     1       4.890   0.076  -0.901  1.00  0.00     0.031 A 
HETATM   21  C10 UNL     1       6.083   0.778  -0.949  1.00  0.00     0.021 A 
HETATM   22  C11 UNL     1       6.874   0.969   0.159  1.00  0.00     0.011 A 
HETATM   23 BR1  UNL     1       8.517   1.939   0.074  1.00  0.00    -0.051 Br
HETATM   24  C12 UNL     1       6.424   0.420   1.353  1.00  0.00     0.021 A 
HETATM   25  C13 UNL     1       5.256  -0.274   1.430  1.00  0.00     0.031 A 
ENDBRANCH  17  19
ENDBRANCH  15  17
ENDBRANCH   1  15
TORSDOF 8
