REMARK  7 active torsions:
REMARK  status: ('A' for Active; 'I' for Inactive)
REMARK    1  A    between atoms: C2_2  and  C3_3 
REMARK    2  A    between atoms: C3_3  and  C4_4 
REMARK    3  A    between atoms: C4_4  and  C5_5 
REMARK    4  A    between atoms: C5_5  and  S1_6 
REMARK    5  A    between atoms: S1_6  and  N1_9 
REMARK       I    between atoms: N1_9  and  C6_11 
REMARK       I    between atoms: C6_11  and  N3_15 
REMARK    6  A    between atoms: N3_15  and  C7_17 
REMARK    7  A    between atoms: C7_17  and  C8_18 
ROOT
HETATM    1  C8  UNL     1      -2.774  -0.545  -0.385  1.00  0.00     0.030 C 
HETATM    2  C9  UNL     1      -3.545   0.670  -0.143  1.00  0.00     0.062 A 
HETATM    3  N4  UNL     1      -3.586   1.985  -0.440  1.00  0.00    -0.193 N 
ATOM      4  H4  UNL     1      -2.923   2.487  -1.031  1.00  0.00     0.184 HD
HETATM    5  C10 UNL     1      -4.637   2.510   0.169  1.00  0.00     0.676 A 
HETATM    6  N5  UNL     1      -5.030   3.760   0.132  1.00  0.00    -0.234 N 
ATOM      7  H51 UNL     1      -5.840   4.165   0.601  1.00  0.00     0.174 HD
ATOM      8  H52 UNL     1      -4.519   4.465  -0.400  1.00  0.00     0.174 HD
HETATM    9  N6  UNL     1      -5.309   1.583   0.869  1.00  0.00    -0.193 N 
ATOM     10  H6  UNL     1      -6.152   1.721   1.426  1.00  0.00     0.184 HD
HETATM   11  C11 UNL     1      -4.636   0.432   0.681  1.00  0.00     0.065 A 
HETATM   12  C12 UNL     1      -4.667  -1.021   1.058  1.00  0.00     0.115 C 
HETATM   13 BR1  UNL     1      -4.791  -1.185   2.996  1.00  0.00    -0.084 Br
HETATM   14  C13 UNL     1      -3.336  -1.557   0.590  1.00  0.00     0.023 C 
HETATM   15  C14 UNL     1      -3.468  -2.536  -0.534  1.00  0.00     0.012 C 
HETATM   16  C15 UNL     1      -3.231  -1.403  -1.505  1.00  0.00    -0.002 C 
HETATM   17  C16 UNL     1      -4.439  -0.970  -2.287  1.00  0.00     0.011 C 
ENDROOT
BRANCH   1  18
HETATM   18  C7  UNL     1      -1.267  -0.422  -0.331  1.00  0.00     0.155 C 
BRANCH  18  19
HETATM   19  N3  UNL     1      -0.814   0.034   0.957  1.00  0.00    -0.225 N 
HETATM   20  C6  UNL     1       0.613   0.089   1.170  1.00  0.00     0.681 C 
HETATM   21  N1  UNL     1       1.476   0.980   0.529  1.00  0.00    -0.117 N 
HETATM   22  N2  UNL     1       1.043  -0.774   2.022  1.00  0.00    -0.234 N 
ATOM     23  H1  UNL     1       1.483   1.942   0.869  1.00  0.00     0.197 HD
ATOM     24  H22 UNL     1       2.051  -0.735   2.172  1.00  0.00     0.174 HD
ATOM     25  H21 UNL     1       0.413  -1.425   2.490  1.00  0.00     0.174 HD
ATOM     26  H3  UNL     1      -1.472   0.306   1.687  1.00  0.00     0.177 HD
BRANCH  21  27
HETATM   27  S1  UNL     1       2.522   0.611  -0.771  1.00  0.00     0.244 S 
HETATM   28  O1  UNL     1       3.184   1.860  -1.279  1.00  0.00    -0.205 OA
HETATM   29  O2  UNL     1       1.721   0.056  -1.953  1.00  0.00    -0.205 OA
BRANCH  27  30
HETATM   30  C5  UNL     1       3.747  -0.591  -0.406  1.00  0.00     0.164 C 
BRANCH  30  31
HETATM   31  C4  UNL     1       4.689  -0.227   0.687  1.00  0.00     0.017 C 
BRANCH  31  32
HETATM   32  C3  UNL     1       5.508   1.006   0.440  1.00  0.00     0.001 C 
BRANCH  32  33
HETATM   33  C2  UNL     1       6.376   0.883  -0.797  1.00  0.00    -0.005 C 
HETATM   34  C1  UNL     1       7.319  -0.305  -0.589  1.00  0.00     0.005 C 
ENDBRANCH  32  33
ENDBRANCH  31  32
ENDBRANCH  30  31
ENDBRANCH  27  30
ENDBRANCH  21  27
ENDBRANCH  18  19
ENDBRANCH   1  18
TORSDOF 7
