REMARK  10 active torsions:
REMARK  status: ('A' for Active; 'I' for Inactive)
REMARK    1  A    between atoms: N1_2  and  N2_4 
REMARK       I    between atoms: N2_4  and  C2_6 
REMARK       I    between atoms: C2_6  and  N3_7 
REMARK       I    between atoms: C2_6  and  N6_17 
REMARK    2  A    between atoms: N3_7  and  C3_9 
REMARK    3  A    between atoms: N6_17  and  C6_19 
REMARK    4  A    between atoms: C6_19  and  C7_20 
REMARK    5  A    between atoms: C6_19  and  C18_37 
REMARK       I    between atoms: C7_20  and  N7_22 
REMARK    6  A    between atoms: N7_22  and  C8_24 
REMARK    7  A    between atoms: C8_24  and  C9_25 
REMARK    8  A    between atoms: C8_24  and  C14_33 
REMARK    9  A    between atoms: C9_25  and  C10_26 
REMARK       I    between atoms: C10_26  and  N8_28 
REMARK   10  A    between atoms: N8_28  and  C11_30 
ROOT
HETATM    1  C6  UNL     1      -0.854   0.701   0.991  1.00  0.00     0.199 C 
ENDROOT
BRANCH   1   2
HETATM    2  N6  UNL     1      -2.254   0.320   0.781  1.00  0.00    -0.211 N 
HETATM    3  C2  UNL     1      -2.728  -1.013   0.791  1.00  0.00     0.694 C 
HETATM    4  N2  UNL     1      -2.632  -1.840   1.743  1.00  0.00    -0.137 N 
HETATM    5  N3  UNL     1      -3.384  -1.445  -0.419  1.00  0.00    -0.174 N 
ATOM      6  H2  UNL     1      -2.164  -1.515   2.589  1.00  0.00     0.205 HD
ATOM      7  H3  UNL     1      -2.886  -1.978  -1.132  1.00  0.00     0.186 HD
ATOM      8  H6  UNL     1      -2.931   1.065   0.617  1.00  0.00     0.178 HD
BRANCH   4   9
HETATM    9  N1  UNL     1      -3.097  -3.135   1.748  1.00  0.00    -0.327 N 
HETATM   10  C1  UNL     1      -4.235  -3.547   2.574  1.00  0.00     0.168 C 
ATOM     11  H1  UNL     1      -2.636  -3.829   1.159  1.00  0.00     0.180 HD
ENDBRANCH   4   9
BRANCH   5  12
HETATM   12  C3  UNL     1      -4.649  -1.124  -0.565  1.00  0.00     0.138 A 
HETATM   13  C4  UNL     1      -5.467  -1.423  -1.623  1.00  0.00     0.094 A 
HETATM   14  C5  UNL     1      -6.717  -0.898  -1.370  1.00  0.00     0.121 A 
HETATM   15 CL1  UNL     1      -8.174  -0.959  -2.352  1.00  0.00    -0.063 Cl
HETATM   16  N4  UNL     1      -6.634  -0.295  -0.175  1.00  0.00    -0.288 N 
HETATM   17  N5  UNL     1      -5.396  -0.428   0.311  1.00  0.00    -0.284 N 
ATOM     18  H4  UNL     1      -7.399   0.191   0.292  1.00  0.00     0.188 HD
ATOM     19  H5  UNL     1      -5.069  -0.060   1.205  1.00  0.00     0.188 HD
ENDBRANCH   5  12
ENDBRANCH   1   2
BRANCH   1  20
HETATM   20  C7  UNL     1       0.011   0.109  -0.004  1.00  0.00     0.242 C 
HETATM   21  O1  UNL     1      -0.415  -1.038  -0.423  1.00  0.00    -0.271 OA
HETATM   22  N7  UNL     1       1.195   0.524  -0.594  1.00  0.00    -0.353 N 
ATOM     23  H7  UNL     1       1.570   1.428  -0.307  1.00  0.00     0.163 HD
BRANCH  22  24
HETATM   24  C8  UNL     1       1.947  -0.228  -1.591  1.00  0.00     0.100 C 
BRANCH  24  25
HETATM   25  C9  UNL     1       3.408  -0.165  -1.226  1.00  0.00     0.128 C 
BRANCH  25  26
HETATM   26  C10 UNL     1       3.713  -0.744   0.107  1.00  0.00     0.219 C 
HETATM   27  O2  UNL     1       2.764  -1.249   0.747  1.00  0.00    -0.274 OA
HETATM   28  N8  UNL     1       4.996  -0.749   0.672  1.00  0.00    -0.356 N 
ATOM     29  H8  UNL     1       5.772  -0.337   0.154  1.00  0.00     0.162 HD
BRANCH  28  30
HETATM   30  C11 UNL     1       5.238  -1.323   1.967  1.00  0.00     0.084 A 
HETATM   31  C12 UNL     1       6.175  -0.621   2.884  1.00  0.00     0.027 A 
HETATM   32  C13 UNL     1       6.592  -1.929   2.259  1.00  0.00     0.027 A 
ENDBRANCH  28  30
ENDBRANCH  25  26
ENDBRANCH  24  25
BRANCH  24  33
HETATM   33  C14 UNL     1       1.740   0.356  -2.980  1.00  0.00    -0.030 C 
HETATM   34  C15 UNL     1       2.170   1.780  -3.114  1.00  0.00     0.016 C 
HETATM   35  C16 UNL     1       0.269   0.184  -3.367  1.00  0.00     0.016 C 
HETATM   36  C17 UNL     1       2.520  -0.468  -3.985  1.00  0.00     0.016 C 
ENDBRANCH  24  33
ENDBRANCH  22  24
ENDBRANCH   1  20
BRANCH   1  37
HETATM   37  C18 UNL     1      -0.803   2.153   1.261  1.00  0.00    -0.022 C 
HETATM   38  C19 UNL     1      -1.689   2.355   2.522  1.00  0.00     0.017 C 
HETATM   39  C20 UNL     1       0.555   2.629   1.745  1.00  0.00     0.017 C 
HETATM   40  C21 UNL     1      -1.407   3.036   0.210  1.00  0.00     0.017 C 
ENDBRANCH   1  37
TORSDOF 10
