REMARK  5 active torsions:
REMARK  status: ('A' for Active; 'I' for Inactive)
REMARK       I    between atoms: C1_2  and  N1_3 
REMARK       I    between atoms: C1_2  and  N5_16 
REMARK    1  A    between atoms: N1_3  and  N2_5 
REMARK    2  A    between atoms: N2_5  and  C2_7 
REMARK    3  A    between atoms: C2_7  and  N3_9 
REMARK    4  A    between atoms: N3_9  and  N4_11 
REMARK    5  A    between atoms: N5_16  and  C7_17 
ROOT
HETATM    1  N2  UNL     1      -0.875   1.359  -2.009  1.00  0.00    -0.270 N 
ATOM      2  H2  UNL     1      -1.256   2.011  -2.694  1.00  0.00     0.189 HD
ENDROOT
BRANCH   1   3
HETATM    3  N1  UNL     1      -1.695   0.486  -1.305  1.00  0.00    -0.237 N 
HETATM    4  C1  UNL     1      -2.078   0.823   0.070  1.00  0.00     0.407 C 
HETATM    5  O1  UNL     1      -1.594   1.963   0.408  1.00  0.00    -0.229 OA
HETATM    6  N5  UNL     1      -2.823  -0.012   0.792  1.00  0.00    -0.390 NA
ATOM      7  H1  UNL     1      -2.026  -0.376  -1.738  1.00  0.00     0.193 HD
BRANCH   6   8
HETATM    8  C7  UNL     1      -3.610  -0.894   1.555  1.00  0.00     0.169 A 
HETATM    9  C8  UNL     1      -4.131  -2.199   0.990  1.00  0.00     0.043 A 
HETATM   10  C9  UNL     1      -5.071  -1.073   1.233  1.00  0.00     0.043 A 
ENDBRANCH   6   8
ENDBRANCH   1   3
BRANCH   1  11
HETATM   11  C2  UNL     1       0.508   1.305  -1.735  1.00  0.00     0.205 C 
HETATM   12  S1  UNL     1       1.522   2.339  -2.473  1.00  0.00    -0.038 SA
BRANCH  11  13
HETATM   13  N3  UNL     1       1.017   0.372  -0.800  1.00  0.00    -0.277 N 
ATOM     14  H3  UNL     1       0.361  -0.263  -0.345  1.00  0.00     0.189 HD
BRANCH  13  15
HETATM   15  N4  UNL     1       2.300   0.280  -0.484  1.00  0.00    -0.326 N 
HETATM   16  C3  UNL     1       2.792   0.827   0.732  1.00  0.00     0.142 C 
HETATM   17  C4  UNL     1       3.950  -0.153   1.016  1.00  0.00     0.023 C 
HETATM   18  C5  UNL     1       4.468  -0.390  -0.374  1.00  0.00     0.023 C 
HETATM   19  C6  UNL     1       3.372   0.109  -1.332  1.00  0.00     0.142 C 
ENDBRANCH  13  15
ENDBRANCH  11  13
ENDBRANCH   1  11
TORSDOF 5
