REMARK  5 active torsions:
REMARK  status: ('A' for Active; 'I' for Inactive)
REMARK       I    between atoms: C1_2  and  N1_3 
REMARK       I    between atoms: C1_2  and  N4_16 
REMARK    1  A    between atoms: N1_3  and  N2_5 
REMARK    2  A    between atoms: N2_5  and  C2_7 
REMARK    3  A    between atoms: C2_7  and  N3_9 
REMARK       I    between atoms: N3_9  and  C3_11 
REMARK    4  A    between atoms: C3_11  and  C4_13 
REMARK    5  A    between atoms: N4_16  and  C7_18 
ROOT
HETATM    1  N2  UNL     1       0.956  -2.307  -0.127  1.00  0.00    -0.272 N 
ATOM      2  H2  UNL     1       0.708  -3.238  -0.461  1.00  0.00     0.189 HD
ENDROOT
BRANCH   1   3
HETATM    3  N1  UNL     1      -0.097  -1.621   0.432  1.00  0.00    -0.249 N 
HETATM    4  C1  UNL     1      -1.175  -1.142  -0.371  1.00  0.00     0.335 C 
HETATM    5  O1  UNL     1      -1.169  -1.348  -1.615  1.00  0.00    -0.246 OA
HETATM    6  N4  UNL     1      -2.238  -0.449   0.212  1.00  0.00    -0.337 N 
ATOM      7  H4  UNL     1      -2.227  -0.291   1.220  1.00  0.00     0.164 HD
ATOM      8  H1  UNL     1      -0.108  -1.452   1.438  1.00  0.00     0.192 HD
BRANCH   6   9
HETATM    9  C7  UNL     1      -3.365   0.058  -0.568  1.00  0.00     0.086 C 
HETATM   10  C8  UNL     1      -4.682  -0.473  -0.015  1.00  0.00     0.025 C 
HETATM   11  C9  UNL     1      -5.216   0.943   0.035  1.00  0.00     0.004 C 
HETATM   12  C10 UNL     1      -3.798   1.454  -0.253  1.00  0.00     0.025 C 
ENDBRANCH   6   9
ENDBRANCH   1   3
BRANCH   1  13
HETATM   13  C2  UNL     1       2.266  -1.986  -0.322  1.00  0.00     0.193 C 
HETATM   14  S1  UNL     1       3.161  -3.238  -1.072  1.00  0.00    -0.039 SA
BRANCH  13  15
HETATM   15  N3  UNL     1       2.995  -0.860  -0.030  1.00  0.00    -0.302 N 
HETATM   16  C3  UNL     1       2.661   0.356   0.564  1.00  0.00     0.228 C 
HETATM   17  O2  UNL     1       1.542   0.695   0.983  1.00  0.00    -0.273 OA
ATOM     18  H3  UNL     1       3.976  -0.926  -0.302  1.00  0.00     0.171 HD
BRANCH  16  19
HETATM   19  C4  UNL     1       3.727   1.415   0.745  1.00  0.00     0.078 A 
HETATM   20  C5  UNL     1       5.149   1.036   0.782  1.00  0.00     0.015 A 
HETATM   21  C6  UNL     1       4.583   1.588  -0.485  1.00  0.00     0.015 A 
ENDBRANCH  16  19
ENDBRANCH  13  15
ENDBRANCH   1  13
TORSDOF 5
