REMARK  5 active torsions:
REMARK  status: ('A' for Active; 'I' for Inactive)
REMARK    1  A    between atoms: C2_2  and  N1_3 
REMARK    2  A    between atoms: N1_3  and  C3_5 
REMARK    3  A    between atoms: C3_5  and  N2_7 
REMARK    4  A    between atoms: N2_7  and  N3_9 
REMARK       I    between atoms: N3_9  and  C4_11 
REMARK       I    between atoms: C4_11  and  N4_13 
REMARK    5  A    between atoms: N4_13  and  C5_15 
ROOT
HETATM    1  N3  UNL     1      -1.788  -0.700   1.332  1.00  0.00    -0.249 N 
ATOM      2  H3  UNL     1      -1.804  -1.302   2.155  1.00  0.00     0.192 HD
HETATM    3  C4  UNL     1      -0.534  -0.318   0.787  1.00  0.00     0.335 C 
HETATM    4  O1  UNL     1      -0.555   0.431  -0.237  1.00  0.00    -0.246 OA
HETATM    5  N4  UNL     1       0.682  -0.758   1.371  1.00  0.00    -0.337 N 
ATOM      6  H4  UNL     1       0.638  -1.359   2.194  1.00  0.00     0.164 HD
ENDROOT
BRANCH   1   7
HETATM    7  N2  UNL     1      -3.005  -0.279   0.778  1.00  0.00    -0.272 N 
ATOM      8  H2  UNL     1      -3.584   0.375   1.304  1.00  0.00     0.189 HD
BRANCH   7   9
HETATM    9  C3  UNL     1      -3.462  -0.732  -0.493  1.00  0.00     0.186 C 
HETATM   10  S1  UNL     1      -2.580  -1.777  -1.374  1.00  0.00    -0.040 SA
BRANCH   9  11
HETATM   11  N1  UNL     1      -4.695  -0.271  -0.999  1.00  0.00    -0.366 N 
ATOM     12  H1  UNL     1      -5.010  -0.603  -1.911  1.00  0.00     0.161 HD
BRANCH  11  13
HETATM   13  C2  UNL     1      -5.537   0.669  -0.257  1.00  0.00     0.117 C 
HETATM   14  C1  UNL     1      -6.774   0.969  -1.053  1.00  0.00     0.026 C 
ENDBRANCH  11  13
ENDBRANCH   9  11
ENDBRANCH   7   9
ENDBRANCH   1   7
BRANCH   5  15
HETATM   15  C5  UNL     1       1.960  -0.398   0.860  1.00  0.00     0.089 C 
HETATM   16  C6  UNL     1       2.780   0.464   1.821  1.00  0.00     0.044 C 
HETATM   17  C7  UNL     1       4.049   0.890   1.110  1.00  0.00     0.118 C 
HETATM   18  N5  UNL     1       4.008   0.444  -0.241  1.00  0.00    -0.416 N 
HETATM   19  C8  UNL     1       4.852   1.141  -1.149  1.00  0.00     0.143 C 
HETATM   20  C9  UNL     1       3.976  -0.974  -0.396  1.00  0.00     0.118 C 
HETATM   21  C10 UNL     1       2.842  -1.529   0.440  1.00  0.00     0.044 C 
ENDBRANCH   5  15
TORSDOF 5
