REMARK  4 active torsions:
REMARK  status: ('A' for Active; 'I' for Inactive)
REMARK    1  A    between atoms: N1_2  and  C2_4 
REMARK    2  A    between atoms: C4_8  and  C5_9 
REMARK    3  A    between atoms: C13_17  and  N3_18 
REMARK       I    between atoms: N3_18  and  C14_20 
REMARK       I    between atoms: C14_20  and  N4_22 
REMARK    4  A    between atoms: N4_22  and  C15_24 
ROOT
HETATM    1  C5  UNL     1      -1.371  -0.658   0.547  1.00  0.00     0.007 C 
HETATM    2  C6  UNL     1      -1.775  -1.967   1.064  1.00  0.00     0.020 C 
HETATM    3  C7  UNL     1      -0.898  -3.143   0.849  1.00  0.00    -0.013 C 
HETATM    4  C8  UNL     1      -0.423  -3.593  -0.458  1.00  0.00     0.005 C 
HETATM    5  C9  UNL     1       0.863  -2.790  -0.830  1.00  0.00     0.012 C 
HETATM    6  C10 UNL     1       0.576  -1.666  -0.008  1.00  0.00    -0.018 C 
HETATM    7  C11 UNL     1       0.396  -2.450   1.286  1.00  0.00     0.016 C 
HETATM    8  C12 UNL     1      -0.659  -1.124  -0.712  1.00  0.00     0.027 C 
HETATM    9  C13 UNL     1       1.080  -0.454   0.469  1.00  0.00     0.095 C 
HETATM   10  C18 UNL     1      -0.218   0.124   1.044  1.00  0.00     0.042 C 
ENDROOT
BRANCH   1  11
HETATM   11  C4  UNL     1      -2.566   0.165   0.298  1.00  0.00     0.051 A 
HETATM   12  C3  UNL     1      -3.811  -0.159   0.857  1.00  0.00     0.132 A 
HETATM   13  N2  UNL     1      -4.744   0.729   0.492  1.00  0.00    -0.200 N 
HETATM   14  C2  UNL     1      -4.111   1.618  -0.293  1.00  0.00     0.677 A 
ATOM     15  H2  UNL     1      -5.730   0.731   0.755  1.00  0.00     0.183 HD
HETATM   16  N5  UNL     1      -2.802   1.263  -0.399  1.00  0.00    -0.194 N 
ATOM     17  H5  UNL     1      -2.102   1.772  -0.939  1.00  0.00     0.184 HD
BRANCH  14  18
HETATM   18  N1  UNL     1      -4.650   2.654  -0.859  1.00  0.00    -0.230 N 
HETATM   19  C1  UNL     1      -6.026   2.990  -0.715  1.00  0.00     0.165 C 
ATOM     20  H1  UNL     1      -4.060   3.256  -1.434  1.00  0.00     0.177 HD
ENDBRANCH  14  18
ENDBRANCH   1  11
BRANCH   9  21
HETATM   21  N3  UNL     1       1.815   0.405  -0.395  1.00  0.00    -0.338 N 
HETATM   22  C14 UNL     1       3.034   1.013   0.067  1.00  0.00     0.316 C 
HETATM   23  O1  UNL     1       3.365   0.761   1.281  1.00  0.00    -0.247 OA
HETATM   24  N4  UNL     1       3.852   1.845  -0.740  1.00  0.00    -0.339 N 
ATOM     25  H4  UNL     1       3.598   2.041  -1.708  1.00  0.00     0.164 HD
ATOM     26  H3  UNL     1       1.478   0.589  -1.340  1.00  0.00     0.164 HD
BRANCH  24  27
HETATM   27  C15 UNL     1       5.043   2.405  -0.169  1.00  0.00     0.086 A 
HETATM   28  C16 UNL     1       6.338   1.705  -0.704  1.00  0.00     0.027 A 
HETATM   29  C17 UNL     1       6.059   3.161  -0.890  1.00  0.00     0.027 A 
ENDBRANCH  24  27
ENDBRANCH   9  21
TORSDOF 4
