REMARK  2 active torsions:
REMARK  status: ('A' for Active; 'I' for Inactive)
REMARK    1  A    between atoms: C2_2  and  N1_4 
REMARK       I    between atoms: C4_6  and  N3_8 
REMARK       I    between atoms: N3_8  and  C5_10 
REMARK       I    between atoms: C5_10  and  N4_12 
REMARK       I    between atoms: C6_14  and  N6_16 
REMARK    2  A    between atoms: N6_16  and  C7_18 
ROOT
HETATM    1  N1  UNL     1       5.244  -0.763   0.674  1.00  0.00    -0.360 N 
ATOM      2  H1  UNL     1       5.070  -1.751   0.858  1.00  0.00     0.162 HD
HETATM    3  C4  UNL     1       4.229  -0.022   0.548  1.00  0.00     0.192 C 
HETATM    4  N2  UNL     1       4.379   1.360   0.293  1.00  0.00    -0.063 NA
HETATM    5  N3  UNL     1       2.932  -0.573   0.663  1.00  0.00    -0.283 N 
ATOM      6  H3  UNL     1       2.845  -1.572   0.848  1.00  0.00     0.173 HD
HETATM    7  C5  UNL     1       1.744   0.196   0.534  1.00  0.00     0.329 C 
HETATM    8  O1  UNL     1       1.903   1.444   0.304  1.00  0.00    -0.247 OA
HETATM    9  N4  UNL     1       0.473  -0.391   0.655  1.00  0.00    -0.283 N 
ATOM     10  H4  UNL     1       0.022  -0.350   1.569  1.00  0.00     0.173 HD
HETATM   11  C6  UNL     1      -0.161  -0.971  -0.289  1.00  0.00     0.192 C 
HETATM   12  N5  UNL     1       0.324  -1.112  -1.610  1.00  0.00    -0.063 NA
HETATM   13  N6  UNL     1      -1.447  -1.516   0.003  1.00  0.00    -0.355 N 
ATOM     14  H6  UNL     1      -1.517  -2.490   0.299  1.00  0.00     0.163 HD
ENDROOT
BRANCH  13  15
HETATM   15  C7  UNL     1      -2.641  -0.737  -0.107  1.00  0.00     0.035 C 
HETATM   16  C8  UNL     1      -2.531   0.444   0.836  1.00  0.00     0.035 C 
HETATM   17  C9  UNL     1      -3.792   1.263   0.781  1.00  0.00    -0.010 C 
HETATM   18  C10 UNL     1      -4.041   1.711  -0.640  1.00  0.00     0.009 C 
HETATM   19  C14 UNL     1      -4.927   0.432   1.287  1.00  0.00     0.030 C 
HETATM   20  C11 UNL     1      -4.198   0.503  -1.515  1.00  0.00    -0.010 C 
HETATM   21  C12 UNL     1      -5.372  -0.302  -1.033  1.00  0.00     0.030 C 
HETATM   22  C16 UNL     1      -2.922  -0.292  -1.526  1.00  0.00     0.035 C 
HETATM   23  C13 UNL     1      -5.085  -0.765   0.386  1.00  0.00     0.040 C 
HETATM   24 CL1  UNL     1      -6.387  -1.822   0.965  1.00  0.00    -0.119 Cl
HETATM   25  C15 UNL     1      -3.814  -1.570   0.356  1.00  0.00     0.056 C 
ENDBRANCH  13  15
BRANCH   1  26
HETATM   26  C2  UNL     1       6.616  -0.355   0.584  1.00  0.00     0.076 C 
HETATM   27  C1  UNL     1       6.963   0.757   1.552  1.00  0.00     0.032 C 
HETATM   28  C3  UNL     1       7.018  -0.001  -0.831  1.00  0.00     0.032 C 
ENDBRANCH   1  26
TORSDOF 2
