REMARK  8 active torsions:
REMARK  status: ('A' for Active; 'I' for Inactive)
REMARK    1  A    between atoms: C2_2  and  N1_3 
REMARK    2  A    between atoms: C2_2  and  C3_7 
REMARK    3  A    between atoms: C4_8  and  C5_9 
REMARK    4  A    between atoms: C12_16  and  C13_17 
REMARK    5  A    between atoms: C13_17  and  C14_18 
REMARK    6  A    between atoms: C13_17  and  C16_25 
REMARK       I    between atoms: C14_18  and  N2_20 
REMARK    7  A    between atoms: C16_25  and  O2_26 
REMARK    8  A    between atoms: C16_25  and  C17_28 
ROOT
HETATM    1  C5  UNL     1       2.328  -0.756  -0.311  1.00  0.00     0.024 C 
HETATM    2  C6  UNL     1       3.003  -2.070   0.115  1.00  0.00     0.029 C 
HETATM    3  C7  UNL     1       2.566  -0.617  -1.777  1.00  0.00     0.022 C 
HETATM    4  C8  UNL     1       1.539   0.223  -2.454  1.00  0.00     0.002 C 
HETATM    5  C9  UNL     1       0.124  -0.019  -2.063  1.00  0.00     0.010 C 
HETATM    6  C10 UNL     1      -0.150  -0.926  -0.920  1.00  0.00    -0.034 C 
HETATM    7  C11 UNL     1       0.005  -2.385  -1.156  1.00  0.00     0.016 C 
HETATM    8  C12 UNL     1      -1.300  -0.635  -0.048  1.00  0.00     0.010 C 
HETATM    9  C18 UNL     1      -1.004   0.766   0.469  1.00  0.00     0.007 C 
HETATM   10  C19 UNL     1       0.510   0.794   0.469  1.00  0.00     0.007 C 
HETATM   11  C20 UNL     1       0.956  -0.593   0.140  1.00  0.00     0.014 C 
ENDROOT
BRANCH   8  12
HETATM   12  C13 UNL     1      -2.682  -0.946  -0.253  1.00  0.00     0.113 C 
BRANCH  12  13
HETATM   13  C14 UNL     1      -3.431  -0.430   0.969  1.00  0.00     0.230 C 
HETATM   14  O1  UNL     1      -3.797  -1.267   1.821  1.00  0.00    -0.273 OA
HETATM   15  N2  UNL     1      -3.725   0.915   1.184  1.00  0.00    -0.303 N 
HETATM   16  C15 UNL     1      -4.401   1.438   2.104  1.00  0.00     0.203 C 
ATOM     17  H2  UNL     1      -3.338   1.564   0.500  1.00  0.00     0.171 HD
HETATM   18  N3  UNL     1      -5.005   0.639   3.137  1.00  0.00    -0.066 NA
HETATM   19  N4  UNL     1      -4.603   2.836   2.172  1.00  0.00    -0.066 NA
ENDBRANCH  12  13
BRANCH  12  20
HETATM   20  C16 UNL     1      -3.487  -0.681  -1.464  1.00  0.00     0.145 C 
BRANCH  20  21
HETATM   21  O2  UNL     1      -4.851  -1.114  -1.118  1.00  0.00    -0.394 OA
ATOM     22  H2  UNL     1      -5.368  -0.944  -1.896  1.00  0.00     0.210 HD
ENDBRANCH  20  21
BRANCH  20  23
HETATM   23  C17 UNL     1      -3.291  -1.601  -2.649  1.00  0.00     0.147 C 
HETATM   24 CL1  UNL     1      -4.339  -1.148  -4.013  1.00  0.00    -0.128 Cl
ENDBRANCH  20  23
ENDBRANCH  12  20
ENDBRANCH   8  12
BRANCH   1  25
HETATM   25  C4  UNL     1       3.135   0.287   0.386  1.00  0.00    -0.094 C 
HETATM   26  C3  UNL     1       3.790   1.144   0.933  1.00  0.00    -0.073 C 
BRANCH  26  27
HETATM   27  C2  UNL     1       4.594   2.161   1.608  1.00  0.00     0.257 C 
HETATM   28  C1  UNL     1       5.605   2.664   0.605  1.00  0.00     0.053 C 
BRANCH  27  29
HETATM   29  N1  UNL     1       5.279   1.494   2.710  1.00  0.00    -0.065 N 
ATOM     30  H13 UNL     1       5.897   0.751   2.384  1.00  0.00     0.275 HD
ATOM     31  H12 UNL     1       5.983   2.093   3.142  1.00  0.00     0.275 HD
ATOM     32  H11 UNL     1       4.596   1.154   3.387  1.00  0.00     0.275 HD
ENDBRANCH  27  29
ENDBRANCH  26  27
ENDBRANCH   1  25
TORSDOF 8
