REMARK  8 active torsions:
REMARK  status: ('A' for Active; 'I' for Inactive)
REMARK    1  A    between atoms: C2_2  and  C3_3 
REMARK    2  A    between atoms: C8_8  and  N1_9 
REMARK       I    between atoms: N1_9  and  C9_11 
REMARK    3  A    between atoms: C9_11  and  C10_13 
REMARK       I    between atoms: C10_13  and  N2_15 
REMARK    4  A    between atoms: N2_15  and  N3_17 
REMARK    5  A    between atoms: N3_17  and  C11_19 
REMARK    6  A    between atoms: C11_19  and  N4_21 
REMARK    7  A    between atoms: N4_21  and  C12_23 
REMARK    8  A    between atoms: C12_23  and  C13_24 
ROOT
HETATM    1  C10 UNL     1      -0.474   0.468   1.556  1.00  0.00     0.328 C 
HETATM    2  O2  UNL     1      -0.157  -0.705   1.884  1.00  0.00    -0.261 OA
HETATM    3  N2  UNL     1       0.493   1.492   1.727  1.00  0.00    -0.260 N 
ATOM      4  H2  UNL     1       0.252   2.448   1.465  1.00  0.00     0.190 HD
ENDROOT
BRANCH   3   5
HETATM    5  N3  UNL     1       1.753   1.234   2.238  1.00  0.00    -0.273 N 
ATOM      6  H3  UNL     1       1.993   1.571   3.171  1.00  0.00     0.189 HD
BRANCH   5   7
HETATM    7  C11 UNL     1       2.711   0.516   1.496  1.00  0.00     0.186 C 
HETATM    8  S1  UNL     1       4.192   0.201   2.157  1.00  0.00    -0.040 SA
BRANCH   7   9
HETATM    9  N4  UNL     1       2.456   0.026   0.196  1.00  0.00    -0.362 N 
ATOM     10  H4  UNL     1       1.540   0.192  -0.220  1.00  0.00     0.162 HD
BRANCH   9  11
HETATM   11  C12 UNL     1       3.432  -0.693  -0.557  1.00  0.00     0.162 C 
BRANCH  11  12
HETATM   12  C13 UNL     1       4.519   0.143  -1.073  1.00  0.00    -0.019 A 
HETATM   13  C14 UNL     1       4.536   1.502  -0.894  1.00  0.00     0.010 A 
HETATM   14  C15 UNL     1       5.573   2.279  -1.419  1.00  0.00     0.001 A 
HETATM   15  C16 UNL     1       6.596   1.696  -2.127  1.00  0.00     0.002 A 
HETATM   16  C17 UNL     1       6.556   0.328  -2.295  1.00  0.00     0.024 A 
HETATM   17  C18 UNL     1       5.556  -0.456  -1.793  1.00  0.00     0.042 A 
HETATM   18 CL1  UNL     1       5.544  -2.197  -2.029  1.00  0.00    -0.084 Cl
ENDBRANCH  11  12
ENDBRANCH   9  11
ENDBRANCH   7   9
ENDBRANCH   5   7
ENDBRANCH   3   5
BRANCH   1  19
HETATM   19  C9  UNL     1      -1.820   0.778   1.004  1.00  0.00     0.315 C 
HETATM   20  N1  UNL     1      -2.752  -0.245   0.798  1.00  0.00    -0.318 N 
ATOM     21  H1  UNL     1      -2.439  -1.183   1.046  1.00  0.00     0.169 HD
HETATM   22  O1  UNL     1      -2.041   1.963   0.751  1.00  0.00    -0.262 OA
BRANCH  20  23
HETATM   23  C8  UNL     1      -4.062  -0.155   0.295  1.00  0.00     0.045 A 
HETATM   24  C3  UNL     1      -4.738  -1.364  -0.006  1.00  0.00    -0.010 A 
HETATM   25  C4  UNL     1      -6.030  -1.233  -0.466  1.00  0.00     0.013 A 
HETATM   26  C5  UNL     1      -6.638  -0.004  -0.628  1.00  0.00     0.001 A 
HETATM   27  C6  UNL     1      -5.998   1.171  -0.342  1.00  0.00     0.002 A 
HETATM   28  C7  UNL     1      -4.698   1.065   0.123  1.00  0.00     0.030 A 
BRANCH  24  29
HETATM   29  C2  UNL     1      -4.107  -2.663   0.146  1.00  0.00     0.003 C 
HETATM   30  C1  UNL     1      -4.758  -3.769  -0.110  1.00  0.00     0.012 C 
ENDBRANCH  24  29
ENDBRANCH  20  23
ENDBRANCH   1  19
TORSDOF 8
