REMARK  4 active torsions:
REMARK  status: ('A' for Active; 'I' for Inactive)
REMARK    1  A    between atoms: C2_2  and  C3_3 
REMARK    2  A    between atoms: C3_3  and  N1_4 
REMARK       I    between atoms: N1_4  and  C4_5 
REMARK    3  A    between atoms: N1_4  and  C11_24 
REMARK       I    between atoms: C4_5  and  N2_7 
REMARK    4  A    between atoms: N2_7  and  C5_9 
ROOT
HETATM    1  N1  UNL     1      -0.243  -0.177   0.227  1.00  0.00    -0.325 N 
HETATM    2  C4  UNL     1       0.770  -1.199   0.161  1.00  0.00     0.324 C 
HETATM    3  O1  UNL     1       0.517  -2.231  -0.501  1.00  0.00    -0.247 OA
HETATM    4  N2  UNL     1       2.026  -1.095   0.803  1.00  0.00    -0.294 N 
ATOM      5  H2  UNL     1       2.114  -1.347   1.787  1.00  0.00     0.172 HD
ENDROOT
BRANCH   4   6
HETATM    6  C5  UNL     1       3.064  -0.682   0.150  1.00  0.00     0.111 A 
HETATM    7  C6  UNL     1       4.300  -0.570   0.749  1.00  0.00     0.080 A 
HETATM    8  C7  UNL     1       5.420  -0.134   0.078  1.00  0.00     0.067 A 
HETATM    9  N3  UNL     1       6.715   0.055   0.447  1.00  0.00    -0.298 N 
HETATM   10  C9  UNL     1       5.280   0.203  -1.259  1.00  0.00     0.052 A 
HETATM   11  N4  UNL     1       7.374   0.494  -0.610  1.00  0.00    -0.285 N 
ATOM     12  H3  UNL     1       7.107  -0.112   1.374  1.00  0.00     0.187 HD
HETATM   13  C8  UNL     1       6.533   0.597  -1.665  1.00  0.00     0.127 A 
ATOM     14  H4  UNL     1       8.368   0.721  -0.628  1.00  0.00     0.188 HD
HETATM   15  N5  UNL     1       6.859   0.993  -2.835  1.00  0.00    -0.384 N 
ATOM     16  H52 UNL     1       7.789   1.285  -3.136  1.00  0.00     0.157 HD
ATOM     17  H51 UNL     1       6.225   1.071  -3.630  1.00  0.00     0.157 HD
HETATM   18  C10 UNL     1       4.039   0.088  -1.850  1.00  0.00     0.107 A 
HETATM   19  N6  UNL     1       2.967  -0.345  -1.149  1.00  0.00    -0.351 N 
ATOM     20  H6  UNL     1       2.063  -0.418  -1.616  1.00  0.00     0.166 HD
ENDBRANCH   4   6
BRANCH   1  21
HETATM   21  C3  UNL     1       0.108   0.979   1.002  1.00  0.00     0.154 C 
BRANCH  21  22
HETATM   22  C2  UNL     1      -0.196   0.902   2.444  1.00  0.00    -0.017 C 
HETATM   23  C1  UNL     1      -0.992   1.790   3.015  1.00  0.00     0.008 C 
ENDBRANCH  21  22
ENDBRANCH   1  21
BRANCH   1  24
HETATM   24  C11 UNL     1      -1.447  -0.391  -0.503  1.00  0.00     0.093 C 
HETATM   25  C12 UNL     1      -1.660   0.669  -1.588  1.00  0.00     0.026 C 
HETATM   26  C13 UNL     1      -3.005   0.231  -2.131  1.00  0.00     0.012 C 
HETATM   27  C14 UNL     1      -3.738  -0.183  -0.889  1.00  0.00    -0.035 A 
HETATM   28  C15 UNL     1      -4.897   0.699  -0.536  1.00  0.00     0.010 A 
HETATM   29  C17 UNL     1      -4.618  -1.345  -1.114  1.00  0.00     0.010 A 
HETATM   30  C18 UNL     1      -2.739  -0.266   0.237  1.00  0.00     0.013 C 
HETATM   31  C16 UNL     1      -5.818  -0.489  -0.752  1.00  0.00     0.002 A 
HETATM   32  C19 UNL     1      -2.968  -1.450   1.132  1.00  0.00     0.012 C 
ENDBRANCH   1  24
TORSDOF 4
