REMARK  7 active torsions:
REMARK  status: ('A' for Active; 'I' for Inactive)
REMARK    1  A    between atoms: N1_1  and  C1_4 
REMARK    2  A    between atoms: C1_4  and  C2_5 
REMARK    3  A    between atoms: C1_4  and  N5_14 
REMARK    4  A    between atoms: C2_5  and  C3_6 
REMARK    5  A    between atoms: C3_6  and  N2_7 
REMARK    6  A    between atoms: N5_14  and  C6_16 
REMARK    7  A    between atoms: C7_21  and  N8_22 
ROOT
HETATM    1  C1  UNL     1      -0.026   0.871   1.752  1.00  0.00     0.092 C 
ENDROOT
BRANCH   1   2
HETATM    2  N1  UNL     1       0.247   2.063   2.145  1.00  0.00    -0.388 N 
ATOM      3  H12 UNL     1      -0.472   2.775   2.019  1.00  0.00     0.157 HD
ATOM      4  H11 UNL     1       1.153   2.270   2.565  1.00  0.00     0.157 HD
ENDBRANCH   1   2
BRANCH   1   5
HETATM    5  C2  UNL     1      -1.328   0.574   1.148  1.00  0.00     0.097 C 
BRANCH   5   6
HETATM    6  C3  UNL     1      -1.224   0.047  -0.263  1.00  0.00     0.138 C 
BRANCH   6   7
HETATM    7  N2  UNL     1      -2.568  -0.203  -0.736  1.00  0.00    -0.337 N 
HETATM    8  C4  UNL     1      -3.214  -1.371  -0.592  1.00  0.00     0.200 A 
HETATM    9  N3  UNL     1      -4.441  -1.261  -1.145  1.00  0.00    -0.295 N 
HETATM   10  N4  UNL     1      -4.506  -0.025  -1.611  1.00  0.00    -0.295 N 
ATOM     11  H3  UNL     1      -5.164  -1.979  -1.193  1.00  0.00     0.187 HD
HETATM   12  C5  UNL     1      -3.371   0.651  -1.376  1.00  0.00     0.200 A 
ATOM     13  H4  UNL     1      -5.318   0.366  -2.089  1.00  0.00     0.187 HD
ENDBRANCH   6   7
ENDBRANCH   5   6
ENDBRANCH   1   5
BRANCH   1  14
HETATM   14  N5  UNL     1       0.972  -0.118   1.927  1.00  0.00    -0.179 N 
ATOM     15  H5  UNL     1       0.910  -0.714   2.753  1.00  0.00     0.185 HD
BRANCH  14  16
HETATM   16  C6  UNL     1       1.942  -0.315   1.124  1.00  0.00     0.713 A 
HETATM   17  N6  UNL     1       2.883  -1.257   1.302  1.00  0.00    -0.117 N 
HETATM   18  N7  UNL     1       3.742  -1.205   0.300  1.00  0.00    -0.118 N 
ATOM     19  H6  UNL     1       2.927  -1.908   2.086  1.00  0.00     0.206 HD
HETATM   20  C7  UNL     1       3.375  -0.225  -0.550  1.00  0.00     0.705 A 
ATOM     21  H7  UNL     1       4.555  -1.811   0.187  1.00  0.00     0.206 HD
HETATM   22  N9  UNL     1       2.256   0.312  -0.018  1.00  0.00    -0.020 N 
ATOM     23  H9  UNL     1       1.727   1.083  -0.426  1.00  0.00     0.203 HD
BRANCH  20  24
HETATM   24  N8  UNL     1       4.012   0.067  -1.617  1.00  0.00    -0.233 N 
ATOM     25  H82 UNL     1       4.857  -0.339  -2.019  1.00  0.00     0.174 HD
ATOM     26  H81 UNL     1       3.734   0.808  -2.260  1.00  0.00     0.174 HD
ENDBRANCH  20  24
ENDBRANCH  14  16
ENDBRANCH   1  14
TORSDOF 7
