REMARK  6 active torsions:
REMARK  status: ('A' for Active; 'I' for Inactive)
REMARK    1  A    between atoms: C3_7  and  N3_8 
REMARK    2  A    between atoms: N5_16  and  C6_17 
REMARK    3  A    between atoms: C6_17  and  C7_18 
REMARK       I    between atoms: C7_18  and  N6_20 
REMARK    4  A    between atoms: N6_20  and  C8_22 
REMARK    5  A    between atoms: C8_22  and  C9_23 
REMARK       I    between atoms: C9_23  and  N7_25 
REMARK    6  A    between atoms: N7_25  and  N8_27 
ROOT
HETATM    1  C1  UNL     1      -1.495   2.410   1.093  1.00  0.00     0.163 C 
HETATM    2  N1  UNL     1      -2.132   1.713   0.008  1.00  0.00    -0.287 N 
HETATM    3  C2  UNL     1      -3.018   2.361  -0.804  1.00  0.00     0.329 A 
HETATM    4  O1  UNL     1      -3.236   3.599  -0.579  1.00  0.00    -0.246 OA
HETATM    5  N2  UNL     1      -3.660   1.766  -1.814  1.00  0.00    -0.293 N 
ATOM      6  H2  UNL     1      -4.309   2.308  -2.384  1.00  0.00     0.172 HD
HETATM    7  C3  UNL     1      -3.465   0.471  -2.090  1.00  0.00     0.134 A 
HETATM    8  C4  UNL     1      -2.578  -0.226  -1.295  1.00  0.00     0.125 A 
HETATM    9  N4  UNL     1      -2.176  -1.516  -1.310  1.00  0.00    -0.302 N 
ATOM     10  H4  UNL     1      -2.493  -2.228  -1.968  1.00  0.00     0.171 HD
HETATM   11  C5  UNL     1      -1.303  -1.706  -0.330  1.00  0.00     0.329 A 
HETATM   12  O2  UNL     1      -0.684  -2.750   0.012  1.00  0.00    -0.246 OA
HETATM   13  N5  UNL     1      -1.131  -0.508   0.342  1.00  0.00    -0.274 N 
HETATM   14  C10 UNL     1      -1.905   0.411  -0.233  1.00  0.00     0.149 A 
ENDROOT
BRANCH  13  15
HETATM   15  C6  UNL     1      -0.240  -0.372   1.473  1.00  0.00     0.238 C 
BRANCH  15  16
HETATM   16  C7  UNL     1       1.126  -0.063   0.922  1.00  0.00     0.236 C 
HETATM   17  O3  UNL     1       1.245   0.017  -0.323  1.00  0.00    -0.272 OA
HETATM   18  N6  UNL     1       2.240   0.132   1.787  1.00  0.00    -0.351 N 
ATOM     19  H6  UNL     1       2.104   0.068   2.796  1.00  0.00     0.163 HD
BRANCH  18  20
HETATM   20  C8  UNL     1       3.536   0.413   1.279  1.00  0.00     0.227 C 
BRANCH  20  21
HETATM   21  C9  UNL     1       4.083  -0.699   0.493  1.00  0.00     0.253 C 
HETATM   22  O4  UNL     1       5.211  -0.543  -0.075  1.00  0.00    -0.270 OA
HETATM   23  N7  UNL     1       3.441  -1.931   0.332  1.00  0.00    -0.275 N 
ATOM     24  H7  UNL     1       2.539  -2.105   0.776  1.00  0.00     0.189 HD
BRANCH  23  25
HETATM   25  N8  UNL     1       4.062  -2.944  -0.462  1.00  0.00    -0.343 N 
ATOM     26  H82 UNL     1       4.964  -2.755  -0.900  1.00  0.00     0.176 HD
ATOM     27  H81 UNL     1       3.594  -3.843  -0.579  1.00  0.00     0.176 HD
ENDBRANCH  23  25
ENDBRANCH  20  21
ENDBRANCH  18  20
ENDBRANCH  15  16
ENDBRANCH  13  15
BRANCH   7  28
HETATM   28  N3  UNL     1      -4.066  -0.140  -3.055  1.00  0.00    -0.383 N 
ATOM     29  H32 UNL     1      -4.722   0.375  -3.643  1.00  0.00     0.157 HD
ATOM     30  H31 UNL     1      -3.917  -1.127  -3.265  1.00  0.00     0.157 HD
ENDBRANCH   7  28
TORSDOF 6
