REMARK  3 active torsions:
REMARK  status: ('A' for Active; 'I' for Inactive)
REMARK    1  A    between atoms: C2_5  and  N2_6 
REMARK    2  A    between atoms: N2_6  and  C3_8 
REMARK    3  A    between atoms: C3_8  and  C4_9 
ROOT
HETATM    1  O1  UNL     1      -2.058  -2.821  -0.545  1.00  0.00    -0.265 OA
HETATM    2  C1  UNL     1      -1.688  -1.628  -0.558  1.00  0.00     0.288 C 
HETATM    3  N1  UNL     1      -0.510  -1.335  -1.184  1.00  0.00    -0.154 N 
ATOM      4  H1  UNL     1      -0.140  -2.070  -1.787  1.00  0.00     0.187 HD
HETATM    5  C2  UNL     1       0.241  -0.200  -1.117  1.00  0.00     0.684 C 
HETATM    6  N7  UNL     1      -0.206   1.025  -0.797  1.00  0.00    -0.154 N 
ATOM      7  H7  UNL     1       0.371   1.804  -1.113  1.00  0.00     0.187 HD
HETATM    8  C5  UNL     1      -1.319   1.359  -0.112  1.00  0.00     0.288 C 
HETATM    9  O2  UNL     1      -1.393   2.555   0.211  1.00  0.00    -0.265 OA
HETATM   10  C6  UNL     1      -2.395   0.569   0.286  1.00  0.00     0.135 A 
HETATM   11  N8  UNL     1      -3.489   0.979   0.952  1.00  0.00    -0.346 N 
ATOM     12  H8  UNL     1      -3.658   1.940   1.248  1.00  0.00     0.167 HD
HETATM   13  C7  UNL     1      -4.331  -0.046   1.176  1.00  0.00     0.181 A 
HETATM   14  N9  UNL     1      -3.736  -1.124   0.631  1.00  0.00    -0.346 N 
ATOM     15  H9  UNL     1      -4.124  -2.067   0.633  1.00  0.00     0.167 HD
HETATM   16  C8  UNL     1      -2.557  -0.779   0.083  1.00  0.00     0.135 A 
ENDROOT
BRANCH   5  17
HETATM   17  N2  UNL     1       1.469  -0.388  -1.394  1.00  0.00    -0.219 N 
ATOM     18  H2  UNL     1       1.725  -1.348  -1.627  1.00  0.00     0.178 HD
BRANCH  17  19
HETATM   19  C3  UNL     1       2.530   0.552  -1.424  1.00  0.00     0.217 C 
BRANCH  19  20
HETATM   20  C4  UNL     1       3.064   0.729  -0.027  1.00  0.00     0.131 A 
HETATM   21  N3  UNL     1       2.669   1.613   0.906  1.00  0.00    -0.271 N 
HETATM   22  N4  UNL     1       3.403   1.424   1.987  1.00  0.00    -0.227 N 
ATOM     23  H3  UNL     1       1.931   2.308   0.797  1.00  0.00     0.190 HD
HETATM   24  N5  UNL     1       4.257   0.449   1.782  1.00  0.00    -0.227 N 
ATOM     25  H4  UNL     1       3.319   1.957   2.853  1.00  0.00     0.210 HD
HETATM   26  N6  UNL     1       4.055   0.019   0.553  1.00  0.00    -0.271 N 
ATOM     27  H5  UNL     1       4.945   0.093   2.446  1.00  0.00     0.210 HD
ATOM     28  H6  UNL     1       4.571  -0.739   0.106  1.00  0.00     0.190 HD
ENDBRANCH  19  20
ENDBRANCH  17  19
ENDBRANCH   5  17
TORSDOF 3
