REMARK  5 active torsions:
REMARK  status: ('A' for Active; 'I' for Inactive)
REMARK    1  A    between atoms: O1_2  and  C2_3 
REMARK    2  A    between atoms: C2_3  and  C3_5 
REMARK    3  A    between atoms: C6_9  and  N2_10 
REMARK    4  A    between atoms: N4_15  and  C7_16 
REMARK    5  A    between atoms: C11_24  and  O3_25 
ROOT
HETATM    1  C3  UNL     1       1.876  -0.809   0.239  1.00  0.00     0.174 A 
HETATM    2  C4  UNL     1       2.526  -2.016   0.346  1.00  0.00     0.124 A 
HETATM    3  C5  UNL     1       3.906  -2.316   0.096  1.00  0.00     0.106 C 
HETATM    4  N1  UNL     1       5.019  -2.547  -0.115  1.00  0.00    -0.191 NA
HETATM    5  C6  UNL     1       1.585  -2.931   0.754  1.00  0.00     0.138 A 
HETATM    6  N3  UNL     1       0.425  -2.309   0.887  1.00  0.00    -0.263 N 
ATOM      7  H3  UNL     1      -0.453  -2.739   1.178  1.00  0.00     0.190 HD
HETATM    8  N4  UNL     1       0.596  -1.038   0.579  1.00  0.00    -0.076 N 
ENDROOT
BRANCH   1   9
HETATM    9  C2  UNL     1       2.474   0.463  -0.166  1.00  0.00     0.314 C 
HETATM   10  O2  UNL     1       1.813   1.524  -0.240  1.00  0.00    -0.257 OA
BRANCH   9  11
HETATM   11  O1  UNL     1       3.806   0.509  -0.479  1.00  0.00    -0.321 OA
HETATM   12  C1  UNL     1       4.496   1.674  -0.882  1.00  0.00     0.213 C 
ENDBRANCH   9  11
ENDBRANCH   1   9
BRANCH   5  13
HETATM   13  N2  UNL     1       1.754  -4.202   0.984  1.00  0.00    -0.383 N 
ATOM     14  H22 UNL     1       2.648  -4.682   0.881  1.00  0.00     0.157 HD
ATOM     15  H21 UNL     1       1.056  -4.881   1.287  1.00  0.00     0.157 HD
ENDBRANCH   5  13
BRANCH   8  16
HETATM   16  C7  UNL     1      -0.420  -0.036   0.598  1.00  0.00     0.715 C 
HETATM   17  N5  UNL     1      -0.540   0.844   1.532  1.00  0.00    -0.135 N 
HETATM   18  N6  UNL     1      -1.537   1.814   1.534  1.00  0.00    -0.320 N 
ATOM     19  H5  UNL     1       0.126   0.828   2.304  1.00  0.00     0.205 HD
HETATM   20  C8  UNL     1      -2.286   2.043   0.326  1.00  0.00     0.174 C 
ATOM     21  H6  UNL     1      -1.734   2.354   2.377  1.00  0.00     0.180 HD
HETATM   22  C9  UNL     1      -2.581   0.726  -0.316  1.00  0.00     0.093 A 
HETATM   23  C10 UNL     1      -3.826   0.039   0.107  1.00  0.00     0.070 A 
HETATM   24  C11 UNL     1      -3.674   0.542  -1.294  1.00  0.00     0.151 A 
HETATM   25  N7  UNL     1      -1.350  -0.009  -0.474  1.00  0.00    -0.209 N 
ATOM     26  H7  UNL     1      -1.151  -0.503  -1.344  1.00  0.00     0.178 HD
BRANCH  24  27
HETATM   27  O3  UNL     1      -4.330   1.676  -1.710  1.00  0.00    -0.393 OA
ATOM     28  H3  UNL     1      -5.032   1.558  -2.339  1.00  0.00     0.210 HD
ENDBRANCH  24  27
ENDBRANCH   8  16
TORSDOF 5
