REMARK  11 active torsions:
REMARK  status: ('A' for Active; 'I' for Inactive)
REMARK    1  A    between atoms: N1_1  and  N2_4 
REMARK    2  A    between atoms: N2_4  and  C1_5 
REMARK    3  A    between atoms: C1_5  and  C2_6 
REMARK    4  A    between atoms: C2_6  and  C10_23 
REMARK    5  A    between atoms: N3_7  and  C3_9 
REMARK    6  A    between atoms: C5_13  and  C6_14 
REMARK    7  A    between atoms: C6_14  and  C7_15 
REMARK    8  A    between atoms: C7_15  and  C8_16 
REMARK    9  A    between atoms: C8_16  and  N5_17 
REMARK       I    between atoms: N5_17  and  C9_18 
REMARK   10  A    between atoms: C10_23  and  C11_25 
REMARK   11  A    between atoms: C11_25  and  C12_26 
ROOT
HETATM    1  C2  UNL     1      -3.098  -0.944  -0.394  1.00  0.00     0.085 C 
HETATM    2  N3  UNL     1      -1.750  -0.863  -0.306  1.00  0.00    -0.364 N 
ATOM      3  H3  UNL     1      -1.351  -1.694   0.131  1.00  0.00     0.162 HD
ENDROOT
BRANCH   2   4
HETATM    4  C3  UNL     1      -0.789   0.034  -0.647  1.00  0.00     0.200 C 
HETATM    5  C4  UNL     1      -0.643   1.259   0.177  1.00  0.00     0.167 C 
HETATM    6  N4  UNL     1       0.485   0.925   1.060  1.00  0.00    -0.376 N 
HETATM    7  C5  UNL     1       1.139  -0.076   0.590  1.00  0.00     0.074 C 
ATOM      8  H4  UNL     1       0.715   1.418   1.923  1.00  0.00     0.160 HD
HETATM    9  N8  UNL     1       0.580  -0.529  -0.619  1.00  0.00    -0.357 N 
ATOM     10  H8  UNL     1       1.023  -1.118  -1.324  1.00  0.00     0.163 HD
BRANCH   7  11
HETATM   11  C6  UNL     1       2.354  -0.626   1.307  1.00  0.00     0.082 C 
BRANCH  11  12
HETATM   12  C7  UNL     1       3.581  -0.178   0.560  1.00  0.00     0.067 C 
BRANCH  12  13
HETATM   13  C8  UNL     1       4.850  -0.699   1.230  1.00  0.00     0.158 C 
BRANCH  13  14
HETATM   14  N5  UNL     1       5.989  -0.319   0.634  1.00  0.00    -0.393 NA
HETATM   15  C9  UNL     1       6.988  -0.014   0.121  1.00  0.00     0.274 C 
HETATM   16  N6  UNL     1       7.188   1.319  -0.444  1.00  0.00    -0.052 NA
HETATM   17  N7  UNL     1       8.171  -0.851  -0.058  1.00  0.00    -0.052 NA
ENDBRANCH  13  14
ENDBRANCH  12  13
ENDBRANCH  11  12
ENDBRANCH   7  11
ENDBRANCH   2   4
BRANCH   1  18
HETATM   18  C1  UNL     1      -3.709  -0.970  -1.781  1.00  0.00     0.239 C 
BRANCH  18  19
HETATM   19  N2  UNL     1      -4.684  -1.693  -2.046  1.00  0.00    -0.343 NA
BRANCH  19  20
HETATM   20  N1  UNL     1      -5.459  -2.591  -2.451  1.00  0.00    -0.281 N 
ATOM     21  H12 UNL     1      -4.697  -3.105  -2.893  1.00  0.00     0.191 HD
ATOM     22  H11 UNL     1      -6.259  -3.185  -2.669  1.00  0.00     0.191 HD
ENDBRANCH  19  20
ENDBRANCH  18  19
ENDBRANCH   1  18
BRANCH   1  23
HETATM   23  C10 UNL     1      -4.024  -0.369   0.587  1.00  0.00     0.078 C 
HETATM   24  N9  UNL     1      -3.552  -0.176   1.917  1.00  0.00    -0.100 NA
BRANCH  23  25
HETATM   25  C11 UNL     1      -5.160   0.458   0.143  1.00  0.00     0.073 C 
BRANCH  25  26
HETATM   26  C12 UNL     1      -4.984   1.672  -0.631  1.00  0.00     0.111 C 
HETATM   27  N10 UNL     1      -3.904   2.307  -0.764  1.00  0.00    -0.388 N 
ATOM     28 2H10 UNL     1      -3.120   1.885  -0.266  1.00  0.00     0.157 HD
ATOM     29 1H10 UNL     1      -3.780   3.161  -1.308  1.00  0.00     0.157 HD
HETATM   30  N11 UNL     1      -6.101   2.274  -1.340  1.00  0.00    -0.083 NA
ENDBRANCH  25  26
ENDBRANCH  23  25
ENDBRANCH   1  23
TORSDOF 11
