REMARK  2 active torsions:
REMARK  status: ('A' for Active; 'I' for Inactive)
REMARK    1  A    between atoms: N1_1  and  C1_4 
REMARK    2  A    between atoms: N4_11  and  N5_12 
ROOT
HETATM    1  C1  UNL     1      -0.906  -1.082  -0.157  1.00  0.00     0.175 A 
HETATM    2  N2  UNL     1      -1.655   0.012   0.032  1.00  0.00    -0.289 N 
ATOM      3  H2  UNL     1      -2.672  -0.061   0.040  1.00  0.00     0.172 HD
HETATM    4  C2  UNL     1      -1.064   1.209   0.211  1.00  0.00     0.342 A 
HETATM    5  O1  UNL     1      -1.812   2.218   0.387  1.00  0.00    -0.245 OA
HETATM    6  N3  UNL     1       0.272   1.350   0.209  1.00  0.00    -0.227 N 
ATOM      7  H3  UNL     1       0.687   2.271   0.349  1.00  0.00     0.194 HD
HETATM    8  N4  UNL     1       1.059   0.283   0.023  1.00  0.00    -0.157 N 
HETATM    9  C3  UNL     1       0.461  -0.918  -0.157  1.00  0.00     0.325 A 
HETATM   10  O2  UNL     1       1.169  -1.967  -0.338  1.00  0.00    -0.261 OA
ENDROOT
BRANCH   1  11
HETATM   11  N1  UNL     1      -1.440  -2.260  -0.335  1.00  0.00    -0.381 N 
ATOM     12  H12 UNL     1      -2.453  -2.381  -0.335  1.00  0.00     0.157 HD
ATOM     13  H11 UNL     1      -0.870  -3.093  -0.479  1.00  0.00     0.157 HD
ENDBRANCH   1  11
BRANCH   8  14
HETATM   14  N5  UNL     1       2.451   0.395   0.015  1.00  0.00    -0.321 N 
ATOM     15  H52 UNL     1       2.902   1.300   0.151  1.00  0.00     0.179 HD
ATOM     16  H51 UNL     1       3.051  -0.418  -0.127  1.00  0.00     0.179 HD
ENDBRANCH   8  14
TORSDOF 2
