REMARK  10 active torsions:
REMARK  status: ('A' for Active; 'I' for Inactive)
REMARK    1  A    between atoms: C7_7  and  O1_8 
REMARK    2  A    between atoms: C12_14  and  O2_15 
REMARK    3  A    between atoms: C17_21  and  C18_22 
REMARK    4  A    between atoms: C19_23  and  C20_24 
REMARK    5  A    between atoms: C22_26  and  C23_27 
REMARK    6  A    between atoms: C23_27  and  C24_28 
REMARK       I    between atoms: C24_28  and  N1_30 
REMARK       I    between atoms: N1_30  and  C25_32 
REMARK    7  A    between atoms: C25_32  and  C26_34 
REMARK    8  A    between atoms: C26_34  and  C27_35 
REMARK    9  A    between atoms: C27_35  and  C28_36 
REMARK   10  A    between atoms: C28_36  and  N2_37 
ROOT
HETATM    1  C18 UNL     1      -1.499  -0.036   0.283  1.00  0.00    -0.024 C 
HETATM    2  C19 UNL     1      -0.742   0.064  -0.793  1.00  0.00    -0.025 C 
ENDROOT
BRANCH   2   3
HETATM    3  C20 UNL     1       0.055  -0.921  -1.475  1.00  0.00     0.016 C 
HETATM    4  C21 UNL     1       1.503  -0.429  -1.551  1.00  0.00     0.014 C 
HETATM    5  C22 UNL     1       2.267  -1.658  -1.911  1.00  0.00    -0.004 C 
HETATM    6  C30 UNL     1       1.309  -2.829  -1.870  1.00  0.00     0.014 C 
HETATM    7  C31 UNL     1       0.137  -2.301  -1.014  1.00  0.00    -0.041 C 
HETATM    8  C32 UNL     1       0.532  -2.561   0.393  1.00  0.00     0.015 C 
HETATM    9  C33 UNL     1      -1.086  -3.089  -1.440  1.00  0.00     0.015 C 
BRANCH   5  10
HETATM   10  C23 UNL     1       3.436  -1.848  -0.971  1.00  0.00     0.108 C 
BRANCH  10  11
HETATM   11  C24 UNL     1       4.320  -0.680  -1.070  1.00  0.00     0.224 C 
HETATM   12  O3  UNL     1       4.123   0.297  -1.833  1.00  0.00    -0.273 OA
HETATM   13  N1  UNL     1       5.497  -0.650  -0.232  1.00  0.00    -0.298 N 
HETATM   14  C25 UNL     1       6.393   0.445  -0.267  1.00  0.00     0.224 C 
ATOM     15  H1  UNL     1       5.685  -1.432   0.396  1.00  0.00     0.171 HD
HETATM   16  O4  UNL     1       6.183   1.424  -1.041  1.00  0.00    -0.273 OA
BRANCH  14  17
HETATM   17  C26 UNL     1       7.580   0.426   0.618  1.00  0.00     0.105 C 
BRANCH  17  18
HETATM   18  C27 UNL     1       8.358   1.701   0.393  1.00  0.00     0.029 C 
BRANCH  18  19
HETATM   19  C28 UNL     1       9.591   1.754   1.271  1.00  0.00     0.122 C 
BRANCH  19  20
HETATM   20  N2  UNL     1      10.445   0.633   0.964  1.00  0.00    -0.367 N 
HETATM   21  C29 UNL     1      11.521   0.806   0.280  1.00  0.00     0.196 C 
HETATM   22  N3  UNL     1      12.379  -0.274  -0.037  1.00  0.00    -0.067 NA
HETATM   23  N4  UNL     1      11.872   2.104  -0.176  1.00  0.00    -0.067 NA
ATOM     24  H2  UNL     1      10.195  -0.300   1.290  1.00  0.00     0.161 HD
ENDBRANCH  19  20
ENDBRANCH  18  19
ENDBRANCH  17  18
ENDBRANCH  14  17
ENDBRANCH  10  11
ENDBRANCH   5  10
ENDBRANCH   2   3
BRANCH   1  25
HETATM   25  C17 UNL     1      -2.245   1.115   0.827  1.00  0.00     0.028 C 
HETATM   26  C2  UNL     1      -1.872   1.178   2.320  1.00  0.00    -0.022 C 
HETATM   27  C1  UNL     1      -1.748   2.612   2.778  1.00  0.00     0.020 C 
HETATM   28  C3  UNL     1      -0.579   0.479   2.617  1.00  0.00     0.020 C 
HETATM   29  C4  UNL     1      -2.970   0.448   2.971  1.00  0.00    -0.014 C 
HETATM   30  C5  UNL     1      -4.029   0.345   2.186  1.00  0.00    -0.075 C 
HETATM   31  C6  UNL     1      -5.368  -0.267   2.325  1.00  0.00     0.066 C 
HETATM   32  C16 UNL     1      -3.698   1.027   0.922  1.00  0.00     0.027 C 
HETATM   33  C7  UNL     1      -6.396   0.229   1.402  1.00  0.00     0.127 C 
HETATM   34  C8  UNL     1      -5.956   0.959   0.188  1.00  0.00     0.030 C 
HETATM   35  C9  UNL     1      -4.513   0.609  -0.224  1.00  0.00     0.002 C 
HETATM   36  C13 UNL     1      -6.879   0.859  -0.987  1.00  0.00    -0.015 C 
HETATM   37  C10 UNL     1      -4.525  -0.778  -0.687  1.00  0.00     0.008 C 
HETATM   38  C11 UNL     1      -5.327  -0.806  -2.003  1.00  0.00     0.033 C 
HETATM   39  C12 UNL     1      -6.742  -0.381  -1.794  1.00  0.00     0.126 C 
HETATM   40  C14 UNL     1      -8.296   1.004  -0.534  1.00  0.00     0.018 C 
HETATM   41  C15 UNL     1      -6.536   2.035  -1.913  1.00  0.00     0.018 C 
BRANCH  33  42
HETATM   42  O1  UNL     1      -7.192  -0.865   1.006  1.00  0.00    -0.395 OA
ATOM     43  H1  UNL     1      -7.857  -0.544   0.409  1.00  0.00     0.210 HD
ENDBRANCH  33  42
BRANCH  39  44
HETATM   44  O2  UNL     1      -7.271  -0.097  -3.077  1.00  0.00    -0.395 OA
ATOM     45  H2  UNL     1      -8.172   0.174  -2.944  1.00  0.00     0.210 HD
ENDBRANCH  39  44
ENDBRANCH   1  25
TORSDOF 10
