REMARK  4 active torsions:
REMARK  status: ('A' for Active; 'I' for Inactive)
REMARK    1  A    between atoms: C2_2  and  O1_3 
REMARK    2  A    between atoms: O1_3  and  C3_4 
REMARK    3  A    between atoms: C14_15  and  O2_16 
REMARK    4  A    between atoms: C15_18  and  O3_19 
ROOT
HETATM    1  C3  UNL     1       2.754  -1.309   0.679  1.00  0.00     0.132 C 
HETATM    2  C4  UNL     1       3.483  -1.436  -0.674  1.00  0.00     0.033 C 
HETATM    3  C5  UNL     1       2.658  -0.581  -1.655  1.00  0.00     0.008 C 
HETATM    4  C6  UNL     1       1.749   0.109  -0.774  1.00  0.00    -0.003 C 
HETATM    5  C7  UNL     1       1.382  -1.033   0.202  1.00  0.00     0.020 C 
HETATM    6  C8  UNL     1       0.420  -0.369   1.076  1.00  0.00     0.013 C 
HETATM    7  C9  UNL     1      -0.193   0.702   0.195  1.00  0.00    -0.001 C 
HETATM    8  C10 UNL     1       0.407   0.533  -1.187  1.00  0.00    -0.005 C 
HETATM    9  C11 UNL     1      -0.329  -0.358  -2.097  1.00  0.00     0.006 C 
HETATM   10  C12 UNL     1      -1.815  -0.335  -2.003  1.00  0.00     0.008 C 
HETATM   11  C13 UNL     1      -2.236  -0.408  -0.570  1.00  0.00     0.025 C 
HETATM   12  C14 UNL     1      -3.687  -0.199  -0.326  1.00  0.00     0.151 C 
HETATM   13  C15 UNL     1      -3.778   0.373   1.077  1.00  0.00     0.148 C 
HETATM   14  C16 UNL     1      -2.328   0.654   1.497  1.00  0.00     0.044 C 
HETATM   15  C17 UNL     1      -1.647   0.784   0.192  1.00  0.00    -0.032 C 
HETATM   16  C18 UNL     1      -2.070   2.096  -0.439  1.00  0.00     0.016 C 
ENDROOT
BRANCH   1  17
HETATM   17  O1  UNL     1       3.303  -0.151   1.314  1.00  0.00    -0.358 OA
BRANCH  17  18
HETATM   18  C2  UNL     1       4.637  -0.024   1.625  1.00  0.00     0.125 C 
HETATM   19  C1  UNL     1       5.415   0.928   1.152  1.00  0.00     0.037 C 
ENDBRANCH  17  18
ENDBRANCH   1  17
BRANCH  12  20
HETATM   20  O2  UNL     1      -4.424  -1.383  -0.371  1.00  0.00    -0.393 OA
ATOM     21  H2  UNL     1      -5.352  -1.249  -0.215  1.00  0.00     0.210 HD
ENDBRANCH  12  20
BRANCH  13  22
HETATM   22  O3  UNL     1      -4.380  -0.535   1.953  1.00  0.00    -0.393 OA
ATOM     23  H3  UNL     1      -4.437  -0.177   2.831  1.00  0.00     0.210 HD
ENDBRANCH  13  22
TORSDOF 4
