REMARK  6 active torsions:
REMARK  status: ('A' for Active; 'I' for Inactive)
REMARK    1  A    between atoms: C3_3  and  C4_4 
REMARK    2  A    between atoms: C11_11  and  O1_12 
REMARK    3  A    between atoms: C17_19  and  C18_20 
REMARK    4  A    between atoms: C17_19  and  C19_25 
REMARK    5  A    between atoms: C18_20  and  N1_21 
REMARK    6  A    between atoms: C21_28  and  O2_29 
ROOT
HETATM    1  C19 UNL     1      -2.183  -2.335  -0.564  1.00  0.00     0.138 C 
HETATM    2  C20 UNL     1      -1.936  -3.770  -0.457  1.00  0.00     0.060 C 
HETATM    3  N2  UNL     1      -1.761  -4.935  -0.343  1.00  0.00    -0.197 NA
ENDROOT
BRANCH   1   4
HETATM    4  C17 UNL     1      -0.913  -1.566  -0.867  1.00  0.00     0.033 C 
HETATM    5  C15 UNL     1      -1.155  -0.083  -0.950  1.00  0.00    -0.004 C 
HETATM    6  C9  UNL     1      -0.392   0.705   0.061  1.00  0.00    -0.065 C 
HETATM    7  C13 UNL     1      -2.616   0.263  -1.021  1.00  0.00    -0.003 C 
HETATM    8  C16 UNL     1      -0.616   0.503  -2.278  1.00  0.00     0.021 C 
HETATM    9  C8  UNL     1       0.600   0.257   0.725  1.00  0.00    -0.066 C 
HETATM   10  C10 UNL     1      -0.814   2.143   0.314  1.00  0.00     0.067 C 
HETATM   11  C7  UNL     1       1.110  -1.154   0.561  1.00  0.00     0.045 C 
HETATM   12  C22 UNL     1       1.449   0.987   1.758  1.00  0.00     0.069 C 
HETATM   13  C6  UNL     1       2.405  -1.026  -0.172  1.00  0.00     0.016 C 
HETATM   14  C21 UNL     1       0.083  -2.054   0.104  1.00  0.00     0.138 C 
HETATM   15  C5  UNL     1       3.349  -0.075   0.432  1.00  0.00     0.035 C 
HETATM   16  C4  UNL     1       2.815   1.116   1.178  1.00  0.00    -0.076 C 
HETATM   17  C11 UNL     1      -2.269   1.977   0.797  1.00  0.00     0.122 C 
HETATM   18  C12 UNL     1      -2.985   1.612  -0.447  1.00  0.00     0.037 C 
HETATM   19  C14 UNL     1      -3.178   0.352  -2.428  1.00  0.00     0.011 C 
BRANCH  16  20
HETATM   20  C3  UNL     1       3.835   1.703   2.045  1.00  0.00    -0.001 C 
HETATM   21  C2  UNL     1       3.755   2.165   3.231  1.00  0.00    -0.031 C 
HETATM   22  C1  UNL     1       2.617   2.280   4.139  1.00  0.00     0.036 C 
ENDBRANCH  16  20
BRANCH  14  23
HETATM   23  O2  UNL     1      -0.584  -2.565   1.254  1.00  0.00    -0.394 OA
ATOM     24  H2  UNL     1      -1.262  -3.159   0.953  1.00  0.00     0.210 HD
ENDBRANCH  14  23
BRANCH  17  25
HETATM   25  O1  UNL     1      -2.354   1.090   1.839  1.00  0.00    -0.395 OA
ATOM     26  H1  UNL     1      -3.250   0.988   2.137  1.00  0.00     0.210 HD
ENDBRANCH  17  25
BRANCH   4  27
HETATM   27  C18 UNL     1      -0.470  -1.999  -2.272  1.00  0.00     0.243 C 
BRANCH  27  28
HETATM   28  N1  UNL     1      -0.157  -3.390  -2.379  1.00  0.00    -0.078 N 
ATOM     29  H13 UNL     1       0.543  -3.654  -1.685  1.00  0.00     0.274 HD
ATOM     30  H12 UNL     1      -0.940  -3.959  -2.059  1.00  0.00     0.274 HD
ATOM     31  H11 UNL     1       0.137  -3.678  -3.312  1.00  0.00     0.274 HD
ENDBRANCH  27  28
ENDBRANCH   4  27
ENDBRANCH   1   4
TORSDOF 6
