REMARK  5 active torsions:
REMARK  status: ('A' for Active; 'I' for Inactive)
REMARK    1  A    between atoms: C4_4  and  C5_5 
REMARK    2  A    between atoms: C5_5  and  C6_6 
REMARK    3  A    between atoms: C6_6  and  C7_7 
REMARK    4  A    between atoms: C7_7  and  C8_8 
REMARK    5  A    between atoms: C11_11  and  C12_12 
ROOT
HETATM    1  C8  UNL     1       0.763  -1.134   0.944  1.00  0.00    -0.058 A 
HETATM    2  C9  UNL     1       1.404  -0.308   1.829  1.00  0.00     0.008 A 
HETATM    3  C10 UNL     1       2.710   0.059   1.580  1.00  0.00     0.013 A 
HETATM    4  C11 UNL     1       3.400  -0.377   0.468  1.00  0.00    -0.025 A 
HETATM    5  C16 UNL     1       2.730  -1.206  -0.405  1.00  0.00     0.013 A 
HETATM    6  C17 UNL     1       1.417  -1.581  -0.163  1.00  0.00     0.008 A 
ENDROOT
BRANCH   1   7
HETATM    7  C7  UNL     1      -0.641  -1.545   1.187  1.00  0.00     0.039 C 
BRANCH   7   8
HETATM    8  C6  UNL     1      -1.551  -0.539   0.539  1.00  0.00     0.009 C 
BRANCH   8   9
HETATM    9  C5  UNL     1      -3.011  -0.879   0.739  1.00  0.00     0.039 C 
BRANCH   9  10
HETATM   10  C4  UNL     1      -3.802   0.175   0.061  1.00  0.00    -0.058 A 
HETATM   11  C3  UNL     1      -4.185   0.063  -1.264  1.00  0.00     0.007 A 
HETATM   12  C2  UNL     1      -4.917   1.042  -1.891  1.00  0.00     0.001 A 
HETATM   13  C1  UNL     1      -5.304   2.182  -1.233  1.00  0.00     0.000 A 
HETATM   14  C19 UNL     1      -4.926   2.308   0.100  1.00  0.00     0.001 A 
HETATM   15  C18 UNL     1      -4.182   1.313   0.739  1.00  0.00     0.007 A 
ENDBRANCH   9  10
ENDBRANCH   8   9
ENDBRANCH   7   8
ENDBRANCH   1   7
BRANCH   4  16
HETATM   16  C12 UNL     1       4.812   0.040   0.232  1.00  0.00    -0.019 A 
HETATM   17  C13 UNL     1       5.317   0.189  -1.000  1.00  0.00     0.020 A 
HETATM   18  C14 UNL     1       6.628   0.577  -1.097  1.00  0.00     0.050 A 
HETATM   19  S1  UNL     1       7.108   0.720   0.532  1.00  0.00    -0.113 SA
HETATM   20  C15 UNL     1       5.646   0.288   1.289  1.00  0.00     0.061 A 
ENDBRANCH   4  16
TORSDOF 5
