REMARK  3 active torsions:
REMARK  status: ('A' for Active; 'I' for Inactive)
REMARK       I    between atoms: C1_2  and  N1_3 
REMARK    1  A    between atoms: C1_2  and  C12_18 
REMARK    2  A    between atoms: N1_3  and  C2_5 
REMARK    3  A    between atoms: N2_9  and  C6_10 
ROOT
HETATM    1  C2  UNL     1       0.794  -0.530   0.863  1.00  0.00     0.102 C 
HETATM    2  C3  UNL     1       1.021  -2.015   0.961  1.00  0.00     0.028 C 
HETATM    3  C4  UNL     1       0.111  -2.739   0.031  1.00  0.00     0.022 C 
HETATM    4  C5  UNL     1      -1.307  -2.219   0.234  1.00  0.00     0.120 C 
HETATM    5  N2  UNL     1      -1.405  -0.848  -0.144  1.00  0.00    -0.375 N 
HETATM    6  C11 UNL     1      -0.153  -0.182  -0.267  1.00  0.00     0.145 C 
ENDROOT
BRANCH   1   7
HETATM    7  N1  UNL     1       2.057   0.143   0.670  1.00  0.00    -0.350 N 
HETATM    8  C1  UNL     1       2.964  -0.096  -0.365  1.00  0.00     0.259 C 
HETATM    9  O1  UNL     1       2.744  -0.949  -1.249  1.00  0.00    -0.267 OA
ATOM     10  H1  UNL     1       2.310   0.858   1.352  1.00  0.00     0.163 HD
BRANCH   8  11
HETATM   11  C12 UNL     1       4.236   0.645  -0.473  1.00  0.00     0.075 A 
HETATM   12  C13 UNL     1       4.724   1.628   0.352  1.00  0.00     0.050 A 
HETATM   13  C14 UNL     1       5.913   2.152   0.039  1.00  0.00     0.064 A 
HETATM   14 CL1  UNL     1       6.677   3.436   1.015  1.00  0.00    -0.082 Cl
HETATM   15  C15 UNL     1       6.546   1.671  -1.073  1.00  0.00     0.097 A 
HETATM   16 CL2  UNL     1       8.117   2.168  -1.731  1.00  0.00    -0.074 Cl
HETATM   17  S1  UNL     1       5.454   0.494  -1.650  1.00  0.00    -0.071 SA
ENDBRANCH   8  11
ENDBRANCH   1   7
BRANCH   5  18
HETATM   18  C6  UNL     1      -2.527  -0.141   0.296  1.00  0.00     0.195 C 
HETATM   19  F1  UNL     1      -2.556  -0.178   1.697  1.00  0.00    -0.217 F 
HETATM   20  C7  UNL     1      -2.511   1.290  -0.105  1.00  0.00     0.071 C 
HETATM   21  C8  UNL     1      -3.888   1.904   0.177  1.00  0.00     0.031 C 
HETATM   22  C9  UNL     1      -4.895   1.081  -0.592  1.00  0.00     0.168 C 
HETATM   23  O2  UNL     1      -4.941  -0.163   0.048  1.00  0.00    -0.386 OA
HETATM   24  C10 UNL     1      -3.791  -0.883  -0.151  1.00  0.00     0.233 C 
ENDBRANCH   5  18
TORSDOF 3
