REMARK  9 active torsions:
REMARK  status: ('A' for Active; 'I' for Inactive)
REMARK       I    between atoms: C2_2  and  N1_4 
REMARK    1  A    between atoms: N1_4  and  C3_6 
REMARK    2  A    between atoms: C5_8  and  N2_9 
REMARK    3  A    between atoms: C6_13  and  N3_14 
REMARK    4  A    between atoms: C8_19  and  O2_20 
REMARK    5  A    between atoms: O2_20  and  C9_21 
REMARK    6  A    between atoms: C10_23  and  O4_24 
REMARK    7  A    between atoms: O4_24  and  C11_25 
REMARK    8  A    between atoms: C11_25  and  C12_26 
REMARK       I    between atoms: N4_30  and  C16_32 
REMARK    9  A    between atoms: C19_41  and  O7_42 
ROOT
HETATM    1  C9  UNL     1      -0.805   0.687  -0.381  1.00  0.00     0.296 C 
HETATM    2  O3  UNL     1       0.170   0.137  -1.208  1.00  0.00    -0.305 OA
HETATM    3  C10 UNL     1       1.430   0.449  -0.673  1.00  0.00     0.415 C 
HETATM    4  O6  UNL     1       1.664   1.828  -0.735  1.00  0.00    -0.331 OA
HETATM    5  C17 UNL     1       0.719   2.560  -0.038  1.00  0.00     0.156 C 
HETATM    6  C18 UNL     1       0.905   2.512   1.446  1.00  0.00     0.042 C 
HETATM    7  C19 UNL     1      -0.673   2.195  -0.485  1.00  0.00     0.202 C 
ENDROOT
BRANCH   1   8
HETATM    8  O2  UNL     1      -2.084   0.358  -0.781  1.00  0.00    -0.351 OA
BRANCH   8   9
HETATM    9  C8  UNL     1      -2.845  -0.270   0.166  1.00  0.00     0.149 C 
HETATM   10  C3  UNL     1      -4.134   0.488   0.400  1.00  0.00     0.115 C 
HETATM   11  C4  UNL     1      -5.321  -0.461   0.561  1.00  0.00     0.062 C 
HETATM   12  C5  UNL     1      -4.977  -1.657   1.392  1.00  0.00     0.216 C 
HETATM   13  C6  UNL     1      -3.766  -2.393   0.910  1.00  0.00     0.216 C 
HETATM   14  C7  UNL     1      -3.258  -1.663  -0.328  1.00  0.00     0.069 C 
BRANCH  10  15
HETATM   15  N1  UNL     1      -4.380   1.378  -0.704  1.00  0.00    -0.354 N 
HETATM   16  C2  UNL     1      -4.526   2.776  -0.563  1.00  0.00     0.214 C 
HETATM   17  C1  UNL     1      -4.778   3.641  -1.742  1.00  0.00     0.117 C 
HETATM   18  O1  UNL     1      -4.440   3.294   0.577  1.00  0.00    -0.274 OA
ATOM     19  H1  UNL     1      -4.453   0.977  -1.639  1.00  0.00     0.162 HD
ENDBRANCH  10  15
BRANCH  12  20
HETATM   20  N2  UNL     1      -6.117  -2.547   1.381  1.00  0.00    -0.073 N 
ATOM     21  H23 UNL     1      -6.978  -2.091   1.682  1.00  0.00     0.274 HD
ATOM     22  H22 UNL     1      -6.417  -2.794   0.438  1.00  0.00     0.274 HD
ATOM     23  H21 UNL     1      -5.883  -3.362   1.947  1.00  0.00     0.274 HD
ENDBRANCH  12  20
BRANCH  13  24
HETATM   24  N3  UNL     1      -4.011  -3.767   0.577  1.00  0.00    -0.073 N 
ATOM     25  H33 UNL     1      -4.437  -4.256   1.365  1.00  0.00     0.274 HD
ATOM     26  H32 UNL     1      -4.769  -3.841  -0.102  1.00  0.00     0.274 HD
ATOM     27  H31 UNL     1      -3.186  -4.269   0.249  1.00  0.00     0.274 HD
ENDBRANCH  13  24
ENDBRANCH   8   9
ENDBRANCH   1   8
BRANCH   7  28
HETATM   28  O7  UNL     1      -0.786   2.572  -1.828  1.00  0.00    -0.388 OA
ATOM     29  H7  UNL     1      -0.703   3.516  -1.893  1.00  0.00     0.210 HD
ENDBRANCH   7  28
BRANCH   3  30
HETATM   30  O4  UNL     1       1.621  -0.070   0.567  1.00  0.00    -0.336 OA
BRANCH  30  31
HETATM   31  C11 UNL     1       2.595  -0.941   0.847  1.00  0.00     0.205 C 
BRANCH  31  32
HETATM   32  C12 UNL     1       4.017  -0.540   0.750  1.00  0.00     0.154 C 
HETATM   33  C13 UNL     1       4.544  -0.155  -0.585  1.00  0.00     0.043 C 
HETATM   34  C14 UNL     1       6.058  -0.317  -0.338  1.00  0.00     0.087 C 
HETATM   35  C15 UNL     1       6.060  -1.594   0.421  1.00  0.00     0.120 C 
HETATM   36  N4  UNL     1       7.016  -2.468   0.367  1.00  0.00    -0.315 N 
HETATM   37  O5  UNL     1       4.889  -1.629   1.146  1.00  0.00    -0.332 OA
HETATM   38  C16 UNL     1       8.165  -2.265  -0.445  1.00  0.00     0.187 C 
ATOM     39  H4  UNL     1       6.942  -3.322   0.920  1.00  0.00     0.170 HD
HETATM   40  N5  UNL     1       8.580  -3.215  -1.224  1.00  0.00    -0.373 N 
HETATM   41  N6  UNL     1       8.890  -1.036  -0.435  1.00  0.00    -0.064 NA
ATOM     42  H52 UNL     1       8.062  -4.094  -1.231  1.00  0.00     0.158 HD
ATOM     43  H51 UNL     1       9.404  -3.069  -1.807  1.00  0.00     0.158 HD
ENDBRANCH  31  32
ENDBRANCH  30  31
ENDBRANCH   3  30
TORSDOF 9
