REMARK  14 active torsions:
REMARK  status: ('A' for Active; 'I' for Inactive)
REMARK       I    between atoms: C2_2  and  N1_4 
REMARK    1  A    between atoms: C4_9  and  C5_10 
REMARK    2  A    between atoms: C5_10  and  O2_11 
REMARK    3  A    between atoms: O2_11  and  N3_12 
REMARK    4  A    between atoms: C6_16  and  O6_17 
REMARK    5  A    between atoms: O6_17  and  C7_18 
REMARK    6  A    between atoms: C7_18  and  C9_20 
REMARK    7  A    between atoms: C9_20  and  N4_21 
REMARK    8  A    between atoms: C9_20  and  C12_26 
REMARK       I    between atoms: N4_21  and  C10_23 
REMARK    9  A    between atoms: C12_26  and  C13_28 
REMARK   10  A    between atoms: N8_35  and  C14_36 
REMARK   11  A    between atoms: C14_36  and  C15_37 
REMARK   12  A    between atoms: C18_45  and  C19_46 
REMARK   13  A    between atoms: C21_50  and  N12_51 
REMARK   14  A    between atoms: C24_61  and  O10_62 
ROOT
HETATM    1  C13 UNL     1       1.403   0.956   1.849  1.00  0.00     0.188 A 
HETATM    2  N5  UNL     1       1.974   1.406   3.042  1.00  0.00    -0.265 N 
ATOM      3  H5  UNL     1       1.565   1.286   3.969  1.00  0.00     0.190 HD
HETATM    4  N6  UNL     1       3.102   1.999   2.797  1.00  0.00    -0.226 N 
ATOM      5  H6  UNL     1       3.724   2.421   3.486  1.00  0.00     0.210 HD
HETATM    6  N7  UNL     1       3.294   1.957   1.511  1.00  0.00    -0.224 N 
ATOM      7  H7  UNL     1       4.103   2.348   1.028  1.00  0.00     0.210 HD
HETATM    8  N8  UNL     1       2.265   1.319   0.909  1.00  0.00    -0.253 N 
ENDROOT
BRANCH   1   9
HETATM    9  C12 UNL     1       0.146   0.270   1.859  1.00  0.00     0.221 C 
HETATM   10  O8  UNL     1      -0.328  -0.014   3.034  1.00  0.00    -0.287 OA
BRANCH   9  11
HETATM   11  C9  UNL     1      -0.740  -0.182   0.778  1.00  0.00     0.191 C 
BRANCH  11  12
HETATM   12  C7  UNL     1      -1.894   0.780   0.601  1.00  0.00     0.151 C 
HETATM   13  C8  UNL     1      -1.286   2.133   0.201  1.00  0.00     0.042 C 
BRANCH  12  14
HETATM   14  O6  UNL     1      -2.782   0.353  -0.351  1.00  0.00    -0.350 OA
BRANCH  14  15
HETATM   15  C6  UNL     1      -4.097   0.488   0.034  1.00  0.00     0.304 C 
HETATM   16  O5  UNL     1      -4.598   1.521  -0.873  1.00  0.00    -0.303 OA
HETATM   17  C4  UNL     1      -5.929   1.879  -0.830  1.00  0.00     0.149 C 
HETATM   18  N2  UNL     1      -6.786   1.086  -0.376  1.00  0.00    -0.326 N 
HETATM   19  C3  UNL     1      -6.443  -0.221   0.121  1.00  0.00     0.119 C 
ATOM     20  H2  UNL     1      -7.763   1.377  -0.358  1.00  0.00     0.169 HD
HETATM   21  N1  UNL     1      -7.300  -0.889   0.770  1.00  0.00    -0.315 N 
HETATM   22  C24 UNL     1      -5.028  -0.654  -0.178  1.00  0.00     0.241 C 
HETATM   23  C2  UNL     1      -7.146  -2.150   1.311  1.00  0.00     0.219 C 
ATOM     24  H1  UNL     1      -8.208  -0.445   0.909  1.00  0.00     0.170 HD
HETATM   25  C1  UNL     1      -6.961  -2.418   2.782  1.00  0.00     0.117 C 
HETATM   26  O1  UNL     1      -7.146  -3.231   0.617  1.00  0.00    -0.274 OA
BRANCH  17  27
HETATM   27  C5  UNL     1      -6.277   3.246  -1.350  1.00  0.00     0.292 C 
BRANCH  27  28
HETATM   28  O2  UNL     1      -7.641   3.511  -1.242  1.00  0.00    -0.213 OA
BRANCH  28  29
HETATM   29  N3  UNL     1      -8.088   4.729  -1.683  1.00  0.00     0.005 N 
HETATM   30  O3  UNL     1      -8.760   5.458  -0.943  1.00  0.00    -0.511 OA
HETATM   31  O4  UNL     1      -7.766   5.106  -2.963  1.00  0.00    -0.511 OA
ENDBRANCH  28  29
ENDBRANCH  27  28
ENDBRANCH  17  27
BRANCH  22  32
HETATM   32  O10 UNL     1      -4.751  -1.759   0.579  1.00  0.00    -0.383 OA
ATOM     33  H10 UNL     1      -3.861  -2.031   0.391  1.00  0.00     0.210 HD
ENDBRANCH  22  32
ENDBRANCH  14  15
ENDBRANCH  12  14
ENDBRANCH  11  12
BRANCH  11  34
HETATM   34  N4  UNL     1      -1.323  -1.493   1.175  1.00  0.00    -0.347 N 
HETATM   35  C10 UNL     1      -1.233  -2.641   0.381  1.00  0.00     0.214 C 
HETATM   36  C11 UNL     1      -1.835  -3.913   0.852  1.00  0.00     0.117 C 
HETATM   37  O7  UNL     1      -0.651  -2.619  -0.724  1.00  0.00    -0.274 OA
ATOM     38  H4  UNL     1      -1.811  -1.557   2.068  1.00  0.00     0.163 HD
ENDBRANCH  11  34
ENDBRANCH   9  11
ENDBRANCH   1   9
BRANCH   8  39
HETATM   39  C14 UNL     1       2.303   1.083  -0.505  1.00  0.00     0.187 C 
BRANCH  39  40
HETATM   40  C15 UNL     1       3.167  -0.127  -0.852  1.00  0.00    -0.049 C 
HETATM   41  C16 UNL     1       2.520  -1.049  -1.512  1.00  0.00     0.080 C 
HETATM   42  C17 UNL     1       3.093  -2.326  -1.985  1.00  0.00     0.260 C 
HETATM   43  O9  UNL     1       2.325  -3.291  -2.158  1.00  0.00    -0.267 OA
HETATM   44  N9  UNL     1       4.492  -2.541  -2.266  1.00  0.00    -0.266 N 
HETATM   45  N10 UNL     1       5.505  -1.756  -1.754  1.00  0.00    -0.301 N 
ATOM     46  H9  UNL     1       4.746  -3.317  -2.877  1.00  0.00     0.190 HD
HETATM   47  C18 UNL     1       5.602  -0.747  -0.999  1.00  0.00     0.045 C 
ATOM     48  H10 UNL     1       6.421  -2.076  -2.069  1.00  0.00     0.186 HD
HETATM   49  C23 UNL     1       4.531   0.025  -0.348  1.00  0.00     0.095 C 
BRANCH  47  50
HETATM   50  C19 UNL     1       6.983  -0.278  -0.754  1.00  0.00     0.048 A 
HETATM   51  C20 UNL     1       7.154   0.781   0.146  1.00  0.00     0.123 A 
HETATM   52  N11 UNL     1       8.360   1.275   0.471  1.00  0.00    -0.201 N 
HETATM   53  C21 UNL     1       9.455   0.738  -0.084  1.00  0.00     0.677 A 
ATOM     54  H11 UNL     1       8.441   2.048   1.131  1.00  0.00     0.183 HD
HETATM   55  N13 UNL     1       9.305  -0.261  -0.933  1.00  0.00    -0.176 N 
HETATM   56  C22 UNL     1       8.106  -0.818  -1.314  1.00  0.00     0.128 A 
ATOM     57  H13 UNL     1      10.152  -0.655  -1.343  1.00  0.00     0.186 HD
HETATM   58  N14 UNL     1       8.094  -1.750  -2.129  1.00  0.00    -0.384 N 
ATOM     59 2H14 UNL     1       7.205  -2.163  -2.411  1.00  0.00     0.157 HD
ATOM     60 1H14 UNL     1       8.932  -2.153  -2.547  1.00  0.00     0.157 HD
BRANCH  53  61
HETATM   61  N12 UNL     1      10.633   1.212   0.229  1.00  0.00    -0.234 N 
ATOM     62 2H12 UNL     1      10.749   1.984   0.885  1.00  0.00     0.174 HD
ATOM     63 1H12 UNL     1      11.467   0.803  -0.193  1.00  0.00     0.174 HD
ENDBRANCH  53  61
ENDBRANCH  47  50
ENDBRANCH  39  40
ENDBRANCH   8  39
TORSDOF 14
