REMARK  12 active torsions:
REMARK  status: ('A' for Active; 'I' for Inactive)
REMARK    1  A    between atoms: C2_2  and  N1_3 
REMARK    2  A    between atoms: C3_4  and  C4_5 
REMARK    3  A    between atoms: C5_6  and  C6_7 
REMARK    4  A    between atoms: C6_7  and  C7_8 
REMARK    5  A    between atoms: C7_8  and  C8_9 
REMARK    6  A    between atoms: C8_9  and  C9_10 
REMARK    7  A    between atoms: C9_10  and  C10_11 
REMARK    8  A    between atoms: C10_11  and  C11_12 
REMARK    9  A    between atoms: C11_12  and  C12_13 
REMARK   10  A    between atoms: C12_13  and  C13_14 
REMARK   11  A    between atoms: C13_14  and  C14_15 
REMARK   12  A    between atoms: C14_15  and  N2_16 
REMARK       I    between atoms: N2_16  and  C15_18 
ROOT
HETATM    1  C6  UNL     1      -0.972  -1.068  -0.957  1.00  0.00    -0.001 C 
ENDROOT
BRANCH   1   2
HETATM    2  C5  UNL     1      -2.360  -0.797  -0.970  1.00  0.00    -0.006 C 
HETATM    3  C4  UNL     1      -3.550  -0.553  -0.962  1.00  0.00    -0.016 C 
BRANCH   3   4
HETATM    4  C3  UNL     1      -4.952  -0.250  -0.934  1.00  0.00     0.165 A 
HETATM    5  N1  UNL     1      -5.595   0.736  -0.289  1.00  0.00    -0.329 N 
HETATM    6  C18 UNL     1      -6.917   0.662  -0.532  1.00  0.00     0.032 A 
HETATM    7  C16 UNL     1      -7.103  -0.422  -1.368  1.00  0.00     0.030 A 
HETATM    8  C19 UNL     1      -8.021   1.526  -0.043  1.00  0.00     0.070 C 
HETATM    9  N5  UNL     1      -5.882  -0.957  -1.595  1.00  0.00    -0.337 N 
HETATM   10  C17 UNL     1      -8.395  -0.906  -1.913  1.00  0.00     0.070 C 
ATOM     11  H5  UNL     1      -5.696  -1.773  -2.179  1.00  0.00     0.168 HD
BRANCH   5  12
HETATM   12  C2  UNL     1      -4.979   1.741   0.550  1.00  0.00     0.126 C 
HETATM   13  C1  UNL     1      -4.926   1.236   1.991  1.00  0.00     0.027 C 
ENDBRANCH   5  12
ENDBRANCH   3   4
ENDBRANCH   1   2
BRANCH   1  14
HETATM   14  C7  UNL     1       0.218  -1.294  -0.927  1.00  0.00    -0.000 C 
BRANCH  14  15
HETATM   15  C8  UNL     1       1.608  -1.554  -0.868  1.00  0.00    -0.000 C 
BRANCH  15  16
HETATM   16  C9  UNL     1       2.809  -1.771  -0.798  1.00  0.00    -0.001 C 
BRANCH  16  17
HETATM   17  C10 UNL     1       4.197  -2.020  -0.694  1.00  0.00    -0.014 C 
BRANCH  17  18
HETATM   18  C11 UNL     1       5.385  -2.248  -0.589  1.00  0.00    -0.092 C 
BRANCH  18  19
HETATM   19  C12 UNL     1       6.814  -2.545  -0.475  1.00  0.00     0.096 C 
BRANCH  19  20
HETATM   20  C13 UNL     1       7.309  -1.912   0.793  1.00  0.00     0.032 C 
BRANCH  20  21
HETATM   21  C14 UNL     1       7.089  -0.418   0.742  1.00  0.00     0.123 C 
BRANCH  21  22
HETATM   22  N2  UNL     1       7.815   0.125  -0.385  1.00  0.00    -0.367 N 
HETATM   23  C15 UNL     1       8.140   1.367  -0.375  1.00  0.00     0.196 C 
HETATM   24  N3  UNL     1       8.854   1.938  -1.466  1.00  0.00    -0.067 NA
HETATM   25  N4  UNL     1       7.790   2.178   0.721  1.00  0.00    -0.067 NA
ATOM     26  H2  UNL     1       8.065  -0.469  -1.175  1.00  0.00     0.161 HD
ENDBRANCH  21  22
ENDBRANCH  20  21
ENDBRANCH  19  20
ENDBRANCH  18  19
ENDBRANCH  17  18
ENDBRANCH  16  17
ENDBRANCH  15  16
ENDBRANCH  14  15
ENDBRANCH   1  14
TORSDOF 12
