REMARK  10 active torsions:
REMARK  status: ('A' for Active; 'I' for Inactive)
REMARK    1  A    between atoms: C2_2  and  C4_4 
REMARK    2  A    between atoms: C4_4  and  N1_5 
REMARK    3  A    between atoms: N2_11  and  C8_12 
REMARK    4  A    between atoms: C8_12  and  C9_13 
REMARK    5  A    between atoms: C18_29  and  C19_30 
REMARK    6  A    between atoms: C19_30  and  C20_31 
REMARK    7  A    between atoms: C20_31  and  C21_32 
REMARK    8  A    between atoms: C21_32  and  C22_33 
REMARK    9  A    between atoms: C22_33  and  C23_34 
REMARK   10  A    between atoms: C23_34  and  C24_35 
ROOT
HETATM    1  N1  UNL     1       0.156   2.540  -0.694  1.00  0.00    -0.262 N 
HETATM    2  C5  UNL     1      -1.034   1.827  -0.485  1.00  0.00     0.369 C 
HETATM    3  O1  UNL     1      -2.052   2.134  -1.163  1.00  0.00    -0.238 OA
HETATM    4  O2  UNL     1      -1.186   0.771   0.441  1.00  0.00    -0.302 OA
HETATM    5  C6  UNL     1      -0.837   0.855   1.801  1.00  0.00     0.211 C 
HETATM    6  C7  UNL     1      -1.359  -0.275   2.620  1.00  0.00     0.300 C 
HETATM    7  N2  UNL     1      -2.717  -0.201   2.997  1.00  0.00     0.103 N 
HETATM    8  C10 UNL     1      -3.497  -1.347   2.686  1.00  0.00     0.300 C 
HETATM    9  C11 UNL     1      -2.788  -2.479   2.064  1.00  0.00     0.001 C 
HETATM   10  C12 UNL     1      -2.770  -2.774   0.795  1.00  0.00    -0.003 C 
HETATM   11  C13 UNL     1      -3.445  -2.054  -0.305  1.00  0.00     0.194 C 
HETATM   12  O5  UNL     1      -2.565  -1.940  -1.393  1.00  0.00    -0.385 OA
HETATM   13  C14 UNL     1      -2.819  -2.841  -2.400  1.00  0.00     0.194 C 
HETATM   14  C15 UNL     1      -1.599  -2.888  -3.304  1.00  0.00     0.193 C 
HETATM   15  O6  UNL     1      -1.339  -1.621  -3.777  1.00  0.00    -0.387 OA
HETATM   16  C16 UNL     1      -0.002  -1.421  -4.084  1.00  0.00     0.195 C 
HETATM   17  C17 UNL     1       0.819  -1.140  -2.825  1.00  0.00     0.259 C 
HETATM   18  N3  UNL     1       0.531   0.194  -2.341  1.00  0.00    -0.060 N 
ATOM     19  H31 UNL     1      -0.345   0.247  -1.821  1.00  0.00     0.278 HD
ATOM     20  H32 UNL     1       0.283   0.842  -3.088  1.00  0.00     0.278 HD
HETATM   21  C18 UNL     1       1.678   0.637  -1.565  1.00  0.00     0.277 C 
HETATM   22  C25 UNL     1       1.450   1.907  -0.882  1.00  0.00     0.259 C 
HETATM   23  O7  UNL     1       2.463   2.514  -0.415  1.00  0.00    -0.271 OA
ENDROOT
BRANCH  21  24
HETATM   24  C19 UNL     1       2.041  -0.450  -0.619  1.00  0.00     0.043 C 
BRANCH  24  25
HETATM   25  C20 UNL     1       3.225  -0.104   0.258  1.00  0.00     0.002 C 
BRANCH  25  26
HETATM   26  C21 UNL     1       3.557  -1.296   1.171  1.00  0.00     0.000 C 
BRANCH  26  27
HETATM   27  C22 UNL     1       4.727  -0.983   2.047  1.00  0.00     0.001 C 
BRANCH  27  28
HETATM   28  C23 UNL     1       5.101  -2.116   2.961  1.00  0.00     0.011 C 
BRANCH  28  29
HETATM   29  C24 UNL     1       3.970  -2.480   3.883  1.00  0.00     0.086 C 
HETATM   30  S1  UNL     1       4.522  -3.845   4.945  1.00  0.00    -0.098 SA
ENDBRANCH  28  29
ENDBRANCH  27  28
ENDBRANCH  26  27
ENDBRANCH  25  26
ENDBRANCH  24  25
ENDBRANCH  21  24
BRANCH   1  31
HETATM   31  C4  UNL     1       0.156   3.982  -0.753  1.00  0.00     0.141 C 
BRANCH  31  32
HETATM   32  C2  UNL     1       0.078   4.625  -2.075  1.00  0.00    -0.004 C 
HETATM   33  C1  UNL     1      -1.087   4.386  -2.947  1.00  0.00     0.011 C 
HETATM   34  C3  UNL     1       1.360   4.410  -2.899  1.00  0.00     0.011 C 
ENDBRANCH  31  32
ENDBRANCH   1  31
BRANCH   7  35
HETATM   35  C8  UNL     1      -3.347   0.977   2.537  1.00  0.00     0.385 C 
BRANCH  35  36
HETATM   36  C9  UNL     1      -4.764   1.130   2.958  1.00  0.00     0.202 C 
HETATM   37  O3  UNL     1      -5.286   0.289   3.721  1.00  0.00    -0.647 OA
HETATM   38  O4  UNL     1      -5.551   2.187   2.533  1.00  0.00    -0.647 OA
ENDBRANCH  35  36
ENDBRANCH   7  35
TORSDOF 10
