REMARK  2 active torsions:
REMARK  status: ('A' for Active; 'I' for Inactive)
REMARK    1  A    between atoms: N2_3  and  C2_5 
REMARK    2  A    between atoms: N3_7  and  N4_8 
ROOT
HETATM    1  C2  UNL     1      -0.429   0.074  -0.835  1.00  0.00     0.191 A 
HETATM    2  C3  UNL     1      -1.091   1.353  -0.711  1.00  0.00     0.158 A 
HETATM    3  N3  UNL     1      -1.171   0.352   0.386  1.00  0.00    -0.210 NA
ENDROOT
BRANCH   1   4
HETATM    4  N2  UNL     1       0.971  -0.144  -0.644  1.00  0.00    -0.368 N 
HETATM    5  C1  UNL     1       1.561  -0.365   0.456  1.00  0.00     0.186 C 
HETATM    6  N1  UNL     1       2.957  -0.562   0.488  1.00  0.00    -0.097 NA
ATOM      7  H2  UNL     1       1.556  -0.119  -1.479  1.00  0.00     0.161 HD
ENDBRANCH   1   4
BRANCH   3   8
HETATM    8  N4  UNL     1      -2.421  -0.295   0.497  1.00  0.00    -0.361 NA
ATOM      9  H42 UNL     1      -2.476  -0.982   1.249  1.00  0.00     0.171 HD
ATOM     10  H41 UNL     1      -2.941  -0.100   1.353  1.00  0.00     0.171 HD
ENDBRANCH   3   8
TORSDOF 2
