REMARK  2 active torsions:
REMARK  status: ('A' for Active; 'I' for Inactive)
REMARK    1  A    between atoms: O1_1  and  N1_3 
REMARK    2  A    between atoms: N3_7  and  O2_8 
ROOT
HETATM    1  N1  UNL     1       1.349   0.338   0.038  1.00  0.00    -0.211 N 
HETATM    2  C1  UNL     1       1.014  -0.967  -0.067  1.00  0.00     0.233 A 
HETATM    3  N2  UNL     1      -0.322  -1.026  -0.010  1.00  0.00    -0.267 N 
ATOM      4  H2  UNL     1      -0.862  -1.890  -0.065  1.00  0.00     0.190 HD
HETATM    5  N3  UNL     1      -0.853   0.176   0.126  1.00  0.00    -0.156 N 
HETATM    6  C2  UNL     1       0.192   1.024   0.156  1.00  0.00     0.267 A 
ENDROOT
BRANCH   1   7
HETATM    7  O1  UNL     1       2.607   0.907   0.032  1.00  0.00    -0.281 OA
ATOM      8  H1  UNL     1       2.842   1.824   0.106  1.00  0.00     0.245 HD
ENDBRANCH   1   7
BRANCH   5   9
HETATM    9  O2  UNL     1      -2.155   0.563   0.223  1.00  0.00    -0.267 OA
ATOM     10  H2  UNL     1      -2.537   1.427   0.321  1.00  0.00     0.247 HD
ENDBRANCH   5   9
TORSDOF 2
