REMARK  4 active torsions:
REMARK  status: ('A' for Active; 'I' for Inactive)
REMARK    1  A    between atoms: C1_2  and  C2_4 
REMARK    2  A    between atoms: C2_4  and  N2_5 
REMARK    3  A    between atoms: N2_5  and  N3_7 
REMARK       I    between atoms: N3_7  and  C3_9 
REMARK    4  A    between atoms: C3_9  and  C4_11 
ROOT
HETATM    1  N3  UNL     1       0.000   0.941  -0.148  1.00  0.00    -0.269 N 
ATOM      2  H3  UNL     1      -0.515   1.513   0.521  1.00  0.00     0.190 HD
HETATM    3  C3  UNL     1      -0.683  -0.157  -0.705  1.00  0.00     0.286 C 
HETATM    4  O2  UNL     1      -0.106  -0.901  -1.535  1.00  0.00    -0.264 OA
ENDROOT
BRANCH   1   5
HETATM    5  N2  UNL     1       1.306   1.319  -0.422  1.00  0.00    -0.325 N 
ATOM      6  H2  UNL     1       1.539   2.222  -0.836  1.00  0.00     0.180 HD
BRANCH   5   7
HETATM    7  C2  UNL     1       2.304   0.349  -0.081  1.00  0.00     0.238 C 
BRANCH   7   8
HETATM    8  C1  UNL     1       3.675   0.862  -0.404  1.00  0.00     0.250 C 
HETATM    9  N1  UNL     1       4.765  -0.003  -0.133  1.00  0.00    -0.061 NA
HETATM   10  O1  UNL     1       3.825   1.999  -0.886  1.00  0.00    -0.275 OA
ENDBRANCH   7   8
ENDBRANCH   5   7
ENDBRANCH   1   5
BRANCH   3  11
HETATM   11  C4  UNL     1      -2.067  -0.478  -0.353  1.00  0.00     0.102 A 
HETATM   12  C5  UNL     1      -2.827  -1.538  -0.801  1.00  0.00     0.036 A 
HETATM   13  C6  UNL     1      -4.082  -1.475  -0.229  1.00  0.00     0.019 A 
HETATM   14  C7  UNL     1      -4.066  -0.340   0.584  1.00  0.00     0.088 A 
HETATM   15  N4  UNL     1      -2.860   0.230   0.490  1.00  0.00    -0.361 N 
ATOM     16  H4  UNL     1      -2.576   1.077   0.982  1.00  0.00     0.165 HD
ENDBRANCH   3  11
TORSDOF 4
