REMARK  12 active torsions:
REMARK  status: ('A' for Active; 'I' for Inactive)
REMARK    1  A    between atoms: C2_2  and  C5_5 
REMARK    2  A    between atoms: C5_5  and  C6_6 
REMARK    3  A    between atoms: C8_12  and  N3_13 
REMARK    4  A    between atoms: N3_13  and  C9_15 
REMARK    5  A    between atoms: C9_15  and  C10_16 
REMARK    6  A    between atoms: C10_16  and  C11_17 
REMARK    7  A    between atoms: C10_16  and  N4_26 
REMARK    8  A    between atoms: C11_17  and  C12_18 
REMARK    9  A    between atoms: C12_18  and  C13_20 
REMARK       I    between atoms: N4_26  and  C19_28 
REMARK   10  A    between atoms: C19_28  and  O3_30 
REMARK   11  A    between atoms: O3_30  and  C20_31 
REMARK   12  A    between atoms: C24_35  and  C25_36 
ROOT
HETATM    1  C9  UNL     1      -0.447  -0.236   1.088  1.00  0.00     0.147 C 
ENDROOT
BRANCH   1   2
HETATM    2  N3  UNL     1       0.619   0.396   0.346  1.00  0.00    -0.374 N 
ATOM      3  H3  UNL     1       0.423   0.930  -0.501  1.00  0.00     0.161 HD
BRANCH   2   4
HETATM    4  C8  UNL     1       1.846   0.264   0.792  1.00  0.00     0.116 A 
HETATM    5  N2  UNL     1       2.030  -0.450   1.916  1.00  0.00    -0.338 N 
HETATM    6  C7  UNL     1       3.280  -0.606   2.369  1.00  0.00     0.182 A 
ATOM      7  H2  UNL     1       1.239  -0.862   2.410  1.00  0.00     0.168 HD
HETATM    8  N1  UNL     1       4.269  -0.063   1.703  1.00  0.00    -0.355 N 
HETATM    9  C6  UNL     1       4.155   0.678   0.545  1.00  0.00     0.026 A 
ATOM     10  H1  UNL     1       5.209  -0.201   2.075  1.00  0.00     0.166 HD
HETATM   11  C24 UNL     1       2.886   0.849   0.073  1.00  0.00     0.079 A 
BRANCH   9  12
HETATM   12  C5  UNL     1       5.424   1.059  -0.027  1.00  0.00     0.066 C 
BRANCH  12  13
HETATM   13  C2  UNL     1       6.196  -0.009  -0.740  1.00  0.00    -0.046 C 
HETATM   14  C1  UNL     1       6.513  -1.123   0.277  1.00  0.00     0.015 C 
HETATM   15  C3  UNL     1       5.591  -0.673  -1.905  1.00  0.00     0.015 C 
HETATM   16  C4  UNL     1       7.569   0.513  -1.170  1.00  0.00     0.015 C 
ENDBRANCH  12  13
ENDBRANCH   9  12
BRANCH  11  17
HETATM   17  C25 UNL     1       2.610   1.675  -1.085  1.00  0.00     0.272 C 
HETATM   18  C26 UNL     1       3.072   3.125  -0.895  1.00  0.00     0.096 C 
HETATM   19  F1  UNL     1       2.833   1.198  -2.330  1.00  0.00    -0.201 F 
HETATM   20  F2  UNL     1       1.190   1.842  -1.083  1.00  0.00    -0.201 F 
ENDBRANCH  11  17
ENDBRANCH   2   4
ENDBRANCH   1   2
BRANCH   1  21
HETATM   21  C10 UNL     1      -1.811  -0.075   0.464  1.00  0.00     0.111 C 
BRANCH  21  22
HETATM   22  C11 UNL     1      -2.194   1.348   0.393  1.00  0.00     0.110 C 
BRANCH  22  23
HETATM   23  C12 UNL     1      -3.521   1.598  -0.208  1.00  0.00     0.161 C 
HETATM   24  O1  UNL     1      -4.264   0.684  -0.645  1.00  0.00    -0.292 OA
BRANCH  23  25
HETATM   25  C13 UNL     1      -3.994   2.962  -0.300  1.00  0.00     0.010 A 
HETATM   26  C14 UNL     1      -5.212   3.249  -0.839  1.00  0.00     0.015 A 
HETATM   27  C15 UNL     1      -5.675   4.546  -0.932  1.00  0.00     0.001 A 
HETATM   28  C16 UNL     1      -4.868   5.559  -0.461  1.00  0.00     0.000 A 
HETATM   29  C17 UNL     1      -3.635   5.310   0.088  1.00  0.00     0.001 A 
HETATM   30  C18 UNL     1      -3.202   3.988   0.165  1.00  0.00     0.015 A 
ENDBRANCH  23  25
ENDBRANCH  22  23
ENDBRANCH  21  22
BRANCH  21  31
HETATM   31  N4  UNL     1      -2.741  -0.919   1.143  1.00  0.00    -0.330 N 
HETATM   32  C19 UNL     1      -3.178  -2.102   0.486  1.00  0.00     0.361 C 
HETATM   33  O2  UNL     1      -2.747  -2.410  -0.669  1.00  0.00    -0.238 OA
ATOM     34  H4  UNL     1      -3.083  -0.680   2.074  1.00  0.00     0.165 HD
BRANCH  32  35
HETATM   35  O3  UNL     1      -4.075  -2.991   1.018  1.00  0.00    -0.294 OA
BRANCH  35  36
HETATM   36  C20 UNL     1      -4.513  -4.166   0.393  1.00  0.00     0.061 C 
HETATM   37  C21 UNL     1      -5.513  -4.820   1.352  1.00  0.00     0.046 C 
HETATM   38  C22 UNL     1      -5.271  -3.945  -0.890  1.00  0.00     0.046 C 
HETATM   39  C23 UNL     1      -3.436  -5.160   0.121  1.00  0.00     0.046 C 
ENDBRANCH  35  36
ENDBRANCH  32  35
ENDBRANCH  21  31
ENDBRANCH   1  21
TORSDOF 12
