REMARK  9 active torsions:
REMARK  status: ('A' for Active; 'I' for Inactive)
REMARK    1  A    between atoms: O1_2  and  C2_3 
REMARK    2  A    between atoms: C2_3  and  C3_4 
REMARK    3  A    between atoms: C3_4  and  C4_5 
REMARK    4  A    between atoms: C4_5  and  N1_6 
REMARK    5  A    between atoms: N4_15  and  C8_16 
REMARK    6  A    between atoms: C8_16  and  C9_17 
REMARK    7  A    between atoms: C9_17  and  C10_18 
REMARK    8  A    between atoms: C10_18  and  N5_19 
REMARK    9  A    between atoms: C28_41  and  N9_42 
ROOT
HETATM    1  N1  UNL     1       2.811   0.278  -0.116  1.00  0.00    -0.241 N 
HETATM    2  C5  UNL     1       2.278   0.246   1.154  1.00  0.00     0.190 A 
HETATM    3  C6  UNL     1       2.876  -0.547   2.120  1.00  0.00     0.171 A 
HETATM    4  N2  UNL     1       2.223  -0.377   3.256  1.00  0.00    -0.173 N 
ATOM      5  H2  UNL     1       2.443  -0.836   4.140  1.00  0.00     0.186 HD
HETATM    6  C7  UNL     1       1.241   0.482   3.063  1.00  0.00     0.681 A 
HETATM    7  N3  UNL     1       0.380   0.936   3.897  1.00  0.00    -0.234 N 
ATOM      8  H31 UNL     1      -0.379   1.600   3.748  1.00  0.00     0.174 HD
ATOM      9  H32 UNL     1       0.372   0.637   4.872  1.00  0.00     0.174 HD
HETATM   10  N4  UNL     1       1.252   0.893   1.725  1.00  0.00    -0.163 N 
HETATM   11  N7  UNL     1       3.963  -1.306   1.875  1.00  0.00    -0.317 N 
HETATM   12  C20 UNL     1       4.474  -2.134   2.957  1.00  0.00     0.159 C 
HETATM   13  C21 UNL     1       4.477  -1.278   0.656  1.00  0.00     0.161 A 
HETATM   14  C22 UNL     1       5.623  -2.048   0.403  1.00  0.00     0.089 A 
HETATM   15  N8  UNL     1       6.367  -2.867   1.152  1.00  0.00    -0.356 N 
ATOM     16  H8  UNL     1       6.208  -3.099   2.133  1.00  0.00     0.166 HD
HETATM   17  C23 UNL     1       7.380  -3.337   0.363  1.00  0.00     0.006 A 
HETATM   18  C24 UNL     1       8.440  -4.293   0.835  1.00  0.00     0.068 C 
HETATM   19  C25 UNL     1       7.271  -2.811  -0.882  1.00  0.00     0.038 A 
HETATM   20  C26 UNL     1       6.147  -1.980  -0.870  1.00  0.00    -0.000 A 
HETATM   21  C27 UNL     1       5.591  -1.207  -1.842  1.00  0.00     0.064 A 
HETATM   22  C28 UNL     1       4.450  -0.455  -1.548  1.00  0.00     0.124 A 
HETATM   23  N10 UNL     1       3.904  -0.490  -0.329  1.00  0.00    -0.214 N 
ENDROOT
BRANCH  10  24
HETATM   24  C8  UNL     1       0.225   1.727   1.259  1.00  0.00     0.151 C 
BRANCH  24  25
HETATM   25  C9  UNL     1      -1.040   0.815   1.140  1.00  0.00     0.049 C 
BRANCH  25  26
HETATM   26  C10 UNL     1      -2.164   1.659   0.626  1.00  0.00     0.239 C 
BRANCH  26  27
HETATM   27  N5  UNL     1      -3.414   0.984   0.451  1.00  0.00    -0.064 N 
HETATM   28  C11 UNL     1      -4.544   1.888   0.557  1.00  0.00     0.239 C 
HETATM   29  C12 UNL     1      -5.767   1.276   1.155  1.00  0.00     0.061 C 
HETATM   30  C13 UNL     1      -6.449   0.297   0.222  1.00  0.00     0.187 C 
HETATM   31  C14 UNL     1      -7.229   0.962  -0.865  1.00  0.00     0.040 C 
HETATM   32  N6  UNL     1      -5.456  -0.634  -0.294  1.00  0.00    -0.064 N 
HETATM   33  C15 UNL     1      -6.187  -1.782  -0.838  1.00  0.00     0.273 C 
HETATM   34  C16 UNL     1      -4.652  -1.115   0.781  1.00  0.00     0.265 C 
HETATM   35  C18 UNL     1      -4.727  -0.041  -1.368  1.00  0.00     0.265 C 
HETATM   36  C17 UNL     1      -3.573  -0.204   1.252  1.00  0.00     0.265 C 
HETATM   37  C19 UNL     1      -3.416   0.518  -0.947  1.00  0.00     0.265 C 
ENDBRANCH  26  27
ENDBRANCH  25  26
ENDBRANCH  24  25
ENDBRANCH  10  24
BRANCH   1  38
HETATM   38  C4  UNL     1       2.242   1.109  -1.098  1.00  0.00     0.094 C 
BRANCH  38  39
HETATM   39  C3  UNL     1       1.150   0.719  -2.007  1.00  0.00     0.073 C 
BRANCH  39  40
HETATM   40  C2  UNL     1       0.865   1.893  -2.966  1.00  0.00     0.172 C 
BRANCH  40  41
HETATM   41  O1  UNL     1       0.499   3.027  -2.286  1.00  0.00    -0.396 OA
HETATM   42  C1  UNL     1       0.237   4.097  -3.133  1.00  0.00     0.201 C 
ENDBRANCH  40  41
ENDBRANCH  39  40
ENDBRANCH  38  39
ENDBRANCH   1  38
BRANCH  22  43
HETATM   43  N9  UNL     1       4.002   0.273  -2.480  1.00  0.00    -0.384 N 
ATOM     44  H92 UNL     1       4.419   0.300  -3.411  1.00  0.00     0.157 HD
ATOM     45  H91 UNL     1       3.169   0.822  -2.265  1.00  0.00     0.157 HD
ENDBRANCH  22  43
TORSDOF 9
