REMARK  20 active torsions:
REMARK  status: ('A' for Active; 'I' for Inactive)
REMARK    1  A    between atoms: C8_8  and  C9_9 
REMARK    2  A    between atoms: C9_9  and  O1_10 
REMARK    3  A    between atoms: C10_12  and  O2_13 
REMARK    4  A    between atoms: O2_13  and  C11_14 
REMARK       I    between atoms: C11_14  and  N1_16 
REMARK    5  A    between atoms: N1_16  and  C12_18 
REMARK    6  A    between atoms: C12_18  and  C13_19 
REMARK    7  A    between atoms: C13_19  and  C14_20 
REMARK    8  A    between atoms: C14_20  and  N2_21 
REMARK       I    between atoms: N2_21  and  C15_23 
REMARK    9  A    between atoms: C15_23  and  C16_25 
REMARK   10  A    between atoms: C16_25  and  O5_26 
REMARK   11  A    between atoms: C18_29  and  O6_30 
REMARK   12  A    between atoms: C21_35  and  C22_36 
REMARK   13  A    between atoms: C22_36  and  C23_37 
REMARK   14  A    between atoms: C23_37  and  C24_38 
REMARK   15  A    between atoms: C24_38  and  C25_39 
REMARK   16  A    between atoms: C24_38  and  N3_44 
REMARK   17  A    between atoms: C25_39  and  C26_40 
REMARK   18  A    between atoms: C26_40  and  C27_41 
REMARK   19  A    between atoms: C27_41  and  C28_42 
REMARK       I    between atoms: N3_44  and  C31_46 
REMARK   20  A    between atoms: C31_46  and  C32_48 
ROOT
HETATM    1  C1  UNL     1      -2.693  -3.696  -1.141  1.00  0.00     0.021 C 
HETATM    2  C2  UNL     1      -1.787  -2.785  -0.703  1.00  0.00    -0.038 C 
HETATM    3  C3  UNL     1      -0.474  -3.476  -0.647  1.00  0.00     0.040 C 
HETATM    4  C4  UNL     1       0.344  -3.216  -1.923  1.00  0.00     0.011 C 
HETATM    5  C5  UNL     1      -0.059  -1.899  -2.407  1.00  0.00     0.007 C 
HETATM    6  C6  UNL     1       0.509  -1.253  -3.619  1.00  0.00     0.041 C 
HETATM    7  C7  UNL     1       1.253  -0.354  -2.694  1.00  0.00    -0.059 C 
HETATM    8  C8  UNL     1       2.249   0.502  -2.566  1.00  0.00    -0.024 C 
HETATM    9  C10 UNL     1       2.627   1.124  -1.232  1.00  0.00     0.167 C 
HETATM   10  C17 UNL     1       1.762   0.621  -0.136  1.00  0.00     0.070 C 
HETATM   11  C18 UNL     1       1.175  -0.782  -0.391  1.00  0.00     0.136 C 
HETATM   12  C19 UNL     1       0.324  -0.733  -1.577  1.00  0.00     0.035 C 
HETATM   13  C20 UNL     1      -0.885   0.136  -1.320  1.00  0.00     0.192 C 
HETATM   14  O7  UNL     1      -2.078  -0.477  -1.313  1.00  0.00    -0.354 OA
HETATM   15  C21 UNL     1      -2.426  -1.449  -0.438  1.00  0.00     0.052 C 
ENDROOT
BRANCH   9  16
HETATM   16  O2  UNL     1       3.957   0.796  -0.912  1.00  0.00    -0.294 OA
BRANCH  16  17
HETATM   17  C11 UNL     1       5.031   1.641  -0.822  1.00  0.00     0.361 C 
HETATM   18  O3  UNL     1       4.845   2.849  -1.042  1.00  0.00    -0.238 OA
HETATM   19  N1  UNL     1       6.344   1.208  -0.491  1.00  0.00    -0.337 N 
ATOM     20  H1  UNL     1       6.513   0.220  -0.303  1.00  0.00     0.164 HD
BRANCH  19  21
HETATM   21  C12 UNL     1       7.437   2.139  -0.417  1.00  0.00     0.126 C 
BRANCH  21  22
HETATM   22  C13 UNL     1       8.738   1.432  -0.057  1.00  0.00     0.039 C 
BRANCH  22  23
HETATM   23  C14 UNL     1       8.655   0.743   1.260  1.00  0.00     0.124 C 
BRANCH  23  24
HETATM   24  N2  UNL     1       9.891   0.076   1.553  1.00  0.00    -0.359 N 
HETATM   25  C15 UNL     1      11.096   0.796   1.699  1.00  0.00     0.241 C 
HETATM   26  O4  UNL     1      11.219   2.031   1.603  1.00  0.00    -0.271 OA
ATOM     27  H2  UNL     1       9.899  -0.939   1.658  1.00  0.00     0.162 HD
BRANCH  25  28
HETATM   28  C16 UNL     1      12.369   0.036   2.000  1.00  0.00     0.266 C 
BRANCH  28  29
HETATM   29  O5  UNL     1      13.452   0.863   2.138  1.00  0.00    -0.392 OA
ATOM     30  H5  UNL     1      14.251   0.386   2.327  1.00  0.00     0.210 HD
ENDBRANCH  28  29
ENDBRANCH  25  28
ENDBRANCH  23  24
ENDBRANCH  22  23
ENDBRANCH  21  22
ENDBRANCH  19  21
ENDBRANCH  16  17
ENDBRANCH   9  16
BRANCH   8  31
HETATM   31  C9  UNL     1       3.085   0.822  -3.761  1.00  0.00     0.201 C 
BRANCH  31  32
HETATM   32  O1  UNL     1       2.651   0.128  -4.867  1.00  0.00    -0.397 OA
ATOM     33  H1  UNL     1       3.183   0.332  -5.627  1.00  0.00     0.209 HD
ENDBRANCH  31  32
ENDBRANCH   8  31
BRANCH  11  34
HETATM   34  O6  UNL     1       2.292  -1.603  -0.488  1.00  0.00    -0.394 OA
ATOM     35  H6  UNL     1       1.930  -2.467  -0.645  1.00  0.00     0.210 HD
ENDBRANCH  11  34
BRANCH  15  36
HETATM   36  C22 UNL     1      -2.461  -1.098   1.020  1.00  0.00     0.067 C 
BRANCH  36  37
HETATM   37  C23 UNL     1      -3.155   0.196   1.279  1.00  0.00     0.032 C 
BRANCH  37  38
HETATM   38  C24 UNL     1      -4.605   0.144   0.849  1.00  0.00     0.087 C 
BRANCH  38  39
HETATM   39  C25 UNL     1      -5.209   1.526   1.151  1.00  0.00     0.025 C 
BRANCH  39  40
HETATM   40  C26 UNL     1      -6.647   1.543   0.756  1.00  0.00     0.002 C 
BRANCH  40  41
HETATM   41  C27 UNL     1      -7.297   2.852   1.045  1.00  0.00    -0.000 C 
BRANCH  41  42
HETATM   42  C28 UNL     1      -6.647   3.978   0.321  1.00  0.00    -0.005 C 
HETATM   43  C29 UNL     1      -7.317   5.311   0.597  1.00  0.00     0.005 C 
ENDBRANCH  41  42
ENDBRANCH  40  41
ENDBRANCH  39  40
ENDBRANCH  38  39
BRANCH  38  44
HETATM   44  N3  UNL     1      -5.394  -0.787   1.632  1.00  0.00    -0.352 N 
HETATM   45  C30 UNL     1      -5.312  -0.666   3.074  1.00  0.00     0.153 C 
HETATM   46  C31 UNL     1      -6.220  -1.795   1.089  1.00  0.00     0.219 C 
HETATM   47  O8  UNL     1      -6.301  -1.920  -0.146  1.00  0.00    -0.273 OA
BRANCH  46  48
HETATM   48  C32 UNL     1      -6.985  -2.697   1.969  1.00  0.00     0.098 C 
HETATM   49  C33 UNL     1      -7.706  -3.765   1.151  1.00  0.00     0.014 C 
ENDBRANCH  46  48
ENDBRANCH  38  44
ENDBRANCH  37  38
ENDBRANCH  36  37
ENDBRANCH  15  36
TORSDOF 20
