REMARK  6 active torsions:
REMARK  status: ('A' for Active; 'I' for Inactive)
REMARK    1  A    between atoms: C2_2  and  O1_4 
REMARK    2  A    between atoms: C2_2  and  O2_6 
REMARK    3  A    between atoms: O2_6  and  C4_7 
REMARK       I    between atoms: C4_7  and  N1_9 
REMARK    4  A    between atoms: N1_9  and  C5_11 
REMARK    5  A    between atoms: C6_14  and  N3_15 
REMARK    6  A    between atoms: C7_20  and  N5_21 
ROOT
HETATM    1  C5  UNL     1      -1.545   0.680   0.074  1.00  0.00     0.704 A 
HETATM    2  N2  UNL     1      -2.671   1.306  -0.305  1.00  0.00    -0.154 N 
ATOM      3  H2  UNL     1      -2.694   2.324  -0.363  1.00  0.00     0.187 HD
HETATM    4  C6  UNL     1      -3.767   0.590  -0.608  1.00  0.00     0.278 A 
HETATM    5  N4  UNL     1      -3.683  -0.763  -0.513  1.00  0.00    -0.155 N 
ATOM      6  H4  UNL     1      -4.501  -1.330  -0.737  1.00  0.00     0.187 HD
HETATM    7  C7  UNL     1      -2.546  -1.373  -0.131  1.00  0.00     0.693 A 
HETATM    8  N6  UNL     1      -1.438  -0.654   0.175  1.00  0.00    -0.022 N 
ATOM      9  H6  UNL     1      -0.570  -1.103   0.466  1.00  0.00     0.203 HD
ENDROOT
BRANCH   1  10
HETATM   10  N1  UNL     1      -0.534   1.431   0.348  1.00  0.00    -0.134 N 
HETATM   11  C4  UNL     1       0.696   0.846   0.757  1.00  0.00     0.381 C 
HETATM   12  O3  UNL     1       0.840   0.318   1.910  1.00  0.00    -0.237 OA
ATOM     13  H1  UNL     1      -0.616   2.445   0.271  1.00  0.00     0.189 HD
BRANCH  11  14
HETATM   14  O2  UNL     1       1.796   0.817  -0.069  1.00  0.00    -0.266 OA
BRANCH  14  15
HETATM   15  C2  UNL     1       3.043   0.249   0.282  1.00  0.00     0.165 C 
HETATM   16  C1  UNL     1       3.990   0.415  -0.887  1.00  0.00     0.079 C 
HETATM   17  C3  UNL     1       2.784  -1.227   0.562  1.00  0.00     0.079 C 
BRANCH  15  18
HETATM   18  O1  UNL     1       3.566   0.876   1.398  1.00  0.00    -0.365 OA
ATOM     19  H1  UNL     1       2.972   0.772   2.132  1.00  0.00     0.213 HD
ENDBRANCH  15  18
ENDBRANCH  14  15
ENDBRANCH  11  14
ENDBRANCH   1  10
BRANCH   4  20
HETATM   20  N3  UNL     1      -4.947   1.247  -1.005  1.00  0.00    -0.078 N 
HETATM   21  O4  UNL     1      -4.972   2.478  -1.076  1.00  0.00    -0.529 OA
HETATM   22  O5  UNL     1      -6.058   0.519  -1.311  1.00  0.00    -0.529 OA
ENDBRANCH   4  20
BRANCH   7  23
HETATM   23  N5  UNL     1      -2.464  -2.664  -0.040  1.00  0.00    -0.234 N 
ATOM     24  H52 UNL     1      -3.298  -3.205  -0.270  1.00  0.00     0.174 HD
ATOM     25  H51 UNL     1      -1.602  -3.126   0.250  1.00  0.00     0.174 HD
ENDBRANCH   7  23
TORSDOF 6
