REMARK  5 active torsions:
REMARK  status: ('A' for Active; 'I' for Inactive)
REMARK       I    between atoms: N1_2  and  C2_4 
REMARK    1  A    between atoms: C2_4  and  C3_6 
REMARK    2  A    between atoms: C3_6  and  N2_7 
REMARK    3  A    between atoms: C4_13  and  N4_14 
REMARK    4  A    between atoms: N7_19  and  N8_20 
REMARK    5  A    between atoms: N8_20  and  O2_24 
ROOT
HETATM    1  C3  UNL     1      -0.741   0.063  -0.425  1.00  0.00     0.405 A 
HETATM    2  N3  UNL     1       0.417   0.821  -0.106  1.00  0.00    -0.162 N 
ATOM      3  H3  UNL     1       0.614   1.819  -0.037  1.00  0.00     0.182 HD
HETATM    4  C4  UNL     1       1.118  -0.239   0.061  1.00  0.00     0.708 A 
HETATM    5  N7  UNL     1       0.044  -1.111  -0.237  1.00  0.00    -0.015 N 
ENDROOT
BRANCH   1   6
HETATM    6  C2  UNL     1      -1.858   0.212   0.533  1.00  0.00     0.299 C 
HETATM    7  N1  UNL     1      -3.143   0.573   0.075  1.00  0.00    -0.360 N 
HETATM    8  C1  UNL     1      -4.263   0.728   0.981  1.00  0.00     0.149 C 
ATOM      9  H1  UNL     1      -3.288   0.729  -0.923  1.00  0.00     0.162 HD
HETATM   10  O1  UNL     1      -1.630   0.010   1.738  1.00  0.00    -0.266 OA
ENDBRANCH   1   6
BRANCH   1  11
HETATM   11  N2  UNL     1      -1.162   0.329  -1.785  1.00  0.00    -0.021 N 
ATOM     12  H23 UNL     1      -1.958  -0.252  -2.048  1.00  0.00     0.280 HD
ATOM     13  H22 UNL     1      -1.601   1.246  -1.866  1.00  0.00     0.280 HD
ATOM     14  H21 UNL     1      -0.392   0.226  -2.446  1.00  0.00     0.280 HD
ENDBRANCH   1  11
BRANCH   5  15
HETATM   15  N8  UNL     1      -0.116  -2.490  -0.301  1.00  0.00    -0.080 N 
HETATM   16  N9  UNL     1       0.728  -3.183  -0.918  1.00  0.00    -0.303 N 
ATOM     17  H92 UNL     1       1.524  -2.731  -1.368  1.00  0.00     0.181 HD
ATOM     18  H91 UNL     1       0.611  -4.195  -0.965  1.00  0.00     0.181 HD
BRANCH  15  19
HETATM   19  O2  UNL     1      -1.182  -3.095   0.301  1.00  0.00    -0.253 OA
ATOM     20  H2  UNL     1      -1.291  -4.038   0.257  1.00  0.00     0.248 HD
ENDBRANCH  15  19
ENDBRANCH   5  15
BRANCH   4  21
HETATM   21  N4  UNL     1       2.493  -0.463   0.420  1.00  0.00    -0.164 N 
HETATM   22  C5  UNL     1       3.339   0.509   0.414  1.00  0.00     0.215 C 
HETATM   23  N5  UNL     1       2.985   1.832   0.063  1.00  0.00    -0.066 NA
HETATM   24  N6  UNL     1       4.682   0.175   0.789  1.00  0.00    -0.066 NA
ATOM     25  H4  UNL     1       2.801  -1.400   0.682  1.00  0.00     0.186 HD
ENDBRANCH   4  21
TORSDOF 5
