REMARK  8 active torsions:
REMARK  status: ('A' for Active; 'I' for Inactive)
REMARK    1  A    between atoms: C2_2  and  O1_3 
REMARK    2  A    between atoms: O1_3  and  C3_4 
REMARK    3  A    between atoms: C3_4  and  C4_6 
REMARK    4  A    between atoms: C5_7  and  N1_8 
REMARK    5  A    between atoms: N1_8  and  C6_10 
REMARK    6  A    between atoms: C6_10  and  O3_11 
REMARK    7  A    between atoms: N2_13  and  O4_15 
REMARK    8  A    between atoms: O4_15  and  C7_16 
ROOT
HETATM    1  N1  UNL     1       0.096  -0.542   0.017  1.00  0.00    -0.314 N 
ATOM      2  H1  UNL     1      -0.386   0.338   0.198  1.00  0.00     0.170 HD
ENDROOT
BRANCH   1   3
HETATM    3  C5  UNL     1      -0.647  -1.774   0.075  1.00  0.00     0.102 A 
HETATM    4  C4  UNL     1      -1.967  -1.964   0.348  1.00  0.00     0.102 A 
HETATM    5  C9  UNL     1      -2.462  -3.229   0.349  1.00  0.00     0.097 A 
HETATM    6  S2  UNL     1      -1.368  -4.486   0.002  1.00  0.00    -0.038 SA
HETATM    7  S3  UNL     1      -4.047  -3.697   0.656  1.00  0.00    -0.070 SA
HETATM    8  S1  UNL     1       0.241  -3.224  -0.243  1.00  0.00    -0.032 SA
BRANCH   4   9
HETATM    9  C3  UNL     1      -2.864  -0.819   0.641  1.00  0.00     0.298 C 
HETATM   10  O2  UNL     1      -4.070  -1.080   0.883  1.00  0.00    -0.259 OA
BRANCH   9  11
HETATM   11  O1  UNL     1      -2.475   0.484   0.666  1.00  0.00    -0.318 OA
BRANCH  11  12
HETATM   12  C2  UNL     1      -3.416   1.499   0.957  1.00  0.00     0.174 C 
HETATM   13  C1  UNL     1      -4.533   1.479  -0.065  1.00  0.00     0.034 C 
ENDBRANCH  11  12
ENDBRANCH   9  11
ENDBRANCH   4   9
ENDBRANCH   1   3
BRANCH   1  14
HETATM   14  C6  UNL     1       1.490  -0.521  -0.287  1.00  0.00     0.242 C 
HETATM   15  N2  UNL     1       2.312   0.221   0.388  1.00  0.00    -0.223 N 
ATOM     16  H2  UNL     1       1.975   0.806   1.152  1.00  0.00     0.198 HD
BRANCH  14  17
HETATM   17  O3  UNL     1       1.930  -1.321  -1.327  1.00  0.00    -0.331 OA
ATOM     18  H3  UNL     1       2.858  -1.307  -1.529  1.00  0.00     0.221 HD
ENDBRANCH  14  17
BRANCH  15  19
HETATM   19  O4  UNL     1       3.630   0.205   0.059  1.00  0.00    -0.222 OA
BRANCH  19  20
HETATM   20  C7  UNL     1       4.362   1.309  -0.341  1.00  0.00     0.136 C 
HETATM   21  C8  UNL     1       5.838   1.198  -0.501  1.00  0.00     0.099 C 
HETATM   22  N3  UNL     1       3.727   2.413  -0.564  1.00  0.00    -0.382 N 
ATOM     23  H32 UNL     1       2.716   2.489  -0.454  1.00  0.00     0.158 HD
ATOM     24  H31 UNL     1       4.267   3.227  -0.859  1.00  0.00     0.158 HD
ENDBRANCH  19  20
ENDBRANCH  15  19
ENDBRANCH   1  14
TORSDOF 8
