REMARK  4 active torsions:
REMARK  status: ('A' for Active; 'I' for Inactive)
REMARK    1  A    between atoms: C2_3  and  N2_4 
REMARK    2  A    between atoms: N2_4  and  C3_6 
REMARK    3  A    between atoms: C6_9  and  N3_10 
REMARK    4  A    between atoms: C7_13  and  N4_14 
ROOT
HETATM    1  N1  UNL     1      -2.893   1.434   2.147  1.00  0.00    -0.195 NA
HETATM    2  C1  UNL     1      -2.032   1.000   1.471  1.00  0.00     0.090 C 
HETATM    3  C2  UNL     1      -0.916   0.484   0.614  1.00  0.00     0.120 C 
HETATM    4  C9  UNL     1      -0.921  -0.991   0.687  1.00  0.00     0.046 C 
HETATM    5  C10 UNL     1      -2.228  -1.627   1.137  1.00  0.00     0.004 C 
HETATM    6  C11 UNL     1      -3.025  -2.124  -0.051  1.00  0.00     0.000 C 
HETATM    7  C12 UNL     1      -3.877  -1.091  -0.705  1.00  0.00     0.000 C 
HETATM    8  C13 UNL     1      -3.056  -0.299  -1.684  1.00  0.00     0.000 C 
HETATM    9  C14 UNL     1      -2.622   1.039  -1.148  1.00  0.00     0.004 C 
HETATM   10  C15 UNL     1      -1.155   1.057  -0.764  1.00  0.00     0.046 C 
ENDROOT
BRANCH   3  11
HETATM   11  N2  UNL     1       0.279   1.058   1.152  1.00  0.00    -0.368 N 
ATOM     12  H2  UNL     1       0.150   1.653   1.971  1.00  0.00     0.161 HD
BRANCH  11  13
HETATM   13  C3  UNL     1       1.616   0.916   0.707  1.00  0.00     0.031 A 
HETATM   14  C4  UNL     1       2.636   1.642   1.330  1.00  0.00     0.032 A 
HETATM   15  C5  UNL     1       3.943   1.556   0.957  1.00  0.00     0.041 A 
HETATM   16  C6  UNL     1       4.363   0.714  -0.100  1.00  0.00     0.136 A 
HETATM   17  C7  UNL     1       3.376   0.001  -0.711  1.00  0.00     0.138 A 
HETATM   18  C8  UNL     1       2.032   0.108  -0.308  1.00  0.00     0.067 A 
BRANCH  16  19
HETATM   19  N3  UNL     1       5.741   0.714  -0.424  1.00  0.00    -0.113 N 
HETATM   20  O1  UNL     1       6.194   0.615  -1.552  1.00  0.00    -0.532 OA
HETATM   21  O2  UNL     1       6.638   0.890   0.618  1.00  0.00    -0.532 OA
ENDBRANCH  16  19
BRANCH  17  22
HETATM   22  N4  UNL     1       3.670  -0.892  -1.785  1.00  0.00    -0.113 N 
HETATM   23  O3  UNL     1       4.709  -1.557  -1.761  1.00  0.00    -0.532 OA
HETATM   24  O4  UNL     1       2.736  -1.023  -2.798  1.00  0.00    -0.532 OA
ENDBRANCH  17  22
ENDBRANCH  11  13
ENDBRANCH   3  11
TORSDOF 4
