REMARK  15 active torsions:
REMARK  status: ('A' for Active; 'I' for Inactive)
REMARK    1  A    between atoms: C2_2  and  O1_3 
REMARK    2  A    between atoms: C2_2  and  C3_5 
REMARK    3  A    between atoms: C2_2  and  C19_47 
REMARK       I    between atoms: C3_5  and  N1_7 
REMARK    4  A    between atoms: N1_7  and  C4_9 
REMARK    5  A    between atoms: C6_13  and  C7_14 
REMARK    6  A    between atoms: C8_17  and  C9_18 
REMARK    7  A    between atoms: C9_18  and  S1_19 
REMARK    8  A    between atoms: S1_19  and  C10_20 
REMARK    9  A    between atoms: C11_23  and  C12_24 
REMARK   10  A    between atoms: C12_24  and  C13_25 
REMARK       I    between atoms: C13_25  and  N4_27 
REMARK       I    between atoms: N5_29  and  C14_31 
REMARK   11  A    between atoms: C14_31  and  O8_33 
REMARK   12  A    between atoms: O8_33  and  N6_34 
REMARK   13  A    between atoms: C15_37  and  O9_38 
REMARK   14  A    between atoms: N7_40  and  C16_41 
REMARK   15  A    between atoms: C16_41  and  C17_42 
ROOT
HETATM    1  C9  UNL     1       0.016  -3.101  -0.153  1.00  0.00     0.074 C 
ENDROOT
BRANCH   1   2
HETATM    2  C8  UNL     1       0.759  -1.873  -0.169  1.00  0.00     0.043 C 
HETATM    3  C6  UNL     1       0.820  -0.792  -0.862  1.00  0.00     0.133 C 
HETATM    4  N2  UNL     1       1.789   0.182  -0.400  1.00  0.00    -0.292 N 
HETATM    5  C5  UNL     1       2.426   1.413  -0.077  1.00  0.00     0.251 C 
HETATM    6  C18 UNL     1       3.002  -0.465   0.133  1.00  0.00     0.192 C 
HETATM    7  C4  UNL     1       3.399   0.765   0.854  1.00  0.00     0.211 C 
HETATM    8  O3  UNL     1       2.269   2.618  -0.417  1.00  0.00    -0.271 OA
HETATM    9  S2  UNL     1       2.060  -1.675   1.146  1.00  0.00    -0.098 SA
BRANCH   3  10
HETATM   10  C7  UNL     1       0.157  -0.509  -2.141  1.00  0.00     0.228 C 
HETATM   11  O4  UNL     1       0.269   0.659  -2.659  1.00  0.00    -0.643 OA
HETATM   12  O5  UNL     1      -0.592  -1.359  -2.901  1.00  0.00    -0.643 OA
ENDBRANCH   3  10
BRANCH   7  13
HETATM   13  N1  UNL     1       4.739   1.191   0.497  1.00  0.00    -0.342 N 
HETATM   14  C3  UNL     1       5.617   1.814   1.411  1.00  0.00     0.259 C 
HETATM   15  O2  UNL     1       5.231   2.017   2.583  1.00  0.00    -0.270 OA
ATOM     16  H1  UNL     1       5.062   1.033  -0.458  1.00  0.00     0.163 HD
BRANCH  14  17
HETATM   17  C2  UNL     1       6.964   2.223   1.004  1.00  0.00     0.178 C 
HETATM   18  C1  UNL     1       7.774   0.967   0.655  1.00  0.00     0.063 C 
BRANCH  17  19
HETATM   19  O1  UNL     1       7.651   2.861   2.020  1.00  0.00    -0.374 OA
ATOM     20  H1  UNL     1       7.150   3.638   2.236  1.00  0.00     0.211 HD
ENDBRANCH  17  19
BRANCH  17  21
HETATM   21  C19 UNL     1       6.953   3.104  -0.226  1.00  0.00     0.077 A 
HETATM   22  C20 UNL     1       7.848   2.925  -1.252  1.00  0.00     0.099 A 
HETATM   23  S3  UNL     1       7.377   4.158  -2.337  1.00  0.00    -0.009 SA
HETATM   24  N8  UNL     1       6.110   4.800  -1.438  1.00  0.00    -0.270 N 
HETATM   25  N9  UNL     1       6.092   4.069  -0.369  1.00  0.00    -0.295 N 
ATOM     26  H8  UNL     1       5.499   5.581  -1.678  1.00  0.00     0.195 HD
ATOM     27  H9  UNL     1       5.403   4.250   0.361  1.00  0.00     0.187 HD
ENDBRANCH  17  21
ENDBRANCH  14  17
ENDBRANCH   7  13
ENDBRANCH   1   2
BRANCH   1  28
HETATM   28  S1  UNL     1      -1.441  -3.288  -1.119  1.00  0.00    -0.064 SA
BRANCH  28  29
HETATM   29  C10 UNL     1      -2.852  -2.456  -0.404  1.00  0.00     0.153 A 
HETATM   30  N3  UNL     1      -3.204  -1.192  -0.609  1.00  0.00    -0.336 N 
HETATM   31  C11 UNL     1      -4.318  -0.955   0.085  1.00  0.00     0.071 A 
ATOM     32  H3  UNL     1      -2.709  -0.520  -1.195  1.00  0.00     0.168 HD
HETATM   33  C15 UNL     1      -4.677  -2.127   0.753  1.00  0.00     0.168 A 
HETATM   34  N7  UNL     1      -3.752  -3.051   0.435  1.00  0.00    -0.296 N 
BRANCH  31  35
HETATM   35  C12 UNL     1      -5.088   0.304   0.182  1.00  0.00     0.166 C 
BRANCH  35  36
HETATM   36  C13 UNL     1      -6.321   0.219  -0.649  1.00  0.00     0.241 C 
HETATM   37  O6  UNL     1      -6.169   0.053  -1.894  1.00  0.00    -0.271 OA
HETATM   38  N4  UNL     1      -7.584   0.318  -0.062  1.00  0.00    -0.265 N 
HETATM   39  N5  UNL     1      -8.249   1.350   0.034  1.00  0.00    -0.241 N 
ATOM     40  H4  UNL     1      -7.990  -0.536   0.319  1.00  0.00     0.190 HD
HETATM   41  C14 UNL     1      -7.945   2.651  -0.397  1.00  0.00     0.401 C 
ATOM     42  H5  UNL     1      -9.153   1.244   0.494  1.00  0.00     0.192 HD
HETATM   43  O7  UNL     1      -8.864   3.466  -0.743  1.00  0.00    -0.235 OA
BRANCH  41  44
HETATM   44  O8  UNL     1      -6.603   3.041  -0.440  1.00  0.00    -0.187 OA
BRANCH  44  45
HETATM   45  N6  UNL     1      -6.367   4.332  -0.870  1.00  0.00    -0.301 N 
ATOM     46  H62 UNL     1      -7.134   4.949  -1.136  1.00  0.00     0.184 HD
ATOM     47  H61 UNL     1      -5.388   4.617  -0.901  1.00  0.00     0.184 HD
ENDBRANCH  44  45
ENDBRANCH  41  44
ENDBRANCH  35  36
ENDBRANCH  31  35
BRANCH  33  48
HETATM   48  O9  UNL     1      -5.744  -2.354   1.578  1.00  0.00    -0.344 OA
ATOM     49  H9  UNL     1      -5.988  -3.152   2.033  1.00  0.00     0.219 HD
ENDBRANCH  33  48
BRANCH  34  50
HETATM   50  C16 UNL     1      -3.670  -4.430   0.871  1.00  0.00     0.246 C 
BRANCH  50  51
HETATM   51  C17 UNL     1      -2.902  -4.495   2.137  1.00  0.00     0.192 C 
HETATM   52  O10 UNL     1      -2.464  -3.440   2.664  1.00  0.00    -0.647 OA
HETATM   53  O11 UNL     1      -2.655  -5.726   2.759  1.00  0.00    -0.647 OA
ENDBRANCH  50  51
ENDBRANCH  34  50
ENDBRANCH  28  29
ENDBRANCH   1  28
TORSDOF 15
