REMARK  0 active torsions:
REMARK  status: ('A' for Active; 'I' for Inactive)
ROOT
HETATM    1  C1  UNL     1       4.588   0.597  -0.495  1.00  0.00     0.049 C 
HETATM    2  C2  UNL     1       3.202   0.145  -0.156  1.00  0.00    -0.054 A 
HETATM    3  C3  UNL     1       2.966  -0.944   0.610  1.00  0.00     0.016 A 
HETATM    4  C4  UNL     1       1.696  -1.367   0.927  1.00  0.00    -0.034 A 
HETATM    5  C5  UNL     1       1.521  -2.564   1.768  1.00  0.00     0.050 C 
HETATM    6  C6  UNL     1       0.645  -0.632   0.429  1.00  0.00     0.053 A 
HETATM    7  N1  UNL     1      -0.600  -1.028   0.726  1.00  0.00    -0.349 N 
ATOM      8  H1  UNL     1      -0.731  -1.856   1.307  1.00  0.00     0.166 HD
HETATM    9  C7  UNL     1      -1.684  -0.364   0.279  1.00  0.00     0.133 A 
HETATM   10  C8  UNL     1      -2.950  -0.773   0.585  1.00  0.00     0.280 A 
HETATM   11  O1  UNL     1      -3.086  -1.806   1.312  1.00  0.00    -0.265 OA
HETATM   12  N2  UNL     1      -3.997  -0.088   0.123  1.00  0.00    -0.269 N 
HETATM   13  C9  UNL     1      -5.358  -0.532   0.455  1.00  0.00     0.164 C 
HETATM   14  C10 UNL     1      -3.818   1.006  -0.646  1.00  0.00     0.329 A 
HETATM   15  O2  UNL     1      -4.813   1.637  -1.072  1.00  0.00    -0.246 OA
HETATM   16  N3  UNL     1      -2.601   1.434  -0.966  1.00  0.00    -0.303 N 
ATOM     17  H3  UNL     1      -2.479   2.262  -1.549  1.00  0.00     0.171 HD
HETATM   18  C11 UNL     1      -1.533   0.757  -0.508  1.00  0.00     0.120 A 
HETATM   19  C12 UNL     1      -0.233   1.153  -0.806  1.00  0.00     0.214 A 
HETATM   20  O3  UNL     1      -0.104   2.163  -1.516  1.00  0.00    -0.285 OA
HETATM   21  C13 UNL     1       0.884   0.478  -0.352  1.00  0.00     0.050 A 
HETATM   22  C14 UNL     1       2.151   0.910  -0.675  1.00  0.00    -0.040 A 
HETATM   23  C15 UNL     1       2.386   2.108  -1.517  1.00  0.00     0.050 C 
ENDROOT
TORSDOF 0
