REMARK  2 active torsions:
REMARK  status: ('A' for Active; 'I' for Inactive)
REMARK    1  A    between atoms: C14_17  and  O1_18 
REMARK    2  A    between atoms: C16_21  and  O2_22 
ROOT
HETATM    1  C1  UNL     1       3.151   2.379  -0.718  1.00  0.00     0.044 C 
HETATM    2  C2  UNL     1       2.663   1.081  -0.233  1.00  0.00    -0.076 C 
HETATM    3  C3  UNL     1       1.357   0.824  -0.305  1.00  0.00    -0.043 C 
HETATM    4  C4  UNL     1       0.469   1.834  -0.858  1.00  0.00     0.038 C 
HETATM    5  C5  UNL     1      -0.888   1.663  -0.170  1.00  0.00     0.011 C 
HETATM    6  C6  UNL     1      -1.377   0.298  -0.572  1.00  0.00     0.011 C 
HETATM    7  C7  UNL     1      -2.767   0.090  -0.033  1.00  0.00    -0.038 C 
HETATM    8  C8  UNL     1      -3.720   0.102  -1.204  1.00  0.00     0.015 C 
HETATM    9  C9  UNL     1      -3.172   1.137   0.965  1.00  0.00     0.015 C 
HETATM   10  C10 UNL     1      -2.716  -1.236   0.665  1.00  0.00     0.062 C 
HETATM   11  C11 UNL     1      -1.299  -1.295   1.116  1.00  0.00    -0.007 C 
HETATM   12  N1  UNL     1      -0.936  -1.679   2.263  1.00  0.00    -0.405 N 
ATOM     13  H11 UNL     1       0.035  -1.719   2.572  1.00  0.00     0.155 HD
ATOM     14  H12 UNL     1      -1.470  -2.004   3.069  1.00  0.00     0.155 HD
HETATM   15  C12 UNL     1      -0.519  -0.820  -0.062  1.00  0.00     0.034 C 
HETATM   16  C13 UNL     1      -0.648  -1.958  -1.092  1.00  0.00     0.025 C 
HETATM   17  C14 UNL     1       0.890  -0.491   0.190  1.00  0.00     0.097 C 
HETATM   18  C15 UNL     1       1.856  -1.516  -0.429  1.00  0.00     0.075 C 
HETATM   19  C16 UNL     1       3.220  -1.327   0.181  1.00  0.00     0.125 C 
HETATM   20  C17 UNL     1       3.638   0.097   0.323  1.00  0.00     0.065 C 
ENDROOT
BRANCH  17  21
HETATM   21  O1  UNL     1       1.142  -0.553   1.564  1.00  0.00    -0.384 OA
ATOM     22  H1  UNL     1       0.842  -1.397   1.882  1.00  0.00     0.211 HD
ENDBRANCH  17  21
BRANCH  19  23
HETATM   23  O2  UNL     1       3.343  -1.996   1.397  1.00  0.00    -0.395 OA
ATOM     24  H2  UNL     1       4.203  -1.877   1.782  1.00  0.00     0.210 HD
ENDBRANCH  19  23
TORSDOF 2
