REMARK  9 active torsions:
REMARK  status: ('A' for Active; 'I' for Inactive)
REMARK       I    between atoms: N2_3  and  C2_5 
REMARK    1  A    between atoms: C2_5  and  C3_7 
REMARK    2  A    between atoms: C3_7  and  N3_8 
REMARK    3  A    between atoms: C3_7  and  C10_17 
REMARK    4  A    between atoms: N3_8  and  C4_10 
REMARK    5  A    between atoms: C12_21  and  C13_22 
REMARK    6  A    between atoms: C13_22  and  N5_23 
REMARK    7  A    between atoms: C13_22  and  N6_27 
REMARK    8  A    between atoms: N6_27  and  O2_28 
REMARK    9  A    between atoms: O2_28  and  C14_29 
ROOT
HETATM    1  N1  UNL     1      -0.453  -5.355  -0.993  1.00  0.00    -0.172 NA
HETATM    2  C1  UNL     1      -0.471  -4.232  -0.624  1.00  0.00     0.184 C 
HETATM    3  N2  UNL     1      -0.531  -2.912  -0.172  1.00  0.00    -0.258 N 
ATOM      4  H2  UNL     1      -0.189  -2.657   0.755  1.00  0.00     0.181 HD
HETATM    5  C2  UNL     1      -1.099  -1.907  -1.069  1.00  0.00     0.284 C 
HETATM    6  O1  UNL     1      -1.455  -2.282  -2.186  1.00  0.00    -0.265 OA
ENDROOT
BRANCH   5   7
HETATM    7  C3  UNL     1      -1.202  -0.532  -0.556  1.00  0.00     0.146 C 
BRANCH   7   8
HETATM    8  N3  UNL     1      -2.141  -0.484   0.564  1.00  0.00    -0.349 N 
ATOM      9  H3  UNL     1      -1.815  -0.750   1.493  1.00  0.00     0.166 HD
BRANCH   8  10
HETATM   10  C4  UNL     1      -3.483  -0.082   0.402  1.00  0.00     0.032 A 
HETATM   11  C5  UNL     1      -4.175   0.474   1.480  1.00  0.00     0.032 A 
HETATM   12  C6  UNL     1      -5.448   0.951   1.334  1.00  0.00     0.044 A 
HETATM   13  C7  UNL     1      -6.072   0.879   0.095  1.00  0.00     0.116 A 
HETATM   14  F1  UNL     1      -7.318   1.364  -0.078  1.00  0.00    -0.206 F 
HETATM   15  C8  UNL     1      -5.427   0.331  -0.976  1.00  0.00     0.044 A 
HETATM   16  C9  UNL     1      -4.118  -0.152  -0.808  1.00  0.00     0.032 A 
ENDBRANCH   8  10
ENDBRANCH   7   8
BRANCH   7  17
HETATM   17  C10 UNL     1      -0.065   0.362  -0.477  1.00  0.00     0.138 A 
HETATM   18  N4  UNL     1       0.064   1.486  -1.306  1.00  0.00    -0.348 N 
HETATM   19  C11 UNL     1       1.197   2.122  -1.057  1.00  0.00     0.118 A 
ATOM     20  H4  UNL     1      -0.621   1.773  -2.005  1.00  0.00     0.167 HD
HETATM   21  C12 UNL     1       1.838   1.441  -0.058  1.00  0.00     0.075 A 
HETATM   22  N8  UNL     1       1.041   0.398   0.252  1.00  0.00    -0.340 N 
ATOM     23  H8  UNL     1       1.266  -0.290   0.971  1.00  0.00     0.167 HD
BRANCH  21  24
HETATM   24  C13 UNL     1       3.168   1.763   0.441  1.00  0.00     0.354 C 
BRANCH  24  25
HETATM   25  N5  UNL     1       3.476   3.149   0.554  1.00  0.00    -0.053 N 
ATOM     26  H53 UNL     1       3.322   3.612  -0.342  1.00  0.00     0.276 HD
ATOM     27  H52 UNL     1       2.771   3.614   1.125  1.00  0.00     0.276 HD
ATOM     28  H51 UNL     1       4.407   3.374   0.903  1.00  0.00     0.276 HD
ENDBRANCH  24  25
BRANCH  24  29
HETATM   29  N6  UNL     1       4.118   1.133  -0.443  1.00  0.00    -0.050 NA
BRANCH  29  30
HETATM   30  O2  UNL     1       4.143  -0.223  -0.315  1.00  0.00    -0.189 OA
BRANCH  30  31
HETATM   31  C14 UNL     1       5.423  -0.745  -0.003  1.00  0.00     0.391 C 
HETATM   32  N7  UNL     1       5.665  -2.115   0.182  1.00  0.00    -0.031 NA
HETATM   33  O3  UNL     1       6.362   0.054   0.117  1.00  0.00    -0.241 OA
ENDBRANCH  30  31
ENDBRANCH  29  30
ENDBRANCH  24  29
ENDBRANCH  21  24
ENDBRANCH   7  17
ENDBRANCH   5   7
TORSDOF 9
