REMARK  6 active torsions:
REMARK  status: ('A' for Active; 'I' for Inactive)
REMARK    1  A    between atoms: C3_4  and  N2_5 
REMARK    2  A    between atoms: C8_12  and  S1_13 
REMARK    3  A    between atoms: S1_13  and  C9_14 
REMARK    4  A    between atoms: C9_14  and  C10_15 
REMARK    5  A    between atoms: C10_15  and  O1_16 
REMARK    6  A    between atoms: C11_18  and  C12_19 
ROOT
HETATM    1  N1  UNL     1      -3.860  -2.158   0.909  1.00  0.00    -0.191 NA
HETATM    2  C1  UNL     1      -2.762  -1.902   0.605  1.00  0.00     0.105 C 
HETATM    3  C2  UNL     1      -1.413  -1.573   0.211  1.00  0.00     0.110 A 
HETATM    4  C3  UNL     1      -1.054  -0.298  -0.171  1.00  0.00     0.127 A 
HETATM    5  N3  UNL     1       0.214  -0.043  -0.524  1.00  0.00    -0.335 N 
ATOM      6  H3  UNL     1       0.466   0.905  -0.805  1.00  0.00     0.168 HD
HETATM    7  C8  UNL     1       1.176  -1.003  -0.521  1.00  0.00     0.086 A 
HETATM    8  C11 UNL     1       0.862  -2.276  -0.149  1.00  0.00     0.058 A 
HETATM    9  C13 UNL     1      -0.450  -2.568   0.223  1.00  0.00     0.071 A 
HETATM   10  S2  UNL     1      -0.805  -4.108   0.664  1.00  0.00    -0.077 SA
ENDROOT
BRANCH   4  11
HETATM   11  N2  UNL     1      -2.045   0.713  -0.174  1.00  0.00    -0.366 N 
HETATM   12  C4  UNL     1      -2.274   1.615   0.965  1.00  0.00     0.124 C 
HETATM   13  C5  UNL     1      -3.719   2.009   0.755  1.00  0.00     0.021 C 
HETATM   14  C6  UNL     1      -3.733   2.233  -0.755  1.00  0.00     0.021 C 
HETATM   15  C7  UNL     1      -2.975   1.031  -1.243  1.00  0.00     0.124 C 
ENDBRANCH   4  11
BRANCH   8  16
HETATM   16  C12 UNL     1       1.869  -3.319  -0.146  1.00  0.00     0.274 C 
HETATM   17  O2  UNL     1       1.640  -4.507   0.187  1.00  0.00    -0.301 OA
ENDBRANCH   8  16
BRANCH   7  18
HETATM   18  S1  UNL     1       2.818  -0.536  -1.004  1.00  0.00    -0.109 SA
BRANCH  18  19
HETATM   19  C9  UNL     1       3.779   0.062   0.416  1.00  0.00     0.107 C 
BRANCH  19  20
HETATM   20  C10 UNL     1       5.152   0.467  -0.122  1.00  0.00     0.174 C 
BRANCH  20  21
HETATM   21  O1  UNL     1       5.968   0.950   0.890  1.00  0.00    -0.400 OA
ATOM     22  H1  UNL     1       6.821   1.202   0.556  1.00  0.00     0.209 HD
ENDBRANCH  20  21
ENDBRANCH  19  20
ENDBRANCH  18  19
ENDBRANCH   7  18
TORSDOF 6
