REMARK  3 active torsions:
REMARK  status: ('A' for Active; 'I' for Inactive)
REMARK    1  A    between atoms: N2_12  and  C9_13 
REMARK    2  A    between atoms: C9_13  and  C10_14 
REMARK    3  A    between atoms: C10_14  and  N3_15 
ROOT
HETATM    1  C1  UNL     1       7.067   0.638   0.268  1.00  0.00     0.054 C 
HETATM    2  C2  UNL     1       5.574   0.685   0.329  1.00  0.00     0.007 A 
HETATM    3  C3  UNL     1       4.776  -0.387   0.018  1.00  0.00     0.025 A 
HETATM    4  C4  UNL     1       3.371  -0.331   0.071  1.00  0.00    -0.014 A 
HETATM    5  C5  UNL     1       2.903   0.919   0.468  1.00  0.00     0.034 A 
HETATM    6  N1  UNL     1       3.663   1.953   0.769  1.00  0.00    -0.325 N 
ATOM      7  H1  UNL     1       3.221   2.828   1.051  1.00  0.00     0.169 HD
HETATM    8  C6  UNL     1       5.019   1.886   0.714  1.00  0.00     0.251 A 
HETATM    9  O1  UNL     1       5.682   2.909   1.014  1.00  0.00    -0.268 OA
HETATM   10  C7  UNL     1       1.429   1.242   0.584  1.00  0.00     0.162 C 
HETATM   11  C8  UNL     1       0.689   0.212  -0.093  1.00  0.00    -0.067 C 
HETATM   12  N2  UNL     1       0.392  -0.930  -0.745  1.00  0.00    -0.347 N 
HETATM   13  C16 UNL     1       1.544  -1.746  -1.095  1.00  0.00     0.160 C 
HETATM   14  C17 UNL     1       2.772  -1.598  -0.299  1.00  0.00     0.007 C 
ENDROOT
BRANCH  12  15
HETATM   15  C9  UNL     1      -0.780  -1.624  -0.355  1.00  0.00     0.151 C 
BRANCH  15  16
HETATM   16  C10 UNL     1      -1.947  -0.753  -0.813  1.00  0.00     0.137 C 
BRANCH  16  17
HETATM   17  N3  UNL     1      -3.230  -1.254  -0.489  1.00  0.00    -0.407 N 
HETATM   18  C11 UNL     1      -3.582  -1.208   0.900  1.00  0.00     0.147 C 
HETATM   19  C12 UNL     1      -4.397   0.012   1.261  1.00  0.00     0.291 C 
HETATM   20  N4  UNL     1      -4.309   0.982   0.215  1.00  0.00     0.087 N 
HETATM   21  C13 UNL     1      -5.064   2.155   0.581  1.00  0.00     0.310 C 
HETATM   22  C14 UNL     1      -4.951   0.420  -0.964  1.00  0.00     0.291 C 
HETATM   23  C15 UNL     1      -4.249  -0.855  -1.389  1.00  0.00     0.147 C 
ENDBRANCH  16  17
ENDBRANCH  15  16
ENDBRANCH  12  15
TORSDOF 3
