REMARK  3 active torsions:
REMARK  status: ('A' for Active; 'I' for Inactive)
REMARK    1  A    between atoms: C2_2  and  N1_3 
REMARK    2  A    between atoms: C9_14  and  C10_15 
REMARK    3  A    between atoms: C10_15  and  N3_16 
ROOT
HETATM    1  N1  UNL     1       3.529   0.416   0.179  1.00  0.00     0.091 N 
HETATM    2  C3  UNL     1       4.539   0.007  -0.752  1.00  0.00     0.280 C 
HETATM    3  C4  UNL     1       3.958  -0.947  -1.780  1.00  0.00     0.112 C 
HETATM    4  C5  UNL     1       2.520  -0.663  -1.934  1.00  0.00     0.166 C 
HETATM    5  O1  UNL     1       2.053  -0.360  -2.999  1.00  0.00    -0.295 OA
HETATM    6  C6  UNL     1       1.654  -0.761  -0.736  1.00  0.00     0.181 C 
HETATM    7  C7  UNL     1       2.598  -0.653   0.459  1.00  0.00     0.319 C 
HETATM    8  N2  UNL     1       0.905  -1.988  -0.703  1.00  0.00    -0.336 N 
ATOM      9  H2  UNL     1       1.270  -2.904  -0.966  1.00  0.00     0.164 HD
HETATM   10  C8  UNL     1      -0.413  -1.738  -0.252  1.00  0.00     0.232 C 
HETATM   11  O2  UNL     1      -1.350  -2.564  -0.054  1.00  0.00    -0.273 OA
HETATM   12  C9  UNL     1      -0.564  -0.281  -0.027  1.00  0.00     0.178 C 
HETATM   13  C16 UNL     1       0.618   0.282  -0.698  1.00  0.00     0.179 C 
HETATM   14  O3  UNL     1       0.717   1.400  -1.139  1.00  0.00    -0.294 OA
ENDROOT
BRANCH   1  15
HETATM   15  C2  UNL     1       4.135   0.805   1.444  1.00  0.00     0.268 C 
HETATM   16  C1  UNL     1       4.950   2.090   1.284  1.00  0.00     0.037 C 
ENDBRANCH   1  15
BRANCH  12  17
HETATM   17  C10 UNL     1      -1.852   0.243  -0.634  1.00  0.00     0.294 C 
BRANCH  17  18
HETATM   18  N3  UNL     1      -3.027  -0.367  -0.110  1.00  0.00     0.089 N 
HETATM   19  C11 UNL     1      -3.263   0.005   1.263  1.00  0.00     0.272 C 
HETATM   20  C12 UNL     1      -4.377   1.031   1.291  1.00  0.00     0.030 C 
HETATM   21  C13 UNL     1      -5.657   0.333   0.929  1.00  0.00     0.003 C 
HETATM   22  C14 UNL     1      -5.467  -0.407  -0.351  1.00  0.00     0.030 C 
HETATM   23  C15 UNL     1      -4.126  -0.146  -0.993  1.00  0.00     0.272 C 
ENDBRANCH  17  18
ENDBRANCH  12  17
TORSDOF 3
