REMARK  6 active torsions:
REMARK  status: ('A' for Active; 'I' for Inactive)
REMARK    1  A    between atoms: C8_8  and  O1_10 
REMARK    2  A    between atoms: O1_10  and  C10_11 
REMARK    3  A    between atoms: C10_11  and  C11_13 
REMARK    4  A    between atoms: C12_14  and  C13_15 
REMARK    5  A    between atoms: C14_16  and  C15_17 
REMARK    6  A    between atoms: C18_20  and  C19_21 
ROOT
HETATM    1  C1  UNL     1      -4.526   1.451   0.522  1.00  0.00     0.011 C 
HETATM    2  C2  UNL     1      -3.118   0.965   0.628  1.00  0.00     0.007 C 
HETATM    3  C3  UNL     1      -2.910  -0.222   1.503  1.00  0.00     0.020 C 
HETATM    4  C4  UNL     1      -4.194  -0.674   2.126  1.00  0.00    -0.025 C 
HETATM    5  C5  UNL     1      -4.819  -1.540   1.342  1.00  0.00    -0.030 C 
HETATM    6  C6  UNL     1      -3.997  -1.756   0.094  1.00  0.00     0.035 C 
HETATM    7  C7  UNL     1      -2.632  -1.340   0.554  1.00  0.00     0.033 C 
HETATM    8  C8  UNL     1      -1.804  -0.670  -0.566  1.00  0.00     0.085 C 
HETATM    9  C9  UNL     1      -1.924  -1.585  -1.768  1.00  0.00     0.048 C 
HETATM   10  C18 UNL     1      -2.541   0.593  -0.741  1.00  0.00     0.126 C 
ENDROOT
BRANCH   8  11
HETATM   11  O1  UNL     1      -0.532  -0.612  -0.040  1.00  0.00    -0.306 OA
BRANCH  11  12
HETATM   12  C10 UNL     1       0.653  -0.240  -0.592  1.00  0.00     0.283 C 
HETATM   13  O2  UNL     1       0.626   0.094  -1.806  1.00  0.00    -0.260 OA
BRANCH  12  14
HETATM   14  C11 UNL     1       1.920  -0.204   0.117  1.00  0.00     0.082 C 
HETATM   15  C12 UNL     1       3.006   0.175  -0.524  1.00  0.00     0.006 C 
BRANCH  15  16
HETATM   16  C13 UNL     1       4.315   0.237   0.118  1.00  0.00    -0.003 C 
HETATM   17  C14 UNL     1       5.386   0.619  -0.546  1.00  0.00    -0.022 C 
BRANCH  17  18
HETATM   18  C15 UNL     1       6.744   0.715   0.008  1.00  0.00     0.008 A 
HETATM   19  C16 UNL     1       7.489  -0.542   0.325  1.00  0.00     0.009 A 
HETATM   20  C17 UNL     1       7.035   0.369   1.441  1.00  0.00     0.009 A 
ENDBRANCH  17  18
ENDBRANCH  15  16
ENDBRANCH  12  14
ENDBRANCH  11  12
ENDBRANCH   8  11
BRANCH  10  21
HETATM   21  C19 UNL     1      -1.846   1.776  -1.244  1.00  0.00     0.180 C 
HETATM   22  O3  UNL     1      -1.987   2.130  -2.440  1.00  0.00    -0.648 OA
HETATM   23  O4  UNL     1      -0.994   2.589  -0.470  1.00  0.00    -0.648 OA
ENDBRANCH  10  21
TORSDOF 6
