REMARK  6 active torsions:
REMARK  status: ('A' for Active; 'I' for Inactive)
REMARK    1  A    between atoms: N1_5  and  C5_6 
REMARK    2  A    between atoms: C5_6  and  C6_7 
REMARK    3  A    between atoms: C6_7  and  C7_8 
REMARK    4  A    between atoms: C7_8  and  O1_9 
REMARK    5  A    between atoms: O1_9  and  C8_10 
REMARK    6  A    between atoms: C8_10  and  C9_12 
ROOT
HETATM    1  C8  UNL     1      -1.524   0.475   1.054  1.00  0.00     0.267 C 
HETATM    2  O2  UNL     1      -1.391   0.645   2.282  1.00  0.00    -0.264 OA
ENDROOT
BRANCH   1   3
HETATM    3  O1  UNL     1      -0.448   0.524   0.219  1.00  0.00    -0.321 OA
BRANCH   3   4
HETATM    4  C7  UNL     1       0.864   0.754   0.633  1.00  0.00     0.180 C 
BRANCH   4   5
HETATM    5  C6  UNL     1       1.347  -0.324   1.543  1.00  0.00     0.057 C 
BRANCH   5   6
HETATM    6  C5  UNL     1       2.779  -0.097   1.994  1.00  0.00     0.274 C 
BRANCH   6   7
HETATM    7  N1  UNL     1       3.704  -0.044   0.911  1.00  0.00     0.088 N 
HETATM    8  C4  UNL     1       3.849  -1.320   0.264  1.00  0.00     0.272 C 
HETATM    9  C3  UNL     1       4.763  -1.256  -0.938  1.00  0.00     0.034 C 
HETATM   10  C2  UNL     1       5.604   0.000  -0.939  1.00  0.00    -0.015 C 
HETATM   11  C1  UNL     1       4.837   1.118  -1.616  1.00  0.00     0.010 C 
HETATM   12  C20 UNL     1       6.060   0.422   0.417  1.00  0.00     0.034 C 
HETATM   13  C19 UNL     1       5.013   0.311   1.477  1.00  0.00     0.272 C 
ENDBRANCH   6   7
ENDBRANCH   5   6
ENDBRANCH   4   5
ENDBRANCH   3   4
ENDBRANCH   1   3
BRANCH   1  14
HETATM   14  C9  UNL     1      -2.869   0.209   0.436  1.00  0.00     0.049 C 
HETATM   15  C10 UNL     1      -3.103   1.326  -0.566  1.00  0.00     0.024 C 
HETATM   16  C11 UNL     1      -4.417   1.039  -1.258  1.00  0.00    -0.013 C 
HETATM   17  C12 UNL     1      -4.327  -0.281  -1.958  1.00  0.00     0.009 C 
HETATM   18  C16 UNL     1      -5.499   1.098  -0.217  1.00  0.00     0.009 C 
HETATM   19  C13 UNL     1      -4.161  -1.380  -0.932  1.00  0.00    -0.013 C 
HETATM   20  C14 UNL     1      -5.299  -1.310   0.053  1.00  0.00     0.009 C 
HETATM   21  C18 UNL     1      -2.849  -1.137  -0.224  1.00  0.00     0.024 C 
HETATM   22  C15 UNL     1      -5.263  -0.005   0.801  1.00  0.00    -0.013 C 
HETATM   23  C17 UNL     1      -3.951   0.222   1.495  1.00  0.00     0.024 C 
ENDBRANCH   1  14
TORSDOF 6
