REMARK  5 active torsions:
REMARK  status: ('A' for Active; 'I' for Inactive)
REMARK    1  A    between atoms: C2_2  and  C4_4 
REMARK    2  A    between atoms: C5_5  and  C6_6 
REMARK    3  A    between atoms: N2_13  and  C10_15 
REMARK    4  A    between atoms: C10_15  and  C11_16 
REMARK    5  A    between atoms: C11_16  and  C12_17 
ROOT
HETATM    1  C6  UNL     1      -1.833  -1.086   0.291  1.00  0.00     0.108 A 
HETATM    2  C7  UNL     1      -1.330  -2.335   0.590  1.00  0.00     0.114 A 
HETATM    3  C8  UNL     1       0.018  -2.578   0.561  1.00  0.00     0.262 A 
HETATM    4  O1  UNL     1       0.486  -3.724   0.835  1.00  0.00    -0.268 OA
HETATM    5  N1  UNL     1       0.880  -1.599   0.240  1.00  0.00    -0.156 N 
ATOM      6  H1  UNL     1       1.882  -1.788   0.222  1.00  0.00     0.187 HD
HETATM    7  C9  UNL     1       0.427  -0.384  -0.054  1.00  0.00     0.685 A 
HETATM    8  N2  UNL     1       1.142   0.567  -0.357  1.00  0.00    -0.205 N 
ATOM      9  H2  UNL     1       0.503   1.345  -0.519  1.00  0.00     0.183 HD
HETATM   10  N3  UNL     1      -0.928  -0.157  -0.020  1.00  0.00    -0.183 N 
ATOM     11  H3  UNL     1      -1.262   0.780  -0.247  1.00  0.00     0.185 HD
ENDROOT
BRANCH   8  12
HETATM   12  C10 UNL     1       2.393   1.072  -0.579  1.00  0.00     0.079 C 
BRANCH  12  13
HETATM   13  C11 UNL     1       3.542   0.100  -0.464  1.00  0.00     0.049 C 
BRANCH  13  14
HETATM   14  C12 UNL     1       4.876   0.820  -0.745  1.00  0.00    -0.018 C 
HETATM   15  C13 UNL     1       5.999  -0.190  -0.619  1.00  0.00     0.010 C 
HETATM   16  C14 UNL     1       5.085   1.922   0.239  1.00  0.00     0.010 C 
ENDBRANCH  13  14
ENDBRANCH  12  13
ENDBRANCH   8  12
BRANCH   1  17
HETATM   17  C5  UNL     1      -3.254  -0.810   0.316  1.00  0.00    -0.048 C 
HETATM   18  C4  UNL     1      -4.436  -0.561   0.343  1.00  0.00    -0.096 C 
BRANCH  18  19
HETATM   19  C2  UNL     1      -5.880  -0.257   0.401  1.00  0.00     0.057 C 
HETATM   20  C1  UNL     1      -6.151   0.871   1.383  1.00  0.00     0.023 C 
HETATM   21  C3  UNL     1      -6.331   0.218  -0.956  1.00  0.00     0.023 C 
ENDBRANCH  18  19
ENDBRANCH   1  17
TORSDOF 5
