REMARK  5 active torsions:
REMARK  status: ('A' for Active; 'I' for Inactive)
REMARK    1  A    between atoms: C2_2  and  C3_3 
REMARK    2  A    between atoms: C3_3  and  N1_4 
REMARK    3  A    between atoms: N2_7  and  C6_8 
REMARK    4  A    between atoms: N3_10  and  C7_12 
REMARK    5  A    between atoms: C7_12  and  N4_14 
ROOT
HETATM    1  C6  UNL     1      -0.275  -0.900  -0.684  1.00  0.00     0.176 C 
HETATM    2  S1  UNL     1      -0.206  -2.419  -1.552  1.00  0.00    -0.041 SA
HETATM    3  N3  UNL     1      -1.541  -0.517  -0.415  1.00  0.00    -0.310 N 
ATOM      4  H3  UNL     1      -2.181  -1.220  -0.786  1.00  0.00     0.170 HD
ENDROOT
BRANCH   1   5
HETATM    5  N2  UNL     1       0.996  -0.410  -0.452  1.00  0.00    -0.355 N 
HETATM    6  C5  UNL     1       1.395   0.794   0.234  1.00  0.00     0.145 C 
HETATM    7  C4  UNL     1       2.941   0.879   0.225  1.00  0.00     0.141 C 
HETATM    8  N1  UNL     1       3.531  -0.272   0.786  1.00  0.00    -0.390 N 
HETATM    9  C13 UNL     1       3.107  -1.508   0.188  1.00  0.00     0.141 C 
HETATM   10  C12 UNL     1       2.184  -1.162  -0.954  1.00  0.00     0.145 C 
BRANCH   8  11
HETATM   11  C3  UNL     1       4.843  -0.163   1.235  1.00  0.00     0.058 C 
BRANCH  11  12
HETATM   12  C2  UNL     1       5.944   0.027   0.261  1.00  0.00     0.040 C 
HETATM   13  C1  UNL     1       5.881   1.255  -0.588  1.00  0.00     0.010 C 
ENDBRANCH  11  12
ENDBRANCH   8  11
ENDBRANCH   1   5
BRANCH   3  14
HETATM   14  C7  UNL     1      -2.283   0.486   0.183  1.00  0.00     0.177 C 
HETATM   15  S2  UNL     1      -1.671   1.809   0.885  1.00  0.00    -0.041 SA
BRANCH  14  16
HETATM   16  N4  UNL     1      -3.745   0.400   0.203  1.00  0.00    -0.331 N 
HETATM   17  C8  UNL     1      -4.629   1.348   0.776  1.00  0.00     0.157 C 
HETATM   18  C9  UNL     1      -5.994   0.948   0.286  1.00  0.00     0.294 C 
HETATM   19  N5  UNL     1      -5.864  -0.480   0.077  1.00  0.00     0.103 N 
HETATM   20  C10 UNL     1      -6.746  -0.973  -0.950  1.00  0.00     0.312 C 
HETATM   21  C11 UNL     1      -4.488  -0.686  -0.365  1.00  0.00     0.399 C 
ENDBRANCH  14  16
ENDBRANCH   3  14
TORSDOF 5
