REMARK  3 active torsions:
REMARK  status: ('A' for Active; 'I' for Inactive)
REMARK       I    between atoms: C1_2  and  N1_3 
REMARK       I    between atoms: C1_2  and  N2_8 
REMARK       I    between atoms: N3_11  and  C8_12 
REMARK    1  A    between atoms: C8_12  and  C9_14 
REMARK    2  A    between atoms: C9_14  and  C10_15 
REMARK    3  A    between atoms: C10_15  and  O3_16 
ROOT
HETATM    1  O1  UNL     1      -3.575  -1.819   2.149  1.00  0.00    -0.247 OA
HETATM    2  C1  UNL     1      -3.262  -1.112   1.113  1.00  0.00     0.320 C 
HETATM    3  N1  UNL     1      -4.250  -0.339   0.521  1.00  0.00    -0.334 N 
HETATM    4  C2  UNL     1      -5.648  -0.307   1.045  1.00  0.00     0.127 C 
HETATM    5  C3  UNL     1      -6.430  -0.285  -0.250  1.00  0.00     0.022 C 
HETATM    6  C4  UNL     1      -5.702   0.851  -0.956  1.00  0.00     0.022 C 
HETATM    7  C5  UNL     1      -4.250   0.544  -0.602  1.00  0.00     0.127 C 
HETATM    8  N2  UNL     1      -1.928  -1.214   0.709  1.00  0.00    -0.331 N 
HETATM    9  C6  UNL     1      -0.977  -2.072   1.455  1.00  0.00     0.147 C 
HETATM   10  C7  UNL     1       0.109  -1.159   1.927  1.00  0.00     0.145 C 
HETATM   11  N3  UNL     1       0.788  -0.539   0.756  1.00  0.00    -0.348 N 
HETATM   12  C8  UNL     1       1.989   0.170   0.971  1.00  0.00     0.230 C 
HETATM   13  O2  UNL     1       2.416   0.208   2.184  1.00  0.00    -0.272 OA
HETATM   14  C16 UNL     1       0.119  -0.759  -0.496  1.00  0.00     0.145 C 
HETATM   15  C17 UNL     1      -1.394  -0.521  -0.425  1.00  0.00     0.147 C 
ENDROOT
BRANCH  12  16
HETATM   16  C9  UNL     1       2.796   0.860  -0.026  1.00  0.00     0.062 C 
HETATM   17  C11 UNL     1       4.101   1.361   0.598  1.00  0.00     0.021 C 
HETATM   18  C12 UNL     1       5.042   0.268   0.974  1.00  0.00     0.001 C 
HETATM   19  C13 UNL     1       5.319  -0.652  -0.194  1.00  0.00     0.000 C 
HETATM   20  C14 UNL     1       4.587  -0.211  -1.439  1.00  0.00     0.001 C 
HETATM   21  C15 UNL     1       3.098  -0.056  -1.180  1.00  0.00     0.021 C 
BRANCH  16  22
HETATM   22  C10 UNL     1       2.105   2.135  -0.517  1.00  0.00     0.183 C 
BRANCH  22  23
HETATM   23  O3  UNL     1       2.919   2.773  -1.486  1.00  0.00    -0.400 OA
ATOM     24  H3  UNL     1       2.490   3.564  -1.791  1.00  0.00     0.209 HD
ENDBRANCH  22  23
ENDBRANCH  16  22
ENDBRANCH  12  16
TORSDOF 3
