REMARK  9 active torsions:
REMARK  status: ('A' for Active; 'I' for Inactive)
REMARK    1  A    between atoms: C2_2  and  N1_3 
REMARK       I    between atoms: N1_3  and  C3_5 
REMARK    2  A    between atoms: C3_5  and  C4_7 
REMARK    3  A    between atoms: C6_9  and  C7_10 
REMARK    4  A    between atoms: C7_10  and  N2_12 
REMARK    5  A    between atoms: N2_12  and  C9_14 
REMARK    6  A    between atoms: C9_14  and  C10_15 
REMARK    7  A    between atoms: C10_15  and  N3_16 
REMARK       I    between atoms: N3_16  and  C11_18 
REMARK    8  A    between atoms: C11_18  and  C12_20 
REMARK    9  A    between atoms: C13_21  and  C14_22 
ROOT
HETATM    1  N2  UNL     1       1.372  -1.904  -0.674  1.00  0.00    -0.371 N 
ATOM      2  H2  UNL     1       1.724  -1.420  -1.500  1.00  0.00     0.161 HD
ENDROOT
BRANCH   1   3
HETATM    3  C7  UNL     1      -0.038  -1.839  -0.339  1.00  0.00     0.109 C 
HETATM    4  C8  UNL     1      -0.519  -3.245  -0.161  1.00  0.00     0.034 C 
BRANCH   3   5
HETATM    5  C6  UNL     1      -0.739  -1.024  -1.335  1.00  0.00     0.211 C 
HETATM    6  C5  UNL     1      -2.180  -0.748  -1.222  1.00  0.00     0.078 C 
HETATM    7  C4  UNL     1      -1.766   0.360  -0.314  1.00  0.00     0.279 C 
HETATM    8  N5  UNL     1      -0.523   0.412  -1.064  1.00  0.00    -0.056 N 
ATOM      9  H52 UNL     1      -0.381   1.084  -1.818  1.00  0.00     0.278 HD
ATOM     10  H51 UNL     1       0.342   0.753  -0.644  1.00  0.00     0.278 HD
BRANCH   7  11
HETATM   11  C3  UNL     1      -2.594   1.584  -0.420  1.00  0.00     0.248 C 
HETATM   12  N1  UNL     1      -3.839   1.729   0.236  1.00  0.00    -0.360 N 
ATOM     13  H1  UNL     1      -4.182   0.957   0.807  1.00  0.00     0.162 HD
HETATM   14  O1  UNL     1      -2.161   2.528  -1.124  1.00  0.00    -0.271 OA
BRANCH  12  15
HETATM   15  C2  UNL     1      -4.647   2.926   0.132  1.00  0.00     0.118 C 
HETATM   16  C1  UNL     1      -5.911   2.783   0.936  1.00  0.00     0.026 C 
ENDBRANCH  12  15
ENDBRANCH   7  11
ENDBRANCH   3   5
ENDBRANCH   1   3
BRANCH   1  17
HETATM   17  C9  UNL     1       2.271  -2.653   0.161  1.00  0.00     0.106 C 
HETATM   18  N4  UNL     1       2.846  -3.721  -0.269  1.00  0.00    -0.287 N 
HETATM   19 CL1  UNL     1       2.519  -4.250  -1.884  1.00  0.00     0.012 Cl
ATOM     20  H4  UNL     1       3.483  -4.246   0.331  1.00  0.00     0.181 HD
BRANCH  17  21
HETATM   21  C10 UNL     1       2.495  -2.132   1.533  1.00  0.00     0.200 C 
BRANCH  21  22
HETATM   22  N3  UNL     1       3.025  -0.792   1.421  1.00  0.00    -0.343 N 
HETATM   23  C11 UNL     1       4.247  -0.574   0.745  1.00  0.00     0.296 C 
HETATM   24  O2  UNL     1       4.857  -1.544   0.250  1.00  0.00    -0.258 OA
ATOM     25  H3  UNL     1       2.519  -0.006   1.829  1.00  0.00     0.163 HD
BRANCH  23  26
HETATM   26  C12 UNL     1       4.791   0.741   0.621  1.00  0.00    -0.005 C 
HETATM   27  C13 UNL     1       5.250   1.855   0.495  1.00  0.00    -0.086 C 
BRANCH  27  28
HETATM   28  C14 UNL     1       5.807   3.210   0.316  1.00  0.00     0.179 C 
HETATM   29 BR1  UNL     1       4.516   4.569   0.783  1.00  0.00    -0.083 Br
ENDBRANCH  27  28
ENDBRANCH  23  26
ENDBRANCH  21  22
ENDBRANCH  17  21
ENDBRANCH   1  17
TORSDOF 9
