REMARK  9 active torsions:
REMARK  status: ('A' for Active; 'I' for Inactive)
REMARK    1  A    between atoms: N1_1  and  C1_5 
REMARK    2  A    between atoms: C1_5  and  C2_6 
REMARK    3  A    between atoms: C2_6  and  C3_7 
REMARK    4  A    between atoms: C3_7  and  N2_8 
REMARK    5  A    between atoms: N2_8  and  C4_11 
REMARK    6  A    between atoms: C4_11  and  C5_12 
REMARK    7  A    between atoms: C5_12  and  C6_13 
REMARK    8  A    between atoms: C6_13  and  N3_14 
REMARK    9  A    between atoms: N3_14  and  C7_16 
ROOT
HETATM    1  C7  UNL     1      -2.314  -0.305  -0.334  1.00  0.00     0.068 A 
HETATM    2  C8  UNL     1      -3.399   0.520  -0.417  1.00  0.00     0.003 A 
HETATM    3  C9  UNL     1      -3.217   1.870  -0.256  1.00  0.00     0.014 A 
HETATM    4  C10 UNL     1      -4.278   2.730  -0.331  1.00  0.00     0.001 A 
HETATM    5  C11 UNL     1      -5.548   2.209  -0.575  1.00  0.00     0.001 A 
HETATM    6  C12 UNL     1      -5.758   0.862  -0.740  1.00  0.00     0.012 A 
HETATM    7  C13 UNL     1      -4.683   0.008  -0.663  1.00  0.00    -0.021 A 
HETATM    8  C14 UNL     1      -4.873  -1.348  -0.826  1.00  0.00     0.044 A 
HETATM    9  C15 UNL     1      -3.777  -2.180  -0.741  1.00  0.00     0.063 A 
HETATM   10  N4  UNL     1      -3.618  -3.509  -0.849  1.00  0.00    -0.350 N 
ATOM     11  H4  UNL     1      -4.357  -4.189  -1.028  1.00  0.00     0.166 HD
HETATM   12  C16 UNL     1      -2.314  -3.785  -0.679  1.00  0.00     0.181 A 
HETATM   13  N5  UNL     1      -1.628  -2.658  -0.463  1.00  0.00    -0.349 N 
ATOM     14  H5  UNL     1      -0.624  -2.576  -0.303  1.00  0.00     0.167 HD
HETATM   15  C17 UNL     1      -2.514  -1.661  -0.498  1.00  0.00     0.087 A 
ENDROOT
BRANCH   1  16
HETATM   16  N3  UNL     1      -1.017   0.217  -0.097  1.00  0.00    -0.387 N 
ATOM     17  H3  UNL     1      -0.701   0.334   0.866  1.00  0.00     0.159 HD
BRANCH  16  18
HETATM   18  C6  UNL     1      -0.124   0.590  -1.177  1.00  0.00     0.121 C 
BRANCH  18  19
HETATM   19  C5  UNL     1       1.201   1.036  -0.605  1.00  0.00     0.047 C 
BRANCH  19  20
HETATM   20  C4  UNL     1       1.824  -0.090   0.188  1.00  0.00     0.234 C 
BRANCH  20  21
HETATM   21  N2  UNL     1       3.108   0.254   0.759  1.00  0.00    -0.075 N 
ATOM     22  H22 UNL     1       3.398  -0.427   1.461  1.00  0.00     0.277 HD
ATOM     23  H21 UNL     1       3.041   1.078   1.356  1.00  0.00     0.277 HD
BRANCH  21  24
HETATM   24  C3  UNL     1       4.121   0.423  -0.264  1.00  0.00     0.233 C 
BRANCH  24  25
HETATM   25  C2  UNL     1       5.433   0.763   0.400  1.00  0.00     0.055 C 
BRANCH  25  26
HETATM   26  C1  UNL     1       5.886  -0.329   1.350  1.00  0.00     0.231 C 
BRANCH  26  27
HETATM   27  N1  UNL     1       4.962  -0.586   2.414  1.00  0.00    -0.079 N 
ATOM     28  H13 UNL     1       4.754   0.272   2.925  1.00  0.00     0.274 HD
ATOM     29  H12 UNL     1       4.035  -0.793   2.043  1.00  0.00     0.274 HD
ATOM     30  H11 UNL     1       5.267  -1.320   3.053  1.00  0.00     0.274 HD
ENDBRANCH  26  27
ENDBRANCH  25  26
ENDBRANCH  24  25
ENDBRANCH  21  24
ENDBRANCH  20  21
ENDBRANCH  19  20
ENDBRANCH  18  19
ENDBRANCH  16  18
ENDBRANCH   1  16
TORSDOF 9
