REMARK  6 active torsions:
REMARK  status: ('A' for Active; 'I' for Inactive)
REMARK    1  A    between atoms: C6_7  and  N2_8 
REMARK       I    between atoms: N2_8  and  C7_10 
REMARK    2  A    between atoms: C7_10  and  C8_12 
REMARK    3  A    between atoms: C12_16  and  N3_17 
REMARK       I    between atoms: C13_19  and  N4_20 
REMARK       I    between atoms: C13_19  and  N6_34 
REMARK    4  A    between atoms: N4_20  and  C14_22 
REMARK    5  A    between atoms: C15_25  and  C16_26 
REMARK    6  A    between atoms: N6_34  and  C23_36 
ROOT
HETATM    1  N1  UNL     1       9.071  -0.458   4.804  1.00  0.00    -0.191 NA
HETATM    2  C1  UNL     1       8.723   0.177   3.917  1.00  0.00     0.099 C 
HETATM    3  C2  UNL     1       8.276   0.949   2.805  1.00  0.00     0.046 A 
HETATM    4  C3  UNL     1       9.112   1.854   2.197  1.00  0.00     0.023 A 
HETATM    5  C4  UNL     1       8.676   2.598   1.127  1.00  0.00     0.004 A 
HETATM    6  C5  UNL     1       7.412   2.444   0.661  1.00  0.00     0.029 A 
HETATM    7  C6  UNL     1       6.514   1.548   1.229  1.00  0.00     0.036 A 
HETATM    8  C29 UNL     1       6.974   0.818   2.295  1.00  0.00     0.052 A 
ENDROOT
BRANCH   7   9
HETATM    9  N2  UNL     1       5.209   1.428   0.719  1.00  0.00    -0.323 N 
HETATM   10  C7  UNL     1       4.205   0.524   1.030  1.00  0.00     0.256 C 
HETATM   11  O1  UNL     1       4.325  -0.384   1.871  1.00  0.00    -0.267 OA
ATOM     12  H2  UNL     1       4.962   2.115   0.007  1.00  0.00     0.169 HD
BRANCH  10  13
HETATM   13  C8  UNL     1       2.882   0.578   0.360  1.00  0.00     0.034 A 
HETATM   14  C9  UNL     1       2.463   1.707  -0.289  1.00  0.00     0.017 A 
HETATM   15  C10 UNL     1       1.237   1.768  -0.939  1.00  0.00     0.003 A 
HETATM   16  C11 UNL     1       0.443   0.645  -0.913  1.00  0.00     0.030 A 
HETATM   17  C12 UNL     1       0.824  -0.527  -0.267  1.00  0.00     0.050 A 
HETATM   18  C28 UNL     1       2.064  -0.527   0.368  1.00  0.00     0.047 A 
BRANCH  17  19
HETATM   19  N3  UNL     1       0.067  -1.703  -0.204  1.00  0.00    -0.192 N 
HETATM   20  C13 UNL     1      -1.123  -1.800   0.117  1.00  0.00     0.685 C 
HETATM   21  N4  UNL     1      -1.915  -0.692   0.480  1.00  0.00    -0.170 N 
HETATM   22  N6  UNL     1      -1.758  -3.071   0.167  1.00  0.00    -0.190 N 
ATOM     23  H4  UNL     1      -1.591  -0.077   1.226  1.00  0.00     0.186 HD
ATOM     24  H6  UNL     1      -2.311  -3.270   1.000  1.00  0.00     0.184 HD
ATOM     25  H3  UNL     1       0.547  -2.569  -0.448  1.00  0.00     0.184 HD
BRANCH  21  26
HETATM   26  C14 UNL     1      -3.052  -0.428  -0.109  1.00  0.00     0.164 A 
HETATM   27  N5  UNL     1      -3.905   0.564   0.113  1.00  0.00    -0.335 N 
HETATM   28  C15 UNL     1      -4.990   0.639  -0.613  1.00  0.00     0.051 A 
ATOM     29  H5  UNL     1      -3.717   1.257   0.838  1.00  0.00     0.168 HD
HETATM   30  C22 UNL     1      -5.176  -0.330  -1.570  1.00  0.00     0.083 A 
HETATM   31  S1  UNL     1      -3.777  -1.294  -1.372  1.00  0.00    -0.063 SA
BRANCH  28  32
HETATM   32  C16 UNL     1      -6.009   1.711  -0.435  1.00  0.00    -0.009 A 
HETATM   33  C17 UNL     1      -7.104   1.749  -1.255  1.00  0.00     0.014 A 
HETATM   34  C18 UNL     1      -8.081   2.740  -1.108  1.00  0.00     0.001 A 
HETATM   35  C19 UNL     1      -7.965   3.699  -0.136  1.00  0.00     0.000 A 
HETATM   36  C20 UNL     1      -6.866   3.671   0.696  1.00  0.00     0.001 A 
HETATM   37  C21 UNL     1      -5.913   2.678   0.528  1.00  0.00     0.014 A 
ENDBRANCH  28  32
ENDBRANCH  21  26
BRANCH  22  38
HETATM   38  C23 UNL     1      -1.707  -4.082  -0.804  1.00  0.00     0.064 A 
HETATM   39  C24 UNL     1      -1.035  -4.017  -2.004  1.00  0.00     0.033 A 
HETATM   40  C25 UNL     1      -1.004  -5.038  -2.936  1.00  0.00     0.019 A 
HETATM   41  C26 UNL     1      -1.700  -6.192  -2.624  1.00  0.00     0.088 A 
HETATM   42  N7  UNL     1      -2.366  -6.286  -1.460  1.00  0.00    -0.373 N 
HETATM   43  C27 UNL     1      -2.384  -5.283  -0.567  1.00  0.00     0.117 A 
ATOM     44  H7  UNL     1      -2.873  -7.145  -1.249  1.00  0.00     0.164 HD
ENDBRANCH  22  38
ENDBRANCH  17  19
ENDBRANCH  10  13
ENDBRANCH   7   9
TORSDOF 6
