REMARK  7 active torsions:
REMARK  status: ('A' for Active; 'I' for Inactive)
REMARK    1  A    between atoms: C3_3  and  O1_4 
REMARK    2  A    between atoms: O1_4  and  C4_5 
REMARK    3  A    between atoms: C8_9  and  C9_10 
REMARK    4  A    between atoms: C9_10  and  C10_12 
REMARK    5  A    between atoms: C10_12  and  C11_13 
REMARK       I    between atoms: C11_13  and  N1_15 
REMARK    6  A    between atoms: N1_15  and  C12_17 
REMARK    7  A    between atoms: C12_17  and  C13_18 
REMARK       I    between atoms: N3_22  and  C15_24 
ROOT
HETATM    1  C1  UNL     1      -9.123   2.996  -2.495  1.00  0.00     0.014 C 
HETATM    2  C2  UNL     1      -8.142   2.338  -2.364  1.00  0.00    -0.091 C 
HETATM    3  C3  UNL     1      -6.956   1.521  -2.220  1.00  0.00     0.268 C 
ENDROOT
BRANCH   3   4
HETATM    4  O1  UNL     1      -6.430   1.637  -0.913  1.00  0.00    -0.339 OA
BRANCH   4   5
HETATM    5  C4  UNL     1      -5.281   0.920  -0.580  1.00  0.00     0.076 A 
HETATM    6  C5  UNL     1      -4.658   0.101  -1.518  1.00  0.00     0.045 A 
HETATM    7  C6  UNL     1      -3.521  -0.588  -1.136  1.00  0.00    -0.045 A 
HETATM    8  C7  UNL     1      -2.857  -1.462  -2.138  1.00  0.00     0.049 C 
HETATM    9  C8  UNL     1      -3.049  -0.440   0.152  1.00  0.00     0.023 A 
HETATM   10  C19 UNL     1      -3.667   0.373   1.085  1.00  0.00    -0.039 A 
HETATM   11  C20 UNL     1      -3.088   0.463   2.426  1.00  0.00     0.050 C 
HETATM   12  C21 UNL     1      -4.794   1.058   0.710  1.00  0.00    -0.022 A 
HETATM   13  C22 UNL     1      -5.482   1.932   1.669  1.00  0.00     0.052 C 
BRANCH   9  14
HETATM   14  C9  UNL     1      -1.830  -1.207   0.487  1.00  0.00     0.169 C 
HETATM   15  O2  UNL     1      -1.938  -2.355   0.945  1.00  0.00    -0.292 OA
BRANCH  14  16
HETATM   16  C10 UNL     1      -0.529  -0.576   0.264  1.00  0.00     0.186 C 
BRANCH  16  17
HETATM   17  C11 UNL     1       0.620  -1.437   0.635  1.00  0.00     0.225 C 
HETATM   18  O3  UNL     1       0.414  -2.595   1.094  1.00  0.00    -0.273 OA
HETATM   19  N1  UNL     1       1.936  -0.964   0.475  1.00  0.00    -0.355 N 
ATOM     20  H1  UNL     1       2.097  -0.028   0.103  1.00  0.00     0.162 HD
BRANCH  19  21
HETATM   21  C12 UNL     1       3.055  -1.795   0.834  1.00  0.00     0.182 C 
BRANCH  21  22
HETATM   22  C13 UNL     1       4.363  -1.111   0.590  1.00  0.00     0.067 A 
HETATM   23  N2  UNL     1       4.621   0.109   0.107  1.00  0.00    -0.192 N 
HETATM   24  C14 UNL     1       5.968   0.237   0.087  1.00  0.00     0.685 A 
ATOM     25  H2  UNL     1       3.937   0.806  -0.188  1.00  0.00     0.184 HD
HETATM   26  N3  UNL     1       6.593   1.284  -0.319  1.00  0.00    -0.160 N 
HETATM   27  N4  UNL     1       6.558  -0.877   0.546  1.00  0.00    -0.194 N 
HETATM   28  C15 UNL     1       8.002   1.305  -0.295  1.00  0.00     0.231 C 
ATOM     29  H3  UNL     1       6.073   2.094  -0.656  1.00  0.00     0.187 HD
HETATM   30  C16 UNL     1       8.707   2.317   0.520  1.00  0.00     0.118 C 
HETATM   31  O4  UNL     1       8.640   0.453  -0.975  1.00  0.00    -0.273 OA
HETATM   32  C17 UNL     1       5.581  -1.737   0.869  1.00  0.00     0.047 A 
ATOM     33  H4  UNL     1       7.561  -1.039   0.633  1.00  0.00     0.184 HD
HETATM   34  C18 UNL     1       5.761  -3.118   1.426  1.00  0.00     0.071 C 
ENDBRANCH  21  22
ENDBRANCH  19  21
ENDBRANCH  16  17
ENDBRANCH  14  16
ENDBRANCH   9  14
ENDBRANCH   4   5
ENDBRANCH   3   4
TORSDOF 7
