REMARK  15 active torsions:
REMARK  status: ('A' for Active; 'I' for Inactive)
REMARK    1  A    between atoms: N1_1  and  C1_5 
REMARK    2  A    between atoms: C3_7  and  N2_8 
REMARK    3  A    between atoms: C4_12  and  O1_13 
REMARK    4  A    between atoms: O1_13  and  N3_14 
REMARK    5  A    between atoms: N3_14  and  N4_15 
REMARK    6  A    between atoms: N3_14  and  C5_18 
REMARK    7  A    between atoms: C5_18  and  O2_19 
REMARK    8  A    between atoms: C5_18  and  C6_21 
REMARK    9  A    between atoms: C6_21  and  N5_22 
REMARK   10  A    between atoms: C6_21  and  C7_26 
REMARK   11  A    between atoms: C11_32  and  O3_33 
REMARK   12  A    between atoms: O3_33  and  C12_34 
REMARK   13  A    between atoms: C15_37  and  N6_38 
REMARK   14  A    between atoms: N6_38  and  O4_39 
REMARK   15  A    between atoms: C16_41  and  O5_42 
ROOT
HETATM    1  C1  UNL     1       1.409  -1.213   2.237  1.00  0.00     0.214 C 
HETATM    2  C2  UNL     1       0.322  -2.252   2.076  1.00  0.00     0.070 C 
HETATM    3  C3  UNL     1      -0.906  -1.767   1.389  1.00  0.00     0.217 C 
HETATM    4  C4  UNL     1      -0.604  -0.905   0.145  1.00  0.00     0.187 C 
HETATM    5  C10 UNL     1       0.879  -1.141  -0.132  1.00  0.00     0.070 C 
HETATM    6  C11 UNL     1       1.728  -0.505   0.952  1.00  0.00     0.155 C 
ENDROOT
BRANCH   4   7
HETATM    7  O1  UNL     1      -1.301  -1.271  -0.912  1.00  0.00    -0.249 OA
BRANCH   7   8
HETATM    8  N3  UNL     1      -2.358  -0.736  -1.431  1.00  0.00    -0.146 N 
BRANCH   8   9
HETATM    9  N4  UNL     1      -3.089  -1.595  -2.356  1.00  0.00    -0.317 N 
ATOM     10  H42 UNL     1      -2.706  -2.530  -2.493  1.00  0.00     0.179 HD
ATOM     11  H41 UNL     1      -3.923  -1.173  -2.765  1.00  0.00     0.179 HD
ENDBRANCH   8   9
BRANCH   8  12
HETATM   12  C5  UNL     1      -2.880   0.540  -1.244  1.00  0.00     0.193 C 
BRANCH  12  13
HETATM   13  O2  UNL     1      -2.269   1.415  -0.496  1.00  0.00    -0.345 OA
ATOM     14  H2  UNL     1      -2.625   2.286  -0.368  1.00  0.00     0.219 HD
ENDBRANCH  12  13
BRANCH  12  15
HETATM   15  C6  UNL     1      -4.146   1.009  -1.860  1.00  0.00     0.267 C 
BRANCH  15  16
HETATM   16  N5  UNL     1      -4.774   0.076  -2.689  1.00  0.00    -0.067 N 
ATOM     17  H53 UNL     1      -4.129  -0.247  -3.410  1.00  0.00     0.275 HD
ATOM     18  H52 UNL     1      -4.928  -0.797  -2.185  1.00  0.00     0.275 HD
ATOM     19  H51 UNL     1      -5.644   0.398  -3.112  1.00  0.00     0.275 HD
ENDBRANCH  15  16
BRANCH  15  20
HETATM   20  C7  UNL     1      -4.985   1.570  -0.721  1.00  0.00     0.044 C 
HETATM   21  C8  UNL     1      -6.308   2.106  -1.116  1.00  0.00     0.094 C 
HETATM   22  S1  UNL     1      -7.475   0.709  -1.189  1.00  0.00    -0.097 SA
HETATM   23  S2  UNL     1      -6.410  -0.476   0.279  1.00  0.00    -0.097 SA
HETATM   24  C9  UNL     1      -5.052   0.712   0.485  1.00  0.00     0.094 C 
ENDBRANCH  15  20
ENDBRANCH  12  15
ENDBRANCH   8  12
ENDBRANCH   7   8
ENDBRANCH   4   7
BRANCH   3  25
HETATM   25  N2  UNL     1      -1.717  -1.013   2.316  1.00  0.00    -0.072 N 
ATOM     26  H23 UNL     1      -1.933  -1.546   3.159  1.00  0.00     0.274 HD
ATOM     27  H22 UNL     1      -1.195  -0.253   2.752  1.00  0.00     0.274 HD
ATOM     28  H21 UNL     1      -2.559  -0.681   1.845  1.00  0.00     0.274 HD
ENDBRANCH   3  25
BRANCH   6  29
HETATM   29  O3  UNL     1       3.050  -0.692   0.648  1.00  0.00    -0.372 OA
BRANCH  29  30
HETATM   30  C12 UNL     1       3.760   0.477   0.463  1.00  0.00     0.175 C 
HETATM   31  C13 UNL     1       4.871   0.723   1.385  1.00  0.00     0.005 C 
HETATM   32  C14 UNL     1       5.775   1.496   0.739  1.00  0.00    -0.002 C 
HETATM   33  C15 UNL     1       5.313   1.798  -0.639  1.00  0.00     0.160 C 
HETATM   34  C16 UNL     1       4.414   0.582  -0.894  1.00  0.00     0.176 C 
BRANCH  33  35
HETATM   35  N6  UNL     1       6.396   1.855  -1.596  1.00  0.00    -0.092 NA
BRANCH  35  36
HETATM   36  O4  UNL     1       7.228   2.863  -1.169  1.00  0.00    -0.295 OA
ATOM     37  H4  UNL     1       7.939   2.900  -1.798  1.00  0.00     0.238 HD
ENDBRANCH  35  36
ENDBRANCH  33  35
BRANCH  34  38
HETATM   38  O5  UNL     1       5.252  -0.540  -1.025  1.00  0.00    -0.391 OA
ATOM     39  H5  UNL     1       5.663  -0.474  -1.879  1.00  0.00     0.210 HD
ENDBRANCH  34  38
ENDBRANCH  29  30
ENDBRANCH   6  29
BRANCH   1  40
HETATM   40  N1  UNL     1       2.567  -1.939   2.786  1.00  0.00    -0.072 N 
ATOM     41  H13 UNL     1       2.361  -2.453   3.642  1.00  0.00     0.274 HD
ATOM     42  H12 UNL     1       2.849  -2.745   2.227  1.00  0.00     0.274 HD
ATOM     43  H11 UNL     1       3.300  -1.238   2.895  1.00  0.00     0.274 HD
ENDBRANCH   1  40
TORSDOF 15
