REMARK  9 active torsions:
REMARK  status: ('A' for Active; 'I' for Inactive)
REMARK    1  A    between atoms: C2_2  and  C3_4 
REMARK    2  A    between atoms: C3_4  and  C4_5 
REMARK    3  A    between atoms: C3_4  and  N1_8 
REMARK    4  A    between atoms: N1_8  and  C6_11 
REMARK    5  A    between atoms: C7_14  and  N4_15 
REMARK    6  A    between atoms: N5_18  and  C10_19 
REMARK    7  A    between atoms: C11_22  and  N7_23 
REMARK    8  A    between atoms: C12_28  and  N9_29 
REMARK    9  A    between atoms: C16_39  and  N12_40 
ROOT
HETATM    1  N1  UNL     1      -3.923  -1.679  -0.167  1.00  0.00    -0.094 N 
HETATM    2  C5  UNL     1      -3.675  -3.024  -0.649  1.00  0.00     0.200 C 
HETATM    3  N2  UNL     1      -3.465  -4.104  -1.020  1.00  0.00    -0.171 NA
ENDROOT
BRANCH   1   4
HETATM    4  C3  UNL     1      -4.946  -1.597   0.801  1.00  0.00     0.288 C 
BRANCH   4   5
HETATM    5  C2  UNL     1      -5.245  -0.345   1.464  1.00  0.00     0.158 C 
HETATM    6  C1  UNL     1      -4.565   0.954   1.396  1.00  0.00     0.094 C 
HETATM    7  O1  UNL     1      -6.249  -0.356   2.228  1.00  0.00    -0.295 OA
ENDBRANCH   4   5
BRANCH   4   8
HETATM    8  C4  UNL     1      -6.202  -2.247   0.247  1.00  0.00     0.206 C 
HETATM    9  O2  UNL     1      -7.244  -2.290   0.939  1.00  0.00    -0.646 OA
HETATM   10  O3  UNL     1      -6.240  -2.804  -1.018  1.00  0.00    -0.646 OA
ENDBRANCH   4   8
ENDBRANCH   1   4
BRANCH   1  11
HETATM   11  C6  UNL     1      -3.111  -0.720  -0.756  1.00  0.00     0.724 A 
HETATM   12  N3  UNL     1      -1.943  -0.341  -0.222  1.00  0.00    -0.020 N 
HETATM   13  C7  UNL     1      -1.144   0.573  -0.808  1.00  0.00     0.709 A 
ATOM     14  H3  UNL     1      -1.647  -0.759   0.660  1.00  0.00     0.203 HD
HETATM   15  N11 UNL     1      -1.560   1.101  -1.965  1.00  0.00    -0.022 N 
HETATM   16  C16 UNL     1      -2.723   0.760  -2.550  1.00  0.00     0.705 A 
ATOM     17  H11 UNL     1      -0.969   1.794  -2.425  1.00  0.00     0.203 HD
HETATM   18  N13 UNL     1      -3.472  -0.153  -1.916  1.00  0.00    -0.021 N 
ATOM     19  H13 UNL     1      -4.359  -0.430  -2.336  1.00  0.00     0.203 HD
BRANCH  13  20
HETATM   20  N4  UNL     1       0.094   0.988  -0.263  1.00  0.00    -0.213 N 
HETATM   21  C8  UNL     1       0.871   1.974  -0.962  1.00  0.00     0.161 C 
HETATM   22  C9  UNL     1       2.280   2.117  -0.508  1.00  0.00     0.162 C 
HETATM   23  N5  UNL     1       2.828   0.922   0.088  1.00  0.00    -0.209 N 
HETATM   24  C13 UNL     1       2.010  -0.097   0.709  1.00  0.00     0.116 C 
HETATM   25  C14 UNL     1       1.874  -1.311  -0.184  1.00  0.00     0.034 C 
HETATM   26  C15 UNL     1       0.609   0.450   0.987  1.00  0.00     0.166 C 
BRANCH  23  27
HETATM   27  C10 UNL     1       4.239   0.752   0.056  1.00  0.00     0.709 A 
HETATM   28  N6  UNL     1       5.058   1.669  -0.512  1.00  0.00    -0.022 N 
HETATM   29  C11 UNL     1       6.387   1.525  -0.551  1.00  0.00     0.705 A 
ATOM     30  H6  UNL     1       4.644   2.504  -0.927  1.00  0.00     0.203 HD
HETATM   31  N8  UNL     1       6.936   0.432  -0.009  1.00  0.00    -0.022 N 
HETATM   32  C12 UNL     1       6.140  -0.496   0.562  1.00  0.00     0.705 A 
ATOM     33  H8  UNL     1       7.947   0.301  -0.027  1.00  0.00     0.203 HD
HETATM   34  N10 UNL     1       4.811  -0.337   0.594  1.00  0.00    -0.022 N 
ATOM     35  H10 UNL     1       4.227  -1.050   1.031  1.00  0.00     0.203 HD
BRANCH  29  36
HETATM   36  N7  UNL     1       7.159   2.397  -1.090  1.00  0.00    -0.234 N 
ATOM     37  H72 UNL     1       6.740   3.230  -1.503  1.00  0.00     0.174 HD
ATOM     38  H71 UNL     1       8.173   2.287  -1.120  1.00  0.00     0.174 HD
ENDBRANCH  29  36
BRANCH  32  39
HETATM   39  N9  UNL     1       6.664  -1.549   1.085  1.00  0.00    -0.234 N 
ATOM     40  H92 UNL     1       7.676  -1.670   1.061  1.00  0.00     0.174 HD
ATOM     41  H91 UNL     1       6.062  -2.250   1.517  1.00  0.00     0.174 HD
ENDBRANCH  32  39
ENDBRANCH  23  27
ENDBRANCH  13  20
BRANCH  16  42
HETATM   42  N12 UNL     1      -3.073   1.308  -3.673  1.00  0.00    -0.234 N 
ATOM     43 2H12 UNL     1      -2.503   2.003  -4.155  1.00  0.00     0.174 HD
ATOM     44 1H12 UNL     1      -3.954   1.050  -4.116  1.00  0.00     0.174 HD
ENDBRANCH  16  42
ENDBRANCH   1  11
TORSDOF 9
