REMARK  12 active torsions:
REMARK  status: ('A' for Active; 'I' for Inactive)
REMARK    1  A    between atoms: N2_9  and  S1_10 
REMARK    2  A    between atoms: S1_10  and  N3_13 
REMARK    3  A    between atoms: N3_13  and  C7_15 
REMARK    4  A    between atoms: C7_15  and  C8_16 
REMARK    5  A    between atoms: C8_16  and  N4_17 
REMARK       I    between atoms: N4_17  and  C9_19 
REMARK    6  A    between atoms: C9_19  and  C10_21 
REMARK    7  A    between atoms: C10_21  and  N5_22 
REMARK    8  A    between atoms: C10_21  and  C11_26 
REMARK    9  A    between atoms: C11_26  and  C12_27 
REMARK   10  A    between atoms: C12_27  and  C13_28 
REMARK   11  A    between atoms: C13_28  and  N6_29 
REMARK       I    between atoms: C14_31  and  N8_33 
REMARK   12  A    between atoms: N8_33  and  C15_35 
ROOT
HETATM    1  C10 UNL     1      -1.043  -2.449  -2.000  1.00  0.00     0.274 C 
ENDROOT
BRANCH   1   2
HETATM    2  C9  UNL     1       0.210  -1.778  -2.473  1.00  0.00     0.248 C 
HETATM    3  N4  UNL     1       1.437  -2.449  -2.343  1.00  0.00    -0.358 N 
ATOM      4  H4  UNL     1       1.442  -3.381  -1.930  1.00  0.00     0.162 HD
HETATM    5  O3  UNL     1       0.109  -0.627  -2.974  1.00  0.00    -0.271 OA
BRANCH   3   6
HETATM    6  C8  UNL     1       2.680  -1.880  -2.766  1.00  0.00     0.143 C 
BRANCH   6   7
HETATM    7  C7  UNL     1       2.997  -0.639  -2.024  1.00  0.00     0.153 C 
BRANCH   7   8
HETATM    8  N3  UNL     1       3.113  -0.808  -0.599  1.00  0.00    -0.300 N 
ATOM      9  H3  UNL     1       2.987  -1.711  -0.142  1.00  0.00     0.173 HD
BRANCH   8  10
HETATM   10  S1  UNL     1       3.473   0.600   0.260  1.00  0.00     0.337 S 
HETATM   11  O1  UNL     1       2.797   0.518   1.623  1.00  0.00    -0.181 OA
HETATM   12  O2  UNL     1       2.745   1.747  -0.434  1.00  0.00    -0.181 OA
BRANCH  10  13
HETATM   13  N2  UNL     1       5.117   0.907   0.418  1.00  0.00    -0.170 N 
HETATM   14  C4  UNL     1       5.906  -0.042   1.109  1.00  0.00     0.127 C 
HETATM   15  N1  UNL     1       7.177   0.457   1.569  1.00  0.00    -0.379 N 
HETATM   16  C5  UNL     1       5.179  -0.520   2.375  1.00  0.00     0.065 C 
HETATM   17  C6  UNL     1       6.057  -1.264   0.227  1.00  0.00     0.065 C 
HETATM   18  C2  UNL     1       7.948   1.185   0.625  1.00  0.00     0.103 C 
ATOM     19  H1  UNL     1       7.505   0.296   2.521  1.00  0.00     0.157 HD
HETATM   20  C1  UNL     1       8.484   2.450   1.312  1.00  0.00     0.048 C 
HETATM   21  C3  UNL     1       9.159   0.458   0.099  1.00  0.00     0.048 C 
HETATM   22  C25 UNL     1       7.163   1.682  -0.545  1.00  0.00     0.264 C 
HETATM   23  N9  UNL     1       5.752   1.536  -0.616  1.00  0.00    -0.253 N 
HETATM   24  O4  UNL     1       7.799   2.235  -1.470  1.00  0.00    -0.269 OA
ATOM     25  H9  UNL     1       5.228   1.890  -1.416  1.00  0.00     0.191 HD
ENDBRANCH  10  13
ENDBRANCH   8  10
ENDBRANCH   7   8
ENDBRANCH   6   7
ENDBRANCH   3   6
ENDBRANCH   1   2
BRANCH   1  26
HETATM   26  N5  UNL     1      -0.763  -3.737  -1.443  1.00  0.00    -0.067 N 
ATOM     27  H53 UNL     1      -0.248  -4.325  -2.098  1.00  0.00     0.275 HD
ATOM     28  H52 UNL     1      -0.065  -3.681  -0.701  1.00  0.00     0.275 HD
ATOM     29  H51 UNL     1      -1.616  -4.194  -1.121  1.00  0.00     0.275 HD
ENDBRANCH   1  26
BRANCH   1  30
HETATM   30  C11 UNL     1      -1.715  -1.505  -1.032  1.00  0.00     0.044 C 
BRANCH  30  31
HETATM   31  C12 UNL     1      -0.848  -1.184   0.163  1.00  0.00     0.022 C 
BRANCH  31  32
HETATM   32  C13 UNL     1      -1.597  -0.233   1.076  1.00  0.00     0.122 C 
BRANCH  32  33
HETATM   33  N6  UNL     1      -1.900   0.970   0.369  1.00  0.00    -0.365 N 
HETATM   34  C14 UNL     1      -2.957   1.676   0.452  1.00  0.00     0.184 C 
HETATM   35  N7  UNL     1      -3.087   2.843  -0.327  1.00  0.00    -0.064 NA
HETATM   36  N8  UNL     1      -3.998   1.295   1.324  1.00  0.00    -0.355 N 
ATOM     37  H8  UNL     1      -3.809   1.328   2.326  1.00  0.00     0.163 HD
ATOM     38  H6  UNL     1      -1.186   1.303  -0.279  1.00  0.00     0.162 HD
BRANCH  36  39
HETATM   39  C15 UNL     1      -5.306   0.864   0.909  1.00  0.00     0.036 C 
HETATM   40  C16 UNL     1      -5.955   1.983   0.120  1.00  0.00     0.036 C 
HETATM   41  C17 UNL     1      -7.396   1.604  -0.190  1.00  0.00    -0.009 C 
HETATM   42  C18 UNL     1      -7.383   0.387  -1.077  1.00  0.00     0.009 C 
HETATM   43  C22 UNL     1      -8.126   1.384   1.096  1.00  0.00     0.048 C 
HETATM   44  C19 UNL     1      -6.699  -0.721  -0.325  1.00  0.00    -0.009 C 
HETATM   45  C20 UNL     1      -7.524  -1.039   0.886  1.00  0.00     0.048 C 
HETATM   46  C24 UNL     1      -5.286  -0.341  -0.007  1.00  0.00     0.036 C 
HETATM   47  C21 UNL     1      -7.527   0.174   1.782  1.00  0.00     0.106 C 
HETATM   48  F1  UNL     1      -8.205  -0.134   2.936  1.00  0.00    -0.243 F 
HETATM   49  C23 UNL     1      -6.110   0.500   2.129  1.00  0.00     0.074 C 
ENDBRANCH  36  39
ENDBRANCH  32  33
ENDBRANCH  31  32
ENDBRANCH  30  31
ENDBRANCH   1  30
TORSDOF 12
