REMARK  0 active torsions:
REMARK  status: ('A' for Active; 'I' for Inactive)
ROOT
HETATM    1  O1  UNL     1      -4.072   3.001   0.694  1.00  0.00    -0.247 OA
HETATM    2  C1  UNL     1      -3.710   1.814   0.502  1.00  0.00     0.324 A 
HETATM    3  N1  UNL     1      -4.635   0.840   0.391  1.00  0.00    -0.318 N 
ATOM      4  H1  UNL     1      -5.619   1.097   0.468  1.00  0.00     0.170 HD
HETATM    5  C2  UNL     1      -4.328  -0.457   0.184  1.00  0.00     0.106 A 
HETATM    6  C3  UNL     1      -2.990  -0.764   0.088  1.00  0.00     0.007 A 
HETATM    7  C4  UNL     1      -2.775  -2.108  -0.123  1.00  0.00     0.015 C 
HETATM    8  C5  UNL     1      -1.591  -2.797  -0.097  1.00  0.00     0.002 C 
HETATM    9  C6  UNL     1      -0.312  -2.323  -0.253  1.00  0.00     0.013 C 
HETATM   10  C7  UNL     1       0.176  -1.035  -0.075  1.00  0.00    -0.007 A 
HETATM   11  C8  UNL     1       1.316  -0.266  -0.001  1.00  0.00     0.023 A 
HETATM   12  C9  UNL     1       0.583   0.907   0.206  1.00  0.00     0.101 A 
HETATM   13  O2  UNL     1       1.438   1.897   0.325  1.00  0.00    -0.308 OA
HETATM   14  C10 UNL     1       2.675   1.442   0.209  1.00  0.00     0.087 A 
HETATM   15  C11 UNL     1       3.914   2.043   0.254  1.00  0.00     0.038 A 
HETATM   16  C12 UNL     1       5.085   1.328   0.100  1.00  0.00     0.003 A 
HETATM   17  C13 UNL     1       5.056  -0.017  -0.103  1.00  0.00     0.001 A 
HETATM   18  C14 UNL     1       3.830  -0.649  -0.154  1.00  0.00     0.015 A 
HETATM   19  C15 UNL     1       2.657   0.071   0.000  1.00  0.00     0.012 A 
HETATM   20  C16 UNL     1      -0.589   0.186   0.140  1.00  0.00     0.038 A 
HETATM   21  C17 UNL     1      -1.963   0.268   0.204  1.00  0.00     0.061 A 
HETATM   22  N2  UNL     1      -2.386   1.528   0.409  1.00  0.00    -0.307 N 
ATOM     23  H2  UNL     1      -1.702   2.280   0.496  1.00  0.00     0.170 HD
ENDROOT
TORSDOF 0
