REMARK  4 active torsions:
REMARK  status: ('A' for Active; 'I' for Inactive)
REMARK    1  A    between atoms: C2_2  and  C4_4 
REMARK    2  A    between atoms: C4_4  and  C5_5 
REMARK    3  A    between atoms: C6_7  and  C7_8 
REMARK    4  A    between atoms: N3_12  and  O1_13 
ROOT
HETATM    1  C5  UNL     1      -1.173  -0.643  -0.446  1.00  0.00     0.199 C 
HETATM    2  N1  UNL     1       0.017  -0.034  -0.007  1.00  0.00    -0.264 N 
HETATM    3  C6  UNL     1       1.150  -0.764   0.144  1.00  0.00     0.118 C 
HETATM    4  S1  UNL     1      -0.019   1.633  -0.044  1.00  0.00     0.267 S 
HETATM    5  O2  UNL     1       0.773   2.304   1.052  1.00  0.00    -0.200 OA
HETATM    6  O3  UNL     1       0.503   2.160  -1.331  1.00  0.00    -0.200 OA
HETATM    7  C15 UNL     1      -1.670   2.260   0.212  1.00  0.00     0.099 A 
HETATM    8  C16 UNL     1      -1.899   3.538  -0.116  1.00  0.00     0.027 A 
HETATM    9  C17 UNL     1      -3.181   4.065   0.101  1.00  0.00     0.002 A 
HETATM   10  C18 UNL     1      -4.187   3.249   0.639  1.00  0.00     0.002 A 
HETATM   11  C19 UNL     1      -3.842   1.950   0.936  1.00  0.00     0.023 A 
HETATM   12  C20 UNL     1      -2.592   1.444   0.718  1.00  0.00     0.057 A 
HETATM   13  S2  UNL     1      -2.318  -0.221   0.997  1.00  0.00     0.075 S 
HETATM   14  O4  UNL     1      -1.425  -0.606   2.384  1.00  0.00    -0.251 OA
ENDROOT
BRANCH   1  15
HETATM   15  C4  UNL     1      -1.225  -2.124  -0.508  1.00  0.00     0.044 C 
BRANCH  15  16
HETATM   16  C2  UNL     1      -2.533  -2.634  -1.039  1.00  0.00    -0.020 C 
HETATM   17  C1  UNL     1      -2.572  -4.104  -0.782  1.00  0.00     0.009 C 
HETATM   18  C3  UNL     1      -3.759  -1.922  -0.709  1.00  0.00     0.009 C 
ENDBRANCH  15  16
ENDBRANCH   1  15
BRANCH   3  19
HETATM   19  C7  UNL     1       2.248  -0.196   0.932  1.00  0.00     0.010 A 
HETATM   20  C8  UNL     1       2.321   0.050   2.213  1.00  0.00     0.123 A 
HETATM   21  N2  UNL     1       3.411   0.516   2.864  1.00  0.00    -0.284 N 
HETATM   22  N3  UNL     1       4.522   0.724   2.102  1.00  0.00    -0.162 N 
ATOM     23  H2  UNL     1       3.402   0.701   3.867  1.00  0.00     0.188 HD
HETATM   24  C9  UNL     1       4.528   0.497   0.798  1.00  0.00     0.109 A 
HETATM   25  C10 UNL     1       5.660   0.770   0.055  1.00  0.00     0.042 A 
HETATM   26  C14 UNL     1       3.405   0.031   0.158  1.00  0.00     0.009 A 
HETATM   27 BR1  UNL     1       7.249   1.412   0.884  1.00  0.00    -0.049 Br
HETATM   28  C11 UNL     1       5.650   0.584  -1.332  1.00  0.00     0.021 A 
HETATM   29  C12 UNL     1       4.515   0.115  -1.985  1.00  0.00     0.002 A 
HETATM   30  C13 UNL     1       3.398  -0.161  -1.192  1.00  0.00     0.015 A 
BRANCH  22  31
HETATM   31  O1  UNL     1       5.640   1.189   2.735  1.00  0.00    -0.267 OA
ATOM     32  H1  UNL     1       6.414   1.334   2.204  1.00  0.00     0.247 HD
ENDBRANCH  22  31
ENDBRANCH   3  19
TORSDOF 4
