REMARK  0 active torsions:
REMARK  status: ('A' for Active; 'I' for Inactive)
ROOT
HETATM    1  O1  UNL     1       2.408  -0.676   0.106  1.00  0.00    -0.258 OA
HETATM    2  S1  UNL     1       0.896  -0.727  -0.181  1.00  0.00     0.016 S 
HETATM    3  C1  UNL     1      -0.646  -0.596  -0.113  1.00  0.00     0.121 A 
HETATM    4  C2  UNL     1      -0.038   0.793   0.087  1.00  0.00     0.121 A 
ENDROOT
TORSDOF 0
