REMARK  2 active torsions:
REMARK  status: ('A' for Active; 'I' for Inactive)
REMARK    1  A    between atoms: C3_3  and  C4_4 
REMARK    2  A    between atoms: C4_4  and  N1_5 
ROOT
HETATM    1  N1  UNL     1      -1.389   0.116   0.434  1.00  0.00    -0.239 NA
HETATM    2  C5  UNL     1      -2.587   0.622  -0.162  1.00  0.00     0.190 C 
HETATM    3  S1  UNL     1      -3.599  -0.144   1.153  1.00  0.00    -0.066 SA
HETATM    4  S2  UNL     1      -2.120  -1.492   0.464  1.00  0.00    -0.006 SA
ENDROOT
BRANCH   1   5
HETATM    5  C4  UNL     1      -0.219   0.103  -0.422  1.00  0.00     0.109 C 
BRANCH   5   6
HETATM    6  C3  UNL     1       0.969  -0.455   0.336  1.00  0.00    -0.001 A 
HETATM    7  C1  UNL     1       2.242  -0.525  -0.427  1.00  0.00     0.006 A 
HETATM    8  C2  UNL     1       2.085   0.451   0.705  1.00  0.00     0.006 A 
ENDBRANCH   5   6
ENDBRANCH   1   5
TORSDOF 2
