REMARK  10 active torsions:
REMARK  status: ('A' for Active; 'I' for Inactive)
REMARK    1  A    between atoms: C4_7  and  C5_8 
REMARK    2  A    between atoms: C5_8  and  N3_9 
REMARK    3  A    between atoms: N3_9  and  C6_11 
REMARK    4  A    between atoms: C7_14  and  N5_15 
REMARK    5  A    between atoms: N5_15  and  C8_17 
REMARK    6  A    between atoms: C8_17  and  C9_18 
REMARK    7  A    between atoms: C9_18  and  O1_19 
REMARK    8  A    between atoms: C10_23  and  N7_24 
REMARK    9  A    between atoms: N7_24  and  C11_26 
REMARK   10  A    between atoms: C14_29  and  C15_30 
ROOT
HETATM    1  C6  UNL     1      -0.695   0.870   0.039  1.00  0.00     0.707 A 
HETATM    2  N4  UNL     1      -1.146   2.159   0.031  1.00  0.00    -0.022 N 
ATOM      3  H4  UNL     1      -2.144   2.341  -0.077  1.00  0.00     0.203 HD
HETATM    4  C7  UNL     1      -0.294   3.192   0.163  1.00  0.00     0.707 A 
HETATM    5  N6  UNL     1       1.031   2.996   0.307  1.00  0.00    -0.021 N 
ATOM      6  H6  UNL     1       1.672   3.784   0.406  1.00  0.00     0.203 HD
HETATM    7  C10 UNL     1       1.486   1.720   0.316  1.00  0.00     0.711 A 
HETATM    8  N9  UNL     1       0.626   0.697   0.184  1.00  0.00    -0.021 N 
ATOM      9  H9  UNL     1       0.995  -0.254   0.195  1.00  0.00     0.203 HD
ENDROOT
BRANCH   7  10
HETATM   10  N7  UNL     1       2.757   1.559   0.455  1.00  0.00    -0.191 N 
ATOM     11  H7  UNL     1       3.393   2.350   0.554  1.00  0.00     0.184 HD
BRANCH  10  12
HETATM   12  C11 UNL     1       3.228   0.198   0.463  1.00  0.00     0.049 A 
HETATM   13  C12 UNL     1       3.375  -0.408   1.685  1.00  0.00     0.031 A 
HETATM   14  C13 UNL     1       3.823  -1.710   1.734  1.00  0.00     0.019 A 
HETATM   15  C14 UNL     1       4.111  -2.370   0.559  1.00  0.00     0.029 A 
HETATM   16  C16 UNL     1       3.958  -1.746  -0.666  1.00  0.00     0.019 A 
HETATM   17  C17 UNL     1       3.511  -0.448  -0.712  1.00  0.00     0.031 A 
BRANCH  15  18
HETATM   18  C15 UNL     1       4.582  -3.738   0.619  1.00  0.00     0.264 C 
HETATM   19  N8  UNL     1       4.881  -4.450  -0.588  1.00  0.00    -0.057 NA
HETATM   20  O2  UNL     1       4.750  -4.358   1.705  1.00  0.00    -0.271 OA
ENDBRANCH  15  18
ENDBRANCH  10  12
ENDBRANCH   7  10
BRANCH   4  21
HETATM   21  N5  UNL     1      -0.690   4.424   0.159  1.00  0.00    -0.223 N 
ATOM     22  H5  UNL     1      -0.026   5.192   0.260  1.00  0.00     0.177 HD
BRANCH  21  23
HETATM   23  C8  UNL     1      -2.102   4.675   0.007  1.00  0.00     0.164 C 
BRANCH  23  24
HETATM   24  C9  UNL     1      -2.428   6.139   0.094  1.00  0.00     0.184 C 
BRANCH  24  25
HETATM   25  O1  UNL     1      -2.044   6.665   1.325  1.00  0.00    -0.399 OA
ATOM     26  H1  UNL     1      -2.250   7.591   1.380  1.00  0.00     0.209 HD
ENDBRANCH  24  25
ENDBRANCH  23  24
ENDBRANCH  21  23
ENDBRANCH   4  21
BRANCH   1  27
HETATM   27  N3  UNL     1      -1.563  -0.049  -0.091  1.00  0.00    -0.218 N 
ATOM     28  H3  UNL     1      -2.532   0.252  -0.192  1.00  0.00     0.178 HD
BRANCH  27  29
HETATM   29  C5  UNL     1      -1.329  -1.460  -0.111  1.00  0.00     0.214 C 
BRANCH  29  30
HETATM   30  C4  UNL     1      -2.372  -2.143  -0.932  1.00  0.00     0.101 A 
HETATM   31  N1  UNL     1      -3.563  -2.636  -0.579  1.00  0.00    -0.348 N 
HETATM   32  C1  UNL     1      -4.113  -2.605   0.753  1.00  0.00     0.157 C 
HETATM   33  C2  UNL     1      -4.162  -3.168  -1.677  1.00  0.00     0.108 A 
HETATM   34  C3  UNL     1      -3.311  -2.994  -2.736  1.00  0.00     0.106 A 
HETATM   35  N2  UNL     1      -2.229  -2.366  -2.249  1.00  0.00    -0.353 N 
ATOM     36  H2  UNL     1      -1.414  -2.097  -2.800  1.00  0.00     0.166 HD
ENDBRANCH  29  30
ENDBRANCH  27  29
ENDBRANCH   1  27
TORSDOF 10
