REMARK  9 active torsions:
REMARK  status: ('A' for Active; 'I' for Inactive)
REMARK    1  A    between atoms: N1_1  and  C1_4 
REMARK    2  A    between atoms: C2_7  and  N3_8 
REMARK    3  A    between atoms: N3_8  and  C3_10 
REMARK    4  A    between atoms: C3_10  and  C4_11 
REMARK    5  A    between atoms: C4_11  and  C5_12 
REMARK    6  A    between atoms: C9_18  and  C10_19 
REMARK    7  A    between atoms: N7_27  and  C13_28 
REMARK    8  A    between atoms: C13_28  and  C14_29 
REMARK    9  A    between atoms: C14_29  and  C15_30 
ROOT
HETATM    1  C1  UNL     1       1.122   1.698   0.848  1.00  0.00     0.679 A 
HETATM    2  N2  UNL     1       0.033   1.097   0.298  1.00  0.00    -0.175 N 
ATOM      3  H2  UNL     1      -0.865   1.580   0.332  1.00  0.00     0.186 HD
HETATM    4  C2  UNL     1       0.096  -0.107  -0.287  1.00  0.00     0.147 A 
HETATM    5  C11 UNL     1       1.334  -0.751  -0.324  1.00  0.00     0.126 A 
HETATM    6  N6  UNL     1       1.736  -1.928  -0.816  1.00  0.00    -0.302 N 
ATOM      7  H6  UNL     1       1.139  -2.606  -1.290  1.00  0.00     0.171 HD
HETATM    8  C12 UNL     1       3.054  -2.076  -0.586  1.00  0.00     0.328 A 
HETATM    9  O2  UNL     1       3.766  -3.081  -0.922  1.00  0.00    -0.246 OA
HETATM   10  N7  UNL     1       3.479  -0.975   0.059  1.00  0.00    -0.282 N 
HETATM   11  C16 UNL     1       2.442  -0.154   0.229  1.00  0.00     0.158 A 
HETATM   12  N9  UNL     1       2.301   1.073   0.808  1.00  0.00    -0.174 N 
ATOM     13  H9  UNL     1       3.117   1.524   1.221  1.00  0.00     0.186 HD
ENDROOT
BRANCH   4  14
HETATM   14  N3  UNL     1      -0.880  -0.729  -0.826  1.00  0.00    -0.374 N 
ATOM     15  H3  UNL     1      -0.666  -1.641  -1.230  1.00  0.00     0.161 HD
BRANCH  14  16
HETATM   16  C3  UNL     1      -2.241  -0.294  -0.929  1.00  0.00     0.126 C 
BRANCH  16  17
HETATM   17  C4  UNL     1      -3.170  -1.192  -0.120  1.00  0.00     0.060 C 
BRANCH  17  18
HETATM   18  C5  UNL     1      -4.570  -0.796  -0.168  1.00  0.00    -0.025 A 
HETATM   19  C6  UNL     1      -5.460  -1.417  -1.063  1.00  0.00     0.011 A 
HETATM   20  C7  UNL     1      -6.777  -1.042  -1.164  1.00  0.00     0.018 A 
HETATM   21  C8  UNL     1      -7.239  -0.022  -0.360  1.00  0.00     0.088 A 
HETATM   22  N4  UNL     1      -6.378   0.555   0.485  1.00  0.00    -0.361 N 
HETATM   23  C9  UNL     1      -5.063   0.199   0.604  1.00  0.00     0.104 A 
ATOM     24  H4  UNL     1      -6.724   1.309   1.079  1.00  0.00     0.165 HD
BRANCH  23  25
HETATM   25  C10 UNL     1      -4.268   0.877   1.583  1.00  0.00     0.281 C 
HETATM   26  N5  UNL     1      -4.867   1.996   2.293  1.00  0.00    -0.056 NA
HETATM   27  O1  UNL     1      -3.112   0.671   1.946  1.00  0.00    -0.269 OA
ENDBRANCH  23  25
ENDBRANCH  17  18
ENDBRANCH  16  17
ENDBRANCH  14  16
ENDBRANCH   4  14
BRANCH   1  28
HETATM   28  N1  UNL     1       0.979   2.848   1.392  1.00  0.00    -0.234 N 
ATOM     29  H12 UNL     1       0.078   3.326   1.423  1.00  0.00     0.174 HD
ATOM     30  H11 UNL     1       1.796   3.299   1.804  1.00  0.00     0.174 HD
ENDBRANCH   1  28
BRANCH  10  31
HETATM   31  C13 UNL     1       4.825  -0.703   0.505  1.00  0.00     0.144 C 
BRANCH  31  32
HETATM   32  C14 UNL     1       5.618   0.022  -0.587  1.00  0.00     0.120 C 
BRANCH  32  33
HETATM   33  C15 UNL     1       6.999   0.296  -0.120  1.00  0.00     0.232 C 
HETATM   34  N8  UNL     1       7.922   0.956  -0.973  1.00  0.00    -0.062 NA
HETATM   35  O3  UNL     1       7.381  -0.043   1.027  1.00  0.00    -0.277 OA
ENDBRANCH  32  33
ENDBRANCH  31  32
ENDBRANCH  10  31
TORSDOF 9
