REMARK  11 active torsions:
REMARK  status: ('A' for Active; 'I' for Inactive)
REMARK       I    between atoms: C1_4  and  N3_6 
REMARK    1  A    between atoms: N3_6  and  C2_8 
REMARK    2  A    between atoms: C2_8  and  C3_9 
REMARK    3  A    between atoms: C3_9  and  C4_10 
REMARK    4  A    between atoms: C4_10  and  C5_11 
REMARK    5  A    between atoms: C5_11  and  C6_12 
REMARK    6  A    between atoms: C6_12  and  O1_13 
REMARK    7  A    between atoms: O1_13  and  C7_14 
REMARK       I    between atoms: C7_14  and  N4_16 
REMARK    8  A    between atoms: C11_21  and  C12_22 
REMARK    9  A    between atoms: C12_22  and  C13_23 
REMARK   10  A    between atoms: C13_23  and  C14_24 
REMARK   11  A    between atoms: C14_24  and  N5_25 
REMARK       I    between atoms: N5_25  and  C15_27 
ROOT
HETATM    1  O1  UNL     1      -0.787   0.084   0.081  1.00  0.00    -0.265 OA
ENDROOT
BRANCH   1   2
HETATM    2  C6  UNL     1      -1.826   0.497   0.932  1.00  0.00     0.065 C 
HETATM    3  C16 UNL     1      -2.019  -0.220   2.028  1.00  0.00    -0.025 A 
HETATM    4  C17 UNL     1      -1.164  -1.371   2.281  1.00  0.00     0.010 A 
HETATM    5  C21 UNL     1      -3.081   0.188   2.991  1.00  0.00     0.068 A 
HETATM    6  C18 UNL     1      -1.315  -2.078   3.381  1.00  0.00     0.000 A 
HETATM    7  C19 UNL     1      -2.327  -1.719   4.344  1.00  0.00    -0.004 A 
HETATM    8  C20 UNL     1      -3.115  -0.699   4.161  1.00  0.00    -0.022 A 
BRANCH   2   9
HETATM    9  C5  UNL     1      -2.647   1.694   0.575  1.00  0.00     0.066 C 
BRANCH   9  10
HETATM   10  C4  UNL     1      -3.181   1.688  -0.804  1.00  0.00     0.008 C 
BRANCH  10  11
HETATM   11  C3  UNL     1      -4.085   0.606  -1.229  1.00  0.00     0.020 C 
BRANCH  11  12
HETATM   12  C2  UNL     1      -5.385   0.471  -0.518  1.00  0.00     0.122 C 
BRANCH  12  13
HETATM   13  N3  UNL     1      -6.117  -0.659  -1.113  1.00  0.00    -0.365 N 
HETATM   14  C1  UNL     1      -6.600  -0.538  -2.445  1.00  0.00     0.181 C 
HETATM   15  N1  UNL     1      -6.460  -1.481  -3.316  1.00  0.00    -0.374 N 
HETATM   16  N2  UNL     1      -7.262   0.660  -2.836  1.00  0.00    -0.064 NA
ATOM     17  H12 UNL     1      -6.806  -1.394  -4.271  1.00  0.00     0.158 HD
ATOM     18  H11 UNL     1      -5.986  -2.339  -3.036  1.00  0.00     0.158 HD
ATOM     19  H3  UNL     1      -6.275  -1.514  -0.579  1.00  0.00     0.162 HD
ENDBRANCH  12  13
ENDBRANCH  11  12
ENDBRANCH  10  11
ENDBRANCH   9  10
ENDBRANCH   2   9
ENDBRANCH   1   2
BRANCH   1  20
HETATM   20  C7  UNL     1       0.484   0.605   0.263  1.00  0.00     0.374 C 
HETATM   21  O2  UNL     1       0.624   1.442   1.209  1.00  0.00    -0.237 OA
HETATM   22  N4  UNL     1       1.587   0.256  -0.534  1.00  0.00    -0.259 N 
HETATM   23  C8  UNL     1       1.670  -0.641  -1.620  1.00  0.00     0.228 C 
HETATM   24  C11 UNL     1       2.970   0.817  -0.354  1.00  0.00     0.098 C 
HETATM   25  O3  UNL     1       0.771  -1.448  -2.004  1.00  0.00    -0.273 OA
HETATM   26  C9  UNL     1       2.995  -0.492  -2.252  1.00  0.00     0.105 C 
HETATM   27  C10 UNL     1       3.424   0.885  -1.793  1.00  0.00     0.035 C 
BRANCH  24  28
HETATM   28  C12 UNL     1       3.766  -0.159   0.442  1.00  0.00     0.028 C 
BRANCH  28  29
HETATM   29  C13 UNL     1       5.132   0.131   0.838  1.00  0.00     0.022 C 
BRANCH  29  30
HETATM   30  C14 UNL     1       6.236   0.333  -0.113  1.00  0.00     0.122 C 
BRANCH  30  31
HETATM   31  N5  UNL     1       6.517  -0.771  -0.972  1.00  0.00    -0.365 N 
HETATM   32  C15 UNL     1       7.529  -0.695  -1.940  1.00  0.00     0.181 C 
HETATM   33  N6  UNL     1       8.612  -0.068  -1.696  1.00  0.00    -0.374 N 
HETATM   34  N7  UNL     1       7.343  -1.321  -3.193  1.00  0.00    -0.064 NA
ATOM     35  H62 UNL     1       8.746   0.384  -0.791  1.00  0.00     0.158 HD
ATOM     36  H61 UNL     1       9.348  -0.013  -2.400  1.00  0.00     0.158 HD
ATOM     37  H5  UNL     1       5.973  -1.629  -0.881  1.00  0.00     0.162 HD
ENDBRANCH  30  31
ENDBRANCH  29  30
ENDBRANCH  28  29
ENDBRANCH  24  28
ENDBRANCH   1  20
TORSDOF 11
