REMARK  2 active torsions:
REMARK  status: ('A' for Active; 'I' for Inactive)
REMARK    1  A    between atoms: N1_2  and  C2_5 
REMARK    2  A    between atoms: C2_5  and  C4_7 
ROOT
HETATM    1  C1  UNL     1       1.835  -0.670  -0.023  1.00  0.00     0.267 C 
HETATM    2  N1  UNL     1       0.419  -0.896  -0.053  1.00  0.00    -0.069 N 
ATOM      3  H11 UNL     1       0.164  -1.684   0.542  1.00  0.00     0.277 HD
ATOM      4  H12 UNL     1       0.129  -1.268  -0.957  1.00  0.00     0.277 HD
ENDROOT
BRANCH   2   5
HETATM    5  C2  UNL     1      -0.351   0.279   0.291  1.00  0.00     0.242 C 
HETATM    6  C3  UNL     1      -1.823  -0.144   0.215  1.00  0.00     0.047 C 
BRANCH   5   7
HETATM    7  C4  UNL     1      -0.099   1.407  -0.635  1.00  0.00     0.263 C 
HETATM    8  O1  UNL     1       0.670   1.332  -1.567  1.00  0.00    -0.305 OA
ENDBRANCH   5   7
ENDBRANCH   2   5
TORSDOF 2
