REMARK  1 active torsions:
REMARK  status: ('A' for Active; 'I' for Inactive)
REMARK    1  A    between atoms: O1_1  and  C1_3 
ROOT
HETATM    1  C1  UNL     1      -0.958  -0.838  -0.018  1.00  0.00     0.173 C 
HETATM    2  C2  UNL     1      -1.392   0.372  -0.789  1.00  0.00     0.266 C 
HETATM    3  N1  UNL     1      -0.986   1.543  -0.073  1.00  0.00    -0.072 N 
ATOM      4  H11 UNL     1      -1.385   1.557   0.866  1.00  0.00     0.277 HD
ATOM      5  H12 UNL     1      -1.431   2.379  -0.452  1.00  0.00     0.277 HD
HETATM    6  C3  UNL     1       0.455   1.691  -0.031  1.00  0.00     0.240 C 
HETATM    7  C4  UNL     1       1.180   0.442   0.325  1.00  0.00     0.053 C 
HETATM    8  C5  UNL     1       1.800  -0.337  -0.797  1.00  0.00     0.084 C 
HETATM    9  S1  UNL     1       1.599  -1.834   0.245  1.00  0.00    -0.143 SA
HETATM   10  C6  UNL     1       0.285  -0.680   0.759  1.00  0.00     0.099 C 
HETATM   11  S2  UNL     1       0.044  -0.613   2.564  1.00  0.00    -0.071 SA
ENDROOT
BRANCH   1  12
HETATM   12  O1  UNL     1      -0.916  -1.951  -0.872  1.00  0.00    -0.391 OA
ATOM     13  H1  UNL     1      -0.641  -2.718  -0.383  1.00  0.00     0.210 HD
ENDBRANCH   1  12
TORSDOF 1
