REMARK  14 active torsions:
REMARK  status: ('A' for Active; 'I' for Inactive)
REMARK    1  A    between atoms: C2_2  and  C3_3 
REMARK    2  A    between atoms: C3_3  and  C4_4 
REMARK    3  A    between atoms: C5_5  and  C6_6 
REMARK    4  A    between atoms: C8_8  and  C9_9 
REMARK       I    between atoms: N1_16  and  C14_17 
REMARK    5  A    between atoms: C14_17  and  C15_19 
REMARK    6  A    between atoms: C15_19  and  N2_20 
REMARK    7  A    between atoms: C15_19  and  C16_24 
REMARK    8  A    between atoms: C16_24  and  C17_26 
REMARK    9  A    between atoms: C20_29  and  O5_30 
REMARK   10  A    between atoms: O5_30  and  C21_31 
REMARK   11  A    between atoms: C21_31  and  C22_32 
REMARK   12  A    between atoms: C22_32  and  C23_33 
REMARK   13  A    between atoms: C23_33  and  C24_34 
REMARK   14  A    between atoms: C24_34  and  C25_35 
ROOT
HETATM    1  C15 UNL     1       1.875  -0.516  -1.417  1.00  0.00     0.344 C 
ENDROOT
BRANCH   1   2
HETATM    2  C14 UNL     1       3.048  -1.134  -0.701  1.00  0.00     0.262 C 
HETATM    3  N1  UNL     1       4.032  -0.328  -0.018  1.00  0.00    -0.320 N 
HETATM    4  C10 UNL     1       5.184  -0.827   0.752  1.00  0.00     0.115 C 
HETATM    5  C13 UNL     1       4.092   1.079   0.022  1.00  0.00     0.091 C 
HETATM    6  C8  UNL     1       5.905  -1.944   0.084  1.00  0.00     0.118 C 
HETATM    7  C11 UNL     1       6.137   0.354   0.603  1.00  0.00     0.039 C 
HETATM    8  C5  UNL     1       7.321  -1.530   0.029  1.00  0.00     0.029 C 
HETATM    9  C4  UNL     1       7.111  -0.048  -0.496  1.00  0.00     0.007 C 
HETATM   10  C12 UNL     1       5.291   1.497   0.377  1.00  0.00    -0.002 C 
HETATM   11  O3  UNL     1       3.101  -2.376  -0.747  1.00  0.00    -0.270 OA
BRANCH   6  12
HETATM   12  C9  UNL     1       5.628  -3.295   0.569  1.00  0.00     0.179 C 
HETATM   13  O1  UNL     1       5.948  -4.241  -0.235  1.00  0.00    -0.648 OA
HETATM   14  O2  UNL     1       5.079  -3.693   1.752  1.00  0.00    -0.648 OA
ENDBRANCH   6  12
BRANCH   8  15
HETATM   15  C6  UNL     1       8.122  -1.437   1.219  1.00  0.00    -0.031 C 
HETATM   16  C7  UNL     1       7.852  -1.622   2.483  1.00  0.00     0.007 C 
ENDBRANCH   8  15
BRANCH   9  17
HETATM   17  C3  UNL     1       8.418   0.650  -0.270  1.00  0.00     0.032 C 
BRANCH  17  18
HETATM   18  C2  UNL     1       8.503   2.011  -0.783  1.00  0.00    -0.036 C 
HETATM   19  C1  UNL     1       7.741   2.635  -1.639  1.00  0.00     0.007 C 
ENDBRANCH  17  18
ENDBRANCH   9  17
ENDBRANCH   1   2
BRANCH   1  20
HETATM   20  N2  UNL     1       1.517  -1.413  -2.531  1.00  0.00    -0.059 N 
ATOM     21  H23 UNL     1       2.302  -1.612  -3.151  1.00  0.00     0.275 HD
ATOM     22  H22 UNL     1       1.340  -2.371  -2.230  1.00  0.00     0.275 HD
ATOM     23  H21 UNL     1       0.723  -0.995  -3.016  1.00  0.00     0.275 HD
ENDBRANCH   1  20
BRANCH   1  24
HETATM   24  C16 UNL     1       0.737  -0.610  -0.468  1.00  0.00     0.170 C 
HETATM   25  O4  UNL     1      -0.096  -1.505  -0.678  1.00  0.00    -0.295 OA
BRANCH  24  26
HETATM   26  C17 UNL     1       0.484   0.249   0.702  1.00  0.00     0.058 C 
HETATM   27  C18 UNL     1       0.257   1.694   0.383  1.00  0.00     0.015 C 
HETATM   28  C19 UNL     1      -1.025   2.155   1.021  1.00  0.00     0.033 C 
HETATM   29  C20 UNL     1      -2.143   1.254   0.446  1.00  0.00     0.121 C 
HETATM   30  C31 UNL     1      -1.984  -0.050   1.170  1.00  0.00     0.033 C 
HETATM   31  C32 UNL     1      -0.587  -0.339   1.599  1.00  0.00     0.015 C 
BRANCH  29  32
HETATM   32  O5  UNL     1      -3.350   1.884   0.604  1.00  0.00    -0.386 OA
BRANCH  32  33
HETATM   33  C21 UNL     1      -3.916   2.138  -0.632  1.00  0.00     0.168 C 
BRANCH  33  34
HETATM   34  C22 UNL     1      -4.299   0.893  -1.350  1.00  0.00     0.026 C 
BRANCH  34  35
HETATM   35  C23 UNL     1      -5.337   0.114  -0.604  1.00  0.00     0.002 C 
BRANCH  35  36
HETATM   36  C24 UNL     1      -6.586   0.953  -0.454  1.00  0.00     0.005 C 
BRANCH  36  37
HETATM   37  C25 UNL     1      -7.681   0.211   0.303  1.00  0.00    -0.014 C 
HETATM   38  C26 UNL     1      -8.867   1.129   0.388  1.00  0.00     0.004 C 
HETATM   39  C27 UNL     1     -10.143   0.416   0.736  1.00  0.00     0.000 C 
HETATM   40  C28 UNL     1      -9.818  -0.976   1.189  1.00  0.00     0.000 C 
HETATM   41  C29 UNL     1      -9.247  -1.725   0.010  1.00  0.00     0.000 C 
HETATM   42  C30 UNL     1      -7.940  -1.080  -0.374  1.00  0.00     0.004 C 
ENDBRANCH  36  37
ENDBRANCH  35  36
ENDBRANCH  34  35
ENDBRANCH  33  34
ENDBRANCH  32  33
ENDBRANCH  29  32
ENDBRANCH  24  26
ENDBRANCH   1  24
TORSDOF 14
