REMARK  12 active torsions:
REMARK  status: ('A' for Active; 'I' for Inactive)
REMARK    1  A    between atoms: C2_2  and  C4_4 
REMARK    2  A    between atoms: C4_4  and  C5_5 
REMARK    3  A    between atoms: C7_10  and  C8_11 
REMARK    4  A    between atoms: C8_11  and  C9_12 
REMARK    5  A    between atoms: C9_12  and  C10_13 
REMARK    6  A    between atoms: C10_13  and  N2_14 
REMARK    7  A    between atoms: N6_23  and  C13_24 
REMARK    8  A    between atoms: C13_24  and  C14_25 
REMARK    9  A    between atoms: C19_31  and  C20_32 
REMARK   10  A    between atoms: C20_32  and  C21_33 
REMARK   11  A    between atoms: C25_40  and  C26_41 
REMARK   12  A    between atoms: C26_41  and  C27_42 
ROOT
HETATM    1  C5  UNL     1       0.045   2.834   0.506  1.00  0.00     0.177 C 
HETATM    2  N1  UNL     1       0.959   2.042   1.374  1.00  0.00    -0.346 N 
ATOM      3  H1  UNL     1       1.047   2.320   2.351  1.00  0.00     0.163 HD
HETATM    4  C6  UNL     1       1.707   0.938   0.937  1.00  0.00     0.241 C 
HETATM    5  O1  UNL     1       1.840   0.019   1.825  1.00  0.00    -0.271 OA
HETATM    6  C7  UNL     1       2.331   0.732  -0.380  1.00  0.00     0.178 C 
HETATM    7  N5  UNL     1       1.480   0.396  -1.460  1.00  0.00    -0.329 N 
ATOM      8  H5  UNL     1       1.072   1.189  -1.956  1.00  0.00     0.165 HD
HETATM    9  C12 UNL     1       1.109  -0.889  -1.957  1.00  0.00     0.325 C 
HETATM   10  O2  UNL     1       1.179  -1.045  -3.228  1.00  0.00    -0.247 OA
HETATM   11  N6  UNL     1       0.674  -2.011  -1.212  1.00  0.00    -0.268 N 
HETATM   12  C18 UNL     1      -0.318  -1.959  -0.192  1.00  0.00     0.250 C 
HETATM   13  O3  UNL     1      -0.029  -2.686   0.839  1.00  0.00    -0.271 OA
HETATM   14  C19 UNL     1      -1.574  -1.252  -0.092  1.00  0.00     0.177 C 
HETATM   15  N7  UNL     1      -1.805  -0.140  -0.963  1.00  0.00    -0.346 N 
ATOM     16  H7  UNL     1      -1.430  -0.207  -1.909  1.00  0.00     0.163 HD
HETATM   17  C24 UNL     1      -2.510   1.049  -0.630  1.00  0.00     0.241 C 
HETATM   18  O4  UNL     1      -2.701   1.906  -1.531  1.00  0.00    -0.271 OA
HETATM   19  C25 UNL     1      -3.061   1.386   0.707  1.00  0.00     0.177 C 
HETATM   20  N8  UNL     1      -2.232   2.169   1.553  1.00  0.00    -0.346 N 
ATOM     21  H8  UNL     1      -2.431   2.037   2.545  1.00  0.00     0.163 HD
HETATM   22  C30 UNL     1      -1.204   3.080   1.317  1.00  0.00     0.241 C 
HETATM   23  O5  UNL     1      -1.283   4.244   1.819  1.00  0.00    -0.271 OA
ENDROOT
BRANCH   6  24
HETATM   24  C8  UNL     1       3.544  -0.212  -0.281  1.00  0.00     0.036 C 
BRANCH  24  25
HETATM   25  C9  UNL     1       4.612   0.331   0.624  1.00  0.00     0.022 C 
BRANCH  25  26
HETATM   26  C10 UNL     1       5.799  -0.599   0.718  1.00  0.00     0.122 C 
BRANCH  26  27
HETATM   27  N2  UNL     1       6.785  -0.021   1.602  1.00  0.00    -0.367 N 
HETATM   28  C11 UNL     1       7.904  -0.630   1.757  1.00  0.00     0.196 C 
HETATM   29  N3  UNL     1       8.938  -0.141   2.606  1.00  0.00    -0.067 NA
HETATM   30  N4  UNL     1       8.154  -1.842   1.071  1.00  0.00    -0.067 NA
ATOM     31  H2  UNL     1       6.596   0.853   2.093  1.00  0.00     0.161 HD
ENDBRANCH  26  27
ENDBRANCH  25  26
ENDBRANCH  24  25
ENDBRANCH   6  24
BRANCH   1  32
HETATM   32  C4  UNL     1       0.774   4.110   0.251  1.00  0.00     0.038 C 
BRANCH  32  33
HETATM   33  C2  UNL     1       0.037   5.037  -0.648  1.00  0.00    -0.020 C 
HETATM   34  C1  UNL     1      -0.210   4.435  -2.023  1.00  0.00     0.009 C 
HETATM   35  C3  UNL     1       0.762   6.367  -0.816  1.00  0.00     0.009 C 
ENDBRANCH  32  33
ENDBRANCH   1  32
BRANCH  11  36
HETATM   36  C13 UNL     1       1.263  -3.306  -1.455  1.00  0.00     0.145 C 
BRANCH  36  37
HETATM   37  C14 UNL     1       0.648  -4.247  -2.389  1.00  0.00    -0.035 C 
HETATM   38  C15 UNL     1       1.555  -5.529  -2.385  1.00  0.00     0.016 C 
HETATM   39  C16 UNL     1      -0.702  -4.821  -1.931  1.00  0.00     0.016 C 
HETATM   40  C17 UNL     1       0.520  -3.918  -3.825  1.00  0.00     0.016 C 
ENDBRANCH  36  37
ENDBRANCH  11  36
BRANCH  14  41
HETATM   41  C20 UNL     1      -2.804  -2.124  -0.135  1.00  0.00     0.038 C 
BRANCH  41  42
HETATM   42  C21 UNL     1      -2.929  -3.138   0.937  1.00  0.00    -0.020 C 
HETATM   43  C22 UNL     1      -2.983  -2.565   2.328  1.00  0.00     0.009 C 
HETATM   44  C23 UNL     1      -4.245  -3.912   0.728  1.00  0.00     0.009 C 
ENDBRANCH  41  42
ENDBRANCH  14  41
BRANCH  19  45
HETATM   45  C26 UNL     1      -4.439   1.923   0.529  1.00  0.00     0.038 C 
BRANCH  45  46
HETATM   46  C27 UNL     1      -5.232   2.315   1.710  1.00  0.00    -0.020 C 
HETATM   47  C28 UNL     1      -4.719   3.404   2.572  1.00  0.00     0.009 C 
HETATM   48  C29 UNL     1      -6.618   2.756   1.180  1.00  0.00     0.009 C 
ENDBRANCH  45  46
ENDBRANCH  19  45
TORSDOF 12
