REMARK  6 active torsions:
REMARK  status: ('A' for Active; 'I' for Inactive)
REMARK    1  A    between atoms: C1_4  and  C2_6 
REMARK    2  A    between atoms: C4_8  and  C5_9 
REMARK    3  A    between atoms: C7_13  and  C8_14 
REMARK    4  A    between atoms: C18_24  and  O1_25 
REMARK    5  A    between atoms: O1_25  and  C19_26 
REMARK    6  A    between atoms: C19_26  and  C20_27 
ROOT
HETATM    1  C5  UNL     1      -1.010   1.246   0.427  1.00  0.00     0.005 A 
HETATM    2  C6  UNL     1      -2.275   1.656   0.882  1.00  0.00     0.101 A 
HETATM    3  N3  UNL     1      -3.301   0.834   0.881  1.00  0.00    -0.364 N 
ATOM      4  H3  UNL     1      -4.204   1.168   1.218  1.00  0.00     0.165 HD
HETATM    5  C7  UNL     1      -3.191  -0.452   0.442  1.00  0.00     0.053 A 
HETATM    6  C14 UNL     1      -1.998  -0.918  -0.014  1.00  0.00     0.005 A 
HETATM    7  C15 UNL     1      -1.843  -2.181  -0.487  1.00  0.00     0.015 A 
HETATM    8  C16 UNL     1      -0.621  -2.639  -0.973  1.00  0.00     0.004 A 
HETATM    9  C17 UNL     1       0.464  -1.818  -0.988  1.00  0.00     0.038 A 
HETATM   10  C18 UNL     1       0.319  -0.522  -0.507  1.00  0.00     0.081 A 
HETATM   11  C26 UNL     1      -0.882  -0.039  -0.018  1.00  0.00     0.022 A 
ENDROOT
BRANCH   1  12
HETATM   12  C4  UNL     1       0.086   2.181   0.476  1.00  0.00    -0.006 A 
HETATM   13  C3  UNL     1       0.436   3.121  -0.465  1.00  0.00     0.046 A 
HETATM   14  C2  UNL     1       1.513   3.876  -0.009  1.00  0.00     0.074 A 
HETATM   15  N4  UNL     1       1.792   3.363   1.222  1.00  0.00    -0.362 N 
HETATM   16  C27 UNL     1       0.956   2.359   1.521  1.00  0.00     0.101 A 
ATOM     17  H4  UNL     1       2.537   3.698   1.833  1.00  0.00     0.165 HD
BRANCH  14  18
HETATM   18  C1  UNL     1       2.189   4.968  -0.691  1.00  0.00     0.137 C 
HETATM   19  N1  UNL     1       1.768   5.303  -1.858  1.00  0.00    -0.386 N 
ATOM     20  H12 UNL     1       2.242   6.069  -2.336  1.00  0.00     0.157 HD
ATOM     21  H11 UNL     1       0.981   4.792  -2.257  1.00  0.00     0.157 HD
HETATM   22  N2  UNL     1       3.282   5.677  -0.137  1.00  0.00    -0.081 NA
ENDBRANCH  14  18
ENDBRANCH   1  12
BRANCH  10  23
HETATM   23  O1  UNL     1       1.412   0.288  -0.531  1.00  0.00    -0.346 OA
BRANCH  23  24
HETATM   24  C19 UNL     1       2.692   0.002  -0.957  1.00  0.00     0.214 C 
BRANCH  24  25
HETATM   25  C20 UNL     1       3.430  -1.034  -0.226  1.00  0.00    -0.034 A 
HETATM   26  C21 UNL     1       3.130  -1.390   1.094  1.00  0.00     0.009 A 
HETATM   27  C22 UNL     1       3.834  -2.366   1.766  1.00  0.00     0.001 A 
HETATM   28  C23 UNL     1       4.871  -3.029   1.147  1.00  0.00     0.000 A 
HETATM   29  C24 UNL     1       5.177  -2.693  -0.144  1.00  0.00     0.001 A 
HETATM   30  C25 UNL     1       4.472  -1.719  -0.810  1.00  0.00     0.009 A 
ENDBRANCH  24  25
ENDBRANCH  23  24
ENDBRANCH  10  23
BRANCH   5  31
HETATM   31  C8  UNL     1      -4.382  -1.278   0.478  1.00  0.00    -0.009 A 
HETATM   32  C9  UNL     1      -4.504  -2.492   1.099  1.00  0.00     0.014 A 
HETATM   33  C10 UNL     1      -5.676  -3.201   1.065  1.00  0.00     0.001 A 
HETATM   34  C11 UNL     1      -6.791  -2.731   0.407  1.00  0.00     0.000 A 
HETATM   35  C12 UNL     1      -6.692  -1.524  -0.218  1.00  0.00     0.001 A 
HETATM   36  C13 UNL     1      -5.516  -0.811  -0.185  1.00  0.00     0.014 A 
ENDBRANCH   5  31
TORSDOF 6
