REMARK  8 active torsions:
REMARK  status: ('A' for Active; 'I' for Inactive)
REMARK       I    between atoms: C1_4  and  N3_6 
REMARK    1  A    between atoms: N3_6  and  C2_8 
REMARK    2  A    between atoms: C3_9  and  N4_10 
REMARK    3  A    between atoms: C4_14  and  C5_15 
REMARK    4  A    between atoms: C5_15  and  C6_16 
REMARK    5  A    between atoms: C6_16  and  O1_17 
REMARK    6  A    between atoms: O1_17  and  N5_18 
REMARK    7  A    between atoms: N5_18  and  C7_19 
REMARK    8  A    between atoms: C7_19  and  N6_20 
ROOT
HETATM    1  C2  UNL     1       2.463  -0.809  -0.328  1.00  0.00     0.119 C 
HETATM    2  C3  UNL     1       1.531  -0.209   0.684  1.00  0.00     0.211 C 
HETATM    3  C4  UNL     1       0.163  -0.320   0.060  1.00  0.00     0.024 C 
HETATM    4  C8  UNL     1       0.199  -1.438  -0.913  1.00  0.00    -0.002 A 
HETATM    5  C9  UNL     1       0.853  -2.729  -0.665  1.00  0.00     0.012 A 
HETATM    6  C10 UNL     1       1.616  -1.580  -1.288  1.00  0.00     0.015 A 
ENDROOT
BRANCH   3   7
HETATM    7  C5  UNL     1      -0.855  -0.490   1.160  1.00  0.00     0.035 C 
BRANCH   7   8
HETATM    8  C6  UNL     1      -2.259  -0.610   0.625  1.00  0.00     0.196 C 
BRANCH   8   9
HETATM    9  O1  UNL     1      -2.559   0.555  -0.087  1.00  0.00    -0.285 OA
BRANCH   9  10
HETATM   10  N5  UNL     1      -3.789   0.528  -0.595  1.00  0.00    -0.074 NA
BRANCH  10  11
HETATM   11  C7  UNL     1      -4.755   1.237   0.219  1.00  0.00     0.371 C 
BRANCH  11  12
HETATM   12  N6  UNL     1      -6.079   1.197  -0.348  1.00  0.00    -0.064 N 
ATOM     13  H63 UNL     1      -6.080   1.543  -1.307  1.00  0.00     0.275 HD
ATOM     14  H62 UNL     1      -6.377   0.237  -0.522  1.00  0.00     0.275 HD
ATOM     15  H61 UNL     1      -6.759   1.696   0.225  1.00  0.00     0.275 HD
ENDBRANCH  11  12
ENDBRANCH  10  11
ENDBRANCH   9  10
ENDBRANCH   8   9
ENDBRANCH   7   8
ENDBRANCH   3   7
BRANCH   2  16
HETATM   16  N4  UNL     1       1.832   1.144   1.033  1.00  0.00    -0.073 N 
ATOM     17  H43 UNL     1       2.799   1.224   1.348  1.00  0.00     0.274 HD
ATOM     18  H42 UNL     1       1.873   1.727   0.197  1.00  0.00     0.274 HD
ATOM     19  H41 UNL     1       1.199   1.552   1.721  1.00  0.00     0.274 HD
ENDBRANCH   2  16
BRANCH   1  20
HETATM   20  N3  UNL     1       3.323   0.152  -0.965  1.00  0.00    -0.358 N 
HETATM   21  C1  UNL     1       4.220   0.926  -0.186  1.00  0.00     0.182 C 
HETATM   22  N1  UNL     1       4.907   0.353   0.730  1.00  0.00    -0.374 N 
HETATM   23  N2  UNL     1       4.363   2.325  -0.413  1.00  0.00    -0.064 NA
ATOM     24  H12 UNL     1       5.552   0.910   1.290  1.00  0.00     0.158 HD
ATOM     25  H11 UNL     1       4.805  -0.649   0.893  1.00  0.00     0.158 HD
ATOM     26  H3  UNL     1       3.288   0.277  -1.977  1.00  0.00     0.162 HD
ENDBRANCH   1  20
TORSDOF 8
