REMARK  8 active torsions:
REMARK  status: ('A' for Active; 'I' for Inactive)
REMARK    1  A    between atoms: O1_2  and  N1_3 
REMARK       I    between atoms: N1_3  and  C2_5 
REMARK    2  A    between atoms: C2_5  and  C3_7 
REMARK    3  A    between atoms: C3_7  and  N2_8 
REMARK    4  A    between atoms: C4_11  and  N4_12 
REMARK       I    between atoms: N5_14  and  C5_16 
REMARK    5  A    between atoms: C5_16  and  C6_18 
REMARK    6  A    between atoms: C8_23  and  N8_24 
REMARK    7  A    between atoms: C9_29  and  N10_30 
REMARK    8  A    between atoms: N11_33  and  N12_34 
ROOT
HETATM    1  N4  UNL     1      -0.566  -0.898   0.638  1.00  0.00    -0.126 N 
ATOM      2  H4  UNL     1      -0.668  -1.443   1.494  1.00  0.00     0.206 HD
HETATM    3  N5  UNL     1      -1.554  -0.782  -0.126  1.00  0.00    -0.251 N 
ATOM      4  H5  UNL     1      -1.453  -0.237  -0.983  1.00  0.00     0.191 HD
HETATM    5  C5  UNL     1      -2.799  -1.378   0.158  1.00  0.00     0.277 C 
HETATM    6  O3  UNL     1      -2.853  -2.611   0.456  1.00  0.00    -0.266 OA
ENDROOT
BRANCH   1   7
HETATM    7  C4  UNL     1       0.705  -0.291   0.351  1.00  0.00     0.737 A 
HETATM    8  N3  UNL     1       1.722  -0.816  -0.372  1.00  0.00    -0.122 N 
HETATM    9  N2  UNL     1       2.721   0.046  -0.410  1.00  0.00    -0.217 N 
ATOM     10  H3  UNL     1       1.717  -1.734  -0.817  1.00  0.00     0.206 HD
HETATM   11  C10 UNL     1       2.298   1.117   0.306  1.00  0.00     0.377 A 
HETATM   12  N11 UNL     1       1.061   0.935   0.784  1.00  0.00    -0.034 N 
HETATM   13  O4  UNL     1       3.040   2.127   0.458  1.00  0.00    -0.242 OA
BRANCH   9  14
HETATM   14  C3  UNL     1       3.987  -0.118  -1.069  1.00  0.00     0.259 C 
BRANCH  14  15
HETATM   15  C2  UNL     1       5.018  -0.739  -0.210  1.00  0.00     0.261 C 
HETATM   16  N1  UNL     1       6.322  -0.918  -0.747  1.00  0.00    -0.234 N 
ATOM     17  H1  UNL     1       6.506  -0.617  -1.704  1.00  0.00     0.197 HD
HETATM   18  O2  UNL     1       4.803  -1.111   0.957  1.00  0.00    -0.269 OA
BRANCH  16  19
HETATM   19  O1  UNL     1       7.329  -1.475  -0.031  1.00  0.00    -0.283 OA
HETATM   20  C1  UNL     1       8.098  -0.491   0.598  1.00  0.00     0.237 C 
ENDBRANCH  16  19
ENDBRANCH  14  15
ENDBRANCH   9  14
BRANCH  12  21
HETATM   21  N12 UNL     1       0.320   1.830   1.559  1.00  0.00    -0.320 N 
ATOM     22 2H12 UNL     1      -0.623   1.691   1.923  1.00  0.00     0.178 HD
ATOM     23 1H12 UNL     1       0.589   2.758   1.887  1.00  0.00     0.178 HD
ENDBRANCH  12  21
ENDBRANCH   1   7
BRANCH   5  24
HETATM   24  C6  UNL     1      -4.026  -0.575   0.108  1.00  0.00     0.119 A 
HETATM   25  C7  UNL     1      -5.265  -1.093   0.384  1.00  0.00     0.151 A 
HETATM   26  N6  UNL     1      -5.401  -2.454   0.745  1.00  0.00    -0.081 NA
HETATM   27  N7  UNL     1      -6.377  -0.338   0.326  1.00  0.00    -0.178 N 
HETATM   28  C8  UNL     1      -6.247   0.967  -0.016  1.00  0.00     0.678 A 
ATOM     29  H7  UNL     1      -7.293  -0.737   0.534  1.00  0.00     0.185 HD
HETATM   30  N9  UNL     1      -5.047   1.499  -0.291  1.00  0.00    -0.176 N 
HETATM   31  C9  UNL     1      -3.936   0.753  -0.235  1.00  0.00     0.134 A 
ATOM     32  H9  UNL     1      -4.980   2.484  -0.546  1.00  0.00     0.186 HD
BRANCH  28  33
HETATM   33  N8  UNL     1      -7.302   1.692  -0.073  1.00  0.00    -0.234 N 
ATOM     34  H82 UNL     1      -8.215   1.287   0.136  1.00  0.00     0.174 HD
ATOM     35  H81 UNL     1      -7.204   2.674  -0.330  1.00  0.00     0.174 HD
ENDBRANCH  28  33
BRANCH  31  36
HETATM   36  N10 UNL     1      -2.788   1.290  -0.506  1.00  0.00    -0.384 N 
ATOM     37 2H10 UNL     1      -1.942   0.722  -0.463  1.00  0.00     0.157 HD
ATOM     38 1H10 UNL     1      -2.721   2.275  -0.761  1.00  0.00     0.157 HD
ENDBRANCH  31  36
ENDBRANCH   5  24
TORSDOF 8
