REMARK  14 active torsions:
REMARK  status: ('A' for Active; 'I' for Inactive)
REMARK    1  A    between atoms: C1_4  and  O1_5 
REMARK    2  A    between atoms: O1_5  and  C2_6 
REMARK    3  A    between atoms: C5_10  and  C6_11 
REMARK    4  A    between atoms: C6_11  and  O3_12 
REMARK    5  A    between atoms: O3_12  and  N2_13 
REMARK    6  A    between atoms: N3_15  and  C7_17 
REMARK    7  A    between atoms: C10_20  and  O4_21 
REMARK    8  A    between atoms: O4_21  and  C11_22 
REMARK    9  A    between atoms: C12_24  and  C13_25 
REMARK   10  A    between atoms: C13_25  and  O6_26 
REMARK   11  A    between atoms: C14_28  and  O7_29 
REMARK   12  A    between atoms: C15_31  and  O8_32 
REMARK   13  A    between atoms: C16_34  and  O9_35 
REMARK   14  A    between atoms: C17_37  and  O10_38 
ROOT
HETATM    1  C7  UNL     1       0.693   0.011   1.220  1.00  0.00     0.052 A 
HETATM    2  C8  UNL     1       0.092  -0.925   0.400  1.00  0.00     0.034 A 
HETATM    3  C9  UNL     1      -0.933  -0.477  -0.467  1.00  0.00     0.042 A 
HETATM    4  C10 UNL     1      -1.288   0.829  -0.464  1.00  0.00     0.105 A 
HETATM    5  C17 UNL     1      -0.686   1.757   0.335  1.00  0.00     0.101 A 
HETATM    6  C18 UNL     1       0.337   1.328   1.201  1.00  0.00     0.070 A 
ENDROOT
BRANCH   1   7
HETATM    7  N3  UNL     1       1.616  -0.593   2.150  1.00  0.00    -0.281 N 
HETATM    8  N2  UNL     1       2.739  -0.950   1.859  1.00  0.00    -0.207 N 
ATOM      9  H2  UNL     1       3.314  -1.394   2.575  1.00  0.00     0.216 HD
ATOM     10  H3  UNL     1       1.305  -0.728   3.112  1.00  0.00     0.189 HD
BRANCH   8  11
HETATM   11  O3  UNL     1       3.283  -0.773   0.558  1.00  0.00    -0.262 OA
BRANCH  11  12
HETATM   12  C6  UNL     1       4.734  -1.127   0.562  1.00  0.00     0.238 C 
BRANCH  12  13
HETATM   13  C5  UNL     1       5.458   0.070   0.131  1.00  0.00     0.187 C 
HETATM   14  C2  UNL     1       6.752   0.377   0.792  1.00  0.00     0.185 C 
HETATM   15  C3  UNL     1       7.161   1.585   0.076  1.00  0.00     0.032 C 
HETATM   16  C4  UNL     1       6.402   1.719  -0.985  1.00  0.00     0.134 C 
HETATM   17  O2  UNL     1       5.452   0.666  -1.066  1.00  0.00    -0.353 OA
BRANCH  14  18
HETATM   18  O1  UNL     1       7.656  -0.636   0.964  1.00  0.00    -0.335 OA
BRANCH  18  19
HETATM   19  C1  UNL     1       8.244  -1.237  -0.188  1.00  0.00     0.220 C 
HETATM   20  N1  UNL     1       7.576  -1.392  -1.171  1.00  0.00    -0.390 N 
ATOM     21  H12 UNL     1       6.601  -1.092  -1.167  1.00  0.00     0.157 HD
ATOM     22  H11 UNL     1       7.997  -1.822  -1.995  1.00  0.00     0.157 HD
ENDBRANCH  18  19
ENDBRANCH  14  18
ENDBRANCH  12  13
ENDBRANCH  11  12
ENDBRANCH   8  11
ENDBRANCH   1   7
BRANCH   5  23
HETATM   23  O10 UNL     1      -1.090   3.085   0.282  1.00  0.00    -0.358 OA
ATOM     24  H10 UNL     1      -0.671   3.731   0.838  1.00  0.00     0.217 HD
ENDBRANCH   5  23
BRANCH   4  25
HETATM   25  O4  UNL     1      -2.383   1.210  -1.324  1.00  0.00    -0.315 OA
BRANCH  25  26
HETATM   26  C11 UNL     1      -3.591   0.656  -0.698  1.00  0.00     0.298 C 
HETATM   27  O5  UNL     1      -3.615  -0.717  -0.735  1.00  0.00    -0.348 OA
HETATM   28  C12 UNL     1      -4.882  -1.245  -0.688  1.00  0.00     0.179 C 
HETATM   29  C14 UNL     1      -5.842  -0.558   0.219  1.00  0.00     0.180 C 
HETATM   30  C15 UNL     1      -5.760   0.933   0.265  1.00  0.00     0.183 C 
HETATM   31  C16 UNL     1      -4.837   1.385  -0.884  1.00  0.00     0.205 C 
BRANCH  28  32
HETATM   32  C13 UNL     1      -4.721  -2.683  -0.193  1.00  0.00     0.198 C 
BRANCH  32  33
HETATM   33  O6  UNL     1      -6.007  -3.270  -0.202  1.00  0.00    -0.398 OA
ATOM     34  H6  UNL     1      -5.907  -4.163   0.105  1.00  0.00     0.209 HD
ENDBRANCH  32  33
ENDBRANCH  28  32
BRANCH  29  35
HETATM   35  O7  UNL     1      -5.737  -1.155   1.495  1.00  0.00    -0.390 OA
ATOM     36  H7  UNL     1      -6.350  -0.717   2.074  1.00  0.00     0.210 HD
ENDBRANCH  29  35
BRANCH  30  37
HETATM   37  O8  UNL     1      -5.130   1.287   1.477  1.00  0.00    -0.390 OA
ATOM     38  H8  UNL     1      -5.078   2.235   1.506  1.00  0.00     0.210 HD
ENDBRANCH  30  37
BRANCH  31  39
HETATM   39  O9  UNL     1      -4.632   2.742  -0.797  1.00  0.00    -0.388 OA
ATOM     40  H9  UNL     1      -5.445   3.218  -0.918  1.00  0.00     0.210 HD
ENDBRANCH  31  39
ENDBRANCH  25  26
ENDBRANCH   4  25
TORSDOF 14
