REMARK  13 active torsions:
REMARK  status: ('A' for Active; 'I' for Inactive)
REMARK    1  A    between atoms: C2_2  and  C4_4 
REMARK    2  A    between atoms: C4_4  and  C5_5 
REMARK    3  A    between atoms: C5_5  and  C6_6 
REMARK    4  A    between atoms: C6_6  and  C7_7 
REMARK    5  A    between atoms: C7_7  and  O2_9 
REMARK    6  A    between atoms: O2_9  and  C8_10 
REMARK    7  A    between atoms: C12_14  and  O3_16 
REMARK    8  A    between atoms: C15_20  and  C16_21 
REMARK    9  A    between atoms: C16_21  and  O5_23 
REMARK   10  A    between atoms: C16_21  and  O6_25 
REMARK   11  A    between atoms: O6_25  and  C18_26 
REMARK   12  A    between atoms: C18_26  and  O7_27 
REMARK   13  A    between atoms: C18_26  and  C19_29 
ROOT
HETATM    1  C8  UNL     1       0.710  -0.087  -0.905  1.00  0.00     0.295 C 
HETATM    2  C9  UNL     1       0.399  -1.393  -1.530  1.00  0.00     0.030 C 
HETATM    3  C10 UNL     1      -0.615  -2.106  -1.146  1.00  0.00    -0.014 C 
HETATM    4  C11 UNL     1      -1.501  -1.645  -0.069  1.00  0.00     0.098 A 
HETATM    5  C12 UNL     1      -1.370  -2.338   1.242  1.00  0.00     0.128 A 
HETATM    6  C13 UNL     1      -2.649  -2.990   1.723  1.00  0.00     0.055 C 
HETATM    7  C14 UNL     1      -1.106  -1.037   1.894  1.00  0.00     0.202 A 
HETATM    8  O4  UNL     1      -0.945  -0.645   3.048  1.00  0.00    -0.291 OA
HETATM    9  C15 UNL     1      -1.109  -0.361   0.553  1.00  0.00     0.193 A 
HETATM   10  O8  UNL     1       0.133   0.120   0.299  1.00  0.00    -0.332 OA
ENDROOT
BRANCH   9  11
HETATM   11  C16 UNL     1      -2.239   0.669   0.504  1.00  0.00     0.201 C 
HETATM   12  C17 UNL     1      -2.235   1.375  -0.797  1.00  0.00     0.083 C 
BRANCH  11  13
HETATM   13  O5  UNL     1      -1.867   1.625   1.486  1.00  0.00    -0.363 OA
ATOM     14  H5  UNL     1      -2.569   2.265   1.456  1.00  0.00     0.213 HD
ENDBRANCH  11  13
BRANCH  11  15
HETATM   15  O6  UNL     1      -3.451   0.107   0.821  1.00  0.00    -0.317 OA
BRANCH  15  16
HETATM   16  C18 UNL     1      -4.452   1.032   0.900  1.00  0.00     0.314 C 
BRANCH  16  17
HETATM   17  O7  UNL     1      -4.670   1.267   2.341  1.00  0.00    -0.366 OA
ATOM     18  H7  UNL     1      -5.367   1.911   2.396  1.00  0.00     0.213 HD
ENDBRANCH  16  17
BRANCH  16  19
HETATM   19  C19 UNL     1      -5.768   0.656   0.391  1.00  0.00     0.088 A 
HETATM   20  N1  UNL     1      -6.932   0.983   1.034  1.00  0.00    -0.344 N 
HETATM   21  C20 UNL     1      -7.982   0.545   0.351  1.00  0.00     0.077 A 
ATOM     22  H1  UNL     1      -6.985   1.493   1.916  1.00  0.00     0.167 HD
HETATM   23  C21 UNL     1      -9.421   0.710   0.732  1.00  0.00     0.089 C 
HETATM   24  N2  UNL     1      -7.523  -0.060  -0.723  1.00  0.00    -0.348 N 
HETATM   25  C22 UNL     1      -6.166  -0.013  -0.735  1.00  0.00     0.034 A 
ATOM     26  H2  UNL     1      -8.100  -0.499  -1.440  1.00  0.00     0.167 HD
HETATM   27  C23 UNL     1      -5.311  -0.595  -1.775  1.00  0.00     0.070 C 
ENDBRANCH  16  19
ENDBRANCH  15  16
ENDBRANCH  11  15
ENDBRANCH   9  11
BRANCH   5  28
HETATM   28  O3  UNL     1      -0.282  -3.211   1.249  1.00  0.00    -0.382 OA
ATOM     29  H3  UNL     1      -0.198  -3.653   2.086  1.00  0.00     0.211 HD
ENDBRANCH   5  28
BRANCH   1  30
HETATM   30  O2  UNL     1       2.127  -0.068  -0.772  1.00  0.00    -0.285 OA
BRANCH  30  31
HETATM   31  C7  UNL     1       2.937   0.822  -1.465  1.00  0.00     0.270 C 
HETATM   32  O1  UNL     1       2.345   1.623  -2.230  1.00  0.00    -0.264 OA
BRANCH  31  33
HETATM   33  C6  UNL     1       4.395   0.870  -1.354  1.00  0.00     0.051 A 
HETATM   34  C24 UNL     1       5.147  -0.271  -1.988  1.00  0.00     0.020 A 
HETATM   35  C25 UNL     1       5.706   0.639  -3.028  1.00  0.00     0.002 A 
HETATM   36  C26 UNL     1       4.999   1.796  -2.384  1.00  0.00     0.020 A 
BRANCH  33  37
HETATM   37  C5  UNL     1       4.939   1.160   0.027  1.00  0.00     0.047 C 
BRANCH  37  38
HETATM   38  C4  UNL     1       6.407   1.189   0.056  1.00  0.00    -0.023 C 
BRANCH  38  39
HETATM   39  C2  UNL     1       7.165   0.399   0.794  1.00  0.00    -0.091 C 
HETATM   40  C1  UNL     1       6.550  -0.629   1.692  1.00  0.00     0.042 C 
HETATM   41  C3  UNL     1       8.651   0.485   0.774  1.00  0.00     0.042 C 
ENDBRANCH  38  39
ENDBRANCH  37  38
ENDBRANCH  33  37
ENDBRANCH  31  33
ENDBRANCH  30  31
ENDBRANCH   1  30
TORSDOF 13
