REMARK  5 active torsions:
REMARK  status: ('A' for Active; 'I' for Inactive)
REMARK    1  A    between atoms: S1_2  and  C2_3 
REMARK    2  A    between atoms: C3_4  and  O1_5 
REMARK    3  A    between atoms: C4_7  and  C5_8 
REMARK    4  A    between atoms: C5_8  and  O2_9 
REMARK    5  A    between atoms: C5_8  and  O3_11 
ROOT
HETATM    1  C2  UNL     1      -0.686   0.760   0.943  1.00  0.00     0.085 C 
HETATM    2  C3  UNL     1      -1.814   0.312  -0.000  1.00  0.00     0.142 C 
HETATM    3  C4  UNL     1      -1.082  -0.989  -0.046  1.00  0.00     0.080 C 
HETATM    4  C6  UNL     1       0.183  -0.257   0.183  1.00  0.00    -0.015 C 
HETATM    5  C7  UNL     1       0.877   0.412  -0.934  1.00  0.00     0.011 C 
HETATM    6  C8  UNL     1       2.147  -0.330  -1.378  1.00  0.00     0.001 C 
HETATM    7  C9  UNL     1       3.142  -0.303  -0.233  1.00  0.00     0.000 C 
HETATM    8  C10 UNL     1       2.514  -0.519   1.101  1.00  0.00     0.001 C 
HETATM    9  C11 UNL     1       1.116  -1.032   1.067  1.00  0.00     0.011 C 
ENDROOT
BRANCH   3  10
HETATM   10  C5  UNL     1      -1.255  -1.862  -1.215  1.00  0.00     0.261 C 
BRANCH  10  11
HETATM   11  O2  UNL     1      -2.626  -2.197  -1.308  1.00  0.00    -0.371 OA
ATOM     12  H2  UNL     1      -2.738  -2.761  -2.064  1.00  0.00     0.212 HD
ENDBRANCH  10  11
BRANCH  10  13
HETATM   13  O3  UNL     1      -0.872  -1.388  -2.425  1.00  0.00    -0.371 OA
ATOM     14  H3  UNL     1      -0.984  -1.952  -3.181  1.00  0.00     0.212 HD
ENDBRANCH  10  13
ENDBRANCH   3  10
BRANCH   2  15
HETATM   15  O1  UNL     1      -3.029   0.269   0.692  1.00  0.00    -0.394 OA
ATOM     16  H1  UNL     1      -3.726  -0.008   0.109  1.00  0.00     0.210 HD
ENDBRANCH   2  15
BRANCH   1  17
HETATM   17  S1  UNL     1      -0.285   2.473   0.633  1.00  0.00    -0.165 SA
HETATM   18  C1  UNL     1      -1.676   3.535   1.087  1.00  0.00     0.090 C 
ENDBRANCH   1  17
TORSDOF 5
