REMARK  10 active torsions:
REMARK  status: ('A' for Active; 'I' for Inactive)
REMARK    1  A    between atoms: C2_2  and  O1_3 
REMARK    2  A    between atoms: O1_3  and  C3_4 
REMARK    3  A    between atoms: C6_7  and  C7_8 
REMARK    4  A    between atoms: C8_9  and  C9_10 
REMARK    5  A    between atoms: C14_16  and  N2_17 
REMARK    6  A    between atoms: C23_30  and  C24_31 
REMARK    7  A    between atoms: C24_31  and  C25_32 
REMARK    8  A    between atoms: C25_32  and  N4_33 
REMARK       I    between atoms: N4_33  and  C26_35 
REMARK       I    between atoms: C26_35  and  N5_37 
REMARK    9  A    between atoms: N5_37  and  C27_39 
REMARK   10  A    between atoms: N6_42  and  C30_43 
ROOT
HETATM    1  C3  UNL     1       1.105   1.849   0.055  1.00  0.00     0.075 A 
HETATM    2  C4  UNL     1       0.472   1.701   1.272  1.00  0.00     0.038 A 
HETATM    3  C5  UNL     1      -0.301   0.570   1.571  1.00  0.00     0.015 A 
HETATM    4  C6  UNL     1      -0.466  -0.440   0.677  1.00  0.00    -0.019 A 
HETATM    5  C22 UNL     1       0.169  -0.293  -0.539  1.00  0.00     0.022 A 
HETATM    6  C23 UNL     1       0.950   0.830  -0.863  1.00  0.00    -0.022 A 
ENDROOT
BRANCH   4   7
HETATM    7  C7  UNL     1      -1.294  -1.634   0.919  1.00  0.00     0.059 A 
HETATM    8  C8  UNL     1      -2.560  -1.703   1.149  1.00  0.00     0.061 A 
HETATM    9  C20 UNL     1      -2.868  -3.155   1.335  1.00  0.00     0.260 A 
HETATM   10  O2  UNL     1      -4.003  -3.621   1.580  1.00  0.00    -0.267 OA
HETATM   11  N3  UNL     1      -1.690  -3.915   1.194  1.00  0.00    -0.289 N 
HETATM   12  C21 UNL     1      -0.669  -2.993   0.930  1.00  0.00     0.260 A 
ATOM     13  H3  UNL     1      -1.599  -4.928   1.269  1.00  0.00     0.172 HD
HETATM   14  O3  UNL     1       0.555  -3.216   0.732  1.00  0.00    -0.267 OA
BRANCH   8  15
HETATM   15  C9  UNL     1      -3.592  -0.665   1.248  1.00  0.00     0.009 A 
HETATM   16  C10 UNL     1      -3.757   0.428   2.040  1.00  0.00     0.104 A 
HETATM   17  N1  UNL     1      -4.881   1.097   1.701  1.00  0.00    -0.359 N 
HETATM   18  C11 UNL     1      -5.340   2.304   2.353  1.00  0.00     0.156 C 
HETATM   19  C12 UNL     1      -5.494   0.471   0.679  1.00  0.00     0.047 A 
HETATM   20  C13 UNL     1      -6.657   0.737  -0.040  1.00  0.00     0.059 A 
HETATM   21  C19 UNL     1      -4.709  -0.622   0.386  1.00  0.00     0.004 A 
HETATM   22  C14 UNL     1      -7.070  -0.078  -1.070  1.00  0.00     0.031 A 
HETATM   23  C17 UNL     1      -6.285  -1.171  -1.363  1.00  0.00     0.030 A 
HETATM   24  C18 UNL     1      -5.132  -1.432  -0.649  1.00  0.00     0.017 A 
BRANCH  22  25
HETATM   25  N2  UNL     1      -8.271   0.198  -1.810  1.00  0.00    -0.389 N 
HETATM   26  C15 UNL     1      -8.214   1.033  -2.994  1.00  0.00     0.149 C 
HETATM   27  C16 UNL     1      -9.549  -0.352  -1.388  1.00  0.00     0.149 C 
ENDBRANCH  22  25
ENDBRANCH   8  15
ENDBRANCH   4   7
BRANCH   6  28
HETATM   28  C24 UNL     1       1.621   0.833  -2.168  1.00  0.00     0.061 C 
BRANCH  28  29
HETATM   29  C25 UNL     1       2.944   0.224  -2.258  1.00  0.00     0.129 C 
BRANCH  29  30
HETATM   30  N4  UNL     1       4.039   0.717  -1.475  1.00  0.00    -0.343 N 
HETATM   31  C26 UNL     1       5.327   0.072  -1.610  1.00  0.00     0.321 C 
HETATM   32  O4  UNL     1       5.430  -0.880  -2.395  1.00  0.00    -0.247 OA
HETATM   33  N5  UNL     1       6.409   0.538  -0.855  1.00  0.00    -0.294 N 
ATOM     34  H5  UNL     1       6.513   1.549  -0.763  1.00  0.00     0.172 HD
ATOM     35  H4  UNL     1       3.913   1.504  -0.838  1.00  0.00     0.164 HD
BRANCH  33  36
HETATM   36  C27 UNL     1       7.282  -0.197  -0.268  1.00  0.00     0.125 A 
HETATM   37  C28 UNL     1       8.339   0.293   0.469  1.00  0.00     0.069 A 
HETATM   38  C29 UNL     1       9.078  -0.763   0.958  1.00  0.00     0.114 A 
HETATM   39  N6  UNL     1       8.447  -1.879   0.503  1.00  0.00    -0.302 N 
HETATM   40  N7  UNL     1       7.406  -1.533  -0.208  1.00  0.00    -0.284 N 
ATOM     41  H7  UNL     1       6.771  -2.192  -0.658  1.00  0.00     0.188 HD
BRANCH  39  42
HETATM   42  C30 UNL     1       8.948  -3.217   0.824  1.00  0.00     0.143 C 
HETATM   43  C31 UNL     1       9.927  -3.721  -0.185  1.00  0.00     0.028 C 
ENDBRANCH  39  42
ENDBRANCH  33  36
ENDBRANCH  29  30
ENDBRANCH  28  29
ENDBRANCH   6  28
BRANCH   1  44
HETATM   44  O1  UNL     1       1.863   2.959  -0.258  1.00  0.00    -0.351 OA
BRANCH  44  45
HETATM   45  C2  UNL     1       2.086   4.060   0.580  1.00  0.00     0.171 C 
HETATM   46  C1  UNL     1       0.849   4.814   0.959  1.00  0.00     0.034 C 
ENDBRANCH  44  45
ENDBRANCH   1  44
TORSDOF 10
