REMARK  17 active torsions:
REMARK  status: ('A' for Active; 'I' for Inactive)
REMARK    1  A    between atoms: C2_2  and  N1_3 
REMARK       I    between atoms: N1_3  and  C3_5 
REMARK       I    between atoms: C3_5  and  N2_7 
REMARK    2  A    between atoms: N2_7  and  C4_9 
REMARK    3  A    between atoms: C4_9  and  C5_10 
REMARK    4  A    between atoms: C5_10  and  C6_11 
REMARK    5  A    between atoms: C6_11  and  N3_12 
REMARK    6  A    between atoms: N4_15  and  C9_16 
REMARK    7  A    between atoms: C9_16  and  C10_17 
REMARK    8  A    between atoms: C10_17  and  N5_18 
REMARK    9  A    between atoms: C10_17  and  N6_21 
REMARK   10  A    between atoms: N6_21  and  C11_23 
REMARK   11  A    between atoms: C11_23  and  C12_24 
REMARK   12  A    between atoms: C12_24  and  C13_25 
REMARK   13  A    between atoms: C13_25  and  N7_26 
REMARK   14  A    between atoms: N7_26  and  C16_29 
REMARK   15  A    between atoms: C16_29  and  C17_30 
REMARK   16  A    between atoms: C21_37  and  C22_38 
REMARK   17  A    between atoms: C22_38  and  N9_39 
ROOT
HETATM    1  N3  UNL     1       2.763  -1.737   0.402  1.00  0.00    -0.001 N 
HETATM    2  C7  UNL     1       1.581  -1.829   1.274  1.00  0.00     0.280 C 
HETATM    3  C8  UNL     1       0.424  -1.005   0.946  1.00  0.00     0.278 C 
HETATM    4  N4  UNL     1       0.160  -0.654  -0.435  1.00  0.00    -0.019 N 
HETATM    5  C19 UNL     1      -0.351  -1.829  -1.039  1.00  0.00     0.225 C 
HETATM    6  C20 UNL     1       0.323  -2.958  -1.364  1.00  0.00     0.115 C 
HETATM    7  N8  UNL     1       1.705  -3.319  -1.215  1.00  0.00    -0.346 N 
ATOM      8  H8  UNL     1       1.962  -4.126  -1.784  1.00  0.00     0.166 HD
HETATM    9  C21 UNL     1       2.710  -2.855  -0.521  1.00  0.00     0.215 C 
HETATM   10  C23 UNL     1       1.400  -0.339  -1.134  1.00  0.00     0.278 C 
HETATM   11  C24 UNL     1       2.602  -0.489  -0.242  1.00  0.00     0.280 C 
ENDROOT
BRANCH   4  12
HETATM   12  C9  UNL     1      -0.700   0.485  -0.472  1.00  0.00     0.255 C 
BRANCH  12  13
HETATM   13  C10 UNL     1      -1.900   0.458  -1.269  1.00  0.00     0.118 C 
BRANCH  13  14
HETATM   14  N5  UNL     1      -1.920   1.018  -2.432  1.00  0.00    -0.385 N 
ATOM     15  H52 UNL     1      -1.068   1.473  -2.759  1.00  0.00     0.157 HD
ATOM     16  H51 UNL     1      -2.770   0.999  -2.996  1.00  0.00     0.157 HD
ENDBRANCH  13  14
BRANCH  13  17
HETATM   17  N6  UNL     1      -3.073  -0.168  -0.819  1.00  0.00    -0.376 N 
ATOM     18  H6  UNL     1      -3.659  -0.628  -1.515  1.00  0.00     0.161 HD
BRANCH  17  19
HETATM   19  C11 UNL     1      -3.513  -0.209   0.561  1.00  0.00     0.123 C 
BRANCH  19  20
HETATM   20  C12 UNL     1      -4.821  -0.922   0.715  1.00  0.00     0.047 C 
BRANCH  20  21
HETATM   21  C13 UNL     1      -5.987  -0.338   0.007  1.00  0.00     0.238 C 
BRANCH  21  22
HETATM   22  N7  UNL     1      -6.414   0.962   0.381  1.00  0.00    -0.068 N 
HETATM   23  C14 UNL     1      -6.351   1.170   1.830  1.00  0.00     0.272 C 
HETATM   24  C15 UNL     1      -5.783   2.077  -0.231  1.00  0.00     0.272 C 
BRANCH  22  25
HETATM   25  C16 UNL     1      -7.859   1.019   0.082  1.00  0.00     0.314 C 
BRANCH  25  26
HETATM   26  C17 UNL     1      -8.166   1.199  -1.332  1.00  0.00     0.148 C 
HETATM   27  C18 UNL     1      -9.596   1.294  -1.800  1.00  0.00     0.092 C 
HETATM   28  O2  UNL     1      -7.329   1.280  -2.192  1.00  0.00    -0.297 OA
ENDBRANCH  25  26
ENDBRANCH  22  25
ENDBRANCH  21  22
ENDBRANCH  20  21
ENDBRANCH  19  20
ENDBRANCH  17  19
ENDBRANCH  13  17
ENDBRANCH  12  13
ENDBRANCH   4  12
BRANCH   1  29
HETATM   29  C6  UNL     1       3.914  -1.770   1.212  1.00  0.00     0.208 C 
BRANCH  29  30
HETATM   30  C5  UNL     1       4.940  -0.742   1.348  1.00  0.00     0.018 C 
BRANCH  30  31
HETATM   31  C4  UNL     1       4.642   0.606   1.907  1.00  0.00     0.153 C 
BRANCH  31  32
HETATM   32  N2  UNL     1       5.850   1.424   2.024  1.00  0.00    -0.340 N 
HETATM   33  C3  UNL     1       6.577   1.790   0.886  1.00  0.00     0.316 C 
HETATM   34  N1  UNL     1       7.757   2.576   1.035  1.00  0.00    -0.343 N 
HETATM   35  O1  UNL     1       6.242   1.460  -0.297  1.00  0.00    -0.247 OA
ATOM     36  H1  UNL     1       8.055   2.857   1.969  1.00  0.00     0.164 HD
ATOM     37  H2  UNL     1       6.165   1.730   2.944  1.00  0.00     0.164 HD
BRANCH  34  38
HETATM   38  C2  UNL     1       8.547   2.987  -0.118  1.00  0.00     0.120 C 
HETATM   39  C1  UNL     1       7.751   3.824  -1.088  1.00  0.00     0.026 C 
ENDBRANCH  34  38
ENDBRANCH  31  32
ENDBRANCH  30  31
ENDBRANCH  29  30
ENDBRANCH   1  29
BRANCH   9  40
HETATM   40  C22 UNL     1       3.935  -3.625  -0.773  1.00  0.00     0.314 C 
BRANCH  40  41
HETATM   41  N9  UNL     1       5.031  -2.907  -1.339  1.00  0.00    -0.073 N 
ATOM     42  H93 UNL     1       4.732  -2.445  -2.198  1.00  0.00     0.274 HD
ATOM     43  H92 UNL     1       5.248  -2.097  -0.758  1.00  0.00     0.274 HD
ATOM     44  H91 UNL     1       5.882  -3.442  -1.514  1.00  0.00     0.274 HD
ENDBRANCH  40  41
ENDBRANCH   9  40
TORSDOF 17
