REMARK  6 active torsions:
REMARK  status: ('A' for Active; 'I' for Inactive)
REMARK    1  A    between atoms: O1_2  and  C2_3 
REMARK    2  A    between atoms: C3_4  and  C4_5 
REMARK    3  A    between atoms: C4_5  and  O2_6 
REMARK    4  A    between atoms: C5_8  and  C6_9 
REMARK    5  A    between atoms: C6_9  and  C7_10 
REMARK    6  A    between atoms: C22_29  and  O7_31 
ROOT
HETATM    1  C2  UNL     1      -1.467  -1.063  -0.870  1.00  0.00     0.165 C 
HETATM    2  C3  UNL     1      -2.324   0.129  -0.768  1.00  0.00     0.071 C 
HETATM    3  C5  UNL     1      -1.830   1.343  -0.074  1.00  0.00     0.140 C 
HETATM    4  O3  UNL     1      -0.646   1.267   0.631  1.00  0.00    -0.315 OA
HETATM    5  C10 UNL     1       0.591   1.767   0.255  1.00  0.00     0.259 C 
HETATM    6  O4  UNL     1       1.592   1.375   0.906  1.00  0.00    -0.265 OA
HETATM    7  C11 UNL     1       0.760   2.711  -0.845  1.00  0.00     0.111 C 
HETATM    8  C12 UNL     1       2.210   3.029  -1.100  1.00  0.00     0.010 C 
HETATM    9  C13 UNL     1       2.898   1.823  -1.671  1.00  0.00     0.000 C 
HETATM   10  C14 UNL     1       4.242   1.533  -1.042  1.00  0.00     0.000 C 
HETATM   11  C15 UNL     1       4.560   0.041  -1.182  1.00  0.00     0.000 C 
HETATM   12  C16 UNL     1       4.520  -0.671   0.154  1.00  0.00     0.000 C 
HETATM   13  C17 UNL     1       3.414  -1.717   0.071  1.00  0.00     0.000 C 
HETATM   14  C18 UNL     1       3.359  -2.620   1.256  1.00  0.00     0.010 C 
HETATM   15  C19 UNL     1       2.279  -2.311   2.246  1.00  0.00     0.111 C 
HETATM   16  C20 UNL     1       1.187  -3.307   2.190  1.00  0.00     0.258 C 
HETATM   17  O5  UNL     1       1.493  -4.521   2.284  1.00  0.00    -0.265 OA
HETATM   18  O6  UNL     1      -0.132  -2.964   2.043  1.00  0.00    -0.318 OA
HETATM   19  C21 UNL     1      -0.525  -1.770   1.379  1.00  0.00     0.219 C 
HETATM   20  C22 UNL     1      -1.504  -2.044   0.273  1.00  0.00     0.105 C 
HETATM   21  C23 UNL     1      -1.039  -3.442  -0.265  1.00  0.00     0.051 C 
ENDROOT
BRANCH   3  22
HETATM   22  C6  UNL     1      -2.996   1.925   0.717  1.00  0.00     0.037 C 
BRANCH  22  23
HETATM   23  C7  UNL     1      -2.691   3.157   1.489  1.00  0.00    -0.020 C 
HETATM   24  C8  UNL     1      -4.023   3.542   2.171  1.00  0.00     0.009 C 
HETATM   25  C9  UNL     1      -1.739   2.890   2.649  1.00  0.00     0.009 C 
ENDBRANCH  22  23
ENDBRANCH   3  22
BRANCH   2  26
HETATM   26  C4  UNL     1      -2.652   0.588  -2.206  1.00  0.00     0.174 C 
BRANCH  26  27
HETATM   27  O2  UNL     1      -3.298  -0.375  -2.929  1.00  0.00    -0.400 OA
ATOM     28  H2  UNL     1      -3.500  -0.093  -3.813  1.00  0.00     0.209 HD
ENDBRANCH  26  27
ENDBRANCH   2  26
BRANCH   1  29
HETATM   29  O1  UNL     1      -0.161  -0.798  -1.275  1.00  0.00    -0.387 OA
HETATM   30  C1  UNL     1       0.189  -1.328  -2.492  1.00  0.00     0.202 C 
ENDBRANCH   1  29
BRANCH  20  31
HETATM   31  O7  UNL     1      -2.760  -2.206   0.766  1.00  0.00    -0.381 OA
HETATM   32  C24 UNL     1      -3.699  -2.789  -0.037  1.00  0.00     0.202 C 
ENDBRANCH  20  31
TORSDOF 6
