REMARK  3 active torsions:
REMARK  status: ('A' for Active; 'I' for Inactive)
REMARK    1  A    between atoms: C7_7  and  C8_8 
REMARK    2  A    between atoms: C8_8  and  C9_9 
REMARK    3  A    between atoms: C10_12  and  O3_13 
ROOT
HETATM    1  C1  UNL     1      -2.782  -1.133  -1.008  1.00  0.00     0.011 C 
HETATM    2  C2  UNL     1      -1.494  -1.441  -0.344  1.00  0.00    -0.006 C 
HETATM    3  C3  UNL     1      -0.360  -1.797  -1.257  1.00  0.00     0.014 C 
HETATM    4  C4  UNL     1       0.771  -0.970  -0.692  1.00  0.00     0.044 C 
HETATM    5  C5  UNL     1       1.031  -1.461   0.701  1.00  0.00     0.092 C 
HETATM    6  C6  UNL     1      -0.097  -0.902   1.566  1.00  0.00     0.039 C 
HETATM    7  C7  UNL     1      -0.990  -0.285   0.563  1.00  0.00     0.006 C 
HETATM    8  C10 UNL     1      -0.009   0.316  -0.405  1.00  0.00     0.072 C 
HETATM    9  C11 UNL     1       0.867   1.398   0.080  1.00  0.00     0.039 C 
HETATM   10  C12 UNL     1       2.047   1.567  -0.871  1.00  0.00     0.012 C 
HETATM   11  C13 UNL     1       3.327   1.003  -0.359  1.00  0.00     0.103 C 
HETATM   12  C14 UNL     1       3.205  -0.001   0.708  1.00  0.00     0.217 C 
HETATM   13  O4  UNL     1       4.170   0.085   1.527  1.00  0.00    -0.274 OA
HETATM   14  N1  UNL     1       2.335  -1.049   1.114  1.00  0.00    -0.356 N 
ATOM     15  H1  UNL     1       2.724  -1.629   1.857  1.00  0.00     0.162 HD
ENDROOT
BRANCH   7  16
HETATM   16  C8  UNL     1      -2.122   0.525   1.000  1.00  0.00     0.126 C 
BRANCH  16  17
HETATM   17  C9  UNL     1      -1.963   1.640   1.908  1.00  0.00     0.173 C 
HETATM   18  O1  UNL     1      -0.932   1.890   2.544  1.00  0.00    -0.648 OA
HETATM   19  O2  UNL     1      -3.023   2.563   2.139  1.00  0.00    -0.648 OA
ENDBRANCH  16  17
ENDBRANCH   7  16
BRANCH   8  20
HETATM   20  O3  UNL     1      -0.585   0.727  -1.604  1.00  0.00    -0.389 OA
ATOM     21  H3  UNL     1      -1.069   1.525  -1.426  1.00  0.00     0.210 HD
ENDBRANCH   8  20
TORSDOF 3
