REMARK  6 active torsions:
REMARK  status: ('A' for Active; 'I' for Inactive)
REMARK    1  A    between atoms: N1_2  and  C4_5 
REMARK    2  A    between atoms: C4_5  and  C5_6 
REMARK    3  A    between atoms: C9_11  and  C10_12 
REMARK    4  A    between atoms: C10_12  and  C11_13 
REMARK    5  A    between atoms: C12_14  and  C13_15 
REMARK    6  A    between atoms: C13_15  and  N3_16 
ROOT
HETATM    1  C5  UNL     1      -2.866  -0.516  -0.953  1.00  0.00     0.158 C 
HETATM    2  C6  UNL     1      -2.445   0.022   0.387  1.00  0.00     0.264 C 
HETATM    3  N2  UNL     1      -0.971   0.056   0.362  1.00  0.00    -0.044 N 
HETATM    4  C7  UNL     1      -0.497  -1.281   0.570  1.00  0.00     0.275 C 
HETATM    5  C8  UNL     1      -0.533   0.878   1.472  1.00  0.00     0.275 C 
HETATM    6  C9  UNL     1      -0.607   0.569  -0.921  1.00  0.00     0.360 C 
HETATM    7  O2  UNL     1      -1.619   1.298  -1.543  1.00  0.00    -0.251 OA
HETATM    8  N6  UNL     1      -2.648   0.501  -1.935  1.00  0.00    -0.090 NA
ENDROOT
BRANCH   6   9
HETATM    9  C10 UNL     1       0.687   1.348  -0.933  1.00  0.00     0.158 C 
BRANCH   9  10
HETATM   10  C11 UNL     1       1.815   0.523  -0.499  1.00  0.00    -0.100 C 
HETATM   11  C12 UNL     1       2.756  -0.147  -0.157  1.00  0.00    -0.076 C 
BRANCH  11  12
HETATM   12  C13 UNL     1       3.892  -0.979   0.247  1.00  0.00     0.366 C 
BRANCH  12  13
HETATM   13  N3  UNL     1       5.071  -0.176   0.296  1.00  0.00     0.106 N 
HETATM   14  C14 UNL     1       6.241  -1.025   0.557  1.00  0.00     0.298 C 
HETATM   15  C15 UNL     1       6.743   0.190   1.294  1.00  0.00     0.154 C 
HETATM   16  C16 UNL     1       7.454   1.107   0.338  1.00  0.00     0.149 C 
HETATM   17  N5  UNL     1       5.351   0.495   1.463  1.00  0.00    -0.027 NA
HETATM   18  N4  UNL     1       6.632   1.284  -0.845  1.00  0.00    -0.334 N 
HETATM   19  C17 UNL     1       5.367   0.597  -0.834  1.00  0.00     0.435 C 
ATOM     20  H4  UNL     1       6.931   1.858  -1.633  1.00  0.00     0.164 HD
HETATM   21  O1  UNL     1       4.613   0.728  -1.822  1.00  0.00    -0.237 OA
ENDBRANCH  12  13
ENDBRANCH  11  12
ENDBRANCH   9  10
ENDBRANCH   6   9
BRANCH   1  22
HETATM   22  C4  UNL     1      -4.218  -1.131  -0.974  1.00  0.00     0.261 C 
BRANCH  22  23
HETATM   23  N1  UNL     1      -5.312  -0.300  -0.620  1.00  0.00    -0.077 N 
HETATM   24  C1  UNL     1      -5.503  -0.111   0.799  1.00  0.00     0.271 C 
HETATM   25  C2  UNL     1      -5.323   0.991  -1.273  1.00  0.00     0.271 C 
HETATM   26  C3  UNL     1      -6.530  -0.985  -1.095  1.00  0.00     0.271 C 
ENDBRANCH  22  23
ENDBRANCH   1  22
TORSDOF 6
