REMARK  5 active torsions:
REMARK  status: ('A' for Active; 'I' for Inactive)
REMARK    1  A    between atoms: C2_2  and  C3_3 
REMARK    2  A    between atoms: C3_3  and  C4_4 
REMARK    3  A    between atoms: C7_8  and  O2_9 
REMARK    4  A    between atoms: N1_11  and  C8_12 
REMARK    5  A    between atoms: C14_18  and  O3_19 
ROOT
HETATM    1  C4  UNL     1       2.971   0.486   0.001  1.00  0.00     0.169 A 
HETATM    2  O1  UNL     1       2.828   0.190  -1.353  1.00  0.00    -0.336 OA
HETATM    3  C5  UNL     1       1.454   0.090  -1.274  1.00  0.00     0.133 A 
HETATM    4  C6  UNL     1       1.517   0.376   0.066  1.00  0.00     0.060 A 
HETATM    5  C7  UNL     1       0.208   0.360   0.519  1.00  0.00     0.156 A 
HETATM    6  N1  UNL     1      -0.632   0.078  -0.484  1.00  0.00    -0.301 N 
HETATM    7  C14 UNL     1       0.123  -0.091  -1.596  1.00  0.00     0.179 A 
ENDROOT
BRANCH   6   8
HETATM    8  C8  UNL     1      -2.053  -0.038  -0.465  1.00  0.00     0.094 C 
HETATM    9  C9  UNL     1      -2.725   1.305  -0.326  1.00  0.00     0.026 C 
HETATM   10  C10 UNL     1      -4.203   1.219  -0.405  1.00  0.00     0.002 C 
HETATM   11  C11 UNL     1      -4.845   0.047   0.208  1.00  0.00     0.000 C 
HETATM   12  C12 UNL     1      -3.994  -1.160   0.423  1.00  0.00     0.002 C 
HETATM   13  C13 UNL     1      -2.553  -0.846   0.737  1.00  0.00     0.026 C 
ENDBRANCH   6   8
BRANCH   5  14
HETATM   14  O2  UNL     1      -0.173   0.603   1.831  1.00  0.00    -0.345 OA
ATOM     15  H2  UNL     1      -1.071   0.592   2.142  1.00  0.00     0.219 HD
ENDBRANCH   5  14
BRANCH   7  16
HETATM   16  O3  UNL     1      -0.306  -0.398  -2.886  1.00  0.00    -0.344 OA
ATOM     17  H3  UNL     1      -1.221  -0.522  -3.107  1.00  0.00     0.219 HD
ENDBRANCH   7  16
BRANCH   1  18
HETATM   18  C3  UNL     1       3.679  -0.639   0.720  1.00  0.00     0.037 C 
BRANCH  18  19
HETATM   19  C2  UNL     1       5.040  -0.803   0.083  1.00  0.00    -0.002 C 
HETATM   20  C1  UNL     1       5.861   0.459   0.195  1.00  0.00     0.005 C 
ENDBRANCH  18  19
ENDBRANCH   1  18
TORSDOF 5
