REMARK  2 active torsions:
REMARK  status: ('A' for Active; 'I' for Inactive)
REMARK    1  A    between atoms: C2_3  and  N2_4 
REMARK    2  A    between atoms: N2_4  and  C3_6 
ROOT
HETATM    1  N1  UNL     1       3.517   2.221   0.722  1.00  0.00    -0.191 NA
HETATM    2  C1  UNL     1       3.298   1.126   0.352  1.00  0.00     0.104 C 
HETATM    3  C2  UNL     1       3.085  -0.226  -0.116  1.00  0.00     0.178 C 
ENDROOT
BRANCH   3   4
HETATM    4  N2  UNL     1       1.928  -0.828   0.385  1.00  0.00    -0.386 N 
ATOM      5  H2  UNL     1       2.007  -1.603   1.043  1.00  0.00     0.159 HD
BRANCH   4   6
HETATM    6  C3  UNL     1       0.645  -0.373  -0.012  1.00  0.00     0.081 C 
HETATM    7  C4  UNL     1       0.371   1.004   0.474  1.00  0.00     0.025 C 
HETATM    8  C5  UNL     1      -1.111   1.261   0.740  1.00  0.00     0.002 C 
HETATM    9  C6  UNL     1      -1.834   1.108  -0.571  1.00  0.00     0.000 C 
HETATM   10  C7  UNL     1      -2.497  -0.256  -0.554  1.00  0.00     0.000 C 
HETATM   11  C8  UNL     1      -1.534  -1.392  -0.685  1.00  0.00     0.002 C 
HETATM   12  C9  UNL     1      -0.432  -1.385   0.347  1.00  0.00     0.025 C 
ENDBRANCH   4   6
ENDBRANCH   3   4
TORSDOF 2
