REMARK  5 active torsions:
REMARK  status: ('A' for Active; 'I' for Inactive)
REMARK    1  A    between atoms: O1_2  and  C2_3 
REMARK    2  A    between atoms: C4_5  and  N1_6 
REMARK    3  A    between atoms: N1_6  and  S1_8 
REMARK    4  A    between atoms: S1_8  and  N2_9 
REMARK    5  A    between atoms: C8_17  and  O4_18 
ROOT
HETATM    1  C2  UNL     1      -1.758   0.449  -0.143  1.00  0.00     0.152 C 
HETATM    2  C3  UNL     1      -0.605   1.316   0.271  1.00  0.00     0.061 C 
HETATM    3  C4  UNL     1       0.606   0.438   0.033  1.00  0.00     0.107 C 
HETATM    4  C5  UNL     1       0.077  -0.917   0.380  1.00  0.00     0.002 C 
HETATM    5  C6  UNL     1       1.013  -2.031  -0.009  1.00  0.00     0.020 C 
HETATM    6  C7  UNL     1      -0.275  -1.038   1.839  1.00  0.00     0.020 C 
HETATM    7  C8  UNL     1      -1.197  -0.925  -0.439  1.00  0.00     0.157 C 
ENDROOT
BRANCH   3   8
HETATM    8  N1  UNL     1       1.740   0.842   0.823  1.00  0.00    -0.297 N 
ATOM      9  H1  UNL     1       1.785   0.892   1.841  1.00  0.00     0.174 HD
BRANCH   8  10
HETATM   10  S1  UNL     1       3.011   1.227  -0.285  1.00  0.00     0.313 S 
HETATM   11  O2  UNL     1       2.410   1.748  -1.557  1.00  0.00    -0.183 OA
HETATM   12  O3  UNL     1       3.801   2.351   0.340  1.00  0.00    -0.183 OA
BRANCH  10  13
HETATM   13  N2  UNL     1       3.983  -0.129  -0.642  1.00  0.00    -0.312 N 
ATOM     14  H22 UNL     1       3.820  -1.052  -0.241  1.00  0.00     0.170 HD
ATOM     15  H21 UNL     1       4.733   0.098  -1.295  1.00  0.00     0.170 HD
ENDBRANCH  10  13
ENDBRANCH   8  10
ENDBRANCH   3   8
BRANCH   1  16
HETATM   16  O1  UNL     1      -2.291   0.981  -1.310  1.00  0.00    -0.388 OA
HETATM   17  C1  UNL     1      -3.638   1.239  -1.073  1.00  0.00     0.202 C 
ENDBRANCH   1  16
BRANCH   7  18
HETATM   18  O4  UNL     1      -2.071  -1.924  -0.031  1.00  0.00    -0.392 OA
ATOM     19  H4  UNL     1      -1.719  -2.787  -0.217  1.00  0.00     0.210 HD
ENDBRANCH   7  18
TORSDOF 5
