REMARK  16 active torsions:
REMARK  status: ('A' for Active; 'I' for Inactive)
REMARK    1  A    between atoms: O1_2  and  C2_3 
REMARK    2  A    between atoms: C2_3  and  C3_5 
REMARK    3  A    between atoms: C3_5  and  C4_6 
REMARK    4  A    between atoms: C6_13  and  N4_14 
REMARK    5  A    between atoms: N4_14  and  C7_15 
REMARK    6  A    between atoms: N4_14  and  C16_34 
REMARK    7  A    between atoms: C7_15  and  C8_16 
REMARK    8  A    between atoms: C8_16  and  N5_17 
REMARK    9  A    between atoms: C8_16  and  C9_21 
REMARK   10  A    between atoms: C9_21  and  C10_22 
REMARK   11  A    between atoms: C11_24  and  C12_25 
REMARK   12  A    between atoms: C12_25  and  O4_26 
REMARK   13  A    between atoms: C15_31  and  O6_32 
REMARK   14  A    between atoms: N9_41  and  C17_42 
REMARK   15  A    between atoms: C18_45  and  N11_46 
REMARK   16  A    between atoms: C19_51  and  N13_52 
ROOT
HETATM    1  N4  UNL     1      -0.403  -0.045  -0.796  1.00  0.00    -0.165 N 
ENDROOT
BRANCH   1   2
HETATM    2  C6  UNL     1      -1.767  -0.542  -0.568  1.00  0.00     0.410 C 
HETATM    3  N3  UNL     1      -1.799  -1.852  -1.174  1.00  0.00    -0.320 N 
HETATM    4  C5  UNL     1      -2.750  -2.355  -1.839  1.00  0.00     0.188 C 
ATOM      5  H3  UNL     1      -0.969  -2.432  -1.053  1.00  0.00     0.166 HD
HETATM    6  N1  UNL     1      -3.932  -1.558  -2.023  1.00  0.00    -0.336 N 
HETATM    7  N2  UNL     1      -2.678  -3.674  -2.405  1.00  0.00    -0.064 NA
HETATM    8  C4  UNL     1      -4.035  -0.400  -1.167  1.00  0.00     0.300 C 
ATOM      9  H1  UNL     1      -4.648  -1.794  -2.710  1.00  0.00     0.164 HD
HETATM   10  N15 UNL     1      -2.781   0.327  -1.042  1.00  0.00    -0.015 N 
ATOM     11 2H15 UNL     1      -2.516   0.787  -1.913  1.00  0.00     0.284 HD
ATOM     12 1H15 UNL     1      -2.876   1.159  -0.459  1.00  0.00     0.284 HD
BRANCH   8  13
HETATM   13  C3  UNL     1      -4.566  -0.767   0.201  1.00  0.00     0.165 C 
BRANCH  13  14
HETATM   14  C2  UNL     1      -5.914  -1.373   0.107  1.00  0.00     0.262 C 
HETATM   15  O2  UNL     1      -6.469  -1.524  -1.008  1.00  0.00    -0.265 OA
BRANCH  14  16
HETATM   16  O1  UNL     1      -6.520  -1.757   1.291  1.00  0.00    -0.326 OA
HETATM   17  C1  UNL     1      -7.804  -2.340   1.284  1.00  0.00     0.213 C 
ENDBRANCH  14  16
ENDBRANCH  13  14
ENDBRANCH   8  13
ENDBRANCH   1   2
BRANCH   1  18
HETATM   18  C7  UNL     1       0.650  -0.874  -0.288  1.00  0.00     0.178 C 
BRANCH  18  19
HETATM   19  C8  UNL     1       2.035  -0.508  -0.685  1.00  0.00     0.208 C 
BRANCH  19  20
HETATM   20  N5  UNL     1       2.344   0.825  -0.235  1.00  0.00    -0.073 N 
ATOM     21  H53 UNL     1       1.660   1.507  -0.564  1.00  0.00     0.274 HD
ATOM     22  H52 UNL     1       2.193   0.934   0.768  1.00  0.00     0.274 HD
ATOM     23  H51 UNL     1       3.294   1.076  -0.507  1.00  0.00     0.274 HD
ENDBRANCH  19  20
BRANCH  19  24
HETATM   24  C9  UNL     1       2.963  -1.437   0.081  1.00  0.00     0.102 C 
BRANCH  24  25
HETATM   25  C10 UNL     1       4.385  -1.222  -0.194  1.00  0.00     0.092 A 
HETATM   26  O3  UNL     1       5.138  -0.587   0.662  1.00  0.00    -0.314 OA
HETATM   27  C11 UNL     1       6.411  -0.350   0.503  1.00  0.00     0.080 A 
HETATM   28  C13 UNL     1       7.014  -0.800  -0.652  1.00  0.00     0.092 A 
HETATM   29  C14 UNL     1       6.285  -1.470  -1.588  1.00  0.00     0.209 A 
HETATM   30  O5  UNL     1       6.806  -1.897  -2.660  1.00  0.00    -0.285 OA
HETATM   31  C15 UNL     1       4.938  -1.689  -1.358  1.00  0.00     0.146 A 
BRANCH  27  32
HETATM   32  C12 UNL     1       7.221   0.384   1.524  1.00  0.00     0.229 C 
BRANCH  32  33
HETATM   33  O4  UNL     1       8.523   0.515   1.084  1.00  0.00    -0.394 OA
ATOM     34  H4  UNL     1       9.037   0.981   1.732  1.00  0.00     0.209 HD
ENDBRANCH  32  33
ENDBRANCH  27  32
BRANCH  31  35
HETATM   35  O6  UNL     1       4.161  -2.379  -2.310  1.00  0.00    -0.355 OA
ATOM     36  H6  UNL     1       4.544  -2.703  -3.117  1.00  0.00     0.218 HD
ENDBRANCH  31  35
ENDBRANCH  24  25
ENDBRANCH  19  24
ENDBRANCH  18  19
ENDBRANCH   1  18
BRANCH   1  37
HETATM   37  C16 UNL     1      -0.198   1.146  -1.480  1.00  0.00     0.737 A 
HETATM   38  N6  UNL     1       0.199   1.164  -2.780  1.00  0.00    -0.114 N 
HETATM   39  N7  UNL     1       0.314   2.406  -3.178  1.00  0.00    -0.212 N 
ATOM     40  H6  UNL     1       0.379   0.340  -3.354  1.00  0.00     0.207 HD
HETATM   41  N8  UNL     1       0.001   3.151  -2.166  1.00  0.00    -0.191 N 
ATOM     42  H7  UNL     1       0.595   2.725  -4.105  1.00  0.00     0.210 HD
HETATM   43  N9  UNL     1      -0.327   2.400  -1.083  1.00  0.00     0.108 N 
ATOM     44  H8  UNL     1       0.001   4.171  -2.180  1.00  0.00     0.211 HD
BRANCH  43  45
HETATM   45  C17 UNL     1      -0.728   3.006   0.140  1.00  0.00     0.749 A 
HETATM   46  N10 UNL     1      -1.393   4.203   0.115  1.00  0.00    -0.019 N 
HETATM   47  C18 UNL     1      -1.805   4.822   1.228  1.00  0.00     0.705 A 
ATOM     48  H10 UNL     1      -1.582   4.640  -0.787  1.00  0.00     0.203 HD
HETATM   49  N12 UNL     1      -1.581   4.289   2.436  1.00  0.00    -0.022 N 
HETATM   50  C19 UNL     1      -0.931   3.118   2.481  1.00  0.00     0.705 A 
ATOM     51  H12 UNL     1      -1.893   4.756   3.288  1.00  0.00     0.203 HD
HETATM   52  N14 UNL     1      -0.513   2.490   1.342  1.00  0.00    -0.019 N 
ATOM     53  H14 UNL     1      -0.022   1.599   1.419  1.00  0.00     0.203 HD
BRANCH  47  54
HETATM   54  N11 UNL     1      -2.431   5.946   1.168  1.00  0.00    -0.234 N 
ATOM     55 2H11 UNL     1      -2.602   6.352   0.248  1.00  0.00     0.174 HD
ATOM     56 1H11 UNL     1      -2.745   6.418   2.016  1.00  0.00     0.174 HD
ENDBRANCH  47  54
BRANCH  50  57
HETATM   57  N13 UNL     1      -0.702   2.582   3.626  1.00  0.00    -0.234 N 
ATOM     58 2H13 UNL     1      -1.014   3.051   4.476  1.00  0.00     0.174 HD
ATOM     59 1H13 UNL     1      -0.207   1.691   3.660  1.00  0.00     0.174 HD
ENDBRANCH  50  57
ENDBRANCH  43  45
ENDBRANCH   1  37
TORSDOF 16
