REMARK  11 active torsions:
REMARK  status: ('A' for Active; 'I' for Inactive)
REMARK    1  A    between atoms: C1_2  and  C2_3 
REMARK       I    between atoms: C1_2  and  N4_27 
REMARK    2  A    between atoms: C2_3  and  C3_4 
REMARK    3  A    between atoms: N2_11  and  C7_12 
REMARK    4  A    between atoms: C7_12  and  C8_13 
REMARK    5  A    between atoms: C8_13  and  C9_14 
REMARK    6  A    between atoms: C9_14  and  C10_15 
REMARK    7  A    between atoms: C10_15  and  C11_16 
REMARK    8  A    between atoms: C11_16  and  C12_17 
REMARK    9  A    between atoms: C12_17  and  C13_18 
REMARK   10  A    between atoms: C13_18  and  C14_19 
REMARK       I    between atoms: C14_19  and  N3_21 
REMARK   11  A    between atoms: N4_27  and  C19_29 
ROOT
HETATM    1  C3  UNL     1      -2.429   1.324   0.711  1.00  0.00     0.264 C 
HETATM    2  C4  UNL     1      -3.149   2.463   1.355  1.00  0.00     0.252 A 
HETATM    3  N1  UNL     1      -3.532   3.618   0.578  1.00  0.00    -0.059 N 
ATOM      4  H11 UNL     1      -4.333   4.249   0.585  1.00  0.00     0.278 HD
ATOM      5  H12 UNL     1      -3.843   3.761  -0.383  1.00  0.00     0.278 HD
HETATM    6  C5  UNL     1      -2.240   3.611   1.236  1.00  0.00     0.247 A 
HETATM    7  C6  UNL     1      -1.039   3.116   0.485  1.00  0.00     0.308 C 
HETATM    8  N2  UNL     1      -1.084   1.699   0.424  1.00  0.00     0.097 N 
ENDROOT
BRANCH   1   9
HETATM    9  C2  UNL     1      -3.099   0.784  -0.502  1.00  0.00     0.141 C 
BRANCH   9  10
HETATM   10  C1  UNL     1      -4.476   0.291  -0.100  1.00  0.00     0.224 C 
HETATM   11  O1  UNL     1      -4.792   0.421   1.098  1.00  0.00    -0.273 OA
HETATM   12  N4  UNL     1      -5.243  -0.259  -1.134  1.00  0.00    -0.327 N 
ATOM     13  H4  UNL     1      -4.816  -0.283  -2.060  1.00  0.00     0.169 HD
BRANCH  12  14
HETATM   14  C19 UNL     1      -6.550  -0.784  -1.022  1.00  0.00     0.038 A 
HETATM   15  C20 UNL     1      -7.325  -0.762   0.115  1.00  0.00     0.047 A 
HETATM   16  C21 UNL     1      -8.604  -1.324   0.095  1.00  0.00     0.104 A 
HETATM   17  N5  UNL     1      -9.150  -1.898  -0.973  1.00  0.00    -0.273 N 
HETATM   18  C22 UNL     1     -10.344  -2.497  -1.227  1.00  0.00     0.331 A 
HETATM   19  C24 UNL     1      -8.414  -1.931  -2.093  1.00  0.00     0.061 A 
HETATM   20  O3  UNL     1     -11.281  -2.642  -0.394  1.00  0.00    -0.246 OA
HETATM   21  N6  UNL     1     -10.380  -2.915  -2.502  1.00  0.00    -0.316 N 
HETATM   22  C23 UNL     1      -9.209  -2.578  -3.046  1.00  0.00     0.123 A 
ATOM     23  H6  UNL     1     -11.151  -3.396  -2.965  1.00  0.00     0.170 HD
HETATM   24  C25 UNL     1      -7.152  -1.395  -2.131  1.00  0.00     0.061 A 
ENDBRANCH  12  14
ENDBRANCH   9  10
ENDBRANCH   1   9
BRANCH   8  25
HETATM   25  C7  UNL     1      -0.180   0.979   1.250  1.00  0.00     0.273 C 
BRANCH  25  26
HETATM   26  C8  UNL     1       1.292   1.341   0.956  1.00  0.00     0.030 C 
BRANCH  26  27
HETATM   27  C9  UNL     1       1.629   1.043  -0.457  1.00  0.00     0.002 C 
BRANCH  27  28
HETATM   28  C10 UNL     1       2.957   1.377  -0.989  1.00  0.00     0.000 C 
BRANCH  28  29
HETATM   29  C11 UNL     1       4.202   0.806  -0.470  1.00  0.00     0.000 C 
BRANCH  29  30
HETATM   30  C12 UNL     1       4.638   1.068   0.914  1.00  0.00     0.009 C 
BRANCH  30  31
HETATM   31  C13 UNL     1       5.987   0.422   1.239  1.00  0.00     0.103 C 
BRANCH  31  32
HETATM   32  C14 UNL     1       5.917  -1.030   1.150  1.00  0.00     0.219 C 
HETATM   33  O2  UNL     1       4.817  -1.655   1.120  1.00  0.00    -0.273 OA
HETATM   34  N3  UNL     1       7.141  -1.786   1.099  1.00  0.00    -0.351 N 
HETATM   35  C15 UNL     1       8.384  -1.097   1.134  1.00  0.00     0.136 C 
HETATM   36  C18 UNL     1       7.107  -3.227   1.012  1.00  0.00     0.136 C 
HETATM   37  C16 UNL     1       9.034  -1.075  -0.232  1.00  0.00     0.093 C 
HETATM   38  S1  UNL     1       8.840  -2.665  -1.075  1.00  0.00    -0.166 SA
HETATM   39  C17 UNL     1       7.603  -3.713  -0.310  1.00  0.00     0.093 C 
ENDBRANCH  31  32
ENDBRANCH  30  31
ENDBRANCH  29  30
ENDBRANCH  28  29
ENDBRANCH  27  28
ENDBRANCH  26  27
ENDBRANCH  25  26
ENDBRANCH   8  25
TORSDOF 11
