REMARK  10 active torsions:
REMARK  status: ('A' for Active; 'I' for Inactive)
REMARK    1  A    between atoms: O1_2  and  C2_3 
REMARK    2  A    between atoms: C5_6  and  C6_7 
REMARK    3  A    between atoms: C6_7  and  C7_8 
REMARK    4  A    between atoms: C7_8  and  N1_9 
REMARK    5  A    between atoms: C7_8  and  C21_32 
REMARK    6  A    between atoms: N1_9  and  S1_11 
REMARK    7  A    between atoms: S1_11  and  N2_14 
REMARK    8  A    between atoms: N2_14  and  C8_16 
REMARK    9  A    between atoms: C13_23  and  C14_24 
REMARK   10  A    between atoms: C14_24  and  C15_25 
ROOT
HETATM    1  S1  UNL     1      -0.682  -2.063  -1.428  1.00  0.00     0.321 S 
HETATM    2  O2  UNL     1      -1.957  -2.281  -2.234  1.00  0.00    -0.182 OA
HETATM    3  O3  UNL     1      -0.442  -3.340  -0.664  1.00  0.00    -0.182 OA
ENDROOT
BRANCH   1   4
HETATM    4  N1  UNL     1       0.580  -1.713  -2.511  1.00  0.00    -0.289 N 
ATOM      5  H1  UNL     1       0.454  -1.110  -3.324  1.00  0.00     0.174 HD
BRANCH   4   6
HETATM    6  C7  UNL     1       1.824  -2.323  -2.199  1.00  0.00     0.187 C 
BRANCH   6   7
HETATM    7  C6  UNL     1       3.022  -1.464  -2.086  1.00  0.00     0.073 C 
BRANCH   7   8
HETATM    8  C5  UNL     1       3.010  -0.404  -1.077  1.00  0.00    -0.056 A 
HETATM    9  C4  UNL     1       3.413  -0.622   0.235  1.00  0.00     0.010 A 
HETATM   10  C3  UNL     1       3.422   0.403   1.163  1.00  0.00     0.037 A 
HETATM   11  C2  UNL     1       3.034   1.682   0.831  1.00  0.00     0.068 A 
HETATM   12  C23 UNL     1       2.632   1.906  -0.468  1.00  0.00     0.037 A 
HETATM   13  C22 UNL     1       2.623   0.881  -1.396  1.00  0.00     0.010 A 
BRANCH  11  14
HETATM   14  O1  UNL     1       3.038   2.722   1.754  1.00  0.00    -0.356 OA
HETATM   15  C1  UNL     1       3.450   2.491   3.087  1.00  0.00     0.210 C 
ENDBRANCH  11  14
ENDBRANCH   7   8
ENDBRANCH   6   7
BRANCH   6  16
HETATM   16  C21 UNL     1       2.179  -3.371  -3.245  1.00  0.00     0.254 C 
HETATM   17  N4  UNL     1       3.362  -4.130  -3.180  1.00  0.00    -0.060 NA
HETATM   18  O4  UNL     1       1.383  -3.548  -4.182  1.00  0.00    -0.275 OA
ENDBRANCH   6  16
ENDBRANCH   4   6
ENDBRANCH   1   4
BRANCH   1  19
HETATM   19  N2  UNL     1      -0.969  -0.792  -0.347  1.00  0.00    -0.252 N 
ATOM     20  H2  UNL     1      -0.428   0.060  -0.495  1.00  0.00     0.182 HD
BRANCH  19  21
HETATM   21  C8  UNL     1      -1.779  -0.782   0.623  1.00  0.00     0.122 A 
HETATM   22  N3  UNL     1      -2.548  -1.847   0.921  1.00  0.00    -0.345 N 
HETATM   23  C9  UNL     1      -3.414  -1.851   1.973  1.00  0.00     0.007 A 
ATOM     24  H3  UNL     1      -2.480  -2.681   0.338  1.00  0.00     0.167 HD
HETATM   25  C10 UNL     1      -4.243  -3.063   2.256  1.00  0.00     0.068 C 
HETATM   26  C11 UNL     1      -3.526  -0.745   2.776  1.00  0.00     0.025 A 
HETATM   27  C12 UNL     1      -2.769   0.352   2.512  1.00  0.00     0.013 A 
HETATM   28  C13 UNL     1      -1.888   0.332   1.424  1.00  0.00    -0.009 A 
BRANCH  28  29
HETATM   29  C14 UNL     1      -1.140   1.588   1.201  1.00  0.00     0.081 C 
BRANCH  29  30
HETATM   30  C15 UNL     1      -1.767   2.423   0.131  1.00  0.00    -0.054 A 
HETATM   31  C16 UNL     1      -1.236   2.448  -1.132  1.00  0.00     0.010 A 
HETATM   32  C17 UNL     1      -1.835   3.226  -2.133  1.00  0.00     0.043 A 
HETATM   33  C18 UNL     1      -2.959   3.977  -1.875  1.00  0.00     0.116 A 
HETATM   34  F1  UNL     1      -3.562   4.743  -2.832  1.00  0.00    -0.206 F 
HETATM   35  C19 UNL     1      -3.474   3.935  -0.593  1.00  0.00     0.043 A 
HETATM   36  C20 UNL     1      -2.902   3.179   0.402  1.00  0.00     0.010 A 
ENDBRANCH  29  30
ENDBRANCH  28  29
ENDBRANCH  19  21
ENDBRANCH   1  19
TORSDOF 10
