REMARK  10 active torsions:
REMARK  status: ('A' for Active; 'I' for Inactive)
REMARK    1  A    between atoms: N1_1  and  C1_5 
REMARK    2  A    between atoms: C2_8  and  C3_9 
REMARK    3  A    between atoms: C3_9  and  C4_10 
REMARK    4  A    between atoms: C12_18  and  C13_19 
REMARK    5  A    between atoms: C13_19  and  C14_20 
REMARK    6  A    between atoms: C14_20  and  C15_21 
REMARK    7  A    between atoms: C15_21  and  C16_22 
REMARK    8  A    between atoms: C16_22  and  C17_23 
REMARK    9  A    between atoms: C17_23  and  C18_24 
REMARK   10  A    between atoms: C18_24  and  N3_25 
ROOT
HETATM    1  C1  UNL     1      -5.841   1.953  -2.104  1.00  0.00     0.387 A 
HETATM    2  N2  UNL     1      -5.684   1.723  -0.707  1.00  0.00    -0.349 N 
ATOM      3  H2  UNL     1      -6.445   1.948  -0.066  1.00  0.00     0.163 HD
HETATM    4  C2  UNL     1      -4.467   1.180  -0.202  1.00  0.00     0.024 A 
HETATM    5  C10 UNL     1      -3.433   0.873  -1.015  1.00  0.00     0.014 A 
HETATM    6  C11 UNL     1      -2.266   0.351  -0.516  1.00  0.00     0.024 A 
HETATM    7  C12 UNL     1      -1.230   0.048  -1.377  1.00  0.00    -0.035 A 
HETATM    8  C24 UNL     1      -1.384   0.274  -2.721  1.00  0.00     0.042 A 
HETATM    9 CL1  UNL     1      -0.076  -0.105  -3.847  1.00  0.00    -0.084 Cl
HETATM   10  C25 UNL     1      -2.540   0.793  -3.232  1.00  0.00     0.054 A 
HETATM   11  C26 UNL     1      -3.609   1.109  -2.375  1.00  0.00     0.044 A 
HETATM   12  N7  UNL     1      -4.681   1.590  -2.856  1.00  0.00    -0.346 N 
ATOM     13  H7  UNL     1      -4.718   1.729  -3.866  1.00  0.00     0.163 HD
ENDROOT
BRANCH   7  14
HETATM   14  C13 UNL     1       0.018  -0.504  -0.816  1.00  0.00     0.040 C 
BRANCH  14  15
HETATM   15  C14 UNL     1       1.115   0.534  -0.730  1.00  0.00     0.005 C 
BRANCH  15  16
HETATM   16  C15 UNL     1       2.349  -0.116  -0.145  1.00  0.00     0.000 C 
BRANCH  16  17
HETATM   17  C16 UNL     1       3.485   0.877  -0.025  1.00  0.00     0.002 C 
BRANCH  17  18
HETATM   18  C17 UNL     1       4.715   0.245   0.555  1.00  0.00     0.022 C 
BRANCH  18  19
HETATM   19  C18 UNL     1       5.231  -0.896  -0.289  1.00  0.00     0.151 C 
BRANCH  19  20
HETATM   20  N3  UNL     1       6.411  -1.409   0.388  1.00  0.00    -0.275 N 
HETATM   21  N4  UNL     1       6.275  -2.380   1.271  1.00  0.00    -0.308 N 
HETATM   22  C19 UNL     1       7.310  -2.923   1.949  1.00  0.00     0.110 A 
ATOM     23  H4  UNL     1       5.338  -2.740   1.452  1.00  0.00     0.186 HD
HETATM   24  C20 UNL     1       8.601  -2.479   1.748  1.00  0.00     0.052 A 
HETATM   25  C21 UNL     1       8.756  -1.463   0.825  1.00  0.00     0.080 A 
HETATM   26  N5  UNL     1       9.861  -0.813   0.402  1.00  0.00    -0.349 N 
HETATM   27  C23 UNL     1       7.643  -0.944   0.157  1.00  0.00     0.150 A 
HETATM   28  C22 UNL     1       9.453   0.085  -0.501  1.00  0.00     0.182 A 
ATOM     29  H5  UNL     1      10.820  -0.975   0.711  1.00  0.00     0.166 HD
HETATM   30  N6  UNL     1       8.112   0.015  -0.659  1.00  0.00    -0.336 N 
ATOM     31  H6  UNL     1       7.553   0.591  -1.289  1.00  0.00     0.168 HD
ENDBRANCH  19  20
ENDBRANCH  18  19
ENDBRANCH  17  18
ENDBRANCH  16  17
ENDBRANCH  15  16
ENDBRANCH  14  15
ENDBRANCH   7  14
BRANCH   4  32
HETATM   32  C3  UNL     1      -4.388   0.972   1.252  1.00  0.00     0.096 C 
BRANCH  32  33
HETATM   33  C4  UNL     1      -5.509   0.012   1.610  1.00  0.00    -0.053 A 
HETATM   34  C5  UNL     1      -5.310  -1.347   1.438  1.00  0.00     0.007 A 
HETATM   35  C6  UNL     1      -6.267  -2.265   1.748  1.00  0.00     0.001 A 
HETATM   36  C7  UNL     1      -7.463  -1.808   2.247  1.00  0.00     0.000 A 
HETATM   37  C8  UNL     1      -7.696  -0.467   2.431  1.00  0.00     0.001 A 
HETATM   38  C9  UNL     1      -6.707   0.432   2.107  1.00  0.00     0.007 A 
ENDBRANCH  32  33
ENDBRANCH   4  32
BRANCH   1  39
HETATM   39  N1  UNL     1      -5.974   3.418  -2.262  1.00  0.00    -0.041 N 
ATOM     40  H13 UNL     1      -6.720   3.823  -1.696  1.00  0.00     0.279 HD
ATOM     41  H12 UNL     1      -5.205   3.944  -1.846  1.00  0.00     0.279 HD
ATOM     42  H11 UNL     1      -6.086   3.583  -3.262  1.00  0.00     0.279 HD
ENDBRANCH   1  39
TORSDOF 10
