REMARK  17 active torsions:
REMARK  status: ('A' for Active; 'I' for Inactive)
REMARK    1  A    between atoms: C2_2  and  C3_3 
REMARK    2  A    between atoms: C3_3  and  C4_4 
REMARK    3  A    between atoms: C4_4  and  C5_5 
REMARK    4  A    between atoms: C5_5  and  C6_6 
REMARK    5  A    between atoms: C6_6  and  C7_7 
REMARK    6  A    between atoms: C7_7  and  C8_8 
REMARK    7  A    between atoms: C8_8  and  C9_9 
REMARK    8  A    between atoms: C9_9  and  C10_10 
REMARK    9  A    between atoms: C10_10  and  C11_11 
REMARK   10  A    between atoms: C11_11  and  C12_12 
REMARK   11  A    between atoms: C11_11  and  N1_14 
REMARK   12  A    between atoms: N1_14  and  C14_16 
REMARK   13  A    between atoms: C14_16  and  O1_17 
REMARK   14  A    between atoms: C14_16  and  C15_19 
REMARK   15  A    between atoms: C20_24  and  O2_25 
REMARK   16  A    between atoms: C21_27  and  O3_28 
REMARK   17  A    between atoms: C30_39  and  O5_40 
ROOT
HETATM    1  C15 UNL     1      -1.891   1.190  -1.543  1.00  0.00     0.069 C 
HETATM    2  C16 UNL     1      -2.424   0.304  -2.662  1.00  0.00     0.014 C 
HETATM    3  C17 UNL     1      -3.917   0.590  -2.518  1.00  0.00     0.007 C 
HETATM    4  C18 UNL     1      -4.117   1.006  -1.049  1.00  0.00     0.002 C 
HETATM    5  C19 UNL     1      -5.273   0.364  -0.425  1.00  0.00     0.030 C 
HETATM    6  C20 UNL     1      -6.181   1.422   0.204  1.00  0.00     0.156 C 
HETATM    7  C21 UNL     1      -7.469   0.788   0.692  1.00  0.00     0.177 C 
HETATM    8  C22 UNL     1      -7.312  -0.706   0.726  1.00  0.00    -0.033 A 
HETATM    9  C23 UNL     1      -8.303  -1.411   0.246  1.00  0.00     0.061 A 
HETATM   10  C24 UNL     1      -8.272  -2.869   0.218  1.00  0.00     0.172 A 
HETATM   11  O4  UNL     1      -9.215  -3.560  -0.238  1.00  0.00    -0.289 OA
HETATM   12  C25 UNL     1      -7.072  -3.504   0.755  1.00  0.00     0.052 A 
HETATM   13  C26 UNL     1      -6.103  -2.742   1.229  1.00  0.00    -0.008 A 
HETATM   14  C27 UNL     1      -6.086  -1.299   1.284  1.00  0.00     0.006 A 
HETATM   15  C28 UNL     1      -6.119  -0.959   2.803  1.00  0.00     0.025 C 
HETATM   16  C29 UNL     1      -4.901  -0.592   0.711  1.00  0.00     0.037 C 
HETATM   17  C30 UNL     1      -3.741  -1.439   0.330  1.00  0.00     0.124 C 
HETATM   18  C31 UNL     1      -2.539  -0.536   0.169  1.00  0.00     0.042 C 
HETATM   19  C32 UNL     1      -2.762   0.800  -0.384  1.00  0.00    -0.027 C 
HETATM   20  C33 UNL     1      -2.560   1.934   0.631  1.00  0.00     0.016 C 
ENDROOT
BRANCH   1  21
HETATM   21  C14 UNL     1      -0.463   1.231  -1.409  1.00  0.00     0.116 C 
BRANCH  21  22
HETATM   22  N1  UNL     1       0.394   0.821  -0.379  1.00  0.00    -0.370 N 
ATOM     23  H1  UNL     1      -0.059   0.402   0.433  1.00  0.00     0.161 HD
BRANCH  22  24
HETATM   24  C11 UNL     1       1.825   0.912  -0.315  1.00  0.00     0.083 C 
BRANCH  24  25
HETATM   25  C10 UNL     1       2.504  -0.360  -0.712  1.00  0.00     0.025 C 
BRANCH  25  26
HETATM   26  C9  UNL     1       3.990  -0.358  -0.383  1.00  0.00     0.002 C 
BRANCH  26  27
HETATM   27  C8  UNL     1       4.587  -1.682  -0.818  1.00  0.00     0.000 C 
BRANCH  27  28
HETATM   28  C7  UNL     1       6.081  -1.752  -0.526  1.00  0.00     0.000 C 
BRANCH  28  29
HETATM   29  C6  UNL     1       6.317  -1.596   0.935  1.00  0.00     0.000 C 
BRANCH  29  30
HETATM   30  C5  UNL     1       7.783  -1.687   1.248  1.00  0.00     0.000 C 
BRANCH  30  31
HETATM   31  C4  UNL     1       8.535  -0.601   0.528  1.00  0.00     0.000 C 
BRANCH  31  32
HETATM   32  C3  UNL     1      10.021  -0.748   0.911  1.00  0.00    -0.000 C 
BRANCH  32  33
HETATM   33  C2  UNL     1      10.778   0.329   0.199  1.00  0.00    -0.005 C 
HETATM   34  C1  UNL     1      10.235   1.662   0.645  1.00  0.00     0.005 C 
ENDBRANCH  32  33
ENDBRANCH  31  32
ENDBRANCH  30  31
ENDBRANCH  29  30
ENDBRANCH  28  29
ENDBRANCH  27  28
ENDBRANCH  26  27
ENDBRANCH  25  26
ENDBRANCH  24  25
BRANCH  24  35
HETATM   35  C12 UNL     1       2.426   2.109  -1.028  1.00  0.00     0.021 C 
HETATM   36  C13 UNL     1       1.768   3.390  -0.597  1.00  0.00     0.007 C 
ENDBRANCH  24  35
ENDBRANCH  22  24
ENDBRANCH  21  22
BRANCH  21  37
HETATM   37  O1  UNL     1       0.155   1.745  -2.432  1.00  0.00    -0.349 OA
ATOM     38  H1  UNL     1      -0.426   2.023  -3.130  1.00  0.00     0.219 HD
ENDBRANCH  21  37
ENDBRANCH   1  21
BRANCH  17  39
HETATM   39  O5  UNL     1      -3.862  -2.266  -0.730  1.00  0.00    -0.395 OA
ATOM     40  H5  UNL     1      -3.120  -2.807  -0.974  1.00  0.00     0.210 HD
ENDBRANCH  17  39
BRANCH   6  41
HETATM   41  O2  UNL     1      -6.422   2.479  -0.640  1.00  0.00    -0.392 OA
ATOM     42  H2  UNL     1      -6.986   3.136  -0.249  1.00  0.00     0.210 HD
ENDBRANCH   6  41
BRANCH   7  43
HETATM   43  O3  UNL     1      -7.775   1.202   1.975  1.00  0.00    -0.389 OA
ATOM     44  H3  UNL     1      -8.582   0.805   2.281  1.00  0.00     0.210 HD
ENDBRANCH   7  43
TORSDOF 17
