REMARK  5 active torsions:
REMARK  status: ('A' for Active; 'I' for Inactive)
REMARK    1  A    between atoms: C2_2  and  N1_3 
REMARK    2  A    between atoms: N1_3  and  C3_5 
REMARK    3  A    between atoms: C3_5  and  C4_6 
REMARK    4  A    between atoms: N2_9  and  C7_10 
REMARK    5  A    between atoms: C8_13  and  N4_14 
ROOT
HETATM    1  C7  UNL     1       0.101   0.167  -0.099  1.00  0.00     0.131 A 
HETATM    2  N3  UNL     1      -0.954  -0.704  -0.038  1.00  0.00    -0.176 N 
ATOM      3  H3  UNL     1      -0.811  -1.635   0.353  1.00  0.00     0.186 HD
HETATM    4  C8  UNL     1      -2.164  -0.360  -0.479  1.00  0.00     0.682 A 
HETATM    5  N5  UNL     1      -2.295   0.875  -0.985  1.00  0.00    -0.191 N 
ATOM      6  H5  UNL     1      -3.216   1.150  -1.327  1.00  0.00     0.184 HD
HETATM    7  C16 UNL     1      -1.305   1.775  -1.075  1.00  0.00     0.065 A 
HETATM    8  C17 UNL     1      -1.530   3.007  -1.616  1.00  0.00     0.063 A 
HETATM    9  C18 UNL     1      -0.469   3.888  -1.695  1.00  0.00     0.064 A 
HETATM   10  C19 UNL     1       0.782   3.538  -1.241  1.00  0.00     0.061 A 
HETATM   11  C20 UNL     1       1.023   2.285  -0.687  1.00  0.00     0.049 A 
HETATM   12  C21 UNL     1      -0.040   1.413  -0.612  1.00  0.00     0.038 A 
HETATM   13  N6  UNL     1       1.613   4.584  -1.443  1.00  0.00    -0.350 N 
ATOM     14  H6  UNL     1       2.605   4.627  -1.208  1.00  0.00     0.166 HD
HETATM   15  C22 UNL     1       0.877   5.562  -2.016  1.00  0.00     0.183 A 
HETATM   16  N7  UNL     1      -0.391   5.144  -2.172  1.00  0.00    -0.345 N 
HETATM   17  C23 UNL     1      -1.504   5.871  -2.741  1.00  0.00     0.157 C 
ENDROOT
BRANCH   1  18
HETATM   18  N2  UNL     1       1.361  -0.250   0.430  1.00  0.00    -0.366 N 
HETATM   19  C6  UNL     1       1.921   0.251   1.658  1.00  0.00     0.125 C 
HETATM   20  C5  UNL     1       3.327  -0.103   1.933  1.00  0.00     0.030 C 
HETATM   21  C4  UNL     1       4.173  -0.589   0.813  1.00  0.00     0.026 C 
HETATM   22  C25 UNL     1       3.476  -0.690  -0.530  1.00  0.00     0.030 C 
HETATM   23  C24 UNL     1       2.106  -1.242  -0.308  1.00  0.00     0.125 C 
BRANCH  21  24
HETATM   24  C3  UNL     1       5.405   0.224   0.587  1.00  0.00     0.060 C 
BRANCH  24  25
HETATM   25  N1  UNL     1       6.357   0.335   1.610  1.00  0.00    -0.402 N 
ATOM     26  H1  UNL     1       6.460   1.215   2.115  1.00  0.00     0.158 HD
BRANCH  25  27
HETATM   27  C2  UNL     1       7.176  -0.771   1.945  1.00  0.00     0.114 C 
HETATM   28  C1  UNL     1       6.543  -1.948   2.617  1.00  0.00     0.026 C 
ENDBRANCH  25  27
ENDBRANCH  24  25
ENDBRANCH  21  24
ENDBRANCH   1  18
BRANCH   4  29
HETATM   29  N4  UNL     1      -3.281  -1.255  -0.429  1.00  0.00    -0.217 N 
HETATM   30  C9  UNL     1      -3.100  -2.595  -0.003  1.00  0.00     0.145 C 
HETATM   31  C10 UNL     1      -4.312  -3.363   0.372  1.00  0.00     0.000 C 
HETATM   32  C11 UNL     1      -4.397  -4.609  -0.522  1.00  0.00     0.011 C 
HETATM   33  C12 UNL     1      -5.619  -2.673   0.240  1.00  0.00     0.011 C 
HETATM   34  C13 UNL     1      -5.517  -1.169   0.334  1.00  0.00     0.000 C 
HETATM   35  C14 UNL     1      -6.892  -0.595   0.154  1.00  0.00     0.011 C 
HETATM   36  C15 UNL     1      -4.582  -0.767  -0.814  1.00  0.00     0.145 C 
ENDBRANCH   4  29
TORSDOF 5
