REMARK  10 active torsions:
REMARK  status: ('A' for Active; 'I' for Inactive)
REMARK    1  A    between atoms: C6_10  and  C7_11 
REMARK    2  A    between atoms: N3_14  and  C10_15 
REMARK    3  A    between atoms: C10_15  and  C11_16 
REMARK    4  A    between atoms: C11_16  and  C12_17 
REMARK    5  A    between atoms: C12_17  and  C13_18 
REMARK    6  A    between atoms: C13_18  and  C14_19 
REMARK    7  A    between atoms: N5_22  and  C15_23 
REMARK    8  A    between atoms: C15_23  and  C16_24 
REMARK    9  A    between atoms: C16_24  and  C17_25 
REMARK   10  A    between atoms: C17_25  and  C18_26 
ROOT
HETATM    1  C7  UNL     1      -3.897   0.607   0.276  1.00  0.00    -0.007 A 
HETATM    2  C8  UNL     1      -2.917   0.926   1.207  1.00  0.00     0.031 A 
HETATM    3  C9  UNL     1      -1.855   1.735   0.840  1.00  0.00     0.091 A 
HETATM    4  N3  UNL     1      -1.715   2.237  -0.387  1.00  0.00    -0.366 N 
HETATM    5  C21 UNL     1      -2.654   1.938  -1.300  1.00  0.00     0.091 A 
HETATM    6  C22 UNL     1      -3.745   1.130  -0.990  1.00  0.00     0.031 A 
ENDROOT
BRANCH   4   7
HETATM    7  C10 UNL     1      -0.592   3.082  -0.748  1.00  0.00     0.128 C 
BRANCH   7   8
HETATM    8  C11 UNL     1       0.508   2.134  -1.255  1.00  0.00     0.021 C 
BRANCH   8   9
HETATM    9  C12 UNL     1       1.724   2.901  -1.658  1.00  0.00     0.009 C 
BRANCH   9  10
HETATM   10  C13 UNL     1       2.789   1.972  -2.162  1.00  0.00     0.078 C 
BRANCH  10  11
HETATM   11  C14 UNL     1       3.147   1.024  -1.076  1.00  0.00     0.096 A 
HETATM   12  N4  UNL     1       4.085   1.169  -0.116  1.00  0.00    -0.285 N 
HETATM   13  N5  UNL     1       4.139   0.121   0.682  1.00  0.00    -0.275 N 
ATOM     14  H4  UNL     1       4.681   1.991  -0.020  1.00  0.00     0.188 HD
HETATM   15  C20 UNL     1       3.199  -0.729   0.215  1.00  0.00     0.202 A 
HETATM   16  N6  UNL     1       2.591  -0.187  -0.855  1.00  0.00    -0.340 N 
ATOM     17  H6  UNL     1       1.843  -0.614  -1.402  1.00  0.00     0.168 HD
BRANCH  13  18
HETATM   18  C15 UNL     1       4.996  -0.125   1.825  1.00  0.00     0.243 C 
BRANCH  18  19
HETATM   19  C16 UNL     1       6.206  -0.791   1.330  1.00  0.00    -0.085 C 
BRANCH  19  20
HETATM   20  C17 UNL     1       7.210  -1.342   0.927  1.00  0.00    -0.105 C 
BRANCH  20  21
HETATM   21  C18 UNL     1       8.414  -2.005   0.424  1.00  0.00     0.089 C 
HETATM   22  C19 UNL     1       8.975  -2.868   1.514  1.00  0.00     0.018 C 
ENDBRANCH  20  21
ENDBRANCH  19  20
ENDBRANCH  18  19
ENDBRANCH  13  18
ENDBRANCH  10  11
ENDBRANCH   9  10
ENDBRANCH   8   9
ENDBRANCH   7   8
ENDBRANCH   4   7
BRANCH   1  23
HETATM   23  C6  UNL     1      -5.033  -0.244   0.627  1.00  0.00     0.046 A 
HETATM   24  C5  UNL     1      -6.088  -0.610  -0.309  1.00  0.00     0.064 A 
HETATM   25  C4  UNL     1      -6.977  -1.387   0.299  1.00  0.00     0.080 A 
HETATM   26  C3  UNL     1      -6.546  -1.547   1.603  1.00  0.00     0.134 A 
HETATM   27  N2  UNL     1      -8.124  -2.056   0.089  1.00  0.00    -0.340 N 
HETATM   28  N1  UNL     1      -7.458  -2.331   2.185  1.00  0.00    -0.327 N 
HETATM   29  N7  UNL     1      -5.321  -0.802   1.738  1.00  0.00    -0.340 N 
HETATM   30  C2  UNL     1      -8.412  -2.643   1.284  1.00  0.00     0.097 A 
ATOM     31  H1  UNL     1      -7.436  -2.644   3.156  1.00  0.00     0.169 HD
HETATM   32  C1  UNL     1      -9.471  -3.400   1.504  1.00  0.00     0.063 C 
ATOM     33  H7  UNL     1      -4.768  -0.731   2.592  1.00  0.00     0.167 HD
ATOM     34  H2  UNL     1      -8.661  -2.112  -0.776  1.00  0.00     0.167 HD
ENDBRANCH   1  23
TORSDOF 10
