REMARK  20 active torsions:
REMARK  status: ('A' for Active; 'I' for Inactive)
REMARK    1  A    between atoms: C2_2  and  O1_3 
REMARK    2  A    between atoms: C2_2  and  C3_5 
REMARK    3  A    between atoms: C3_5  and  O2_6 
REMARK    4  A    between atoms: O2_6  and  C4_7 
REMARK    5  A    between atoms: C5_8  and  O3_9 
REMARK    6  A    between atoms: O3_9  and  C6_10 
REMARK    7  A    between atoms: C6_10  and  C8_12 
REMARK    8  A    between atoms: C6_10  and  C9_15 
REMARK    9  A    between atoms: C8_12  and  O4_13 
REMARK   10  A    between atoms: C9_15  and  C10_16 
REMARK   11  A    between atoms: C10_16  and  S1_17 
REMARK   12  A    between atoms: C14_23  and  O7_24 
REMARK   13  A    between atoms: C17_29  and  O9_31 
REMARK   14  A    between atoms: C19_33  and  O10_34 
REMARK   15  A    between atoms: C22_39  and  C23_40 
REMARK   16  A    between atoms: C23_40  and  O12_41 
REMARK   17  A    between atoms: C25_46  and  O14_47 
REMARK   18  A    between atoms: O14_47  and  C26_48 
REMARK   19  A    between atoms: C26_48  and  C27_50 
REMARK   20  A    between atoms: C27_50  and  O16_51 
ROOT
HETATM    1  C23 UNL     1      -1.361  -3.315  -1.054  1.00  0.00     0.233 C 
HETATM    2  C24 UNL     1      -0.759  -4.133  -0.054  1.00  0.00     0.091 C 
HETATM    3  N1  UNL     1      -0.302  -4.788   0.759  1.00  0.00    -0.195 NA
ENDROOT
BRANCH   1   4
HETATM    4  C22 UNL     1      -0.697  -2.005  -1.349  1.00  0.00     0.082 C 
HETATM    5  C13 UNL     1      -0.506  -1.115  -0.125  1.00  0.00     0.149 C 
HETATM    6  C12 UNL     1       0.341   0.047  -0.669  1.00  0.00     0.113 A 
HETATM    7  O6  UNL     1      -1.663  -0.926   0.356  1.00  0.00    -0.324 OA
HETATM    8  C5  UNL     1       1.200   0.747   0.390  1.00  0.00     0.169 A 
HETATM    9  C25 UNL     1      -0.403   1.262  -1.018  1.00  0.00     0.213 A 
HETATM   10  C4  UNL     1       0.464   2.000   0.057  1.00  0.00     0.214 A 
HETATM   11  O13 UNL     1      -1.690   1.305  -0.503  1.00  0.00    -0.319 OA
HETATM   12  C20 UNL     1      -2.669   0.646  -1.265  1.00  0.00     0.292 C 
HETATM   13  C15 UNL     1      -3.697   0.409  -0.198  1.00  0.00     0.185 C 
HETATM   14  O11 UNL     1      -2.212  -0.217  -2.048  1.00  0.00    -0.358 OA
HETATM   15  O8  UNL     1      -3.146   0.507   1.109  1.00  0.00    -0.320 OA
HETATM   16  C16 UNL     1      -4.526  -0.804  -0.261  1.00  0.00     0.077 C 
HETATM   17  C14 UNL     1      -2.302  -0.602   1.385  1.00  0.00     0.311 C 
HETATM   18  C19 UNL     1      -3.331  -1.666   1.795  1.00  0.00     0.245 C 
HETATM   19  C17 UNL     1      -4.620  -1.541   1.067  1.00  0.00     0.090 C 
HETATM   20  C18 UNL     1      -5.137  -2.929   0.762  1.00  0.00     0.049 C 
HETATM   21  C21 UNL     1      -1.521  -1.211  -2.376  1.00  0.00     0.181 C 
BRANCH   8  22
HETATM   22  O3  UNL     1       2.524   0.868   0.097  1.00  0.00    -0.370 OA
BRANCH  22  23
HETATM   23  C6  UNL     1       3.501   0.329   0.804  1.00  0.00     0.080 C 
HETATM   24  C7  UNL     1       4.803   0.939   0.118  1.00  0.00     0.048 C 
BRANCH  23  25
HETATM   25  C8  UNL     1       3.715   0.630   2.235  1.00  0.00     0.201 C 
BRANCH  25  26
HETATM   26  O4  UNL     1       4.015   1.931   2.541  1.00  0.00    -0.398 OA
ATOM     27  H4  UNL     1       4.153   2.124   3.461  1.00  0.00     0.209 HD
ENDBRANCH  25  26
ENDBRANCH  23  25
BRANCH  23  28
HETATM   28  C9  UNL     1       3.720  -1.193   0.624  1.00  0.00     0.052 C 
BRANCH  28  29
HETATM   29  C10 UNL     1       4.084  -1.490  -0.811  1.00  0.00     0.111 C 
BRANCH  29  30
HETATM   30  S1  UNL     1       4.414  -3.189  -1.133  1.00  0.00     0.011 S 
HETATM   31  C11 UNL     1       3.059  -4.261  -0.793  1.00  0.00     0.127 C 
HETATM   32  O5  UNL     1       5.739  -3.738  -0.224  1.00  0.00    -0.258 OA
ENDBRANCH  29  30
ENDBRANCH  28  29
ENDBRANCH  23  28
ENDBRANCH  22  23
ENDBRANCH   8  22
BRANCH  10  33
HETATM   33  O2  UNL     1      -0.302   2.482   1.082  1.00  0.00    -0.375 OA
BRANCH  33  34
HETATM   34  C3  UNL     1      -0.342   3.821   1.288  1.00  0.00     0.199 C 
BRANCH  34  35
HETATM   35  C2  UNL     1       0.986   4.381   1.686  1.00  0.00     0.138 C 
HETATM   36  C1  UNL     1       0.796   5.862   1.995  1.00  0.00     0.041 C 
BRANCH  35  37
HETATM   37  O1  UNL     1       1.325   3.784   2.907  1.00  0.00    -0.394 OA
ATOM     38  H1  UNL     1       1.443   2.861   2.714  1.00  0.00     0.210 HD
ENDBRANCH  35  37
ENDBRANCH  34  35
ENDBRANCH  33  34
ENDBRANCH  10  33
BRANCH   9  39
HETATM   39  O14 UNL     1      -0.427   1.809  -2.264  1.00  0.00    -0.278 OA
BRANCH  39  40
HETATM   40  C26 UNL     1       0.520   2.068  -3.206  1.00  0.00     0.285 C 
HETATM   41  O15 UNL     1       1.689   1.757  -2.931  1.00  0.00    -0.263 OA
BRANCH  40  42
HETATM   42  C27 UNL     1       0.158   2.703  -4.520  1.00  0.00     0.275 C 
BRANCH  42  43
HETATM   43  O16 UNL     1       1.258   2.876  -5.319  1.00  0.00    -0.391 OA
ATOM     44  H16 UNL     1       1.029   3.277  -6.149  1.00  0.00     0.210 HD
ENDBRANCH  42  43
ENDBRANCH  40  42
ENDBRANCH  39  40
ENDBRANCH   9  39
BRANCH  17  45
HETATM   45  O7  UNL     1      -1.622  -0.241   2.571  1.00  0.00    -0.341 OA
ATOM     46  H7  UNL     1      -2.106   0.004   3.351  1.00  0.00     0.215 HD
ENDBRANCH  17  45
BRANCH  18  47
HETATM   47  O10 UNL     1      -3.569  -1.558   3.179  1.00  0.00    -0.384 OA
ATOM     48  H10 UNL     1      -4.205  -2.216   3.433  1.00  0.00     0.210 HD
ENDBRANCH  18  47
BRANCH  19  49
HETATM   49  O9  UNL     1      -5.553  -0.935   1.910  1.00  0.00    -0.387 OA
ATOM     50  H9  UNL     1      -5.612  -1.395   2.739  1.00  0.00     0.210 HD
ENDBRANCH  19  49
ENDBRANCH   1   4
BRANCH   1  51
HETATM   51  O12 UNL     1      -1.480  -4.078  -2.244  1.00  0.00    -0.381 OA
ATOM     52  H12 UNL     1      -1.901  -4.909  -2.057  1.00  0.00     0.211 HD
ENDBRANCH   1  51
TORSDOF 20
