REMARK  12 active torsions:
REMARK  status: ('A' for Active; 'I' for Inactive)
REMARK    1  A    between atoms: O1_2  and  C2_3 
REMARK    2  A    between atoms: C5_12  and  O4_13 
REMARK    3  A    between atoms: C9_18  and  O5_19 
REMARK    4  A    between atoms: O5_19  and  C10_20 
REMARK    5  A    between atoms: C12_23  and  O7_24 
REMARK    6  A    between atoms: C13_26  and  O8_27 
REMARK    7  A    between atoms: C13_26  and  C14_29 
REMARK    8  A    between atoms: C14_29  and  O9_30 
REMARK    9  A    between atoms: C14_29  and  C15_32 
REMARK   10  A    between atoms: C15_32  and  O10_33 
REMARK   11  A    between atoms: C15_32  and  C16_35 
REMARK   12  A    between atoms: C16_35  and  O11_37 
ROOT
HETATM    1  C2  UNL     1      -0.925   0.349   1.121  1.00  0.00     0.254 C 
HETATM    2  N1  UNL     1      -0.863  -0.911   1.708  1.00  0.00    -0.284 N 
ATOM      3  H1  UNL     1      -1.499  -1.089   2.486  1.00  0.00     0.185 HD
HETATM    4  N2  UNL     1      -0.064  -1.895   1.357  1.00  0.00    -0.296 N 
ATOM      5  H2  UNL     1       0.499  -2.443   2.007  1.00  0.00     0.183 HD
HETATM    6  C3  UNL     1      -0.091  -2.093  -0.065  1.00  0.00     0.228 C 
HETATM    7  O2  UNL     1       0.099  -3.476  -0.455  1.00  0.00    -0.279 OA
HETATM    8  C4  UNL     1      -0.746  -3.157  -1.540  1.00  0.00     0.301 C 
HETATM    9  O3  UNL     1      -0.835  -3.540  -2.722  1.00  0.00    -0.261 OA
HETATM   10  C5  UNL     1      -1.407  -2.218  -0.616  1.00  0.00     0.203 C 
HETATM   11  C6  UNL     1      -2.152  -1.068  -1.162  1.00  0.00     0.034 C 
HETATM   12  C7  UNL     1      -3.191  -1.711  -2.127  1.00  0.00     0.014 C 
HETATM   13  C8  UNL     1      -2.983  -0.482  -0.069  1.00  0.00     0.047 C 
HETATM   14  C9  UNL     1      -2.367   0.625   0.740  1.00  0.00     0.211 C 
HETATM   15  C12 UNL     1       1.046  -1.326  -0.637  1.00  0.00     0.237 C 
HETATM   16  C13 UNL     1       0.978   0.147  -0.519  1.00  0.00     0.191 C 
HETATM   17  N3  UNL     1      -0.194   0.681   0.001  1.00  0.00    -0.336 N 
ATOM     18  H3  UNL     1      -0.581   1.454  -0.541  1.00  0.00     0.161 HD
ENDROOT
BRANCH  16  19
HETATM   19  O8  UNL     1       1.045   0.627  -1.860  1.00  0.00    -0.366 OA
ATOM     20  H8  UNL     1       1.001   1.573  -1.784  1.00  0.00     0.212 HD
ENDBRANCH  16  19
BRANCH  16  21
HETATM   21  C14 UNL     1       2.170   0.827   0.133  1.00  0.00     0.207 C 
BRANCH  21  22
HETATM   22  O9  UNL     1       1.937   2.263  -0.113  1.00  0.00    -0.388 OA
ATOM     23  H9  UNL     1       2.682   2.688   0.295  1.00  0.00     0.210 HD
ENDBRANCH  21  22
BRANCH  21  24
HETATM   24  C15 UNL     1       3.494   0.675  -0.554  1.00  0.00     0.180 C 
BRANCH  24  25
HETATM   25  O10 UNL     1       4.327   1.687   0.091  1.00  0.00    -0.390 OA
ATOM     26  H10 UNL     1       5.166   1.591  -0.344  1.00  0.00     0.210 HD
ENDBRANCH  24  25
BRANCH  24  27
HETATM   27  C16 UNL     1       4.281  -0.562  -0.320  1.00  0.00     0.145 C 
HETATM   28  C17 UNL     1       4.624  -0.686   1.149  1.00  0.00     0.042 C 
BRANCH  27  29
HETATM   29  O11 UNL     1       5.558  -0.292  -0.935  1.00  0.00    -0.393 OA
ATOM     30  H11 UNL     1       6.062  -1.084  -0.785  1.00  0.00     0.210 HD
ENDBRANCH  27  29
ENDBRANCH  24  27
ENDBRANCH  21  24
ENDBRANCH  16  21
BRANCH  15  31
HETATM   31  O7  UNL     1       1.358  -1.795  -1.908  1.00  0.00    -0.385 OA
ATOM     32  H7  UNL     1       2.085  -1.305  -2.274  1.00  0.00     0.210 HD
ENDBRANCH  15  31
BRANCH   1  33
HETATM   33  O1  UNL     1      -0.568   1.258   2.107  1.00  0.00    -0.346 OA
HETATM   34  C1  UNL     1      -1.254   1.256   3.272  1.00  0.00     0.207 C 
ENDBRANCH   1  33
BRANCH  10  35
HETATM   35  O4  UNL     1      -2.261  -2.977   0.214  1.00  0.00    -0.375 OA
ATOM     36  H4  UNL     1      -3.134  -3.060  -0.151  1.00  0.00     0.211 HD
ENDBRANCH  10  35
BRANCH  14  37
HETATM   37  O5  UNL     1      -2.406   1.821   0.017  1.00  0.00    -0.309 OA
BRANCH  37  38
HETATM   38  C10 UNL     1      -3.126   2.941   0.332  1.00  0.00     0.255 C 
HETATM   39  C11 UNL     1      -3.037   4.146  -0.572  1.00  0.00     0.126 C 
HETATM   40  O6  UNL     1      -3.839   2.950   1.352  1.00  0.00    -0.266 OA
ENDBRANCH  37  38
ENDBRANCH  14  37
TORSDOF 12
