REMARK  4 active torsions:
REMARK  status: ('A' for Active; 'I' for Inactive)
REMARK    1  A    between atoms: N1_1  and  C1_4 
REMARK    2  A    between atoms: C4_13  and  N5_14 
REMARK    3  A    between atoms: N5_14  and  N6_16 
REMARK    4  A    between atoms: N6_16  and  N7_17 
ROOT
HETATM    1  C1  UNL     1      -2.372   0.947   0.002  1.00  0.00     0.131 A 
HETATM    2  N2  UNL     1      -3.502   0.262   0.272  1.00  0.00    -0.337 N 
ATOM      3  H2  UNL     1      -4.405   0.718   0.145  1.00  0.00     0.168 HD
HETATM    4  C2  UNL     1      -3.462  -1.015   0.707  1.00  0.00     0.183 A 
HETATM    5  N3  UNL     1      -2.250  -1.577   0.861  1.00  0.00    -0.336 N 
ATOM      6  H3  UNL     1      -2.204  -2.541   1.190  1.00  0.00     0.168 HD
HETATM    7  C3  UNL     1      -1.101  -0.939   0.606  1.00  0.00     0.153 A 
HETATM    8  N4  UNL     1       0.200  -1.279   0.681  1.00  0.00    -0.173 N 
ATOM      9  H4  UNL     1       0.543  -2.191   0.982  1.00  0.00     0.186 HD
HETATM   10  C4  UNL     1       0.985  -0.255   0.306  1.00  0.00     0.697 A 
HETATM   11  N8  UNL     1       0.141   0.742  -0.007  1.00  0.00    -0.183 N 
ATOM     12  H8  UNL     1       0.432   1.665  -0.331  1.00  0.00     0.184 HD
HETATM   13  C5  UNL     1      -1.137   0.363   0.163  1.00  0.00     0.137 A 
ENDROOT
BRANCH  10  14
HETATM   14  N5  UNL     1       2.405  -0.257   0.262  1.00  0.00    -0.116 N 
ATOM     15  H5  UNL     1       2.905  -1.103   0.535  1.00  0.00     0.203 HD
BRANCH  14  16
HETATM   16  N6  UNL     1       3.133   0.848  -0.138  1.00  0.00    -0.015 NA
BRANCH  16  17
HETATM   17  N7  UNL     1       4.452   0.499  -0.450  1.00  0.00    -0.328 N 
ATOM     18  H72 UNL     1       4.814  -0.452  -0.385  1.00  0.00     0.174 HD
ATOM     19  H71 UNL     1       4.989   1.314  -0.745  1.00  0.00     0.174 HD
ENDBRANCH  16  17
ENDBRANCH  14  16
ENDBRANCH  10  14
BRANCH   1  20
HETATM   20  N1  UNL     1      -2.459   2.146  -0.404  1.00  0.00    -0.383 N 
ATOM     21  H12 UNL     1      -3.375   2.579  -0.523  1.00  0.00     0.157 HD
ATOM     22  H11 UNL     1      -1.604   2.664  -0.608  1.00  0.00     0.157 HD
ENDBRANCH   1  20
TORSDOF 4
