REMARK  5 active torsions:
REMARK  status: ('A' for Active; 'I' for Inactive)
REMARK    1  A    between atoms: N2_4  and  N3_6 
REMARK    2  A    between atoms: C1_8  and  C2_9 
REMARK    3  A    between atoms: C2_9  and  C3_10 
REMARK    4  A    between atoms: C5_14  and  C6_15 
REMARK    5  A    between atoms: C6_15  and  N5_16 
ROOT
HETATM    1  C3  UNL     1       1.342   0.330   0.474  1.00  0.00     0.087 A 
HETATM    2  N4  UNL     1       0.140   0.917   0.348  1.00  0.00    -0.343 N 
ATOM      3  H4  UNL     1      -0.021   1.920   0.440  1.00  0.00     0.167 HD
HETATM    4  C4  UNL     1      -0.828   0.013   0.085  1.00  0.00     0.068 A 
HETATM    5  C5  UNL     1      -2.185   0.078  -0.128  1.00  0.00    -0.004 A 
HETATM    6  C7  UNL     1      -2.880  -1.079  -0.377  1.00  0.00     0.011 A 
HETATM    7  C8  UNL     1      -2.226  -2.317  -0.417  1.00  0.00     0.003 A 
HETATM    8  C9  UNL     1      -0.866  -2.368  -0.202  1.00  0.00     0.032 A 
HETATM    9  C10 UNL     1      -0.150  -1.214   0.050  1.00  0.00     0.061 A 
HETATM   10  N6  UNL     1       1.151  -0.972   0.290  1.00  0.00    -0.344 N 
ATOM     11  H6  UNL     1       1.882  -1.682   0.325  1.00  0.00     0.167 HD
ENDROOT
BRANCH   1  12
HETATM   12  C2  UNL     1       2.612   1.067   0.767  1.00  0.00     0.122 C 
BRANCH  12  13
HETATM   13  C1  UNL     1       3.245   1.467  -0.507  1.00  0.00     0.089 C 
HETATM   14  N3  UNL     1       4.269   0.829  -0.929  1.00  0.00    -0.301 N 
ATOM     15  H3  UNL     1       4.713   1.096  -1.807  1.00  0.00     0.187 HD
BRANCH  14  16
HETATM   16  N2  UNL     1       4.774  -0.230  -0.186  1.00  0.00    -0.250 N 
HETATM   17  N1  UNL     1       4.761  -1.385  -0.700  1.00  0.00    -0.331 N 
ATOM     18  H12 UNL     1       4.385  -1.519  -1.639  1.00  0.00     0.178 HD
ATOM     19  H11 UNL     1       5.132  -2.163  -0.154  1.00  0.00     0.178 HD
ATOM     20  H2  UNL     1       5.146  -0.080   0.752  1.00  0.00     0.207 HD
ENDBRANCH  14  16
ENDBRANCH  12  13
ENDBRANCH   1  12
BRANCH   5  21
HETATM   21  C6  UNL     1      -2.878   1.381  -0.087  1.00  0.00     0.270 C 
BRANCH  21  22
HETATM   22  N5  UNL     1      -4.285   1.271  -0.329  1.00  0.00    -0.075 N 
ATOM     23  H53 UNL     1      -4.467   0.788  -1.209  1.00  0.00     0.274 HD
ATOM     24  H52 UNL     1      -4.715   0.608   0.316  1.00  0.00     0.274 HD
ATOM     25  H51 UNL     1      -4.764   2.171  -0.301  1.00  0.00     0.274 HD
ENDBRANCH  21  22
ENDBRANCH   5  21
TORSDOF 5
