REMARK  8 active torsions:
REMARK  status: ('A' for Active; 'I' for Inactive)
REMARK    1  A    between atoms: C2_2  and  C3_3 
REMARK    2  A    between atoms: C3_3  and  C4_4 
REMARK    3  A    between atoms: C4_4  and  C5_5 
REMARK    4  A    between atoms: C5_5  and  O1_6 
REMARK    5  A    between atoms: C5_5  and  C6_8 
REMARK    6  A    between atoms: C6_8  and  C7_9 
REMARK    7  A    between atoms: C7_9  and  N1_10 
REMARK    8  A    between atoms: N1_10  and  C8_12 
ROOT
HETATM    1  C6  UNL     1       0.102   0.288  -0.165  1.00  0.00     0.051 C 
ENDROOT
BRANCH   1   2
HETATM    2  C5  UNL     1       1.574  -0.156   0.055  1.00  0.00     0.120 C 
BRANCH   2   3
HETATM    3  C4  UNL     1       2.172  -0.059  -1.315  1.00  0.00     0.035 C 
BRANCH   3   4
HETATM    4  C3  UNL     1       3.568  -0.466  -1.502  1.00  0.00     0.029 C 
BRANCH   4   5
HETATM    5  C2  UNL     1       4.562   0.405  -0.875  1.00  0.00    -0.037 C 
HETATM    6  C1  UNL     1       4.337   1.668  -0.572  1.00  0.00     0.007 C 
ENDBRANCH   4   5
ENDBRANCH   3   4
ENDBRANCH   2   3
BRANCH   2   7
HETATM    7  O1  UNL     1       2.134   0.537   1.075  1.00  0.00    -0.396 OA
ATOM      8  H1  UNL     1       1.755   0.475   1.944  1.00  0.00     0.210 HD
ENDBRANCH   2   7
ENDBRANCH   1   2
BRANCH   1   9
HETATM    9  C7  UNL     1      -0.674   0.244   1.132  1.00  0.00     0.116 C 
BRANCH   9  10
HETATM   10  N1  UNL     1      -2.000   0.674   0.863  1.00  0.00    -0.417 N 
ATOM     11  H1  UNL     1      -2.357   1.555   1.233  1.00  0.00     0.153 HD
BRANCH  10  12
HETATM   12  C8  UNL     1      -2.811  -0.170   0.058  1.00  0.00     0.076 C 
HETATM   13  C9  UNL     1      -3.083  -1.502   0.705  1.00  0.00     0.024 C 
HETATM   14  C10 UNL     1      -4.413  -0.934   1.187  1.00  0.00     0.004 C 
HETATM   15  C11 UNL     1      -4.280   0.148   0.149  1.00  0.00     0.024 C 
ENDBRANCH  10  12
ENDBRANCH   9  10
ENDBRANCH   1   9
TORSDOF 8
