REMARK  8 active torsions:
REMARK  status: ('A' for Active; 'I' for Inactive)
REMARK    1  A    between atoms: C2_2  and  C3_3 
REMARK    2  A    between atoms: C3_3  and  N1_4 
REMARK    3  A    between atoms: N1_4  and  C4_7 
REMARK    4  A    between atoms: C4_7  and  C5_8 
REMARK    5  A    between atoms: C5_8  and  N2_10 
REMARK    6  A    between atoms: N2_10  and  C7_12 
REMARK    7  A    between atoms: C7_12  and  C8_13 
REMARK    8  A    between atoms: C8_13  and  C9_14 
ROOT
HETATM    1  C5  UNL     1       1.373  -0.625  -1.750  1.00  0.00     0.102 C 
HETATM    2  C6  UNL     1       0.833  -1.990  -1.965  1.00  0.00     0.034 C 
ENDROOT
BRANCH   1   3
HETATM    3  C4  UNL     1       2.217  -0.467  -0.504  1.00  0.00     0.257 C 
BRANCH   3   4
HETATM    4  N1  UNL     1       1.564  -0.779   0.721  1.00  0.00    -0.070 N 
ATOM      5  H12 UNL     1       1.196  -1.730   0.738  1.00  0.00     0.277 HD
ATOM      6  H11 UNL     1       0.678  -0.285   0.830  1.00  0.00     0.277 HD
BRANCH   4   7
HETATM    7  C3  UNL     1       2.491  -0.517   1.815  1.00  0.00     0.259 C 
BRANCH   7   8
HETATM    8  C2  UNL     1       2.747   0.932   2.009  1.00  0.00    -0.010 C 
HETATM    9  C1  UNL     1       2.494   1.570   3.131  1.00  0.00     0.008 C 
ENDBRANCH   7   8
ENDBRANCH   4   7
ENDBRANCH   3   4
ENDBRANCH   1   3
BRANCH   1  10
HETATM   10  N2  UNL     1       0.492   0.456  -1.871  1.00  0.00    -0.396 N 
ATOM     11  H2  UNL     1       0.585   1.070  -2.680  1.00  0.00     0.159 HD
BRANCH  10  12
HETATM   12  C7  UNL     1      -0.501   0.732  -0.943  1.00  0.00     0.056 C 
BRANCH  12  13
HETATM   13  C8  UNL     1      -1.662  -0.224  -0.842  1.00  0.00     0.048 C 
BRANCH  13  14
HETATM   14  C9  UNL     1      -2.576   0.320   0.260  1.00  0.00    -0.018 C 
HETATM   15  C10 UNL     1      -3.044   1.706  -0.102  1.00  0.00     0.010 C 
HETATM   16  C11 UNL     1      -3.722  -0.615   0.559  1.00  0.00     0.010 C 
ENDBRANCH  13  14
ENDBRANCH  12  13
ENDBRANCH  10  12
ENDBRANCH   1  10
TORSDOF 8
