REMARK  3 active torsions:
REMARK  status: ('A' for Active; 'I' for Inactive)
REMARK    1  A    between atoms: O1_1  and  N1_3 
REMARK    2  A    between atoms: N1_3  and  C1_5 
REMARK    3  A    between atoms: C2_6  and  O2_7 
ROOT
HETATM    1  C1  UNL     1       2.823  -0.634   0.860  1.00  0.00     0.113 A 
HETATM    2  C2  UNL     1       3.195   0.469   1.593  1.00  0.00     0.170 A 
HETATM    3  N2  UNL     1       2.685   1.528   0.986  1.00  0.00    -0.338 N 
ATOM      4  H2  UNL     1       2.805   2.486   1.315  1.00  0.00     0.168 HD
HETATM    5  C3  UNL     1       1.978   1.188  -0.134  1.00  0.00     0.020 A 
HETATM    6  C4  UNL     1       2.065  -0.163  -0.213  1.00  0.00    -0.003 A 
HETATM    7  C5  UNL     1       1.459  -1.029  -1.266  1.00  0.00     0.043 C 
HETATM    8  C6  UNL     1       0.644  -2.152  -0.658  1.00  0.00     0.005 C 
HETATM    9  C7  UNL     1      -0.741  -2.094  -1.186  1.00  0.00     0.000 C 
HETATM   10  C8  UNL     1      -1.814  -2.322  -0.152  1.00  0.00     0.000 C 
HETATM   11  C9  UNL     1      -1.860  -1.166   0.822  1.00  0.00     0.000 C 
HETATM   12  C10 UNL     1      -3.069  -0.311   0.687  1.00  0.00     0.000 C 
HETATM   13  C11 UNL     1      -2.906   0.907  -0.178  1.00  0.00     0.007 C 
HETATM   14  C12 UNL     1      -2.259   2.061   0.494  1.00  0.00     0.078 C 
HETATM   15  C13 UNL     1      -0.809   2.205   0.342  1.00  0.00     0.127 C 
HETATM   16  O3  UNL     1      -0.156   2.369   1.357  1.00  0.00    -0.298 OA
HETATM   17  C14 UNL     1      -0.184   2.152  -0.968  1.00  0.00     0.084 C 
HETATM   18  C15 UNL     1       1.284   2.096  -1.052  1.00  0.00     0.065 C 
ENDROOT
BRANCH   1  19
HETATM   19  N1  UNL     1       3.164  -1.998   1.164  1.00  0.00    -0.265 N 
ATOM     20  H1  UNL     1       2.712  -2.489   1.935  1.00  0.00     0.194 HD
BRANCH  19  21
HETATM   21  O1  UNL     1       4.027  -2.567   0.462  1.00  0.00    -0.289 OA
ATOM     22  H1  UNL     1       4.252  -3.468   0.663  1.00  0.00     0.244 HD
ENDBRANCH  19  21
ENDBRANCH   1  19
BRANCH   2  23
HETATM   23  O2  UNL     1       3.972   0.394   2.755  1.00  0.00    -0.344 OA
ATOM     24  H2  UNL     1       4.229   1.156   3.261  1.00  0.00     0.219 HD
ENDBRANCH   2  23
TORSDOF 3
