REMARK  1 active torsions:
REMARK  status: ('A' for Active; 'I' for Inactive)
REMARK    1  A    between atoms: C5_6  and  C6_7 
ROOT
HETATM    1  C1  UNL     1       4.049  -0.585  -0.147  1.00  0.00     0.052 C 
HETATM    2  C2  UNL     1       2.750   0.148   0.047  1.00  0.00    -0.015 A 
HETATM    3  C3  UNL     1       1.572  -0.355  -0.513  1.00  0.00     0.075 A 
HETATM    4  C4  UNL     1       1.689  -1.535  -1.303  1.00  0.00     0.102 C 
HETATM    5  N1  UNL     1       1.804  -2.481  -1.966  1.00  0.00    -0.191 NA
HETATM    6  C5  UNL     1       0.347   0.292  -0.349  1.00  0.00     0.041 A 
HETATM    7  N3  UNL     1       0.380   1.417   0.373  1.00  0.00    -0.347 N 
ATOM      8  H3  UNL     1      -0.494   1.923   0.518  1.00  0.00     0.166 HD
HETATM    9  C12 UNL     1       1.524   1.927   0.928  1.00  0.00     0.122 A 
HETATM   10  S1  UNL     1       1.465   3.307   1.794  1.00  0.00    -0.059 SA
HETATM   11  C13 UNL     1       2.730   1.306   0.779  1.00  0.00     0.090 A 
HETATM   12  C14 UNL     1       3.964   1.797   1.344  1.00  0.00     0.103 C 
HETATM   13  N4  UNL     1       4.946   2.185   1.803  1.00  0.00    -0.191 NA
ENDROOT
BRANCH   6  14
HETATM   14  C6  UNL     1      -0.896  -0.262  -0.895  1.00  0.00     0.082 C 
HETATM   15  C7  UNL     1      -2.013   0.763  -1.086  1.00  0.00     0.016 C 
HETATM   16  C8  UNL     1      -3.355   0.129  -0.690  1.00  0.00     0.001 C 
HETATM   17  C9  UNL     1      -3.352  -0.031   0.832  1.00  0.00     0.006 C 
HETATM   18  C10 UNL     1      -2.177  -0.930   1.227  1.00  0.00     0.053 C 
HETATM   19  C11 UNL     1      -1.471  -1.364  -0.026  1.00  0.00    -0.010 C 
HETATM   20  N2  UNL     1      -1.419  -2.585  -0.297  1.00  0.00    -0.405 N 
ATOM     21  H22 UNL     1      -0.940  -2.880  -1.148  1.00  0.00     0.155 HD
ATOM     22  H21 UNL     1      -1.806  -3.326   0.287  1.00  0.00     0.155 HD
ENDBRANCH   6  14
TORSDOF 1
