REMARK  17 active torsions:
REMARK  status: ('A' for Active; 'I' for Inactive)
REMARK    1  A    between atoms: C2_2  and  C3_3 
REMARK    2  A    between atoms: C3_3  and  N1_4 
REMARK    3  A    between atoms: N1_4  and  C4_6 
REMARK    4  A    between atoms: C4_6  and  S2_16 
REMARK    5  A    between atoms: N2_7  and  C5_9 
REMARK    6  A    between atoms: C5_9  and  C6_10 
REMARK    7  A    between atoms: C6_10  and  S1_11 
REMARK    8  A    between atoms: S1_11  and  C7_12 
REMARK    9  A    between atoms: C7_12  and  C8_13 
REMARK   10  A    between atoms: C8_13  and  O1_14 
REMARK   11  A    between atoms: S2_16  and  S3_17 
REMARK   12  A    between atoms: S3_17  and  C9_18 
REMARK   13  A    between atoms: C10_20  and  C11_21 
REMARK   14  A    between atoms: C11_21  and  O3_22 
REMARK   15  A    between atoms: C12_24  and  O4_25 
REMARK   16  A    between atoms: C13_27  and  O5_28 
REMARK   17  A    between atoms: N3_30  and  C14_31 
ROOT
HETATM    1  S3  UNL     1      -1.137   0.555  -1.787  1.00  0.00    -0.036 SA
ENDROOT
BRANCH   1   2
HETATM    2  S2  UNL     1       0.875   0.144  -1.377  1.00  0.00    -0.018 SA
BRANCH   2   3
HETATM    3  C4  UNL     1       1.569   0.896   0.038  1.00  0.00     0.146 C 
HETATM    4  N2  UNL     1       2.731   0.486   0.447  1.00  0.00    -0.370 N 
ATOM      5  H2  UNL     1       3.159   0.906   1.272  1.00  0.00     0.161 HD
BRANCH   3   6
HETATM    6  N1  UNL     1       0.977   1.943   0.822  1.00  0.00    -0.370 N 
ATOM      7  H1  UNL     1       0.422   1.728   1.651  1.00  0.00     0.161 HD
BRANCH   6   8
HETATM    8  C3  UNL     1       1.190   3.313   0.402  1.00  0.00     0.121 C 
BRANCH   8   9
HETATM    9  C2  UNL     1       0.575   4.256   1.392  1.00  0.00     0.015 C 
HETATM   10  C1  UNL     1       0.763   5.706   0.990  1.00  0.00     0.006 C 
ENDBRANCH   8   9
ENDBRANCH   6   8
ENDBRANCH   3   6
BRANCH   4  11
HETATM   11  C5  UNL     1       3.418  -0.566  -0.268  1.00  0.00     0.132 C 
BRANCH  11  12
HETATM   12  C6  UNL     1       4.489   0.031  -1.148  1.00  0.00     0.093 C 
BRANCH  12  13
HETATM   13  S1  UNL     1       5.361  -1.203  -2.067  1.00  0.00    -0.165 SA
BRANCH  13  14
HETATM   14  C7  UNL     1       6.498  -2.252  -1.234  1.00  0.00     0.100 C 
BRANCH  14  15
HETATM   15  C8  UNL     1       5.896  -3.192  -0.230  1.00  0.00     0.174 C 
BRANCH  15  16
HETATM   16  O1  UNL     1       4.938  -4.022  -0.770  1.00  0.00    -0.400 OA
ATOM     17  H1  UNL     1       4.557  -4.617  -0.135  1.00  0.00     0.209 HD
ENDBRANCH  15  16
ENDBRANCH  14  15
ENDBRANCH  13  14
ENDBRANCH  12  13
ENDBRANCH  11  12
ENDBRANCH   4  11
ENDBRANCH   2   3
ENDBRANCH   1   2
BRANCH   1  18
HETATM   18  C9  UNL     1      -2.230  -0.635  -1.063  1.00  0.00     0.302 C 
HETATM   19  O2  UNL     1      -3.493  -0.653  -1.698  1.00  0.00    -0.346 OA
HETATM   20  C10 UNL     1      -4.234  -1.750  -1.316  1.00  0.00     0.181 C 
HETATM   21  C12 UNL     1      -3.949  -2.450  -0.065  1.00  0.00     0.198 C 
HETATM   22  C13 UNL     1      -2.955  -1.810   0.888  1.00  0.00     0.255 C 
HETATM   23  N3  UNL     1      -2.615  -0.470   0.309  1.00  0.00    -0.310 N 
BRANCH  20  24
HETATM   24  C11 UNL     1      -5.701  -1.304  -1.389  1.00  0.00     0.199 C 
BRANCH  24  25
HETATM   25  O3  UNL     1      -5.949  -0.226  -0.542  1.00  0.00    -0.398 OA
ATOM     26  H3  UNL     1      -6.857   0.050  -0.587  1.00  0.00     0.209 HD
ENDBRANCH  24  25
ENDBRANCH  20  24
BRANCH  21  27
HETATM   27  O4  UNL     1      -3.533  -3.764  -0.306  1.00  0.00    -0.389 OA
ATOM     28  H4  UNL     1      -3.348  -4.219   0.507  1.00  0.00     0.210 HD
ENDBRANCH  21  27
BRANCH  22  29
HETATM   29  O5  UNL     1      -1.743  -2.483   0.925  1.00  0.00    -0.374 OA
ATOM     30  H5  UNL     1      -1.121  -2.083   1.521  1.00  0.00     0.212 HD
ENDBRANCH  22  29
BRANCH  23  31
HETATM   31  C14 UNL     1      -2.820   0.649   1.094  1.00  0.00     0.076 C 
HETATM   32  C15 UNL     1      -2.720   2.066   0.720  1.00  0.00     0.081 C 
HETATM   33  S4  UNL     1      -3.235   0.358   2.692  1.00  0.00    -0.066 SA
ENDBRANCH  23  31
ENDBRANCH   1  18
TORSDOF 17
