REMARK  13 active torsions:
REMARK  status: ('A' for Active; 'I' for Inactive)
REMARK    1  A    between atoms: C1_2  and  C2_3 
REMARK       I    between atoms: C1_2  and  N1_9 
REMARK    2  A    between atoms: C2_3  and  S1_4 
REMARK    3  A    between atoms: S1_4  and  C3_5 
REMARK    4  A    between atoms: C3_5  and  C4_6 
REMARK    5  A    between atoms: C4_6  and  S2_7 
REMARK    6  A    between atoms: N1_9  and  C5_11 
REMARK    7  A    between atoms: C10_16  and  S4_17 
REMARK    8  A    between atoms: S4_17  and  C11_18 
REMARK    9  A    between atoms: C12_20  and  C13_21 
REMARK   10  A    between atoms: C13_21  and  O3_22 
REMARK   11  A    between atoms: C14_24  and  O4_25 
REMARK   12  A    between atoms: C15_27  and  O5_28 
REMARK   13  A    between atoms: C16_30  and  O6_31 
ROOT
HETATM    1  C5  UNL     1       0.579  -1.479  -0.843  1.00  0.00     0.098 C 
HETATM    2  C6  UNL     1       1.043  -2.715  -0.096  1.00  0.00     0.026 C 
HETATM    3  C7  UNL     1       1.173  -3.888  -1.008  1.00  0.00     0.002 C 
HETATM    4  C8  UNL     1      -0.168  -4.246  -1.584  1.00  0.00     0.001 C 
HETATM    5  C9  UNL     1      -1.167  -3.087  -1.445  1.00  0.00     0.017 C 
HETATM    6  C10 UNL     1      -0.465  -1.832  -1.889  1.00  0.00     0.072 C 
ENDROOT
BRANCH   6   7
HETATM    7  S4  UNL     1      -1.424  -0.453  -2.276  1.00  0.00    -0.128 SA
BRANCH   7   8
HETATM    8  C11 UNL     1      -2.504   0.325  -1.175  1.00  0.00     0.215 C 
HETATM    9  O2  UNL     1      -1.884   0.963  -0.069  1.00  0.00    -0.363 OA
HETATM   10  C12 UNL     1      -2.755   1.935   0.374  1.00  0.00     0.178 C 
HETATM   11  C14 UNL     1      -4.048   1.391   0.904  1.00  0.00     0.180 C 
HETATM   12  C15 UNL     1      -4.715   0.521  -0.172  1.00  0.00     0.181 C 
HETATM   13  C16 UNL     1      -3.634  -0.473  -0.587  1.00  0.00     0.188 C 
BRANCH  10  14
HETATM   14  C13 UNL     1      -2.135   2.881   1.357  1.00  0.00     0.198 C 
BRANCH  14  15
HETATM   15  O3  UNL     1      -1.040   3.544   0.765  1.00  0.00    -0.398 OA
ATOM     16  H3  UNL     1      -0.647   4.144   1.388  1.00  0.00     0.209 HD
ENDBRANCH  14  15
ENDBRANCH  10  14
BRANCH  11  17
HETATM   17  O4  UNL     1      -3.917   0.714   2.100  1.00  0.00    -0.390 OA
ATOM     18  H4  UNL     1      -4.736   0.369   2.436  1.00  0.00     0.210 HD
ENDBRANCH  11  17
BRANCH  12  19
HETATM   19  O5  UNL     1      -5.063   1.375  -1.206  1.00  0.00    -0.390 OA
ATOM     20  H5  UNL     1      -5.476   0.837  -1.871  1.00  0.00     0.210 HD
ENDBRANCH  12  19
BRANCH  13  21
HETATM   21  O6  UNL     1      -3.274  -1.067   0.647  1.00  0.00    -0.389 OA
ATOM     22  H6  UNL     1      -3.988  -1.571   1.019  1.00  0.00     0.210 HD
ENDBRANCH  13  21
ENDBRANCH   7   8
ENDBRANCH   6   7
BRANCH   1  23
HETATM   23  N1  UNL     1       1.716  -0.806  -1.389  1.00  0.00    -0.355 N 
HETATM   24  C1  UNL     1       2.150   0.438  -0.924  1.00  0.00     0.227 C 
HETATM   25  O1  UNL     1       1.518   0.987   0.011  1.00  0.00    -0.273 OA
ATOM     26  H1  UNL     1       2.231  -1.252  -2.148  1.00  0.00     0.162 HD
BRANCH  24  27
HETATM   27  C2  UNL     1       3.324   1.161  -1.468  1.00  0.00     0.176 C 
BRANCH  27  28
HETATM   28  S1  UNL     1       3.582   2.722  -0.611  1.00  0.00    -0.159 SA
BRANCH  28  29
HETATM   29  C3  UNL     1       4.045   2.474   1.118  1.00  0.00     0.085 C 
BRANCH  29  30
HETATM   30  C4  UNL     1       5.398   1.811   1.247  1.00  0.00     0.097 C 
BRANCH  30  31
HETATM   31  S2  UNL     1       5.835   1.573   2.983  1.00  0.00    -0.085 SA
HETATM   32  S3  UNL     1       7.734   0.637   3.137  1.00  0.00    -0.013 SA
ENDBRANCH  30  31
ENDBRANCH  29  30
ENDBRANCH  28  29
ENDBRANCH  27  28
ENDBRANCH  24  27
ENDBRANCH   1  23
TORSDOF 13
