REMARK  10 active torsions:
REMARK  status: ('A' for Active; 'I' for Inactive)
REMARK    1  A    between atoms: O1_2  and  C2_3 
REMARK    2  A    between atoms: C2_3  and  C3_4 
REMARK    3  A    between atoms: C3_4  and  C4_5 
REMARK    4  A    between atoms: C4_5  and  S1_6 
REMARK    5  A    between atoms: S1_6  and  N1_9 
REMARK    6  A    between atoms: N1_9  and  C5_11 
REMARK    7  A    between atoms: C5_11  and  C6_12 
REMARK    8  A    between atoms: C10_16  and  O4_17 
REMARK    9  A    between atoms: N3_24  and  C14_25 
REMARK   10  A    between atoms: C14_25  and  C15_26 
ROOT
HETATM    1  C6  UNL     1       0.441   1.494  -0.887  1.00  0.00     0.010 C 
HETATM    2  C7  UNL     1      -0.069   0.865  -2.129  1.00  0.00     0.042 C 
HETATM    3  C8  UNL     1      -0.873  -0.375  -1.968  1.00  0.00     0.230 C 
HETATM    4  C9  UNL     1      -0.035  -1.619  -1.802  1.00  0.00     0.097 C 
HETATM    5  C10 UNL     1      -0.619  -2.389  -0.631  1.00  0.00     0.325 C 
HETATM    6  N2  UNL     1      -0.392  -1.583   0.543  1.00  0.00    -0.017 N 
ATOM      7  H21 UNL     1       0.595  -1.554   0.798  1.00  0.00     0.282 HD
ATOM      8  H22 UNL     1      -0.754  -2.030   1.386  1.00  0.00     0.282 HD
HETATM    9  C12 UNL     1      -0.952  -0.227   0.356  1.00  0.00     0.423 C 
HETATM   10  C13 UNL     1       0.154   0.789   0.377  1.00  0.00     0.072 C 
HETATM   11  N3  UNL     1      -1.741  -0.255  -0.816  1.00  0.00     0.124 N 
ENDROOT
BRANCH   1  12
HETATM   12  C5  UNL     1       1.946   1.692  -1.053  1.00  0.00     0.136 C 
BRANCH  12  13
HETATM   13  N1  UNL     1       2.538   2.297   0.097  1.00  0.00    -0.319 N 
ATOM     14  H1  UNL     1       2.020   2.567   0.933  1.00  0.00     0.172 HD
BRANCH  13  15
HETATM   15  S1  UNL     1       4.235   2.515  -0.103  1.00  0.00     0.226 S 
HETATM   16  O2  UNL     1       4.827   3.202   1.088  1.00  0.00    -0.206 OA
HETATM   17  O3  UNL     1       4.492   3.387  -1.301  1.00  0.00    -0.206 OA
BRANCH  15  18
HETATM   18  C4  UNL     1       5.025   0.939  -0.324  1.00  0.00     0.165 C 
BRANCH  18  19
HETATM   19  C3  UNL     1       4.783   0.067   0.881  1.00  0.00     0.043 C 
BRANCH  19  20
HETATM   20  C2  UNL     1       5.423  -1.278   0.758  1.00  0.00     0.168 C 
BRANCH  20  21
HETATM   21  O1  UNL     1       6.798  -1.208   0.608  1.00  0.00    -0.396 OA
HETATM   22  C1  UNL     1       7.431  -0.592   1.666  1.00  0.00     0.201 C 
ENDBRANCH  20  21
ENDBRANCH  19  20
ENDBRANCH  18  19
ENDBRANCH  15  18
ENDBRANCH  13  15
ENDBRANCH  12  13
ENDBRANCH   1  12
BRANCH  11  23
HETATM   23  C14 UNL     1      -2.746   0.734  -0.977  1.00  0.00     0.280 C 
BRANCH  23  24
HETATM   24  C15 UNL     1      -3.645   0.801   0.228  1.00  0.00     0.014 C 
HETATM   25  C16 UNL     1      -4.709   1.891  -0.047  1.00  0.00     0.006 C 
HETATM   26  C17 UNL     1      -5.469   2.035   1.258  1.00  0.00     0.000 C 
HETATM   27  C18 UNL     1      -6.236   0.772   1.482  1.00  0.00     0.000 C 
HETATM   28  C19 UNL     1      -5.415  -0.470   1.467  1.00  0.00     0.000 C 
HETATM   29  C20 UNL     1      -4.358  -0.499   0.402  1.00  0.00     0.006 C 
ENDBRANCH  23  24
ENDBRANCH  11  23
BRANCH   5  30
HETATM   30  O4  UNL     1      -0.009  -3.610  -0.456  1.00  0.00    -0.364 OA
HETATM   31  C11 UNL     1      -0.910  -4.656  -0.561  1.00  0.00     0.204 C 
ENDBRANCH   5  30
TORSDOF 10
