REMARK  8 active torsions:
REMARK  status: ('A' for Active; 'I' for Inactive)
REMARK    1  A    between atoms: O1_2  and  N1_3 
REMARK    2  A    between atoms: N1_3  and  C2_4 
REMARK    3  A    between atoms: N1_3  and  C8_26 
REMARK    4  A    between atoms: C4_10  and  N4_11 
REMARK    5  A    between atoms: N6_17  and  O2_19 
REMARK    6  A    between atoms: O2_19  and  C6_20 
REMARK    7  A    between atoms: C9_31  and  N11_32 
REMARK    8  A    between atoms: N11_32  and  O4_34 
ROOT
HETATM    1  C2  UNL     1      -0.615  -0.648   0.627  1.00  0.00     0.754 A 
HETATM    2  N2  UNL     1      -0.705  -1.947   0.326  1.00  0.00    -0.015 N 
ATOM      3  H2  UNL     1      -1.555  -2.510   0.353  1.00  0.00     0.203 HD
HETATM    4  C3  UNL     1       0.515  -2.380  -0.017  1.00  0.00     0.748 A 
HETATM    5  N3  UNL     1       0.985  -3.604  -0.414  1.00  0.00    -0.019 N 
ATOM      6  H3  UNL     1       0.359  -4.406  -0.490  1.00  0.00     0.203 HD
HETATM    7  C4  UNL     1       2.275  -3.718  -0.697  1.00  0.00     0.705 A 
HETATM    8  N5  UNL     1       3.107  -2.660  -0.599  1.00  0.00    -0.018 N 
ATOM      9  H5  UNL     1       4.094  -2.782  -0.825  1.00  0.00     0.203 HD
HETATM   10  C5  UNL     1       2.669  -1.447  -0.211  1.00  0.00     0.753 A 
HETATM   11  N6  UNL     1       3.469  -0.455  -0.117  1.00  0.00    -0.085 N 
ATOM     12  H6  UNL     1       4.450  -0.616  -0.346  1.00  0.00     0.214 HD
HETATM   13  N7  UNL     1       1.351  -1.341   0.075  1.00  0.00     0.108 N 
HETATM   14  N8  UNL     1       0.659  -0.294   0.466  1.00  0.00    -0.092 N 
ATOM     15  H8  UNL     1       1.037   0.640   0.621  1.00  0.00     0.207 HD
ENDROOT
BRANCH   1  16
HETATM   16  N1  UNL     1      -1.740   0.123   1.029  1.00  0.00     0.132 N 
BRANCH  16  17
HETATM   17  O1  UNL     1      -2.047   0.353   2.308  1.00  0.00    -0.251 OA
HETATM   18  C1  UNL     1      -2.985  -0.526   2.834  1.00  0.00     0.239 C 
ENDBRANCH  16  17
BRANCH  16  19
HETATM   19  C8  UNL     1      -2.567   0.644   0.004  1.00  0.00     0.753 A 
HETATM   20  N9  UNL     1      -3.600  -0.001  -0.620  1.00  0.00    -0.114 N 
HETATM   21  N10 UNL     1      -4.141   0.796  -1.523  1.00  0.00    -0.115 N 
ATOM     22  H9  UNL     1      -3.906  -0.953  -0.418  1.00  0.00     0.206 HD
HETATM   23  C9  UNL     1      -3.487   1.974  -1.518  1.00  0.00     0.731 A 
ATOM     24  H10 UNL     1      -4.928   0.558  -2.127  1.00  0.00     0.206 HD
HETATM   25  N12 UNL     1      -2.531   1.860  -0.580  1.00  0.00    -0.015 N 
ATOM     26  H12 UNL     1      -1.866   2.596  -0.341  1.00  0.00     0.203 HD
BRANCH  23  27
HETATM   27  N11 UNL     1      -3.775   2.979  -2.293  1.00  0.00    -0.097 N 
ATOM     28  H11 UNL     1      -4.546   2.881  -2.953  1.00  0.00     0.213 HD
BRANCH  27  29
HETATM   29  O4  UNL     1      -3.091   4.156  -2.261  1.00  0.00    -0.276 OA
ATOM     30  H4  UNL     1      -3.301   4.890  -2.827  1.00  0.00     0.245 HD
ENDBRANCH  27  29
ENDBRANCH  23  27
ENDBRANCH  16  19
ENDBRANCH   1  16
BRANCH   7  31
HETATM   31  N4  UNL     1       2.760  -4.867  -1.078  1.00  0.00    -0.234 N 
ATOM     32  H42 UNL     1       2.131  -5.667  -1.152  1.00  0.00     0.174 HD
ATOM     33  H41 UNL     1       3.753  -4.955  -1.296  1.00  0.00     0.174 HD
ENDBRANCH   7  31
BRANCH  11  34
HETATM   34  O2  UNL     1       3.107   0.808   0.268  1.00  0.00    -0.185 OA
BRANCH  34  35
HETATM   35  C6  UNL     1       4.001   1.840   0.014  1.00  0.00     0.278 C 
HETATM   36  C7  UNL     1       3.694   3.255   0.403  1.00  0.00     0.128 C 
HETATM   37  O3  UNL     1       5.128   1.654  -0.560  1.00  0.00    -0.264 OA
ENDBRANCH  34  35
ENDBRANCH  11  34
TORSDOF 8
