REMARK  13 active torsions:
REMARK  status: ('A' for Active; 'I' for Inactive)
REMARK    1  A    between atoms: C2_2  and  N1_3 
REMARK    2  A    between atoms: N1_3  and  C3_5 
REMARK    3  A    between atoms: C4_6  and  C5_7 
REMARK    4  A    between atoms: C5_7  and  O1_8 
REMARK    5  A    between atoms: O1_8  and  C6_9 
REMARK    6  A    between atoms: C8_15  and  S1_16 
REMARK    7  A    between atoms: N5_24  and  C11_25 
REMARK    8  A    between atoms: C11_25  and  C12_26 
REMARK    9  A    between atoms: C12_26  and  C13_27 
REMARK   10  A    between atoms: C13_27  and  S2_28 
REMARK   11  A    between atoms: S2_28  and  C14_29 
REMARK   12  A    between atoms: C14_29  and  N6_30 
REMARK   13  A    between atoms: C16_34  and  C17_35 
REMARK       I    between atoms: N11_43  and  C20_44 
ROOT
HETATM    1  C3  UNL     1      -3.611   0.384   0.136  1.00  0.00     0.144 C 
HETATM    2  C4  UNL     1      -4.982  -0.185  -0.060  1.00  0.00    -0.015 C 
HETATM    3  C7  UNL     1      -5.247  -1.220  -1.061  1.00  0.00     0.156 C 
HETATM    4  N3  UNL     1      -4.136  -1.977  -1.529  1.00  0.00    -0.375 N 
ATOM      5  H3  UNL     1      -4.244  -2.726  -2.213  1.00  0.00     0.157 HD
HETATM    6  C8  UNL     1      -2.867  -1.630  -0.990  1.00  0.00     0.276 C 
HETATM    7  C9  UNL     1      -2.792  -0.112  -0.981  1.00  0.00     0.212 C 
HETATM    8  N4  UNL     1      -1.392   0.125  -0.947  1.00  0.00    -0.203 N 
HETATM    9  C10 UNL     1      -0.491   1.044  -0.556  1.00  0.00     0.349 A 
HETATM   10  O6  UNL     1      -0.715   2.165   0.003  1.00  0.00    -0.245 OA
HETATM   11  N5  UNL     1       0.702   0.571  -0.858  1.00  0.00    -0.247 N 
HETATM   12  C19 UNL     1       0.546  -0.633  -1.433  1.00  0.00     0.367 A 
HETATM   13  O8  UNL     1       1.459  -1.388  -1.854  1.00  0.00    -0.243 OA
HETATM   14  N10 UNL     1      -0.788  -0.920  -1.491  1.00  0.00    -0.126 N 
HETATM   15  N11 UNL     1      -1.740  -1.884  -1.902  1.00  0.00    -0.175 N 
HETATM   16  C20 UNL     1      -1.601  -2.823  -2.924  1.00  0.00     0.316 C 
HETATM   17  O9  UNL     1      -2.558  -3.634  -3.147  1.00  0.00    -0.257 OA
HETATM   18  S3  UNL     1      -0.181  -2.998  -3.968  1.00  0.00     0.015 SA
ENDROOT
BRANCH  11  19
HETATM   19  C11 UNL     1       1.953   1.252  -0.610  1.00  0.00     0.139 C 
BRANCH  19  20
HETATM   20  C12 UNL     1       2.552   0.947   0.738  1.00  0.00     0.031 C 
BRANCH  20  21
HETATM   21  C13 UNL     1       3.849   1.767   0.789  1.00  0.00     0.077 C 
BRANCH  21  22
HETATM   22  S2  UNL     1       4.747   1.566   2.320  1.00  0.00    -0.149 SA
BRANCH  22  23
HETATM   23  C14 UNL     1       5.412  -0.087   2.570  1.00  0.00     0.204 C 
BRANCH  23  24
HETATM   24  N6  UNL     1       6.449  -0.401   1.576  1.00  0.00    -0.320 N 
HETATM   25  C15 UNL     1       6.266  -0.988   0.376  1.00  0.00     0.185 A 
HETATM   26  N7  UNL     1       7.454  -1.113  -0.259  1.00  0.00    -0.345 N 
HETATM   27  C16 UNL     1       8.399  -0.601   0.544  1.00  0.00     0.140 A 
ATOM     28  H7  UNL     1       7.604  -1.522  -1.181  1.00  0.00     0.167 HD
HETATM   29  C18 UNL     1       7.773  -0.163   1.676  1.00  0.00     0.152 A 
HETATM   30  N9  UNL     1       8.409   0.448   2.783  1.00  0.00    -0.080 NA
BRANCH  27  31
HETATM   31  C17 UNL     1       9.830  -0.517   0.277  1.00  0.00     0.284 C 
HETATM   32  N8  UNL     1      10.341  -1.012  -0.931  1.00  0.00    -0.056 NA
HETATM   33  O7  UNL     1      10.613  -0.009   1.112  1.00  0.00    -0.269 OA
ENDBRANCH  27  31
ENDBRANCH  23  24
ENDBRANCH  22  23
ENDBRANCH  21  22
ENDBRANCH  20  21
ENDBRANCH  19  20
ENDBRANCH  11  19
BRANCH   1  34
HETATM   34  N1  UNL     1      -3.772   1.799   0.216  1.00  0.00    -0.392 N 
ATOM     35  H1  UNL     1      -3.524   2.310   1.063  1.00  0.00     0.159 HD
BRANCH  34  36
HETATM   36  C2  UNL     1      -4.284   2.466  -0.910  1.00  0.00     0.052 C 
HETATM   37  C1  UNL     1      -4.383   3.949  -0.611  1.00  0.00     0.054 C 
ENDBRANCH  34  36
ENDBRANCH   1  34
BRANCH   6  38
HETATM   38  S1  UNL     1      -2.466  -2.403   0.518  1.00  0.00     0.156 S 
HETATM   39  O3  UNL     1      -3.522  -2.342   1.575  1.00  0.00    -0.592 OA
HETATM   40  O4  UNL     1      -2.312  -3.895   0.211  1.00  0.00    -0.592 OA
HETATM   41  O5  UNL     1      -0.962  -1.927   1.085  1.00  0.00    -0.592 OA
ENDBRANCH   6  38
BRANCH   2  42
HETATM   42  C5  UNL     1      -5.972   0.286   0.717  1.00  0.00     0.153 C 
BRANCH  42  43
HETATM   43  O1  UNL     1      -7.241  -0.224   0.553  1.00  0.00    -0.276 OA
BRANCH  43  44
HETATM   44  C6  UNL     1      -8.269   0.255   1.353  1.00  0.00     0.377 C 
HETATM   45  N2  UNL     1      -9.599  -0.187   1.277  1.00  0.00    -0.032 NA
HETATM   46  O2  UNL     1      -8.018   1.154   2.222  1.00  0.00    -0.242 OA
ENDBRANCH  43  44
ENDBRANCH  42  43
ENDBRANCH   2  42
TORSDOF 13
