REMARK  2 active torsions:
REMARK  status: ('A' for Active; 'I' for Inactive)
REMARK    1  A    between atoms: C2_7  and  S1_8 
REMARK    2  A    between atoms: S1_8  and  N3_9 
ROOT
HETATM    1  N1  UNL     1      -1.596   2.697   0.202  1.00  0.00    -0.234 N 
ATOM      2  H11 UNL     1      -2.550   2.923  -0.080  1.00  0.00     0.174 HD
ATOM      3  H12 UNL     1      -0.980   3.438   0.537  1.00  0.00     0.174 HD
HETATM    4  C1  UNL     1      -1.109   1.501   0.160  1.00  0.00     0.680 A 
HETATM    5  N2  UNL     1       0.151   1.202   0.533  1.00  0.00    -0.164 N 
ATOM      6  H2  UNL     1       0.753   1.955   0.866  1.00  0.00     0.186 HD
HETATM    7  C2  UNL     1       0.648  -0.040   0.486  1.00  0.00     0.240 A 
HETATM    8  N4  UNL     1      -0.168  -1.014   0.044  1.00  0.00    -0.305 N 
ATOM      9  H4  UNL     1       0.169  -1.975  -0.007  1.00  0.00     0.170 HD
HETATM   10  C3  UNL     1      -1.441  -0.722  -0.335  1.00  0.00     0.208 A 
HETATM   11  N5  UNL     1      -2.267  -1.762  -0.792  1.00  0.00    -0.063 NA
HETATM   12  N6  UNL     1      -1.922   0.524  -0.282  1.00  0.00    -0.163 N 
ATOM     13  H6  UNL     1      -2.879   0.729  -0.569  1.00  0.00     0.187 HD
ENDROOT
BRANCH   7  14
HETATM   14  S1  UNL     1       2.285  -0.434   0.969  1.00  0.00     0.289 S 
HETATM   15  O1  UNL     1       2.328  -1.845   1.476  1.00  0.00    -0.198 OA
HETATM   16  O2  UNL     1       2.817   0.542   1.981  1.00  0.00    -0.198 OA
BRANCH  14  17
HETATM   17  N3  UNL     1       3.280  -0.277  -0.457  1.00  0.00    -0.322 N 
ATOM     18  H32 UNL     1       2.956  -0.007  -1.386  1.00  0.00     0.169 HD
ATOM     19  H31 UNL     1       4.233  -0.506  -0.176  1.00  0.00     0.169 HD
ENDBRANCH  14  17
ENDBRANCH   7  14
TORSDOF 2
