REMARK  3 active torsions:
REMARK  status: ('A' for Active; 'I' for Inactive)
REMARK    1  A    between atoms: C2_2  and  C3_3 
REMARK       I    between atoms: C3_3  and  N1_5 
REMARK    2  A    between atoms: C5_11  and  N4_12 
REMARK    3  A    between atoms: N4_12  and  N5_14 
ROOT
HETATM    1  C3  UNL     1      -1.785   0.763  -0.439  1.00  0.00     0.277 C 
HETATM    2  O1  UNL     1      -1.953   1.276  -1.566  1.00  0.00    -0.268 OA
HETATM    3  N1  UNL     1      -2.622   1.030   0.670  1.00  0.00    -0.260 N 
ATOM      4  H1  UNL     1      -2.426   0.575   1.562  1.00  0.00     0.181 HD
HETATM    5  C4  UNL     1      -3.720   1.908   0.574  1.00  0.00     0.184 C 
HETATM    6  N2  UNL     1      -4.619   2.644   0.510  1.00  0.00    -0.172 NA
ENDROOT
BRANCH   1   7
HETATM    7  C2  UNL     1      -0.652  -0.171  -0.259  1.00  0.00     0.203 C 
HETATM    8  C1  UNL     1      -1.114  -1.528   0.200  1.00  0.00     0.071 C 
HETATM    9  N3  UNL     1       0.284   0.432   0.664  1.00  0.00    -0.328 N 
HETATM   10  C5  UNL     1       1.468   0.193   0.229  1.00  0.00     0.207 C 
ATOM     11  H3  UNL     1       0.046   0.953   1.508  1.00  0.00     0.165 HD
HETATM   12  N6  UNL     1       1.372  -0.567  -0.963  1.00  0.00    -0.271 N 
HETATM   13  N7  UNL     1       0.102  -0.329  -1.497  1.00  0.00    -0.096 NA
ATOM     14  H6  UNL     1       2.092  -1.172  -1.357  1.00  0.00     0.185 HD
BRANCH  10  15
HETATM   15  N4  UNL     1       2.707   0.618   0.853  1.00  0.00    -0.277 N 
ATOM     16  H4  UNL     1       2.716   1.382   1.529  1.00  0.00     0.189 HD
BRANCH  15  17
HETATM   17  N5  UNL     1       3.885  -0.042   0.507  1.00  0.00    -0.343 N 
ATOM     18  H52 UNL     1       3.859  -0.804  -0.171  1.00  0.00     0.176 HD
ATOM     19  H51 UNL     1       4.756   0.257   0.946  1.00  0.00     0.176 HD
ENDBRANCH  15  17
ENDBRANCH  10  15
ENDBRANCH   1   7
TORSDOF 3
