REMARK  14 active torsions:
REMARK  status: ('A' for Active; 'I' for Inactive)
REMARK    1  A    between atoms: N1_1  and  C1_5 
REMARK    2  A    between atoms: C1_5  and  C2_6 
REMARK    3  A    between atoms: C2_6  and  N2_7 
REMARK    4  A    between atoms: N2_7  and  C3_9 
REMARK    5  A    between atoms: C4_12  and  N4_13 
REMARK    6  A    between atoms: N4_13  and  C5_15 
REMARK    7  A    between atoms: C5_15  and  C6_16 
REMARK    8  A    between atoms: C5_15  and  C7_18 
REMARK       I    between atoms: C7_18  and  N5_20 
REMARK    9  A    between atoms: N5_20  and  C8_22 
REMARK   10  A    between atoms: C9_31  and  C10_32 
REMARK   11  A    between atoms: C10_32  and  N10_33 
REMARK   12  A    between atoms: C10_32  and  C11_37 
REMARK   13  A    between atoms: C11_37  and  N11_38 
REMARK   14  A    between atoms: C11_37  and  O3_42 
ROOT
HETATM    1  C3  UNL     1      -2.017   1.053   0.015  1.00  0.00     0.149 A 
HETATM    2  N3  UNL     1      -0.700   0.755   0.212  1.00  0.00    -0.322 N 
ATOM      3  H3  UNL     1      -0.102   1.535   0.485  1.00  0.00     0.169 HD
HETATM    4  C4  UNL     1      -0.111  -0.404   0.095  1.00  0.00     0.113 A 
HETATM    5  C9  UNL     1      -0.725  -1.619  -0.267  1.00  0.00     0.027 A 
HETATM    6  C12 UNL     1      -2.067  -1.727  -0.549  1.00  0.00     0.066 A 
HETATM    7  S1  UNL     1      -2.956  -0.281  -0.433  1.00  0.00    -0.065 SA
ENDROOT
BRANCH   4   8
HETATM    8  N4  UNL     1       1.171  -0.503   0.355  1.00  0.00    -0.357 N 
ATOM      9  H4  UNL     1       1.627  -1.410   0.261  1.00  0.00     0.162 HD
BRANCH   8  10
HETATM   10  C5  UNL     1       1.946   0.625   0.766  1.00  0.00     0.238 C 
BRANCH  10  11
HETATM   11  C6  UNL     1       1.645   0.967   2.212  1.00  0.00     0.266 C 
HETATM   12  O1  UNL     1       2.199   1.900   2.765  1.00  0.00    -0.304 OA
ENDBRANCH  10  11
BRANCH  10  13
HETATM   13  C7  UNL     1       3.415   0.285   0.691  1.00  0.00     0.265 C 
HETATM   14  O2  UNL     1       3.781  -0.842   0.359  1.00  0.00    -0.270 OA
HETATM   15  N5  UNL     1       4.328   1.348   1.027  1.00  0.00    -0.155 N 
ATOM     16  H5  UNL     1       4.688   1.436   1.977  1.00  0.00     0.187 HD
BRANCH  15  17
HETATM   17  C8  UNL     1       4.688   2.193   0.108  1.00  0.00     0.716 A 
HETATM   18  N6  UNL     1       5.529   3.223   0.291  1.00  0.00    -0.115 N 
HETATM   19  N7  UNL     1       5.639   3.839  -0.870  1.00  0.00    -0.213 N 
ATOM     20  H6  UNL     1       5.994   3.480   1.162  1.00  0.00     0.207 HD
HETATM   21  N8  UNL     1       4.888   3.209  -1.749  1.00  0.00    -0.213 N 
ATOM     22  H7  UNL     1       6.209   4.664  -1.056  1.00  0.00     0.210 HD
HETATM   23  N9  UNL     1       4.288   2.187  -1.169  1.00  0.00    -0.115 N 
ATOM     24  H8  UNL     1       4.786   3.471  -2.729  1.00  0.00     0.210 HD
ATOM     25  H9  UNL     1       3.647   1.525  -1.607  1.00  0.00     0.207 HD
ENDBRANCH  15  17
ENDBRANCH  10  13
ENDBRANCH   8  10
ENDBRANCH   4   8
BRANCH   5  26
HETATM   26  C10 UNL     1       0.150  -2.824  -0.349  1.00  0.00     0.276 C 
BRANCH  26  27
HETATM   27  N10 UNL     1       1.279  -2.651  -1.236  1.00  0.00    -0.067 N 
ATOM     28 3H10 UNL     1       0.970  -2.364  -2.165  1.00  0.00     0.275 HD
ATOM     29 2H10 UNL     1       1.821  -1.827  -0.977  1.00  0.00     0.275 HD
ATOM     30 1H10 UNL     1       1.877  -3.475  -1.292  1.00  0.00     0.275 HD
ENDBRANCH  26  27
BRANCH  26  31
HETATM   31  C11 UNL     1      -0.596  -4.093  -0.623  1.00  0.00     0.351 C 
BRANCH  31  32
HETATM   32  N11 UNL     1       0.235  -5.251  -0.268  1.00  0.00    -0.051 N 
ATOM     33 3H11 UNL     1       1.140  -5.231  -0.738  1.00  0.00     0.277 HD
ATOM     34 2H11 UNL     1       0.566  -5.203   0.695  1.00  0.00     0.277 HD
ATOM     35 1H11 UNL     1      -0.273  -6.115  -0.455  1.00  0.00     0.277 HD
ENDBRANCH  31  32
BRANCH  31  36
HETATM   36  O3  UNL     1      -1.091  -4.208  -1.905  1.00  0.00    -0.368 OA
ATOM     37  H3  UNL     1      -1.564  -5.013  -2.079  1.00  0.00     0.212 HD
ENDBRANCH  31  36
ENDBRANCH  26  31
ENDBRANCH   5  26
BRANCH   1  38
HETATM   38  N2  UNL     1      -2.459   2.225   0.163  1.00  0.00    -0.348 N 
ATOM     39  H2  UNL     1      -1.748   2.903   0.437  1.00  0.00     0.167 HD
BRANCH  38  40
HETATM   40  C2  UNL     1      -3.740   2.773   0.023  1.00  0.00     0.090 C 
BRANCH  40  41
HETATM   41  C1  UNL     1      -4.852   1.878  -0.420  1.00  0.00     0.274 C 
BRANCH  41  42
HETATM   42  N1  UNL     1      -6.073   2.718  -0.482  1.00  0.00    -0.075 N 
ATOM     43  H13 UNL     1      -6.272   3.206   0.392  1.00  0.00     0.274 HD
ATOM     44  H12 UNL     1      -5.964   3.546  -1.068  1.00  0.00     0.274 HD
ATOM     45  H11 UNL     1      -6.832   2.107  -0.784  1.00  0.00     0.274 HD
ENDBRANCH  41  42
ENDBRANCH  40  41
ENDBRANCH  38  40
ENDBRANCH   1  38
TORSDOF 14
