REMARK  10 active torsions:
REMARK  status: ('A' for Active; 'I' for Inactive)
REMARK    1  A    between atoms: C6_6  and  N1_7 
REMARK    2  A    between atoms: N1_7  and  C7_8 
REMARK    3  A    between atoms: N1_7  and  N3_27 
REMARK    4  A    between atoms: C7_8  and  C8_9 
REMARK    5  A    between atoms: C8_9  and  C9_10 
REMARK    6  A    between atoms: C9_10  and  C10_11 
REMARK    7  A    between atoms: C10_11  and  N2_12 
REMARK       I    between atoms: N2_12  and  C11_14 
REMARK    8  A    between atoms: C11_14  and  C12_16 
REMARK    9  A    between atoms: C19_23  and  C20_24 
REMARK   10  A    between atoms: N3_27  and  N4_29 
ROOT
HETATM    1  C9  UNL     1      -0.587  -0.845   0.961  1.00  0.00     0.021 C 
ENDROOT
BRANCH   1   2
HETATM    2  C8  UNL     1       0.829  -1.442   1.047  1.00  0.00     0.023 C 
BRANCH   2   3
HETATM    3  C7  UNL     1       1.773  -0.379   0.549  1.00  0.00     0.150 C 
BRANCH   3   4
HETATM    4  N1  UNL     1       3.138  -0.823   0.582  1.00  0.00    -0.278 N 
BRANCH   4   5
HETATM    5  C6  UNL     1       4.154   0.052   0.149  1.00  0.00     0.026 C 
HETATM    6  C5  UNL     1       4.676   1.009   0.876  1.00  0.00     0.001 C 
HETATM    7  C4  UNL     1       5.729   1.865   0.331  1.00  0.00     0.038 C 
HETATM    8  C2  UNL     1       6.583   1.244  -0.722  1.00  0.00    -0.044 C 
HETATM    9  C1  UNL     1       6.645   2.108  -1.988  1.00  0.00     0.015 C 
HETATM   10  C3  UNL     1       8.001   1.118  -0.150  1.00  0.00     0.015 C 
HETATM   11  C22 UNL     1       6.169  -0.125  -1.152  1.00  0.00     0.015 C 
HETATM   12  C21 UNL     1       4.656  -0.152  -1.257  1.00  0.00     0.059 C 
ENDBRANCH   4   5
BRANCH   4  13
HETATM   13  N3  UNL     1       3.475  -2.092   1.031  1.00  0.00    -0.180 N 
ATOM     14  H3  UNL     1       3.306  -2.876   0.401  1.00  0.00     0.215 HD
BRANCH  13  15
HETATM   15  N4  UNL     1       4.020  -2.371   2.262  1.00  0.00    -0.024 N 
HETATM   16  O4  UNL     1       5.010  -1.735   2.660  1.00  0.00    -0.515 OA
HETATM   17  O5  UNL     1       3.472  -3.350   3.047  1.00  0.00    -0.515 OA
ENDBRANCH  13  15
ENDBRANCH   4  13
ENDBRANCH   3   4
ENDBRANCH   2   3
ENDBRANCH   1   2
BRANCH   1  18
HETATM   18  C10 UNL     1      -1.505  -1.920   1.461  1.00  0.00     0.122 C 
BRANCH  18  19
HETATM   19  N2  UNL     1      -2.858  -1.462   1.432  1.00  0.00    -0.361 N 
HETATM   20  C11 UNL     1      -3.501  -1.092   0.243  1.00  0.00     0.223 C 
HETATM   21  O1  UNL     1      -2.879  -1.167  -0.837  1.00  0.00    -0.273 OA
ATOM     22  H2  UNL     1      -3.375  -1.402   2.309  1.00  0.00     0.162 HD
BRANCH  20  23
HETATM   23  C12 UNL     1      -4.908  -0.605   0.182  1.00  0.00     0.096 C 
HETATM   24  C13 UNL     1      -5.130   0.633   0.974  1.00  0.00    -0.000 C 
HETATM   25  C14 UNL     1      -4.633   1.890   0.315  1.00  0.00     0.006 C 
HETATM   26  C17 UNL     1      -6.642   0.891   0.982  1.00  0.00     0.010 C 
HETATM   27  C15 UNL     1      -5.728   2.419  -0.549  1.00  0.00     0.005 C 
HETATM   28  C16 UNL     1      -6.826   1.383  -0.437  1.00  0.00    -0.013 C 
HETATM   29  C18 UNL     1      -6.582   0.324  -1.457  1.00  0.00     0.020 C 
HETATM   30  C19 UNL     1      -5.405  -0.535  -1.234  1.00  0.00     0.100 C 
BRANCH  30  31
HETATM   31  C20 UNL     1      -5.691  -1.883  -1.787  1.00  0.00     0.177 C 
HETATM   32  O2  UNL     1      -5.096  -2.314  -2.804  1.00  0.00    -0.648 OA
HETATM   33  O3  UNL     1      -6.637  -2.689  -1.168  1.00  0.00    -0.648 OA
ENDBRANCH  30  31
ENDBRANCH  20  23
ENDBRANCH  18  19
ENDBRANCH   1  18
TORSDOF 10
