REMARK  3 active torsions:
REMARK  status: ('A' for Active; 'I' for Inactive)
REMARK    1  A    between atoms: C5_5  and  O1_6 
REMARK    2  A    between atoms: C8_10  and  O2_11 
REMARK    3  A    between atoms: C11_16  and  O4_17 
ROOT
HETATM    1  C1  UNL     1      -1.331  -1.832  -1.171  1.00  0.00     0.016 C 
HETATM    2  C2  UNL     1      -1.119  -0.727  -0.188  1.00  0.00    -0.033 C 
HETATM    3  C3  UNL     1      -2.152  -0.905   0.921  1.00  0.00     0.012 C 
HETATM    4  C4  UNL     1      -3.485  -0.376   0.442  1.00  0.00     0.032 C 
HETATM    5  C5  UNL     1      -3.369   1.127   0.369  1.00  0.00     0.118 C 
HETATM    6  C6  UNL     1      -2.055   1.608  -0.137  1.00  0.00     0.039 C 
HETATM    7  C7  UNL     1      -1.277   0.578  -0.899  1.00  0.00     0.026 C 
HETATM    8  C8  UNL     1       0.145   1.025  -1.105  1.00  0.00     0.134 C 
HETATM    9  C9  UNL     1       0.790   0.642   0.204  1.00  0.00     0.077 C 
HETATM   10  C10 UNL     1       2.267   0.693   0.160  1.00  0.00     0.069 A 
HETATM   11  O3  UNL     1       3.065   1.674  -0.101  1.00  0.00    -0.291 OA
HETATM   12  C11 UNL     1       4.329   1.295  -0.034  1.00  0.00     0.183 A 
HETATM   13  C12 UNL     1       4.353  -0.035   0.297  1.00  0.00     0.073 A 
HETATM   14  C13 UNL     1       3.051  -0.419   0.420  1.00  0.00    -0.023 A 
HETATM   15  C14 UNL     1       2.434  -1.735   0.760  1.00  0.00     0.042 C 
HETATM   16  C15 UNL     1       1.149  -1.804  -0.077  1.00  0.00     0.011 C 
HETATM   17  C16 UNL     1       0.249  -0.727   0.444  1.00  0.00     0.007 C 
ENDROOT
BRANCH   5  18
HETATM   18  O1  UNL     1      -3.618   1.602   1.677  1.00  0.00    -0.396 OA
ATOM     19  H1  UNL     1      -3.545   2.548   1.631  1.00  0.00     0.210 HD
ENDBRANCH   5  18
BRANCH   8  20
HETATM   20  O2  UNL     1       0.270   2.353  -1.418  1.00  0.00    -0.394 OA
ATOM     21  H2  UNL     1       1.168   2.635  -1.548  1.00  0.00     0.210 HD
ENDBRANCH   8  20
BRANCH  12  22
HETATM   22  O4  UNL     1       5.459   2.074  -0.252  1.00  0.00    -0.341 OA
ATOM     23  H4  UNL     1       6.368   1.802  -0.204  1.00  0.00     0.220 HD
ENDBRANCH  12  22
TORSDOF 3
