REMARK  2 active torsions:
REMARK  status: ('A' for Active; 'I' for Inactive)
REMARK    1  A    between atoms: C4_4  and  O1_5 
REMARK    2  A    between atoms: C9_11  and  O2_12 
ROOT
HETATM    1  C1  UNL     1      -3.528  -1.803  -0.012  1.00  0.00     0.015 C 
HETATM    2  C2  UNL     1      -2.084  -1.676   0.420  1.00  0.00     0.011 C 
HETATM    3  C3  UNL     1      -1.953  -1.103   1.760  1.00  0.00     0.010 C 
HETATM    4  C4  UNL     1      -0.825  -0.525   2.110  1.00  0.00     0.045 C 
HETATM    5  C5  UNL     1       0.365  -0.390   1.262  1.00  0.00     0.058 C 
HETATM    6  C6  UNL     1       0.971   0.960   1.262  1.00  0.00     0.023 C 
HETATM    7  C7  UNL     1       2.426   1.043   0.860  1.00  0.00     0.010 C 
HETATM    8  C8  UNL     1       3.079   0.059   0.031  1.00  0.00     0.032 C 
HETATM    9  C9  UNL     1       3.271   0.297  -1.474  1.00  0.00     0.123 C 
HETATM   10  C10 UNL     1       1.966  -0.156  -2.242  1.00  0.00     0.084 C 
HETATM   11  C11 UNL     1       0.979  -0.019  -1.079  1.00  0.00    -0.010 C 
HETATM   12  N1  UNL     1       1.040   1.296  -0.939  1.00  0.00    -0.388 N 
ATOM     13  H1  UNL     1       1.608   1.883  -1.549  1.00  0.00     0.159 HD
HETATM   14  C12 UNL     1       0.272   1.825   0.103  1.00  0.00     0.108 C 
HETATM   15  C13 UNL     1      -1.119   1.988   0.182  1.00  0.00    -0.006 C 
HETATM   16  C14 UNL     1      -2.140   1.341  -0.636  1.00  0.00    -0.028 C 
HETATM   17  C15 UNL     1      -1.890   0.101  -1.354  1.00  0.00     0.033 C 
HETATM   18  C16 UNL     1      -1.228  -1.023  -0.623  1.00  0.00     0.006 C 
HETATM   19  C17 UNL     1       0.154  -0.804  -0.180  1.00  0.00     0.047 C 
ENDROOT
BRANCH   4  20
HETATM   20  O1  UNL     1      -0.757   0.001   3.391  1.00  0.00    -0.365 OA
ATOM     21  H1  UNL     1       0.058   0.419   3.644  1.00  0.00     0.217 HD
ENDBRANCH   4  20
BRANCH   9  22
HETATM   22  O2  UNL     1       4.228  -0.597  -1.906  1.00  0.00    -0.395 OA
ATOM     23  H2  UNL     1       4.347  -0.450  -2.837  1.00  0.00     0.210 HD
ENDBRANCH   9  22
TORSDOF 2
