REMARK  7 active torsions:
REMARK  status: ('A' for Active; 'I' for Inactive)
REMARK    1  A    between atoms: N1_1  and  N2_4 
REMARK    2  A    between atoms: N2_4  and  N3_5 
REMARK    3  A    between atoms: N3_5  and  C1_7 
REMARK    4  A    between atoms: C2_8  and  O1_9 
REMARK    5  A    between atoms: C4_13  and  O2_14 
REMARK    6  A    between atoms: C5_16  and  C6_17 
REMARK    7  A    between atoms: C6_17  and  O3_18 
ROOT
HETATM    1  C1  UNL     1       0.626   0.709   0.277  1.00  0.00     0.153 C 
HETATM    2  C2  UNL     1       1.556  -0.496   0.177  1.00  0.00     0.160 C 
HETATM    3  C3  UNL     1       0.668  -1.679  -0.142  1.00  0.00     0.118 C 
HETATM    4 BR1  UNL     1       0.696  -2.856   1.402  1.00  0.00    -0.086 Br
HETATM    5  C4  UNL     1      -0.743  -1.107  -0.298  1.00  0.00     0.143 C 
HETATM    6  C5  UNL     1      -0.684   0.095   0.584  1.00  0.00     0.067 C 
ENDROOT
BRANCH   1   7
HETATM    7  N3  UNL     1       0.690   1.374  -0.988  1.00  0.00    -0.245 N 
ATOM      8  H3  UNL     1      -0.137   1.477  -1.576  1.00  0.00     0.197 HD
BRANCH   7   9
HETATM    9  N2  UNL     1       1.793   1.821  -1.341  1.00  0.00    -0.248 NA
BRANCH   9  10
HETATM   10  N1  UNL     1       2.871   2.390  -1.589  1.00  0.00    -0.261 N 
ATOM     11  H12 UNL     1       2.569   3.077  -0.898  1.00  0.00     0.193 HD
ATOM     12  H11 UNL     1       3.777   2.757  -1.879  1.00  0.00     0.193 HD
ENDBRANCH   9  10
ENDBRANCH   7   9
ENDBRANCH   1   7
BRANCH   2  13
HETATM   13  O1  UNL     1       2.240  -0.664   1.370  1.00  0.00    -0.392 OA
ATOM     14  H1  UNL     1       2.819  -1.414   1.308  1.00  0.00     0.210 HD
ENDBRANCH   2  13
BRANCH   6  15
HETATM   15  C6  UNL     1      -1.862   1.009   0.458  1.00  0.00     0.173 C 
BRANCH  15  16
HETATM   16  O3  UNL     1      -2.027   1.532  -0.803  1.00  0.00    -0.400 OA
ATOM     17  H3  UNL     1      -2.775   2.112  -0.883  1.00  0.00     0.209 HD
ENDBRANCH  15  16
ENDBRANCH   6  15
BRANCH   5  18
HETATM   18  O2  UNL     1      -1.026  -0.843  -1.612  1.00  0.00    -0.394 OA
ATOM     19  H2  UNL     1      -1.902  -0.488  -1.709  1.00  0.00     0.210 HD
ENDBRANCH   5  18
TORSDOF 7
