REMARK  4 active torsions:
REMARK  status: ('A' for Active; 'I' for Inactive)
REMARK    1  A    between atoms: C3_3  and  N1_4 
REMARK    2  A    between atoms: N1_4  and  C4_5 
REMARK    3  A    between atoms: C4_5  and  C5_6 
REMARK    4  A    between atoms: C9_10  and  N2_11 
ROOT
HETATM    1  C1  UNL     1       0.638   3.563  -1.021  1.00  0.00     0.013 C 
HETATM    2  C2  UNL     1      -0.096   2.621  -0.786  1.00  0.00    -0.089 C 
HETATM    3  C3  UNL     1      -0.990   1.486  -0.526  1.00  0.00     0.330 C 
ENDROOT
BRANCH   3   4
HETATM    4  N1  UNL     1      -0.185   0.290  -0.437  1.00  0.00    -0.055 N 
HETATM    5  C7  UNL     1       0.703   0.281  -1.573  1.00  0.00     0.240 C 
HETATM    6  C8  UNL     1       2.106   0.259  -1.083  1.00  0.00     0.062 C 
HETATM    7  C9  UNL     1       2.042   0.164   0.401  1.00  0.00     0.211 C 
HETATM    8  C10 UNL     1       0.616   0.394   0.754  1.00  0.00     0.271 C 
BRANCH   4   9
HETATM    9  C4  UNL     1      -0.910  -0.922  -0.411  1.00  0.00     0.238 C 
BRANCH   9  10
HETATM   10  C5  UNL     1      -2.210  -0.904   0.318  1.00  0.00     0.023 C 
HETATM   11  C6  UNL     1      -2.870  -2.265   0.261  1.00  0.00     0.007 C 
ENDBRANCH   9  10
ENDBRANCH   4   9
BRANCH   7  12
HETATM   12  N2  UNL     1       2.524  -1.131   0.898  1.00  0.00    -0.073 N 
ATOM     13  H23 UNL     1       2.024  -1.904   0.458  1.00  0.00     0.274 HD
ATOM     14  H22 UNL     1       3.464  -1.330   0.556  1.00  0.00     0.274 HD
ATOM     15  H21 UNL     1       2.480  -1.196   1.915  1.00  0.00     0.274 HD
ENDBRANCH   7  12
ENDBRANCH   3   4
TORSDOF 4
