REMARK  3 active torsions:
REMARK  status: ('A' for Active; 'I' for Inactive)
REMARK    1  A    between atoms: C2_2  and  C3_3 
REMARK    2  A    between atoms: C3_3  and  C4_4 
REMARK    3  A    between atoms: C4_4  and  N1_5 
ROOT
HETATM    1  N1  UNL     1      -0.669   0.226   0.051  1.00  0.00    -0.217 N 
HETATM    2  C5  UNL     1      -1.660   1.193   0.562  1.00  0.00     0.161 C 
HETATM    3  C6  UNL     1      -3.016   0.555   0.388  1.00  0.00     0.158 C 
HETATM    4  N2  UNL     1      -2.781  -0.649  -0.347  1.00  0.00    -0.225 N 
ATOM      5  H2  UNL     1      -3.480  -1.362  -0.555  1.00  0.00     0.177 HD
HETATM    6  C7  UNL     1      -1.405  -0.691  -0.744  1.00  0.00     0.669 C 
HETATM    7  N3  UNL     1      -0.951  -1.460  -1.663  1.00  0.00    -0.235 N 
ATOM      8  H31 UNL     1      -1.480  -2.119  -2.234  1.00  0.00     0.174 HD
ATOM      9  H32 UNL     1       0.029  -1.490  -1.946  1.00  0.00     0.174 HD
ENDROOT
BRANCH   1  10
HETATM   10  C4  UNL     1       0.711   0.280   0.369  1.00  0.00     0.145 C 
BRANCH  10  11
HETATM   11  C3  UNL     1       1.613  -0.607  -0.426  1.00  0.00     0.047 C 
BRANCH  11  12
HETATM   12  C2  UNL     1       2.982  -0.383   0.146  1.00  0.00    -0.035 C 
HETATM   13  C1  UNL     1       3.902   0.176  -0.590  1.00  0.00     0.007 C 
ENDBRANCH  11  12
ENDBRANCH  10  11
ENDBRANCH   1  10
TORSDOF 3
