REMARK  3 active torsions:
REMARK  status: ('A' for Active; 'I' for Inactive)
REMARK    1  A    between atoms: C2_2  and  C3_3 
REMARK    2  A    between atoms: C3_3  and  N1_4 
REMARK    3  A    between atoms: C4_6  and  N2_7 
ROOT
HETATM    1  N1  UNL     1       1.121   0.425   0.896  1.00  0.00    -0.383 N 
ATOM      2  H1  UNL     1       0.802   1.394   0.896  1.00  0.00     0.160 HD
HETATM    3  C4  UNL     1       0.263  -0.522   0.650  1.00  0.00     0.174 C 
ENDROOT
BRANCH   3   4
HETATM    4  N2  UNL     1      -1.089  -0.252   0.383  1.00  0.00    -0.377 N 
HETATM    5  C5  UNL     1      -1.663   1.022   0.076  1.00  0.00     0.123 C 
HETATM    6  C6  UNL     1      -2.649   0.673  -1.025  1.00  0.00     0.021 C 
HETATM    7  C7  UNL     1      -2.823  -0.829  -0.969  1.00  0.00     0.021 C 
HETATM    8  C8  UNL     1      -2.179  -1.182   0.359  1.00  0.00     0.123 C 
ENDBRANCH   3   4
BRANCH   1   9
HETATM    9  C3  UNL     1       2.513   0.144   1.170  1.00  0.00     0.147 C 
BRANCH   9  10
HETATM   10  C2  UNL     1       3.305  -0.011  -0.092  1.00  0.00    -0.018 C 
HETATM   11  C1  UNL     1       4.318   0.797  -0.331  1.00  0.00     0.008 C 
ENDBRANCH   9  10
ENDBRANCH   1   9
TORSDOF 3
