REMARK  2 active torsions:
REMARK  status: ('A' for Active; 'I' for Inactive)
REMARK    1  A    between atoms: N1_2  and  N2_4 
REMARK    2  A    between atoms: N1_2  and  C3_7 
ROOT
HETATM    1  C1  UNL     1      -1.492  -1.043  -0.774  1.00  0.00     0.302 C 
HETATM    2  N1  UNL     1      -1.232   0.113   0.017  1.00  0.00     0.003 N 
HETATM    3  C2  UNL     1      -2.009   0.073   1.250  1.00  0.00     0.302 C 
ENDROOT
BRANCH   2   4
HETATM    4  N2  UNL     1      -1.704   1.255  -0.685  1.00  0.00    -0.261 N 
ATOM      5  H22 UNL     1      -2.152   1.234  -1.601  1.00  0.00     0.183 HD
ATOM      6  H21 UNL     1      -1.518   2.083  -0.119  1.00  0.00     0.183 HD
ENDBRANCH   2   4
BRANCH   2   7
HETATM    7  C3  UNL     1       0.121   0.341   0.349  1.00  0.00     0.214 C 
HETATM    8  C4  UNL     1       1.087   0.250  -0.790  1.00  0.00     0.036 C 
HETATM    9  C5  UNL     1       2.404   0.463  -0.025  1.00  0.00     0.002 C 
HETATM   10  C6  UNL     1       2.202  -0.420   1.179  1.00  0.00     0.002 C 
HETATM   11  C7  UNL     1       0.710  -0.589   1.360  1.00  0.00     0.036 C 
ENDBRANCH   2   7
TORSDOF 2
