REMARK  2 active torsions:
REMARK  status: ('A' for Active; 'I' for Inactive)
REMARK    1  A    between atoms: C2_2  and  C3_3 
REMARK    2  A    between atoms: C3_3  and  C4_4 
ROOT
HETATM    1  C4  UNL     1       0.041  -0.331   0.735  1.00  0.00     0.281 C 
HETATM    2  N1  UNL     1       1.165   0.418   1.179  1.00  0.00    -0.059 N 
ATOM      3  H11 UNL     1       1.311   0.311   2.183  1.00  0.00     0.278 HD
ATOM      4  H12 UNL     1       0.979   1.420   1.152  1.00  0.00     0.278 HD
HETATM    5  C5  UNL     1       2.329   0.091   0.452  1.00  0.00     0.246 C 
HETATM    6  C6  UNL     1       1.969  -0.013  -1.015  1.00  0.00     0.138 C 
HETATM    7  S1  UNL     1       0.562  -1.122  -0.803  1.00  0.00     0.048 S 
HETATM    8  O1  UNL     1       1.248  -2.623  -0.391  1.00  0.00    -0.256 OA
ENDROOT
BRANCH   1   9
HETATM    9  C3  UNL     1      -1.018   0.686   0.301  1.00  0.00     0.072 C 
BRANCH   9  10
HETATM   10  C2  UNL     1      -2.241   0.044  -0.184  1.00  0.00    -0.034 C 
HETATM   11  C1  UNL     1      -3.375   0.298   0.444  1.00  0.00     0.007 C 
ENDBRANCH   9  10
ENDBRANCH   1   9
TORSDOF 2
