REMARK  3 active torsions:
REMARK  status: ('A' for Active; 'I' for Inactive)
REMARK    1  A    between atoms: N1_2  and  C2_3 
REMARK    2  A    between atoms: C2_3  and  N2_4 
REMARK    3  A    between atoms: N2_4  and  C3_6 
ROOT
HETATM    1  N2  UNL     1       0.845  -0.125  -0.291  1.00  0.00    -0.379 N 
ATOM      2  H2  UNL     1       0.791   0.410  -1.158  1.00  0.00     0.160 HD
ENDROOT
BRANCH   1   3
HETATM    3  C2  UNL     1       1.901  -1.081  -0.135  1.00  0.00     0.270 C 
BRANCH   3   4
HETATM    4  N1  UNL     1       3.148  -0.276  -0.169  1.00  0.00    -0.268 N 
HETATM    5  C1  UNL     1       4.311  -0.034   0.291  1.00  0.00     0.219 A 
HETATM    6  N3  UNL     1       3.841   0.798  -0.802  1.00  0.00    -0.290 N 
ATOM      7  H3  UNL     1       3.933   1.552  -1.483  1.00  0.00     0.188 HD
ENDBRANCH   3   4
ENDBRANCH   1   3
BRANCH   1   8
HETATM    8  C3  UNL     1      -0.109   0.100   0.697  1.00  0.00    -0.017 C 
HETATM    9  C4  UNL     1      -1.030  -0.928   1.224  1.00  0.00     0.052 C 
HETATM   10  C5  UNL     1      -2.174  -1.177   0.304  1.00  0.00     0.006 C 
HETATM   11  C6  UNL     1      -2.706  -0.024  -0.446  1.00  0.00     0.001 C 
HETATM   12  C7  UNL     1      -2.160   1.308  -0.191  1.00  0.00     0.006 C 
HETATM   13  C8  UNL     1      -0.804   1.415   0.357  1.00  0.00     0.052 C 
ENDBRANCH   1   8
TORSDOF 3
