REMARK  10 active torsions:
REMARK  status: ('A' for Active; 'I' for Inactive)
REMARK    1  A    between atoms: O1_3  and  N2_4 
REMARK    2  A    between atoms: N2_4  and  N3_5 
REMARK    3  A    between atoms: N3_5  and  C2_7 
REMARK    4  A    between atoms: C2_7  and  C3_11 
REMARK    5  A    between atoms: C4_14  and  N6_15 
REMARK    6  A    between atoms: N6_15  and  S1_17 
REMARK    7  A    between atoms: S1_17  and  C5_20 
REMARK    8  A    between atoms: C7_22  and  N7_23 
REMARK    9  A    between atoms: C9_27  and  N8_28 
REMARK   10  A    between atoms: C11_34  and  N10_35 
ROOT
HETATM    1  N1  UNL     1       6.728  -4.010  -1.457  1.00  0.00    -0.162 NA
HETATM    2  C1  UNL     1       6.030  -3.773  -2.352  1.00  0.00     0.250 C 
HETATM    3  O1  UNL     1       5.204  -3.484  -3.380  1.00  0.00    -0.144 OA
ENDROOT
BRANCH   3   4
HETATM    4  N2  UNL     1       3.962  -2.960  -3.277  1.00  0.00     0.039 NA
BRANCH   4   5
HETATM    5  N3  UNL     1       3.946  -1.574  -3.113  1.00  0.00    -0.260 N 
ATOM      6  H3  UNL     1       4.761  -1.008  -3.348  1.00  0.00     0.186 HD
BRANCH   5   7
HETATM    7  C2  UNL     1       2.766  -0.979  -2.611  1.00  0.00     0.158 C 
HETATM    8  N4  UNL     1       1.828  -0.681  -3.437  1.00  0.00    -0.382 N 
ATOM      9  H42 UNL     1       1.968  -0.884  -4.427  1.00  0.00     0.157 HD
ATOM     10  H41 UNL     1       0.977  -0.252  -3.075  1.00  0.00     0.157 HD
BRANCH   7  11
HETATM   11  C3  UNL     1       2.567  -0.690  -1.200  1.00  0.00     0.181 A 
HETATM   12  N5  UNL     1       1.439  -0.124  -0.734  1.00  0.00    -0.171 N 
HETATM   13  C4  UNL     1       1.246   0.147   0.570  1.00  0.00     0.708 A 
ATOM     14  H5  UNL     1       0.699   0.109  -1.396  1.00  0.00     0.186 HD
HETATM   15  N9  UNL     1       2.255  -0.182   1.403  1.00  0.00    -0.022 N 
HETATM   16  C11 UNL     1       3.393  -0.751   0.951  1.00  0.00     0.692 A 
ATOM     17  H9  UNL     1       2.155   0.004   2.401  1.00  0.00     0.203 HD
HETATM   18  N11 UNL     1       3.567  -1.014  -0.357  1.00  0.00    -0.172 N 
ATOM     19  H11 UNL     1       4.427  -1.444  -0.699  1.00  0.00     0.186 HD
BRANCH  13  20
HETATM   20  N6  UNL     1       0.163   0.691   1.015  1.00  0.00    -0.112 N 
ATOM     21  H6  UNL     1       0.041   0.887   2.009  1.00  0.00     0.197 HD
BRANCH  20  22
HETATM   22  S1  UNL     1      -1.068   1.075  -0.124  1.00  0.00     0.276 S 
HETATM   23  O2  UNL     1      -0.656   2.292  -0.930  1.00  0.00    -0.200 OA
HETATM   24  O3  UNL     1      -1.133  -0.077  -1.111  1.00  0.00    -0.200 OA
BRANCH  22  25
HETATM   25  C5  UNL     1      -2.609   1.328   0.639  1.00  0.00     0.085 A 
HETATM   26  C6  UNL     1      -3.001   2.578   1.074  1.00  0.00     0.061 A 
HETATM   27  C7  UNL     1      -4.230   2.785   1.684  1.00  0.00     0.106 A 
HETATM   28  C8  UNL     1      -5.079   1.713   1.858  1.00  0.00     0.072 A 
HETATM   29  C9  UNL     1      -4.716   0.447   1.432  1.00  0.00     0.106 A 
HETATM   30  C10 UNL     1      -3.481   0.277   0.828  1.00  0.00     0.061 A 
BRANCH  27  31
HETATM   31  N7  UNL     1      -4.624   4.073   2.128  1.00  0.00    -0.116 N 
HETATM   32  O4  UNL     1      -5.723   4.238   2.669  1.00  0.00    -0.532 OA
HETATM   33  O5  UNL     1      -3.783   5.137   1.956  1.00  0.00    -0.532 OA
ENDBRANCH  27  31
BRANCH  29  34
HETATM   34  N8  UNL     1      -5.587  -0.665   1.608  1.00  0.00    -0.116 N 
HETATM   35  O6  UNL     1      -5.231  -1.790   1.215  1.00  0.00    -0.532 OA
HETATM   36  O7  UNL     1      -6.817  -0.559   2.198  1.00  0.00    -0.532 OA
ENDBRANCH  29  34
ENDBRANCH  22  25
ENDBRANCH  20  22
ENDBRANCH  13  20
BRANCH  16  37
HETATM   37  N10 UNL     1       4.367  -1.071   1.735  1.00  0.00    -0.234 N 
ATOM     38 2H10 UNL     1       4.235  -0.872   2.727  1.00  0.00     0.174 HD
ATOM     39 1H10 UNL     1       5.227  -1.501   1.394  1.00  0.00     0.174 HD
ENDBRANCH  16  37
ENDBRANCH   7  11
ENDBRANCH   5   7
ENDBRANCH   4   5
ENDBRANCH   3   4
TORSDOF 10
