REMARK  2 active torsions:
REMARK  status: ('A' for Active; 'I' for Inactive)
REMARK    1  A    between atoms: N1_1  and  C1_4 
REMARK    2  A    between atoms: N4_15  and  N5_16 
ROOT
HETATM    1  C1  UNL     1       2.531   0.508  -0.221  1.00  0.00     0.681 C 
HETATM    2  N2  UNL     1       2.366  -0.807   0.008  1.00  0.00    -0.154 N 
ATOM      3  H2  UNL     1       3.210  -1.380   0.004  1.00  0.00     0.187 HD
HETATM    4  C2  UNL     1       1.207  -1.447   0.242  1.00  0.00     0.288 C 
HETATM    5  O1  UNL     1       1.297  -2.651   0.555  1.00  0.00    -0.265 OA
HETATM    6  C3  UNL     1      -0.107  -0.968   0.189  1.00  0.00     0.133 C 
HETATM    7  C4  UNL     1      -0.507   0.363   0.095  1.00  0.00     0.152 C 
HETATM    8  C5  UNL     1       0.330   1.466   0.037  1.00  0.00     0.290 C 
HETATM    9  O2  UNL     1      -0.271   2.581   0.050  1.00  0.00    -0.265 OA
HETATM   10  N3  UNL     1       1.684   1.538  -0.030  1.00  0.00    -0.154 N 
ATOM     11  H3  UNL     1       2.101   2.463   0.075  1.00  0.00     0.187 HD
HETATM   12  N4  UNL     1      -1.928   0.381   0.070  1.00  0.00    -0.273 N 
HETATM   13  C6  UNL     1      -2.396  -0.949  -0.204  1.00  0.00     0.270 C 
HETATM   14  N6  UNL     1      -1.280  -1.763   0.221  1.00  0.00    -0.365 N 
ATOM     15  H6  UNL     1      -1.328  -2.744   0.497  1.00  0.00     0.161 HD
ENDROOT
BRANCH   1  16
HETATM   16  N1  UNL     1       3.694   0.856  -0.707  1.00  0.00    -0.234 N 
ATOM     17  H12 UNL     1       4.335   0.076  -0.852  1.00  0.00     0.174 HD
ATOM     18  H11 UNL     1       3.819   1.853  -0.881  1.00  0.00     0.174 HD
ENDBRANCH   1  16
BRANCH  12  19
HETATM   19  N5  UNL     1      -2.681   1.537   0.286  1.00  0.00    -0.341 N 
ATOM     20  H52 UNL     1      -2.349   2.482   0.481  1.00  0.00     0.177 HD
ATOM     21  H51 UNL     1      -3.701   1.550   0.268  1.00  0.00     0.177 HD
ENDBRANCH  12  19
TORSDOF 2
