REMARK  4 active torsions:
REMARK  status: ('A' for Active; 'I' for Inactive)
REMARK    1  A    between atoms: O1_2  and  C2_3 
REMARK    2  A    between atoms: C2_3  and  N1_4 
REMARK    3  A    between atoms: N4_11  and  N5_12 
REMARK    4  A    between atoms: C4_15  and  N6_16 
ROOT
HETATM    1  N1  UNL     1      -0.531  -0.093  -0.845  1.00  0.00    -0.083 N 
HETATM    2  N2  UNL     1      -0.777   0.940  -1.671  1.00  0.00    -0.112 N 
ATOM      3  H2  UNL     1      -1.282   0.885  -2.556  1.00  0.00     0.206 HD
HETATM    4  C3  UNL     1      -0.249   2.057  -1.141  1.00  0.00     0.727 A 
HETATM    5  N3  UNL     1      -0.299   3.225  -1.663  1.00  0.00    -0.231 N 
ATOM      6  H31 UNL     1       0.102   4.072  -1.261  1.00  0.00     0.174 HD
ATOM      7  H32 UNL     1      -0.746   3.456  -2.550  1.00  0.00     0.174 HD
HETATM    8  N4  UNL     1       0.340   1.752   0.029  1.00  0.00     0.086 N 
HETATM    9  C4  UNL     1       0.155   0.429   0.188  1.00  0.00     0.740 A 
ENDROOT
BRANCH   9  10
HETATM   10  N6  UNL     1       0.659  -0.280   1.321  1.00  0.00    -0.154 N 
HETATM   11  C5  UNL     1       1.726  -0.995   1.237  1.00  0.00     0.228 A 
HETATM   12  N7  UNL     1       2.646  -1.838   1.880  1.00  0.00    -0.267 N 
HETATM   13  N8  UNL     1       2.835  -1.530   0.489  1.00  0.00    -0.267 N 
ATOM     14  H7  UNL     1       2.956  -2.320   2.724  1.00  0.00     0.190 HD
ATOM     15  H8  UNL     1       3.362  -1.622  -0.380  1.00  0.00     0.190 HD
ATOM     16  H6  UNL     1       0.165  -0.219   2.211  1.00  0.00     0.187 HD
ENDBRANCH   9  10
BRANCH   1  17
HETATM   17  C2  UNL     1      -0.962  -1.453  -1.080  1.00  0.00     0.335 C 
BRANCH  17  18
HETATM   18  O1  UNL     1      -2.224  -1.662  -0.625  1.00  0.00    -0.374 OA
HETATM   19  C1  UNL     1      -2.428  -1.444   0.718  1.00  0.00     0.203 C 
ENDBRANCH  17  18
ENDBRANCH   1  17
BRANCH   8  20
HETATM   20  N5  UNL     1       1.013   2.637   0.907  1.00  0.00    -0.309 N 
ATOM     21  H52 UNL     1       1.153   3.640   0.786  1.00  0.00     0.178 HD
ATOM     22  H51 UNL     1       1.460   2.406   1.794  1.00  0.00     0.178 HD
ENDBRANCH   8  20
TORSDOF 4
