REMARK  3 active torsions:
REMARK  status: ('A' for Active; 'I' for Inactive)
REMARK    1  A    between atoms: N2_3  and  C2_5 
REMARK    2  A    between atoms: C2_5  and  C3_6 
REMARK    3  A    between atoms: N7_18  and  N8_19 
ROOT
HETATM    1  N1  UNL     1       2.907  -0.943   2.916  1.00  0.00    -0.172 NA
HETATM    2  C1  UNL     1       2.455  -0.992   1.846  1.00  0.00     0.182 C 
HETATM    3  N2  UNL     1       1.920  -1.040   0.587  1.00  0.00    -0.286 N 
ATOM      4  H2  UNL     1       2.166  -1.818  -0.025  1.00  0.00     0.178 HD
ENDROOT
BRANCH   3   5
HETATM    5  C2  UNL     1       0.991   0.007   0.085  1.00  0.00     0.155 C 
HETATM    6  C4  UNL     1      -0.254  -0.366  -0.057  1.00  0.00     0.192 A 
HETATM    7  N4  UNL     1      -0.737  -1.710   0.245  1.00  0.00    -0.267 N 
HETATM    8  N7  UNL     1      -1.403   0.302  -0.491  1.00  0.00    -0.072 N 
HETATM    9  N5  UNL     1      -2.095  -1.807  -0.002  1.00  0.00    -0.129 N 
ATOM     10  H4  UNL     1      -0.154  -2.472   0.590  1.00  0.00     0.189 HD
HETATM   11  C5  UNL     1      -2.569  -0.571  -0.468  1.00  0.00     0.713 A 
ATOM     12  H5  UNL     1      -2.662  -2.644   0.133  1.00  0.00     0.205 HD
HETATM   13  N6  UNL     1      -3.787  -0.250  -0.811  1.00  0.00    -0.232 N 
ATOM     14  H62 UNL     1      -4.603  -0.861  -0.795  1.00  0.00     0.174 HD
ATOM     15  H61 UNL     1      -4.132   0.648  -1.150  1.00  0.00     0.174 HD
BRANCH   5  16
HETATM   16  C3  UNL     1       1.594   1.280  -0.172  1.00  0.00     0.286 C 
HETATM   17  N3  UNL     1       3.019   1.477   0.059  1.00  0.00    -0.056 NA
HETATM   18  O1  UNL     1       1.012   2.276  -0.588  1.00  0.00    -0.269 OA
ENDBRANCH   5  16
BRANCH   8  19
HETATM   19  N8  UNL     1      -1.524   1.623  -0.910  1.00  0.00    -0.322 N 
ATOM     20  H82 UNL     1      -0.708   2.234  -0.926  1.00  0.00     0.178 HD
ATOM     21  H81 UNL     1      -2.362   2.110  -1.227  1.00  0.00     0.178 HD
ENDBRANCH   8  19
ENDBRANCH   3   5
TORSDOF 3
