REMARK  2 active torsions:
REMARK  status: ('A' for Active; 'I' for Inactive)
REMARK    1  A    between atoms: S1_2  and  N1_5 
REMARK       I    between atoms: N1_5  and  C2_7 
REMARK       I    between atoms: C2_7  and  N3_11 
REMARK    2  A    between atoms: N3_11  and  N4_13 
ROOT
HETATM    1  N1  UNL     1      -0.003  -0.215   0.714  1.00  0.00    -0.116 N 
ATOM      2  H1  UNL     1       0.301  -0.710   1.552  1.00  0.00     0.197 HD
HETATM    3  C2  UNL     1       0.886  -0.091  -0.366  1.00  0.00     0.699 C 
HETATM    4  N2  UNL     1       0.564   0.563  -1.403  1.00  0.00    -0.233 N 
ATOM      5  H21 UNL     1       1.210   0.653  -2.187  1.00  0.00     0.174 HD
ATOM      6  H22 UNL     1      -0.358   0.998  -1.436  1.00  0.00     0.174 HD
HETATM    7  N3  UNL     1       2.159  -0.691  -0.320  1.00  0.00    -0.138 N 
ATOM      8  H3  UNL     1       2.202  -1.700  -0.466  1.00  0.00     0.205 HD
ENDROOT
BRANCH   1   9
HETATM    9  S1  UNL     1      -1.595   0.448   0.661  1.00  0.00     0.240 S 
HETATM   10  C1  UNL     1      -2.568  -0.275  -0.645  1.00  0.00     0.186 C 
HETATM   11  O1  UNL     1      -1.530   1.961   0.493  1.00  0.00    -0.206 OA
HETATM   12  O2  UNL     1      -2.349   0.180   1.946  1.00  0.00    -0.206 OA
ENDBRANCH   1   9
BRANCH   7  13
HETATM   13  N4  UNL     1       3.360  -0.036  -0.094  1.00  0.00    -0.331 N 
ATOM     14  H42 UNL     1       3.298   0.972   0.050  1.00  0.00     0.177 HD
ATOM     15  H41 UNL     1       4.282  -0.471  -0.061  1.00  0.00     0.177 HD
ENDBRANCH   7  13
TORSDOF 2
