REMARK  5 active torsions:
REMARK  status: ('A' for Active; 'I' for Inactive)
REMARK       I    between atoms: C2_2  and  N1_4 
REMARK    1  A    between atoms: N1_4  and  N2_6 
REMARK    2  A    between atoms: N2_6  and  C3_8 
REMARK    3  A    between atoms: C3_8  and  O2_15 
REMARK    4  A    between atoms: N3_9  and  C4_11 
REMARK    5  A    between atoms: O2_15  and  N5_16 
ROOT
HETATM    1  C3  UNL     1       1.192   0.554  -0.014  1.00  0.00     0.262 C 
HETATM    2  N3  UNL     1       2.431   0.250  -0.030  1.00  0.00    -0.316 N 
ATOM      3  H3  UNL     1       3.129   0.935  -0.319  1.00  0.00     0.170 HD
ENDROOT
BRANCH   1   4
HETATM    4  N2  UNL     1       0.210  -0.375   0.380  1.00  0.00    -0.261 N 
ATOM      5  H2  UNL     1       0.482  -1.334   0.596  1.00  0.00     0.190 HD
BRANCH   4   6
HETATM    6  N1  UNL     1      -1.133  -0.001   0.479  1.00  0.00    -0.267 N 
HETATM    7  C2  UNL     1      -2.204  -0.830   0.105  1.00  0.00     0.232 C 
HETATM    8  C1  UNL     1      -3.595  -0.354   0.242  1.00  0.00     0.119 C 
HETATM    9  O1  UNL     1      -1.953  -1.987  -0.351  1.00  0.00    -0.272 OA
ATOM     10  H1  UNL     1      -1.348   0.927   0.844  1.00  0.00     0.190 HD
ENDBRANCH   4   6
ENDBRANCH   1   4
BRANCH   1  11
HETATM   11  O2  UNL     1       0.817   1.823  -0.394  1.00  0.00    -0.206 OA
BRANCH  11  12
HETATM   12  N5  UNL     1       1.785   2.823  -0.374  1.00  0.00    -0.302 N 
ATOM     13  H52 UNL     1       2.739   2.606  -0.084  1.00  0.00     0.184 HD
ATOM     14  H51 UNL     1       1.507   3.763  -0.656  1.00  0.00     0.184 HD
ENDBRANCH  11  12
ENDBRANCH   1  11
BRANCH   2  15
HETATM   15  C4  UNL     1       2.821  -1.058   0.361  1.00  0.00     0.176 C 
HETATM   16  N4  UNL     1       2.778  -2.054  -0.456  1.00  0.00    -0.395 N 
ATOM     17  H42 UNL     1       2.452  -1.880  -1.407  1.00  0.00     0.156 HD
ATOM     18  H41 UNL     1       3.058  -2.994  -0.175  1.00  0.00     0.156 HD
ENDBRANCH   2  15
TORSDOF 5
