REMARK  5 active torsions:
REMARK  status: ('A' for Active; 'I' for Inactive)
REMARK    1  A    between atoms: C2_2  and  C3_3 
REMARK    2  A    between atoms: C3_3  and  C4_4 
REMARK    3  A    between atoms: C4_4  and  O1_5 
REMARK    4  A    between atoms: O1_5  and  C5_6 
REMARK    5  A    between atoms: C5_6  and  C6_8 
ROOT
HETATM    1  C6  UNL     1       2.382  -0.240  -0.239  1.00  0.00     0.057 A 
HETATM    2  C7  UNL     1       1.121   0.369  -0.272  1.00  0.00     0.032 A 
HETATM    3  C8  UNL     1      -0.033  -0.321  -0.576  1.00  0.00    -0.007 A 
HETATM    4  C9  UNL     1       0.076  -1.684  -0.861  1.00  0.00     0.048 A 
HETATM    5  C10 UNL     1       1.304  -2.297  -0.833  1.00  0.00     0.050 A 
HETATM    6  C11 UNL     1       2.442  -1.582  -0.525  1.00  0.00     0.029 A 
HETATM    7 BR1  UNL     1       4.140  -2.446  -0.491  1.00  0.00    -0.050 Br
HETATM    8  N1  UNL     1      -0.989  -2.551  -1.194  1.00  0.00    -0.321 N 
HETATM    9  C12 UNL     1      -0.588  -3.819  -1.736  1.00  0.00     0.159 C 
HETATM   10  C13 UNL     1      -2.379  -2.276  -1.040  1.00  0.00     0.240 C 
HETATM   11  O3  UNL     1      -3.070  -3.347  -1.000  1.00  0.00    -0.272 OA
HETATM   12  C14 UNL     1      -3.171  -1.068  -0.922  1.00  0.00     0.191 C 
HETATM   13  C15 UNL     1      -4.175  -1.243   0.172  1.00  0.00     0.179 C 
HETATM   14  O4  UNL     1      -4.068  -2.299   0.884  1.00  0.00    -0.291 OA
HETATM   15  C16 UNL     1      -5.291  -0.398   0.585  1.00  0.00     0.038 A 
HETATM   16  C17 UNL     1      -6.309  -1.102   1.219  1.00  0.00     0.017 A 
HETATM   17  C18 UNL     1      -7.417  -0.415   1.655  1.00  0.00     0.001 A 
HETATM   18  C19 UNL     1      -7.521   0.946   1.470  1.00  0.00     0.002 A 
HETATM   19  C20 UNL     1      -6.496   1.639   0.835  1.00  0.00     0.031 A 
HETATM   20  C21 UNL     1      -5.383   0.970   0.393  1.00  0.00     0.051 A 
HETATM   21  N2  UNL     1      -4.434   1.858  -0.233  1.00  0.00    -0.317 N 
HETATM   22  C22 UNL     1      -4.901   3.189  -0.555  1.00  0.00     0.159 C 
HETATM   23  C23 UNL     1      -3.090   1.491  -0.540  1.00  0.00     0.255 C 
HETATM   24  O5  UNL     1      -2.336   2.491  -0.715  1.00  0.00    -0.267 OA
HETATM   25  C24 UNL     1      -2.445   0.174  -0.685  1.00  0.00     0.032 C 
HETATM   26  C25 UNL     1      -1.183   0.532  -0.538  1.00  0.00     0.027 C 
ENDROOT
BRANCH   1  27
HETATM   27  C5  UNL     1       3.551   0.548   0.089  1.00  0.00     0.294 C 
HETATM   28  O2  UNL     1       3.413   1.788   0.343  1.00  0.00    -0.259 OA
BRANCH  27  29
HETATM   29  O1  UNL     1       4.824   0.058   0.150  1.00  0.00    -0.317 OA
BRANCH  29  30
HETATM   30  C4  UNL     1       5.945   0.898   0.483  1.00  0.00     0.179 C 
BRANCH  30  31
HETATM   31  C3  UNL     1       7.173   0.021   0.453  1.00  0.00     0.026 C 
BRANCH  31  32
HETATM   32  C2  UNL     1       8.422   0.782   0.785  1.00  0.00    -0.002 C 
HETATM   33  C1  UNL     1       8.683   1.908  -0.171  1.00  0.00     0.005 C 
ENDBRANCH  31  32
ENDBRANCH  30  31
ENDBRANCH  29  30
ENDBRANCH  27  29
ENDBRANCH   1  27
TORSDOF 5
