REMARK  1 active torsions:
REMARK  status: ('A' for Active; 'I' for Inactive)
REMARK    1  A    between atoms: C3_3  and  N1_4 
ROOT
HETATM    1  C1  UNL     1      -3.042  -0.064   1.574  1.00  0.00     0.098 C 
HETATM    2  C2  UNL     1      -2.223  -0.528   0.794  1.00  0.00    -0.160 C 
HETATM    3  C3  UNL     1      -1.239  -1.062  -0.147  1.00  0.00     0.318 C 
ENDROOT
BRANCH   3   4
HETATM    4  N1  UNL     1      -0.089  -0.198  -0.295  1.00  0.00    -0.037 N 
HETATM    5  C4  UNL     1      -0.072   0.385  -1.630  1.00  0.00     0.275 C 
HETATM    6  C5  UNL     1       1.140  -0.918  -0.110  1.00  0.00     0.267 C 
HETATM    7  C6  UNL     1       2.145   0.213   0.134  1.00  0.00     0.262 C 
HETATM    8  N2  UNL     1       1.378   1.109   0.952  1.00  0.00    -0.049 N 
HETATM    9  C7  UNL     1      -0.012   0.821   0.725  1.00  0.00     0.468 C 
ATOM     10  H22 UNL     1       1.637   1.067   1.938  1.00  0.00     0.279 HD
ATOM     11  H21 UNL     1       1.612   2.089   0.794  1.00  0.00     0.279 HD
ENDBRANCH   3   4
TORSDOF 1
