REMARK  10 active torsions:
REMARK  status: ('A' for Active; 'I' for Inactive)
REMARK    1  A    between atoms: C1_2  and  N1_3 
REMARK    2  A    between atoms: N1_3  and  C2_5 
REMARK    3  A    between atoms: C2_5  and  C3_6 
REMARK    4  A    between atoms: C3_6  and  C4_7 
REMARK    5  A    between atoms: C4_7  and  C5_8 
REMARK    6  A    between atoms: C5_8  and  C6_9 
REMARK    7  A    between atoms: C6_9  and  C7_10 
REMARK    8  A    between atoms: C7_10  and  C8_11 
REMARK    9  A    between atoms: C8_11  and  C9_12 
REMARK   10  A    between atoms: C16_24  and  C17_25 
ROOT
HETATM    1  C9  UNL     1      -0.957  -0.345  -0.018  1.00  0.00     0.176 C 
HETATM    2  N2  UNL     1      -0.981   1.101   0.017  1.00  0.00    -0.346 N 
ATOM      3  H2  UNL     1      -0.099   1.558  -0.215  1.00  0.00     0.163 HD
HETATM    4  C10 UNL     1      -2.030   1.953   0.320  1.00  0.00     0.241 C 
HETATM    5  O2  UNL     1      -1.854   2.765   1.314  1.00  0.00    -0.271 OA
HETATM    6  C11 UNL     1      -3.356   2.100  -0.318  1.00  0.00     0.179 C 
HETATM    7  C12 UNL     1      -3.325   3.375  -1.198  1.00  0.00     0.037 C 
HETATM    8  C13 UNL     1      -3.502   2.853  -2.599  1.00  0.00     0.022 C 
HETATM    9  C14 UNL     1      -3.151   1.390  -2.473  1.00  0.00     0.127 C 
HETATM   10  N3  UNL     1      -3.762   1.072  -1.202  1.00  0.00    -0.337 N 
HETATM   11  C15 UNL     1      -4.612   0.021  -0.818  1.00  0.00     0.250 C 
HETATM   12  O3  UNL     1      -5.101  -0.795  -1.683  1.00  0.00    -0.271 OA
HETATM   13  C16 UNL     1      -5.016  -0.235   0.596  1.00  0.00     0.238 C 
HETATM   14  N4  UNL     1      -5.284  -1.649   0.732  1.00  0.00    -0.341 N 
ATOM     15  H4  UNL     1      -6.238  -1.965   0.556  1.00  0.00     0.163 HD
HETATM   16  C18 UNL     1      -4.325  -2.632   1.091  1.00  0.00     0.236 C 
HETATM   17  O5  UNL     1      -4.719  -3.480   1.974  1.00  0.00    -0.272 OA
HETATM   18  C19 UNL     1      -2.954  -2.725   0.525  1.00  0.00     0.225 C 
HETATM   19  N5  UNL     1      -1.936  -2.227   1.414  1.00  0.00    -0.351 N 
ATOM     20  H5  UNL     1      -1.672  -2.813   2.206  1.00  0.00     0.163 HD
HETATM   21  C20 UNL     1      -1.278  -0.990   1.269  1.00  0.00     0.240 C 
HETATM   22  O6  UNL     1      -0.932  -0.375   2.320  1.00  0.00    -0.271 OA
ENDROOT
BRANCH   1  23
HETATM   23  C8  UNL     1       0.440  -0.846  -0.409  1.00  0.00     0.035 C 
BRANCH  23  24
HETATM   24  C7  UNL     1       1.496  -0.394   0.563  1.00  0.00     0.002 C 
BRANCH  24  25
HETATM   25  C6  UNL     1       2.870  -0.920   0.121  1.00  0.00     0.000 C 
BRANCH  25  26
HETATM   26  C5  UNL     1       3.851  -0.422   1.142  1.00  0.00     0.000 C 
BRANCH  26  27
HETATM   27  C4  UNL     1       5.242  -0.881   0.821  1.00  0.00     0.002 C 
BRANCH  27  28
HETATM   28  C3  UNL     1       5.688  -0.380  -0.510  1.00  0.00     0.020 C 
BRANCH  28  29
HETATM   29  C2  UNL     1       7.094  -0.840  -0.823  1.00  0.00     0.122 C 
BRANCH  29  30
HETATM   30  N1  UNL     1       8.042  -0.360   0.171  1.00  0.00    -0.368 N 
ATOM     31  H1  UNL     1       8.572  -1.044   0.711  1.00  0.00     0.161 HD
BRANCH  30  32
HETATM   32  C1  UNL     1       8.258   1.008   0.419  1.00  0.00     0.348 C 
HETATM   33  O1  UNL     1       7.682   1.947  -0.165  1.00  0.00    -0.284 OA
ENDBRANCH  30  32
ENDBRANCH  29  30
ENDBRANCH  28  29
ENDBRANCH  27  28
ENDBRANCH  26  27
ENDBRANCH  25  26
ENDBRANCH  24  25
ENDBRANCH  23  24
ENDBRANCH   1  23
BRANCH  13  34
HETATM   34  C17 UNL     1      -6.261   0.526   0.928  1.00  0.00     0.266 C 
HETATM   35  O4  UNL     1      -7.274  -0.071   1.248  1.00  0.00    -0.304 OA
ENDBRANCH  13  34
TORSDOF 10
