REMARK  1 active torsions:
REMARK  status: ('A' for Active; 'I' for Inactive)
REMARK    1  A    between atoms: C2_2  and  N1_3 
ROOT
HETATM    1  N1  UNL     1      -0.228  -0.271   0.161  1.00  0.00     0.018 N 
HETATM    2  C3  UNL     1       0.277  -1.645   0.481  1.00  0.00     0.296 A 
HETATM    3  C4  UNL     1       0.777  -0.430   1.161  1.00  0.00     0.240 A 
HETATM    4  C5  UNL     1       2.072   0.120   0.618  1.00  0.00     0.055 C 
HETATM    5  C6  UNL     1       1.741   0.304  -0.847  1.00  0.00     0.145 C 
HETATM    6  N2  UNL     1       0.320   0.271  -0.968  1.00  0.00    -0.046 NA
ENDROOT
BRANCH   1   7
HETATM    7  C2  UNL     1      -1.562  -0.020   0.586  1.00  0.00     0.256 C 
HETATM    8  C1  UNL     1      -2.367   0.911  -0.216  1.00  0.00     0.036 C 
ENDBRANCH   1   7
TORSDOF 1
