REMARK  11 active torsions:
REMARK  status: ('A' for Active; 'I' for Inactive)
REMARK    1  A    between atoms: N1_2  and  C2_4 
REMARK       I    between atoms: N1_2  and  C13_24 
REMARK    2  A    between atoms: C2_4  and  C3_5 
REMARK    3  A    between atoms: C3_5  and  N2_6 
REMARK       I    between atoms: N2_6  and  C4_8 
REMARK    4  A    between atoms: C4_8  and  C5_10 
REMARK       I    between atoms: N3_13  and  C8_14 
REMARK    5  A    between atoms: C8_14  and  C9_16 
REMARK    6  A    between atoms: C9_16  and  O4_17 
REMARK    7  A    between atoms: C9_16  and  C10_19 
REMARK    8  A    between atoms: C10_19  and  O5_20 
REMARK    9  A    between atoms: C13_24  and  C14_26 
REMARK   10  A    between atoms: C14_26  and  C15_27 
REMARK   11  A    between atoms: C15_27  and  S1_28 
ROOT
HETATM    1  N2  UNL     1       1.162   0.574   0.741  1.00  0.00    -0.335 N 
ATOM      2  H2  UNL     1       2.033   0.233   1.148  1.00  0.00     0.168 HD
HETATM    3  C4  UNL     1       1.367   1.230  -0.481  1.00  0.00     0.225 C 
HETATM    4  O2  UNL     1       0.466   1.746  -1.145  1.00  0.00    -0.273 OA
ENDROOT
BRANCH   1   5
HETATM    5  C3  UNL     1       0.058   0.276   1.531  1.00  0.00     0.125 C 
BRANCH   5   6
HETATM    6  C2  UNL     1      -1.006  -0.669   1.200  1.00  0.00     0.301 C 
BRANCH   6   7
HETATM    7  N1  UNL     1      -1.889  -0.499   0.105  1.00  0.00     0.100 N 
HETATM    8  C1  UNL     1      -1.404  -1.130  -1.127  1.00  0.00     0.374 C 
HETATM    9  O1  UNL     1      -2.317   0.755  -0.072  1.00  0.00    -0.052 OA
HETATM   10  C13 UNL     1      -3.132  -1.251   0.403  1.00  0.00     0.383 C 
HETATM   11  O6  UNL     1      -2.975  -2.384   0.760  1.00  0.00    -0.255 OA
BRANCH  10  12
HETATM   12  C14 UNL     1      -4.466  -0.657   0.271  1.00  0.00     0.131 C 
BRANCH  12  13
HETATM   13  C15 UNL     1      -5.489  -1.698   0.647  1.00  0.00     0.073 C 
BRANCH  13  14
HETATM   14  S1  UNL     1      -7.140  -1.131   0.539  1.00  0.00    -0.219 SA
HETATM   15  C16 UNL     1      -7.511  -0.615  -1.144  1.00  0.00     0.063 C 
HETATM   16  C17 UNL     1      -8.169   0.723  -0.888  1.00  0.00     0.010 C 
HETATM   17  C18 UNL     1      -7.408   1.388   0.222  1.00  0.00     0.010 C 
HETATM   18  C19 UNL     1      -7.412   0.401   1.389  1.00  0.00     0.063 C 
ENDBRANCH  13  14
ENDBRANCH  12  13
ENDBRANCH  10  12
ENDBRANCH   6   7
ENDBRANCH   5   6
ENDBRANCH   1   5
BRANCH   3  19
HETATM   19  C5  UNL     1       2.788   1.327  -1.050  1.00  0.00     0.081 C 
HETATM   20  C6  UNL     1       3.260  -0.074  -1.229  1.00  0.00     0.034 C 
HETATM   21  C7  UNL     1       4.734  -0.282  -1.151  1.00  0.00     0.127 C 
HETATM   22  N3  UNL     1       5.460   0.682  -0.389  1.00  0.00    -0.350 N 
HETATM   23  C8  UNL     1       6.560   0.381   0.454  1.00  0.00     0.250 C 
HETATM   24  C11 UNL     1       5.022   2.080  -0.501  1.00  0.00     0.127 C 
HETATM   25  O3  UNL     1       7.123   1.332   1.098  1.00  0.00    -0.270 OA
HETATM   26  C12 UNL     1       3.580   2.108  -0.042  1.00  0.00     0.034 C 
BRANCH  23  27
HETATM   27  C9  UNL     1       7.062  -0.995   0.600  1.00  0.00     0.233 C 
BRANCH  27  28
HETATM   28  O4  UNL     1       8.100  -0.989   1.570  1.00  0.00    -0.384 OA
ATOM     29  H4  UNL     1       8.424  -1.877   1.664  1.00  0.00     0.210 HD
ENDBRANCH  27  28
BRANCH  27  30
HETATM   30  C10 UNL     1       7.742  -1.514  -0.659  1.00  0.00     0.205 C 
BRANCH  30  31
HETATM   31  O5  UNL     1       8.782  -0.694  -1.047  1.00  0.00    -0.398 OA
ATOM     32  H5  UNL     1       9.206  -1.018  -1.833  1.00  0.00     0.209 HD
ENDBRANCH  30  31
ENDBRANCH  27  30
ENDBRANCH  23  27
ENDBRANCH   3  19
TORSDOF 11
