REMARK  11 active torsions:
REMARK  status: ('A' for Active; 'I' for Inactive)
REMARK    1  A    between atoms: C4_4  and  O1_5 
REMARK    2  A    between atoms: O1_5  and  C5_6 
REMARK       I    between atoms: C5_6  and  N1_8 
REMARK    3  A    between atoms: N1_8  and  N2_10 
REMARK    4  A    between atoms: N2_10  and  O3_11 
REMARK    5  A    between atoms: N2_10  and  C6_13 
REMARK    6  A    between atoms: C6_13  and  C7_14 
REMARK    7  A    between atoms: C7_14  and  O4_15 
REMARK    8  A    between atoms: C7_14  and  C8_17 
REMARK    9  A    between atoms: C10_21  and  C11_22 
REMARK   10  A    between atoms: C11_22  and  O5_23 
REMARK   11  A    between atoms: N3_25  and  O6_27 
ROOT
HETATM    1  O1  UNL     1      -0.054  -0.437  -0.138  1.00  0.00    -0.297 OA
ENDROOT
BRANCH   1   2
HETATM    2  C4  UNL     1      -1.445  -0.267   0.044  1.00  0.00     0.139 C 
HETATM    3  C3  UNL     1      -1.967  -1.104   1.185  1.00  0.00     0.064 C 
HETATM    4  C2  UNL     1      -3.452  -1.229   1.207  1.00  0.00     0.121 C 
HETATM    5  C1  UNL     1      -4.051  -0.070   2.002  1.00  0.00     0.040 C 
HETATM    6  O7  UNL     1      -4.087  -1.306   0.031  1.00  0.00    -0.373 OA
HETATM    7  C10 UNL     1      -3.548  -0.889  -1.124  1.00  0.00     0.200 C 
HETATM    8  C9  UNL     1      -2.094  -0.699  -1.237  1.00  0.00     0.073 C 
BRANCH   7   9
HETATM    9  C11 UNL     1      -4.328   0.301  -1.655  1.00  0.00     0.165 C 
HETATM   10  N3  UNL     1      -5.243   0.842  -0.934  1.00  0.00    -0.249 N 
ATOM     11  H3  UNL     1      -5.443   0.470  -0.006  1.00  0.00     0.196 HD
BRANCH   9  12
HETATM   12  O5  UNL     1      -4.082   0.832  -2.911  1.00  0.00    -0.346 OA
ATOM     13  H5  UNL     1      -4.570   1.576  -3.243  1.00  0.00     0.219 HD
ENDBRANCH   9  12
BRANCH  10  14
HETATM   14  O6  UNL     1      -5.947   1.908  -1.400  1.00  0.00    -0.288 OA
ATOM     15  H6  UNL     1      -6.624   2.308  -0.867  1.00  0.00     0.244 HD
ENDBRANCH  10  14
ENDBRANCH   7   9
ENDBRANCH   1   2
BRANCH   1  16
HETATM   16  C5  UNL     1       0.912   0.521  -0.032  1.00  0.00     0.377 C 
HETATM   17  O2  UNL     1       0.539   1.680   0.266  1.00  0.00    -0.237 OA
HETATM   18  N1  UNL     1       2.294   0.282  -0.233  1.00  0.00    -0.241 N 
ATOM     19  H1  UNL     1       2.604  -0.656  -0.486  1.00  0.00     0.188 HD
BRANCH  18  20
HETATM   20  N2  UNL     1       3.217   1.269  -0.098  1.00  0.00    -0.101 NA
BRANCH  20  21
HETATM   21  O3  UNL     1       3.168   1.883   1.119  1.00  0.00    -0.293 OA
ATOM     22  H3  UNL     1       3.814   2.573   1.213  1.00  0.00     0.239 HD
ENDBRANCH  20  21
BRANCH  20  23
HETATM   23  C6  UNL     1       4.565   1.001  -0.431  1.00  0.00     0.183 C 
BRANCH  23  24
HETATM   24  C7  UNL     1       5.207  -0.039   0.412  1.00  0.00     0.200 C 
BRANCH  24  25
HETATM   25  O4  UNL     1       4.624  -1.284   0.349  1.00  0.00    -0.389 OA
ATOM     26  H4  UNL     1       5.035  -1.949   0.888  1.00  0.00     0.210 HD
ENDBRANCH  24  25
BRANCH  24  27
HETATM   27  C8  UNL     1       6.650  -0.195  -0.062  1.00  0.00     0.382 C 
HETATM   28  F1  UNL     1       7.332   0.989   0.067  1.00  0.00    -0.212 F 
HETATM   29  F2  UNL     1       7.275  -1.238   0.568  1.00  0.00    -0.212 F 
ENDBRANCH  24  27
ENDBRANCH  23  24
ENDBRANCH  20  23
ENDBRANCH  18  20
ENDBRANCH   1  16
TORSDOF 11
