REMARK  8 active torsions:
REMARK  status: ('A' for Active; 'I' for Inactive)
REMARK    1  A    between atoms: C4_4  and  C5_5 
REMARK    2  A    between atoms: C5_5  and  N1_6 
REMARK    3  A    between atoms: C5_5  and  C9_22 
REMARK    4  A    between atoms: N1_6  and  C6_7 
REMARK    5  A    between atoms: C7_10  and  N3_11 
REMARK    6  A    between atoms: C8_16  and  N5_17 
REMARK    7  A    between atoms: C13_30  and  N8_31 
REMARK    8  A    between atoms: N10_37  and  O6_38 
ROOT
HETATM    1  C1  UNL     1      -1.834  -2.755  -0.638  1.00  0.00     0.055 C 
HETATM    2  C2  UNL     1      -2.309  -1.612   0.098  1.00  0.00     0.021 C 
HETATM    3  C3  UNL     1      -1.542  -0.483  -0.146  1.00  0.00     0.004 C 
HETATM    4  C4  UNL     1      -0.166  -0.460  -0.316  1.00  0.00     0.037 C 
HETATM    5  C10 UNL     1      -2.182   0.788  -0.095  1.00  0.00     0.080 A 
HETATM    6  C11 UNL     1      -1.809   1.832  -0.871  1.00  0.00     0.036 A 
HETATM    7  C12 UNL     1      -0.722   1.800  -1.846  1.00  0.00     0.070 C 
HETATM    8  N7  UNL     1      -2.639   2.864  -0.552  1.00  0.00    -0.324 N 
ATOM      9  H7  UNL     1      -2.608   3.794  -0.969  1.00  0.00     0.169 HD
HETATM   10  C13 UNL     1      -3.524   2.461   0.417  1.00  0.00     0.261 A 
HETATM   11  N9  UNL     1      -3.246   1.189   0.703  1.00  0.00    -0.225 N 
HETATM   12  C14 UNL     1      -3.832   0.429   1.632  1.00  0.00     0.363 C 
HETATM   13  O5  UNL     1      -4.156   1.099   2.649  1.00  0.00    -0.243 OA
HETATM   14  N10 UNL     1      -4.096  -0.886   1.606  1.00  0.00    -0.133 N 
HETATM   15  C15 UNL     1      -3.434  -1.788   0.911  1.00  0.00     0.282 C 
HETATM   16  O7  UNL     1      -3.845  -2.961   0.971  1.00  0.00    -0.265 OA
ENDROOT
BRANCH   4  17
HETATM   17  C5  UNL     1       0.938  -0.887  -1.149  1.00  0.00     0.291 C 
BRANCH  17  18
HETATM   18  N1  UNL     1       2.152  -0.397  -0.693  1.00  0.00    -0.394 NA
BRANCH  18  19
HETATM   19  C6  UNL     1       3.168   0.009  -0.293  1.00  0.00     0.283 A 
HETATM   20  N2  UNL     1       4.105   0.664  -1.071  1.00  0.00    -0.148 N 
HETATM   21  C7  UNL     1       5.259   1.119  -0.598  1.00  0.00     0.694 A 
ATOM     22  H2  UNL     1       3.899   0.805  -2.060  1.00  0.00     0.188 HD
HETATM   23  N4  UNL     1       5.558   0.948   0.700  1.00  0.00    -0.023 N 
HETATM   24  C8  UNL     1       4.684   0.317   1.509  1.00  0.00     0.694 A 
ATOM     25  H4  UNL     1       6.442   1.294   1.072  1.00  0.00     0.203 HD
HETATM   26  N6  UNL     1       3.532  -0.135   1.027  1.00  0.00    -0.148 N 
ATOM     27  H6  UNL     1       2.890  -0.609   1.662  1.00  0.00     0.188 HD
BRANCH  21  28
HETATM   28  N3  UNL     1       6.114   1.733  -1.374  1.00  0.00    -0.234 N 
ATOM     29  H32 UNL     1       5.887   1.863  -2.360  1.00  0.00     0.174 HD
ATOM     30  H31 UNL     1       7.001   2.083  -1.011  1.00  0.00     0.174 HD
ENDBRANCH  21  28
BRANCH  24  31
HETATM   31  N5  UNL     1       4.969   0.150   2.763  1.00  0.00    -0.234 N 
ATOM     32  H52 UNL     1       5.854   0.497   3.133  1.00  0.00     0.174 HD
ATOM     33  H51 UNL     1       4.308  -0.328   3.375  1.00  0.00     0.174 HD
ENDBRANCH  24  31
ENDBRANCH  18  19
ENDBRANCH  17  18
BRANCH  17  34
HETATM   34  C9  UNL     1       1.372  -2.362  -1.039  1.00  0.00     0.214 C 
HETATM   35  O1  UNL     1       1.821  -2.756   0.043  1.00  0.00    -0.645 OA
HETATM   36  O2  UNL     1       1.246  -3.184  -2.158  1.00  0.00    -0.645 OA
ENDBRANCH  17  34
ENDBRANCH   4  17
BRANCH  14  37
HETATM   37  O6  UNL     1      -5.149  -1.261   2.396  1.00  0.00    -0.276 OA
ATOM     38  H6  UNL     1      -5.336  -2.192   2.378  1.00  0.00     0.245 HD
ENDBRANCH  14  37
BRANCH  10  39
HETATM   39  N8  UNL     1      -4.522   3.277   0.965  1.00  0.00    -0.078 N 
HETATM   40  O3  UNL     1      -4.521   4.482   0.531  1.00  0.00    -0.529 OA
HETATM   41  O4  UNL     1      -5.484   3.044   1.874  1.00  0.00    -0.529 OA
ENDBRANCH  10  39
TORSDOF 8
