REMARK  2 active torsions:
REMARK  status: ('A' for Active; 'I' for Inactive)
REMARK    1  A    between atoms: C2_3  and  N2_4 
REMARK       I    between atoms: N2_4  and  C3_6 
REMARK    2  A    between atoms: C3_6  and  C4_8 
ROOT
HETATM    1  N1  UNL     1       3.308  -0.539   3.275  1.00  0.00    -0.195 NA
HETATM    2  C1  UNL     1       2.976  -0.275   2.200  1.00  0.00     0.091 C 
HETATM    3  C2  UNL     1       2.554   0.043   0.811  1.00  0.00     0.122 C 
HETATM    4  C10 UNL     1       3.169  -0.957  -0.090  1.00  0.00     0.046 C 
HETATM    5  C11 UNL     1       4.168  -0.386  -1.073  1.00  0.00     0.004 C 
HETATM    6  C12 UNL     1       5.113   0.468  -0.277  1.00  0.00     0.000 C 
HETATM    7  C13 UNL     1       4.359   1.688   0.161  1.00  0.00     0.004 C 
HETATM    8  C14 UNL     1       2.965   1.461   0.574  1.00  0.00     0.046 C 
ENDROOT
BRANCH   3   9
HETATM    9  N2  UNL     1       1.120  -0.106   0.775  1.00  0.00    -0.333 N 
HETATM   10  C3  UNL     1       0.336   0.086  -0.379  1.00  0.00     0.276 C 
HETATM   11  O1  UNL     1       0.856   0.401  -1.464  1.00  0.00    -0.265 OA
ATOM     12  H2  UNL     1       0.644  -0.367   1.639  1.00  0.00     0.164 HD
BRANCH  10  13
HETATM   13  C4  UNL     1      -1.138  -0.076  -0.367  1.00  0.00     0.144 A 
HETATM   14  N3  UNL     1      -1.918  -0.401   0.641  1.00  0.00    -0.332 N 
HETATM   15  C5  UNL     1      -3.212  -0.497   0.457  1.00  0.00     0.115 A 
ATOM     16  H3  UNL     1      -1.517  -0.578   1.562  1.00  0.00     0.168 HD
HETATM   17  C6  UNL     1      -3.681  -0.246  -0.804  1.00  0.00     0.029 A 
HETATM   18  N4  UNL     1      -4.186  -0.846   1.479  1.00  0.00    -0.375 N 
HETATM   19  S1  UNL     1      -2.246   0.112  -1.653  1.00  0.00    -0.068 SA
HETATM   20  C7  UNL     1      -5.143  -0.313  -1.177  1.00  0.00     0.052 C 
HETATM   21  C8  UNL     1      -5.874   0.126   0.090  1.00  0.00     0.025 C 
HETATM   22  C9  UNL     1      -5.560  -0.946   1.113  1.00  0.00     0.121 C 
ATOM     23  H4  UNL     1      -3.891  -1.016   2.441  1.00  0.00     0.161 HD
ENDBRANCH  10  13
ENDBRANCH   3   9
TORSDOF 2
