REMARK  9 active torsions:
REMARK  status: ('A' for Active; 'I' for Inactive)
REMARK    1  A    between atoms: C2_2  and  N1_5 
REMARK       I    between atoms: N1_5  and  C5_7 
REMARK       I    between atoms: C5_7  and  N2_9 
REMARK    2  A    between atoms: N3_12  and  C8_13 
REMARK    3  A    between atoms: C8_13  and  O2_14 
REMARK    4  A    between atoms: C8_13  and  N4_16 
REMARK       I    between atoms: N5_19  and  C11_20 
REMARK    5  A    between atoms: C11_20  and  C12_22 
REMARK    6  A    between atoms: C12_22  and  N6_23 
REMARK    7  A    between atoms: C13_27  and  C14_28 
REMARK       I    between atoms: C14_28  and  N7_30 
REMARK    8  A    between atoms: N7_30  and  C15_32 
REMARK    9  A    between atoms: C15_32  and  C16_33 
ROOT
HETATM    1  N4  UNL     1      -1.274  -0.845   1.114  1.00  0.00    -0.344 N 
HETATM    2  C9  UNL     1      -1.686   0.334   0.418  1.00  0.00     0.146 C 
HETATM    3  C10 UNL     1      -2.675  -0.139  -0.648  1.00  0.00     0.147 C 
HETATM    4  N5  UNL     1      -3.675  -0.930   0.006  1.00  0.00    -0.334 N 
HETATM    5  C11 UNL     1      -4.713  -1.472  -0.781  1.00  0.00     0.246 C 
HETATM    6  O3  UNL     1      -5.602  -2.164  -0.251  1.00  0.00    -0.272 OA
HETATM    7  C13 UNL     1      -3.677  -1.202   1.426  1.00  0.00     0.197 C 
HETATM    8  C17 UNL     1      -2.320  -1.365   2.029  1.00  0.00     0.161 C 
ENDROOT
BRANCH   1   9
HETATM    9  C8  UNL     1      -0.049  -1.504   0.983  1.00  0.00     0.217 C 
BRANCH   9  10
HETATM   10  N3  UNL     1       1.067  -1.289   0.185  1.00  0.00    -0.344 N 
HETATM   11  C7  UNL     1       2.230  -2.216   0.355  1.00  0.00     0.146 C 
HETATM   12  C6  UNL     1       3.511  -1.440   0.280  1.00  0.00     0.147 C 
HETATM   13  N2  UNL     1       3.541  -0.544  -0.866  1.00  0.00    -0.331 N 
HETATM   14  C5  UNL     1       4.671   0.261  -1.154  1.00  0.00     0.319 C 
HETATM   15  C19 UNL     1       2.385  -0.495  -1.710  1.00  0.00     0.147 C 
HETATM   16  N1  UNL     1       5.804   0.217  -0.332  1.00  0.00    -0.335 N 
HETATM   17  O1  UNL     1       4.642   1.028  -2.175  1.00  0.00    -0.247 OA
ATOM     18  H1  UNL     1       5.795  -0.404   0.477  1.00  0.00     0.165 HD
HETATM   19  C18 UNL     1       1.175  -0.254  -0.798  1.00  0.00     0.146 C 
BRANCH  16  20
HETATM   20  C2  UNL     1       6.997   1.021  -0.582  1.00  0.00     0.023 C 
HETATM   21  C1  UNL     1       8.042   0.768   0.464  1.00  0.00     0.037 C 
HETATM   22  C3  UNL     1       7.595   0.634  -1.941  1.00  0.00     0.037 C 
HETATM   23  C4  UNL     1       6.625   2.482  -0.652  1.00  0.00     0.037 C 
ENDBRANCH  16  20
ENDBRANCH   9  10
BRANCH   9  24
HETATM   24  O2  UNL     1       0.075  -2.547   1.781  1.00  0.00    -0.333 OA
ATOM     25  H2  UNL     1      -0.688  -2.694   2.327  1.00  0.00     0.220 HD
ENDBRANCH   9  24
ENDBRANCH   1   9
BRANCH   7  26
HETATM   26  C14 UNL     1      -4.565  -0.262   2.156  1.00  0.00     0.242 C 
HETATM   27  O4  UNL     1      -4.651  -0.344   3.406  1.00  0.00    -0.271 OA
HETATM   28  N7  UNL     1      -5.325   0.731   1.489  1.00  0.00    -0.351 N 
ATOM     29  H7  UNL     1      -5.277   0.823   0.474  1.00  0.00     0.163 HD
BRANCH  28  30
HETATM   30  C15 UNL     1      -6.168   1.610   2.264  1.00  0.00     0.222 C 
BRANCH  30  31
HETATM   31  C16 UNL     1      -6.885   2.580   1.405  1.00  0.00     0.248 C 
HETATM   32  N8  UNL     1      -7.771   3.538   1.965  1.00  0.00    -0.061 NA
HETATM   33  O5  UNL     1      -6.714   2.563   0.158  1.00  0.00    -0.275 OA
ENDBRANCH  30  31
ENDBRANCH  28  30
ENDBRANCH   7  26
BRANCH   5  34
HETATM   34  C12 UNL     1      -4.745  -1.220  -2.230  1.00  0.00     0.332 C 
BRANCH  34  35
HETATM   35  N6  UNL     1      -5.872  -1.850  -2.883  1.00  0.00    -0.071 N 
ATOM     36  H63 UNL     1      -5.897  -2.850  -2.685  1.00  0.00     0.274 HD
ATOM     37  H62 UNL     1      -6.750  -1.573  -2.444  1.00  0.00     0.274 HD
ATOM     38  H61 UNL     1      -5.894  -1.675  -3.888  1.00  0.00     0.274 HD
ENDBRANCH  34  35
ENDBRANCH   5  34
TORSDOF 9
