REMARK  10 active torsions:
REMARK  status: ('A' for Active; 'I' for Inactive)
REMARK    1  A    between atoms: C2_2  and  C3_3 
REMARK    2  A    between atoms: C3_3  and  N1_4 
REMARK    3  A    between atoms: N1_4  and  C4_5 
REMARK    4  A    between atoms: N1_4  and  C8_12 
REMARK    5  A    between atoms: C4_5  and  C5_6 
REMARK    6  A    between atoms: C9_13  and  C10_14 
REMARK    7  A    between atoms: C16_24  and  C17_25 
REMARK    8  A    between atoms: C17_25  and  C18_26 
REMARK    9  A    between atoms: C18_26  and  C19_27 
REMARK   10  A    between atoms: C19_27  and  N5_28 
ROOT
HETATM    1  C8  UNL     1      -2.093  -0.239  -1.069  1.00  0.00     0.115 C 
HETATM    2  C9  UNL     1      -2.693  -1.601  -0.963  1.00  0.00     0.099 C 
HETATM    3  C11 UNL     1      -2.106  -2.535  -1.999  1.00  0.00     0.017 C 
HETATM    4  C12 UNL     1      -0.647  -2.445  -2.195  1.00  0.00     0.017 C 
HETATM    5  C13 UNL     1      -0.059  -1.052  -2.078  1.00  0.00     0.103 C 
HETATM    6  C14 UNL     1       1.393  -1.139  -2.155  1.00  0.00     0.226 C 
HETATM    7  O3  UNL     1       1.875  -0.972  -3.325  1.00  0.00    -0.273 OA
HETATM    8  N4  UNL     1       2.441  -1.377  -1.193  1.00  0.00    -0.343 N 
HETATM    9  C15 UNL     1       3.572  -2.161  -1.645  1.00  0.00     0.153 C 
HETATM   10  C16 UNL     1       2.400  -0.882   0.170  1.00  0.00     0.178 C 
HETATM   11  C21 UNL     1       1.107  -1.191   0.814  1.00  0.00     0.241 C 
HETATM   12  O4  UNL     1       1.183  -1.638   1.991  1.00  0.00    -0.271 OA
HETATM   13  N8  UNL     1      -0.227  -1.070   0.331  1.00  0.00    -0.352 N 
ATOM     14  H8  UNL     1      -0.968  -1.531   0.859  1.00  0.00     0.163 HD
HETATM   15  C22 UNL     1      -0.598  -0.340  -0.853  1.00  0.00     0.120 C 
ENDROOT
BRANCH   1  16
HETATM   16  N1  UNL     1      -2.738   0.796  -0.341  1.00  0.00    -0.400 N 
BRANCH  16  17
HETATM   17  C3  UNL     1      -2.427   2.124  -0.760  1.00  0.00     0.144 C 
BRANCH  17  18
HETATM   18  C2  UNL     1      -2.384   2.248  -2.239  1.00  0.00    -0.018 C 
HETATM   19  C1  UNL     1      -1.299   2.640  -2.891  1.00  0.00     0.008 C 
ENDBRANCH  17  18
ENDBRANCH  16  17
BRANCH  16  20
HETATM   20  C4  UNL     1      -2.832   0.609   1.063  1.00  0.00     0.143 C 
BRANCH  20  21
HETATM   21  C5  UNL     1      -3.998   1.308   1.718  1.00  0.00     0.110 C 
HETATM   22  C6  UNL     1      -4.001   1.041   3.230  1.00  0.00     0.129 C 
HETATM   23  C7  UNL     1      -5.468   0.943   3.082  1.00  0.00     0.220 C 
HETATM   24  O1  UNL     1      -6.433   1.079   3.885  1.00  0.00    -0.274 OA
HETATM   25  N2  UNL     1      -5.258   0.644   1.704  1.00  0.00    -0.354 N 
ATOM     26  H2  UNL     1      -5.796   0.151   0.991  1.00  0.00     0.162 HD
ENDBRANCH  20  21
ENDBRANCH  16  20
ENDBRANCH   1  16
BRANCH   2  27
HETATM   27  C10 UNL     1      -4.161  -1.580  -1.278  1.00  0.00     0.237 C 
HETATM   28  N3  UNL     1      -4.957  -2.753  -1.223  1.00  0.00    -0.062 NA
HETATM   29  O2  UNL     1      -4.673  -0.492  -1.595  1.00  0.00    -0.276 OA
ENDBRANCH   2  27
BRANCH  10  30
HETATM   30  C17 UNL     1       2.801   0.547   0.319  1.00  0.00     0.037 C 
BRANCH  30  31
HETATM   31  C18 UNL     1       4.186   0.892  -0.100  1.00  0.00     0.022 C 
BRANCH  31  32
HETATM   32  C19 UNL     1       5.277   0.202   0.668  1.00  0.00     0.122 C 
BRANCH  32  33
HETATM   33  N5  UNL     1       5.218   0.516   2.088  1.00  0.00    -0.367 N 
HETATM   34  C20 UNL     1       5.680   1.567   2.609  1.00  0.00     0.196 C 
HETATM   35  N6  UNL     1       5.576   1.785   4.002  1.00  0.00    -0.067 NA
HETATM   36  N7  UNL     1       6.311   2.549   1.810  1.00  0.00    -0.067 NA
ATOM     37  H5  UNL     1       4.771  -0.162   2.705  1.00  0.00     0.161 HD
ENDBRANCH  32  33
ENDBRANCH  31  32
ENDBRANCH  30  31
ENDBRANCH  10  30
TORSDOF 10
