REMARK  12 active torsions:
REMARK  status: ('A' for Active; 'I' for Inactive)
REMARK    1  A    between atoms: C3_3  and  N1_4 
REMARK    2  A    between atoms: C6_7  and  N2_8 
REMARK    3  A    between atoms: N2_8  and  C7_11 
REMARK    4  A    between atoms: C7_11  and  C8_12 
REMARK    5  A    between atoms: C8_12  and  C9_14 
REMARK    6  A    between atoms: C9_14  and  C10_15 
REMARK    7  A    between atoms: C12_19  and  N4_20 
REMARK    8  A    between atoms: C14_29  and  C15_30 
REMARK    9  A    between atoms: C15_30  and  C16_31 
REMARK   10  A    between atoms: C16_31  and  C17_32 
REMARK   11  A    between atoms: C17_32  and  N7_33 
REMARK   12  A    between atoms: C21_41  and  C22_42 
ROOT
HETATM    1  C1  UNL     1      -1.958  -5.507  -0.172  1.00  0.00     0.014 C 
HETATM    2  C2  UNL     1      -1.440  -4.704  -0.911  1.00  0.00    -0.098 C 
HETATM    3  C3  UNL     1      -0.781  -3.714  -1.800  1.00  0.00     0.215 C 
ENDROOT
BRANCH   3   4
HETATM    4  N1  UNL     1      -1.054  -2.392  -1.301  1.00  0.00    -0.377 N 
HETATM    5  C4  UNL     1      -2.462  -2.039  -1.478  1.00  0.00     0.150 C 
HETATM    6  C5  UNL     1      -0.207  -1.598  -0.763  1.00  0.00     0.057 C 
HETATM    7  C6  UNL     1      -0.828  -0.270  -0.344  1.00  0.00     0.325 C 
HETATM    8  C21 UNL     1       1.196  -2.006  -0.623  1.00  0.00     0.244 C 
HETATM    9  C13 UNL     1       0.283   0.548   0.205  1.00  0.00     0.259 C 
HETATM   10  O2  UNL     1       0.124   1.067   1.371  1.00  0.00    -0.270 OA
HETATM   11  N6  UNL     1       1.522   0.831  -0.408  1.00  0.00    -0.308 N 
HETATM   12  C14 UNL     1       2.472   0.037  -1.127  1.00  0.00     0.187 C 
ATOM     13  H6  UNL     1       1.800   1.809  -0.320  1.00  0.00     0.170 HD
HETATM   14  N10 UNL     1       2.108  -1.287  -1.467  1.00  0.00    -0.024 N 
HETATM   15  C19 UNL     1       1.490  -1.302  -2.822  1.00  0.00     0.281 C 
HETATM   16  C20 UNL     1       3.265  -2.173  -1.685  1.00  0.00     0.281 C 
BRANCH   7  17
HETATM   17  N2  UNL     1      -1.964  -0.402   0.485  1.00  0.00    -0.051 N 
ATOM     18  H22 UNL     1      -2.607  -1.107   0.125  1.00  0.00     0.279 HD
ATOM     19  H21 UNL     1      -1.727  -0.842   1.374  1.00  0.00     0.279 HD
BRANCH  17  20
HETATM   20  C7  UNL     1      -2.622   0.853   0.683  1.00  0.00     0.312 C 
BRANCH  20  21
HETATM   21  C8  UNL     1      -3.989   0.727   1.279  1.00  0.00     0.158 C 
HETATM   22  O1  UNL     1      -4.568  -0.320   1.221  1.00  0.00    -0.296 OA
BRANCH  21  23
HETATM   23  C9  UNL     1      -4.599   1.896   1.929  1.00  0.00     0.139 C 
BRANCH  23  24
HETATM   24  C10 UNL     1      -5.614   2.566   1.085  1.00  0.00     0.049 A 
HETATM   25  C11 UNL     1      -5.364   3.715   0.301  1.00  0.00     0.132 A 
HETATM   26  N3  UNL     1      -6.482   4.083  -0.338  1.00  0.00    -0.200 N 
HETATM   27  C12 UNL     1      -7.443   3.200   0.013  1.00  0.00     0.675 A 
ATOM     28  H3  UNL     1      -6.588   4.878  -0.969  1.00  0.00     0.183 HD
HETATM   29  N5  UNL     1      -6.906   2.300   0.864  1.00  0.00    -0.194 N 
ATOM     30  H5  UNL     1      -7.417   1.522   1.282  1.00  0.00     0.184 HD
BRANCH  27  31
HETATM   31  N4  UNL     1      -8.649   3.252  -0.417  1.00  0.00    -0.234 N 
ATOM     32  H42 UNL     1      -9.055   3.932  -1.060  1.00  0.00     0.174 HD
ATOM     33  H41 UNL     1      -9.374   2.586  -0.152  1.00  0.00     0.174 HD
ENDBRANCH  27  31
ENDBRANCH  23  24
ENDBRANCH  21  23
ENDBRANCH  20  21
ENDBRANCH  17  20
ENDBRANCH   7  17
BRANCH  12  34
HETATM   34  C15 UNL     1       3.912   0.302  -0.841  1.00  0.00     0.089 C 
BRANCH  34  35
HETATM   35  C16 UNL     1       4.471   0.160   0.501  1.00  0.00     0.052 C 
BRANCH  35  36
HETATM   36  C17 UNL     1       3.957   1.015   1.601  1.00  0.00     0.063 C 
BRANCH  36  37
HETATM   37  N7  UNL     1       4.071   2.404   1.499  1.00  0.00    -0.347 N 
HETATM   38  C18 UNL     1       4.935   3.221   1.135  1.00  0.00     0.200 C 
HETATM   39  N8  UNL     1       6.243   2.937   0.649  1.00  0.00    -0.067 NA
HETATM   40  N9  UNL     1       4.608   4.619   1.204  1.00  0.00    -0.067 NA
ATOM     41  H7  UNL     1       3.218   2.873   1.805  1.00  0.00     0.167 HD
ENDBRANCH  36  37
ENDBRANCH  35  36
ENDBRANCH  34  35
ENDBRANCH  12  34
BRANCH   8  42
HETATM   42  C22 UNL     1       1.702  -2.111   0.796  1.00  0.00     0.035 C 
HETATM   43  C23 UNL     1       0.925  -3.114   1.634  1.00  0.00     0.007 C 
ENDBRANCH   8  42
ENDBRANCH   3   4
TORSDOF 12
