REMARK  3 active torsions:
REMARK  status: ('A' for Active; 'I' for Inactive)
REMARK    1  A    between atoms: C2_2  and  C7_18 
REMARK    2  A    between atoms: N1_3  and  N2_5 
REMARK    3  A    between atoms: N2_5  and  C3_7 
ROOT
HETATM    1  C3  UNL     1      -0.575  -0.597  -0.282  1.00  0.00     0.702 C 
HETATM    2  N3  UNL     1      -0.745  -1.087   0.899  1.00  0.00    -0.115 N 
ATOM      3  H3  UNL     1       0.037  -1.539   1.373  1.00  0.00     0.197 HD
HETATM    4  S1  UNL     1      -2.265  -0.989   1.682  1.00  0.00     0.246 S 
HETATM    5  O1  UNL     1      -2.281   0.020   2.795  1.00  0.00    -0.205 OA
HETATM    6  O2  UNL     1      -2.645  -2.320   2.308  1.00  0.00    -0.205 OA
HETATM    7  C4  UNL     1      -3.473  -0.574   0.449  1.00  0.00     0.189 C 
HETATM    8  C5  UNL     1      -2.860   0.484  -0.440  1.00  0.00     0.111 C 
HETATM    9  C6  UNL     1      -2.582   1.762   0.318  1.00  0.00     0.034 C 
HETATM   10  N4  UNL     1      -1.604   0.046  -1.009  1.00  0.00    -0.219 N 
ATOM     11  H4  UNL     1      -1.450   0.212  -2.003  1.00  0.00     0.178 HD
ENDROOT
BRANCH   1  12
HETATM   12  N2  UNL     1       0.728  -0.714  -0.880  1.00  0.00    -0.131 N 
ATOM     13  H2  UNL     1       0.904  -1.479  -1.532  1.00  0.00     0.205 HD
BRANCH  12  14
HETATM   14  N1  UNL     1       1.750   0.173  -0.602  1.00  0.00    -0.286 N 
HETATM   15  C2  UNL     1       2.960  -0.288  -0.500  1.00  0.00     0.087 C 
HETATM   16  C1  UNL     1       3.241  -1.740  -0.679  1.00  0.00     0.075 C 
ATOM     17  H1  UNL     1       1.559   1.167  -0.480  1.00  0.00     0.187 HD
BRANCH  15  18
HETATM   18  C7  UNL     1       4.030   0.647  -0.208  1.00  0.00     0.278 C 
HETATM   19  N5  UNL     1       3.737   2.020  -0.042  1.00  0.00    -0.056 NA
HETATM   20  O3  UNL     1       5.198   0.201  -0.110  1.00  0.00    -0.270 OA
ENDBRANCH  15  18
ENDBRANCH  12  14
ENDBRANCH   1  12
TORSDOF 3
