REMARK  20 active torsions:
REMARK  status: ('A' for Active; 'I' for Inactive)
REMARK    1  A    between atoms: C2_2  and  C15_42 
REMARK    2  A    between atoms: C5_5  and  O1_6 
REMARK    3  A    between atoms: C5_5  and  C6_8 
REMARK    4  A    between atoms: C8_13  and  C9_14 
REMARK    5  A    between atoms: C9_14  and  N1_15 
REMARK    6  A    between atoms: C9_14  and  C13_31 
REMARK    7  A    between atoms: N1_15  and  O5_16 
REMARK    8  A    between atoms: O5_16  and  C10_17 
REMARK    9  A    between atoms: C10_17  and  N4_25 
REMARK   10  A    between atoms: N2_18  and  C11_20 
REMARK   11  A    between atoms: C12_21  and  N3_22 
REMARK   12  A    between atoms: N4_25  and  N5_27 
REMARK   13  A    between atoms: N5_27  and  N6_28 
REMARK   14  A    between atoms: C13_31  and  O6_32 
REMARK   15  A    between atoms: C13_31  and  C14_34 
REMARK   16  A    between atoms: C14_34  and  N7_35 
REMARK   17  A    between atoms: C14_34  and  O7_39 
REMARK   18  A    between atoms: C15_42  and  O9_43 
REMARK   19  A    between atoms: C15_42  and  C16_45 
REMARK   20  A    between atoms: C16_45  and  O10_46 
ROOT
HETATM    1  C9  UNL     1       1.431  -0.473  -0.556  1.00  0.00     0.165 C 
ENDROOT
BRANCH   1   2
HETATM    2  C8  UNL     1       0.024  -0.731  -0.937  1.00  0.00     0.267 C 
HETATM    3  C7  UNL     1      -0.602  -1.917  -0.357  1.00  0.00     0.208 C 
HETATM    4  C5  UNL     1      -1.886  -2.363  -0.956  1.00  0.00     0.215 C 
HETATM    5  O4  UNL     1      -0.140  -2.532   0.558  1.00  0.00    -0.291 OA
HETATM    6  C4  UNL     1      -2.829  -1.202  -0.890  1.00  0.00     0.122 C 
HETATM    7  C3  UNL     1      -2.176   0.006  -0.316  1.00  0.00     0.056 C 
HETATM    8  C2  UNL     1      -2.928   0.771   0.485  1.00  0.00    -0.024 C 
HETATM    9  O8  UNL     1      -0.845   0.359  -0.575  1.00  0.00    -0.335 OA
HETATM   10  C1  UNL     1      -4.329   0.422   0.775  1.00  0.00     0.049 C 
BRANCH   4  11
HETATM   11  O1  UNL     1      -1.628  -2.650  -2.312  1.00  0.00    -0.372 OA
ATOM     12  H1  UNL     1      -1.030  -3.387  -2.354  1.00  0.00     0.211 HD
ENDBRANCH   4  11
BRANCH   4  13
HETATM   13  C6  UNL     1      -2.430  -3.560  -0.326  1.00  0.00     0.217 C 
HETATM   14  O2  UNL     1      -2.764  -3.527   0.872  1.00  0.00    -0.645 OA
HETATM   15  O3  UNL     1      -2.583  -4.729  -1.029  1.00  0.00    -0.645 OA
ENDBRANCH   4  13
BRANCH   8  16
HETATM   16  C15 UNL     1      -2.360   1.981   1.087  1.00  0.00     0.172 C 
BRANCH  16  17
HETATM   17  O9  UNL     1      -2.429   1.870   2.474  1.00  0.00    -0.389 OA
ATOM     18  H9  UNL     1      -2.061   2.654   2.864  1.00  0.00     0.210 HD
ENDBRANCH  16  17
BRANCH  16  19
HETATM   19  C16 UNL     1      -3.128   3.226   0.694  1.00  0.00     0.200 C 
BRANCH  19  20
HETATM   20  O10 UNL     1      -3.139   3.456  -0.655  1.00  0.00    -0.398 OA
ATOM     21  H10 UNL     1      -3.621   4.237  -0.901  1.00  0.00     0.209 HD
ENDBRANCH  19  20
ENDBRANCH  16  19
ENDBRANCH   8  16
ENDBRANCH   1   2
BRANCH   1  22
HETATM   22  N1  UNL     1       1.648   0.534   0.125  1.00  0.00    -0.276 NA
BRANCH  22  23
HETATM   23  O5  UNL     1       1.497   1.586   0.779  1.00  0.00    -0.126 OA
BRANCH  23  24
HETATM   24  C10 UNL     1       2.486   2.317   1.445  1.00  0.00     0.283 C 
HETATM   25  N2  UNL     1       3.099   1.699   2.368  1.00  0.00    -0.276 N 
ATOM     26  H2  UNL     1       3.827   2.205   2.872  1.00  0.00     0.180 HD
BRANCH  25  27
HETATM   27  C11 UNL     1       2.854   0.393   2.740  1.00  0.00     0.036 C 
HETATM   28  C12 UNL     1       2.643  -0.761   3.099  1.00  0.00     0.027 C 
BRANCH  28  29
HETATM   29  N3  UNL     1       2.382  -2.079   3.527  1.00  0.00    -0.358 N 
ATOM     30  H32 UNL     1       2.018  -1.145   3.717  1.00  0.00     0.166 HD
ATOM     31  H31 UNL     1       2.207  -3.038   3.825  1.00  0.00     0.166 HD
ENDBRANCH  28  29
ENDBRANCH  25  27
BRANCH  24  32
HETATM   32  N4  UNL     1       2.830   3.657   1.162  1.00  0.00    -0.246 N 
ATOM     33  H4  UNL     1       2.227   4.419   1.472  1.00  0.00     0.188 HD
BRANCH  32  34
HETATM   34  N5  UNL     1       3.996   3.930   0.458  1.00  0.00    -0.027 NA
BRANCH  34  35
HETATM   35  N6  UNL     1       3.810   4.747  -0.659  1.00  0.00    -0.329 N 
ATOM     36  H62 UNL     1       2.891   5.104  -0.922  1.00  0.00     0.174 HD
ATOM     37  H61 UNL     1       4.666   4.947  -1.176  1.00  0.00     0.174 HD
ENDBRANCH  34  35
ENDBRANCH  32  34
ENDBRANCH  24  32
ENDBRANCH  23  24
ENDBRANCH  22  23
ENDBRANCH   1  22
BRANCH   1  38
HETATM   38  C13 UNL     1       2.567  -1.336  -0.928  1.00  0.00     0.239 C 
BRANCH  38  39
HETATM   39  O6  UNL     1       2.548  -2.512  -0.205  1.00  0.00    -0.384 OA
ATOM     40  H6  UNL     1       3.280  -3.068  -0.445  1.00  0.00     0.210 HD
ENDBRANCH  38  39
BRANCH  38  41
HETATM   41  C14 UNL     1       2.786  -1.523  -2.402  1.00  0.00     0.352 C 
BRANCH  41  42
HETATM   42  N7  UNL     1       1.789  -2.359  -3.041  1.00  0.00    -0.050 N 
ATOM     43  H73 UNL     1       1.722  -3.262  -2.571  1.00  0.00     0.277 HD
ATOM     44  H72 UNL     1       0.851  -2.001  -2.860  1.00  0.00     0.277 HD
ATOM     45  H71 UNL     1       1.938  -2.486  -4.042  1.00  0.00     0.277 HD
ENDBRANCH  41  42
BRANCH  41  46
HETATM   46  O7  UNL     1       4.034  -2.112  -2.667  1.00  0.00    -0.368 OA
ATOM     47  H7  UNL     1       4.173  -2.230  -3.599  1.00  0.00     0.212 HD
ENDBRANCH  41  46
ENDBRANCH  38  41
ENDBRANCH   1  38
TORSDOF 20
