REMARK  16 active torsions:
REMARK  status: ('A' for Active; 'I' for Inactive)
REMARK    1  A    between atoms: O1_1  and  C1_3 
REMARK    2  A    between atoms: C2_5  and  C3_6 
REMARK    3  A    between atoms: C3_6  and  C4_7 
REMARK    4  A    between atoms: C4_7  and  C5_8 
REMARK    5  A    between atoms: C5_8  and  C6_9 
REMARK    6  A    between atoms: C6_9  and  C7_10 
REMARK    7  A    between atoms: C7_10  and  C8_11 
REMARK    8  A    between atoms: C8_11  and  C9_12 
REMARK    9  A    between atoms: C9_12  and  C10_13 
REMARK   10  A    between atoms: C10_13  and  C11_14 
REMARK   11  A    between atoms: C11_14  and  C12_15 
REMARK   12  A    between atoms: C12_15  and  C13_16 
REMARK   13  A    between atoms: C16_22  and  O3_23 
REMARK   14  A    between atoms: C17_25  and  O4_26 
REMARK   15  A    between atoms: C18_28  and  O5_29 
REMARK   16  A    between atoms: C19_31  and  O6_32 
ROOT
HETATM    1  C1  UNL     1      -5.370  -1.199   0.272  1.00  0.00     0.288 C 
HETATM    2  O2  UNL     1      -4.209  -0.444   0.135  1.00  0.00    -0.351 OA
HETATM    3  C2  UNL     1      -3.496  -0.359   1.325  1.00  0.00     0.156 C 
HETATM    4  C16 UNL     1      -4.230   0.561   2.244  1.00  0.00     0.178 C 
HETATM    5  C17 UNL     1      -5.295   1.369   1.506  1.00  0.00     0.180 C 
HETATM    6  C18 UNL     1      -6.580   0.615   1.356  1.00  0.00     0.183 C 
HETATM    7  C19 UNL     1      -6.536  -0.231   0.090  1.00  0.00     0.204 C 
ENDROOT
BRANCH   3   8
HETATM    8  C3  UNL     1      -2.092   0.161   0.985  1.00  0.00     0.035 C 
BRANCH   8   9
HETATM    9  C4  UNL     1      -1.493  -0.848   0.035  1.00  0.00     0.002 C 
BRANCH   9  10
HETATM   10  C5  UNL     1      -0.116  -0.505  -0.409  1.00  0.00     0.000 C 
BRANCH  10  11
HETATM   11  C6  UNL     1      -0.009   0.802  -1.129  1.00  0.00     0.000 C 
BRANCH  11  12
HETATM   12  C7  UNL     1       1.423   1.081  -1.547  1.00  0.00     0.000 C 
BRANCH  12  13
HETATM   13  C8  UNL     1       1.971   0.043  -2.458  1.00  0.00     0.000 C 
BRANCH  13  14
HETATM   14  C9  UNL     1       3.383   0.384  -2.845  1.00  0.00     0.000 C 
BRANCH  14  15
HETATM   15  C10 UNL     1       4.326   0.469  -1.646  1.00  0.00     0.000 C 
BRANCH  15  16
HETATM   16  C11 UNL     1       5.716   0.797  -2.065  1.00  0.00     0.002 C 
BRANCH  16  17
HETATM   17  C12 UNL     1       6.642   0.919  -0.911  1.00  0.00     0.033 C 
BRANCH  17  18
HETATM   18  C13 UNL     1       6.751  -0.320  -0.093  1.00  0.00     0.187 C 
HETATM   19  C14 UNL     1       7.741  -0.151   1.070  1.00  0.00     0.060 C 
HETATM   20  C15 UNL     1       6.532   0.145   1.927  1.00  0.00     0.235 C 
HETATM   21  N1  UNL     1       5.691  -0.423   0.907  1.00  0.00    -0.071 N 
ATOM     22  H12 UNL     1       4.784   0.003   0.716  1.00  0.00     0.277 HD
ATOM     23  H11 UNL     1       5.250  -1.328   1.073  1.00  0.00     0.277 HD
ENDBRANCH  17  18
ENDBRANCH  16  17
ENDBRANCH  15  16
ENDBRANCH  14  15
ENDBRANCH  13  14
ENDBRANCH  12  13
ENDBRANCH  11  12
ENDBRANCH  10  11
ENDBRANCH   9  10
ENDBRANCH   8   9
ENDBRANCH   3   8
BRANCH   4  24
HETATM   24  O3  UNL     1      -4.920  -0.171   3.225  1.00  0.00    -0.390 OA
ATOM     25  H3  UNL     1      -5.387   0.414   3.810  1.00  0.00     0.210 HD
ENDBRANCH   4  24
BRANCH   1  26
HETATM   26  O1  UNL     1      -5.418  -2.199  -0.703  1.00  0.00    -0.369 OA
ATOM     27  H1  UNL     1      -6.211  -2.714  -0.609  1.00  0.00     0.212 HD
ENDBRANCH   1  26
BRANCH   5  28
HETATM   28  O4  UNL     1      -5.562   2.485   2.318  1.00  0.00    -0.390 OA
ATOM     29  H4  UNL     1      -6.225   2.988   1.859  1.00  0.00     0.210 HD
ENDBRANCH   5  28
BRANCH   7  30
HETATM   30  O6  UNL     1      -7.723  -0.919  -0.094  1.00  0.00    -0.388 OA
ATOM     31  H6  UNL     1      -8.449  -0.317  -0.207  1.00  0.00     0.210 HD
ENDBRANCH   7  30
BRANCH   6  32
HETATM   32  O5  UNL     1      -7.632   1.514   1.255  1.00  0.00    -0.390 OA
ATOM     33  H5  UNL     1      -8.447   1.036   1.160  1.00  0.00     0.210 HD
ENDBRANCH   6  32
TORSDOF 16
