REMARK  4 active torsions:
REMARK  status: ('A' for Active; 'I' for Inactive)
REMARK    1  A    between atoms: O1_2  and  C2_3 
REMARK    2  A    between atoms: C2_3  and  N2_8 
REMARK    3  A    between atoms: N1_4  and  O2_6 
REMARK    4  A    between atoms: N2_8  and  N3_10 
ROOT
HETATM    1  C2  UNL     1       0.782  -0.348  -0.105  1.00  0.00     0.254 C 
HETATM    2  N1  UNL     1       1.390  -1.497  -0.018  1.00  0.00    -0.232 N 
ATOM      3  H1  UNL     1       2.291  -1.588   0.452  1.00  0.00     0.198 HD
ENDROOT
BRANCH   1   4
HETATM    4  O1  UNL     1       1.435   0.725   0.477  1.00  0.00    -0.325 OA
HETATM    5  C1  UNL     1       2.841   0.825   0.559  1.00  0.00     0.213 C 
ENDBRANCH   1   4
BRANCH   1   6
HETATM    6  N2  UNL     1      -0.477  -0.201  -0.758  1.00  0.00    -0.284 N 
ATOM      7  H2  UNL     1      -0.613  -0.680  -1.648  1.00  0.00     0.184 HD
BRANCH   6   8
HETATM    8  N3  UNL     1      -1.527   0.552  -0.259  1.00  0.00    -0.237 NA
HETATM    9  C3  UNL     1      -1.164   1.372   0.865  1.00  0.00     0.135 C 
HETATM   10  C4  UNL     1      -2.546  -0.390   0.210  1.00  0.00     0.135 C 
ENDBRANCH   6   8
ENDBRANCH   1   6
BRANCH   2  11
HETATM   11  O2  UNL     1       0.769  -2.577  -0.584  1.00  0.00    -0.287 OA
ATOM     12  H2  UNL     1       1.212  -3.415  -0.521  1.00  0.00     0.244 HD
ENDBRANCH   2  11
TORSDOF 4
