REMARK  3 active torsions:
REMARK  status: ('A' for Active; 'I' for Inactive)
REMARK       I    between atoms: C1_4  and  N2_5 
REMARK       I    between atoms: C1_4  and  N4_10 
REMARK    1  A    between atoms: N2_5  and  N3_7 
REMARK    2  A    between atoms: N4_10  and  N5_11 
REMARK    3  A    between atoms: N4_10  and  C2_14 
ROOT
HETATM    1  N1  UNL     1      -2.603  -0.920   1.231  1.00  0.00    -0.231 N 
ATOM      2  H11 UNL     1      -2.327  -1.690   1.840  1.00  0.00     0.174 HD
ATOM      3  H12 UNL     1      -3.528  -0.491   1.250  1.00  0.00     0.174 HD
HETATM    4  C1  UNL     1      -1.694  -0.486   0.393  1.00  0.00     0.719 C 
HETATM    5  N2  UNL     1      -2.075   0.576  -0.446  1.00  0.00    -0.070 N 
ATOM      6  H2  UNL     1      -1.783   0.573  -1.423  1.00  0.00     0.212 HD
HETATM    7  N4  UNL     1      -0.405  -1.083   0.366  1.00  0.00    -0.060 N 
ENDROOT
BRANCH   7   8
HETATM    8  N5  UNL     1      -0.286  -2.451   0.615  1.00  0.00    -0.321 N 
ATOM      9  H52 UNL     1      -1.100  -3.031   0.816  1.00  0.00     0.178 HD
ATOM     10  H51 UNL     1       0.639  -2.880   0.596  1.00  0.00     0.178 HD
ENDBRANCH   7   8
BRANCH   7  11
HETATM   11  C2  UNL     1       0.750  -0.260   0.081  1.00  0.00     0.214 C 
HETATM   12  N6  UNL     1       1.316   0.572   0.892  1.00  0.00    -0.359 N 
HETATM   13  C3  UNL     1       2.443   1.236   0.306  1.00  0.00     0.142 C 
ATOM     14  H6  UNL     1       0.995   0.738   1.846  1.00  0.00     0.162 HD
HETATM   15  C4  UNL     1       2.741   0.400  -0.924  1.00  0.00     0.142 C 
HETATM   16  N7  UNL     1       1.460  -0.224  -1.139  1.00  0.00    -0.359 N 
ATOM     17  H7  UNL     1       1.120  -0.583  -2.031  1.00  0.00     0.162 HD
ENDBRANCH   7  11
BRANCH   5  18
HETATM   18  N3  UNL     1      -2.841   1.628   0.034  1.00  0.00    -0.024 N 
HETATM   19  O1  UNL     1      -3.975   1.370   0.486  1.00  0.00    -0.516 OA
HETATM   20  O2  UNL     1      -2.416   2.941   0.038  1.00  0.00    -0.516 OA
ENDBRANCH   5  18
TORSDOF 3
