REMARK  13 active torsions:
REMARK  status: ('A' for Active; 'I' for Inactive)
REMARK       I    between atoms: C1_4  and  N3_6 
REMARK    1  A    between atoms: C4_10  and  C5_11 
REMARK    2  A    between atoms: C5_11  and  O1_12 
REMARK    3  A    between atoms: C5_11  and  N4_14 
REMARK    4  A    between atoms: N4_14  and  O2_15 
REMARK    5  A    between atoms: C6_19  and  C7_20 
REMARK    6  A    between atoms: C7_20  and  C8_21 
REMARK    7  A    between atoms: C7_20  and  C10_26 
REMARK    8  A    between atoms: C8_21  and  C9_23 
REMARK    9  A    between atoms: C9_23  and  O4_24 
REMARK       I    between atoms: C10_26  and  N6_28 
REMARK   10  A    between atoms: N6_28  and  N7_30 
REMARK   11  A    between atoms: N7_30  and  C11_32 
REMARK   12  A    between atoms: C14_39  and  S1_40 
REMARK   13  A    between atoms: S1_40  and  N10_41 
ROOT
HETATM    1  C7  UNL     1       1.597  -1.765  -1.512  1.00  0.00     0.218 C 
ENDROOT
BRANCH   1   2
HETATM    2  C6  UNL     1       1.853  -0.583  -0.700  1.00  0.00     0.104 A 
HETATM    3  N5  UNL     1       1.610   0.681  -1.086  1.00  0.00    -0.345 N 
HETATM    4  C4  UNL     1       1.883   1.727  -0.294  1.00  0.00     0.061 A 
ATOM      5  H5  UNL     1       1.206   0.849  -2.008  1.00  0.00     0.167 HD
HETATM    6  C3  UNL     1       2.430   1.540   0.959  1.00  0.00     0.077 A 
HETATM    7  C2  UNL     1       2.680   0.254   1.360  1.00  0.00     0.110 A 
HETATM    8  N3  UNL     1       3.195   0.087   2.543  1.00  0.00    -0.317 N 
HETATM    9  N14 UNL     1       2.391  -0.740   0.537  1.00  0.00    -0.331 N 
HETATM   10  C1  UNL     1       3.445  -1.254   2.934  1.00  0.00     0.187 C 
ATOM     11  H3  UNL     1       3.407   0.875   3.155  1.00  0.00     0.170 HD
HETATM   12  N1  UNL     1       4.329  -1.920   2.268  1.00  0.00    -0.373 N 
HETATM   13  N2  UNL     1       2.769  -1.857   4.005  1.00  0.00    -0.064 NA
ATOM     14  H12 UNL     1       4.509  -2.884   2.549  1.00  0.00     0.158 HD
ATOM     15  H11 UNL     1       4.821  -1.482   1.489  1.00  0.00     0.158 HD
ATOM     16  H14 UNL     1       2.586  -1.690   0.853  1.00  0.00     0.168 HD
BRANCH   4  17
HETATM   17  C5  UNL     1       1.611   3.105  -0.785  1.00  0.00     0.288 C 
BRANCH  17  18
HETATM   18  O1  UNL     1       1.947   3.238  -2.114  1.00  0.00    -0.372 OA
ATOM     19  H1  UNL     1       1.773   4.118  -2.427  1.00  0.00     0.212 HD
ENDBRANCH  17  18
BRANCH  17  20
HETATM   20  N4  UNL     1       0.250   3.443  -0.469  1.00  0.00    -0.065 NA
BRANCH  20  21
HETATM   21  O2  UNL     1       0.040   3.429   0.884  1.00  0.00    -0.293 OA
ATOM     22  H2  UNL     1      -0.859   3.652   1.093  1.00  0.00     0.238 HD
ENDBRANCH  20  21
ENDBRANCH  17  20
ENDBRANCH   4  17
ENDBRANCH   1   2
BRANCH   1  23
HETATM   23  C8  UNL     1       2.135  -1.661  -2.896  1.00  0.00     0.170 C 
HETATM   24  O3  UNL     1       1.330  -1.742  -3.806  1.00  0.00    -0.294 OA
BRANCH  23  25
HETATM   25  C9  UNL     1       3.558  -1.471  -3.191  1.00  0.00     0.243 C 
BRANCH  25  26
HETATM   26  O4  UNL     1       4.343  -1.398  -2.038  1.00  0.00    -0.394 OA
ATOM     27  H4  UNL     1       5.265  -1.275  -2.229  1.00  0.00     0.209 HD
ENDBRANCH  25  26
ENDBRANCH  23  25
ENDBRANCH   1  23
BRANCH   1  28
HETATM   28  C10 UNL     1       0.177  -2.188  -1.513  1.00  0.00     0.255 C 
HETATM   29  O5  UNL     1      -0.141  -3.356  -1.075  1.00  0.00    -0.270 OA
HETATM   30  N6  UNL     1      -0.903  -1.386  -1.974  1.00  0.00    -0.255 N 
ATOM     31  H6  UNL     1      -0.734  -0.445  -2.329  1.00  0.00     0.190 HD
BRANCH  30  32
HETATM   32  N7  UNL     1      -2.188  -1.901  -1.934  1.00  0.00    -0.127 N 
ATOM     33  H7  UNL     1      -2.416  -2.609  -2.632  1.00  0.00     0.205 HD
BRANCH  32  34
HETATM   34  C11 UNL     1      -3.118  -1.586  -1.119  1.00  0.00     0.722 A 
HETATM   35  N8  UNL     1      -4.325  -2.198  -1.230  1.00  0.00    -0.184 N 
HETATM   36  C12 UNL     1      -5.343  -1.905  -0.404  1.00  0.00     0.200 A 
ATOM     37  H8  UNL     1      -4.462  -2.898  -1.959  1.00  0.00     0.185 HD
HETATM   38  N9  UNL     1      -5.198  -0.989   0.567  1.00  0.00    -0.334 N 
HETATM   39  C13 UNL     1      -4.010  -0.378   0.686  1.00  0.00     0.189 A 
ATOM     40  H9  UNL     1      -5.969  -0.764   1.196  1.00  0.00     0.168 HD
HETATM   41  C14 UNL     1      -3.604   0.585   1.585  1.00  0.00     0.211 A 
HETATM   42  N13 UNL     1      -2.970  -0.670  -0.149  1.00  0.00    -0.051 N 
HETATM   43  N11 UNL     1      -2.333   0.851   1.275  1.00  0.00    -0.270 N 
HETATM   44  N12 UNL     1      -1.978   0.096   0.243  1.00  0.00    -0.219 N 
ATOM     45  H11 UNL     1      -1.733   1.524   1.753  1.00  0.00     0.189 HD
ATOM     46  H12 UNL     1      -1.054   0.109  -0.190  1.00  0.00     0.209 HD
BRANCH  41  47
HETATM   47  S1  UNL     1      -4.537   1.318   2.857  1.00  0.00     0.277 S 
HETATM   48  O6  UNL     1      -3.683   1.720   4.022  1.00  0.00    -0.199 OA
HETATM   49  O7  UNL     1      -5.613   0.373   3.330  1.00  0.00    -0.199 OA
BRANCH  47  50
HETATM   50  N10 UNL     1      -5.316   2.738   2.198  1.00  0.00    -0.323 N 
ATOM     51 2H10 UNL     1      -5.229   3.066   1.236  1.00  0.00     0.169 HD
ATOM     52 1H10 UNL     1      -5.863   3.168   2.944  1.00  0.00     0.169 HD
ENDBRANCH  47  50
ENDBRANCH  41  47
ENDBRANCH  32  34
ENDBRANCH  30  32
ENDBRANCH   1  28
TORSDOF 13
