REMARK  4 active torsions:
REMARK  status: ('A' for Active; 'I' for Inactive)
REMARK    1  A    between atoms: O1_2  and  C2_3 
REMARK    2  A    between atoms: C5_6  and  C6_7 
REMARK    3  A    between atoms: C7_10  and  N1_11 
REMARK    4  A    between atoms: C8_13  and  C9_14 
ROOT
HETATM    1  C2  UNL     1      -3.425  -0.816  -0.463  1.00  0.00     0.143 A 
HETATM    2  C3  UNL     1      -2.785  -0.161   0.554  1.00  0.00    -0.002 A 
HETATM    3  C4  UNL     1      -3.477   0.151   1.831  1.00  0.00     0.052 C 
HETATM    4  C5  UNL     1      -1.469   0.214   0.382  1.00  0.00     0.093 A 
HETATM    5  C7  UNL     1      -0.829  -0.073  -0.795  1.00  0.00     0.125 A 
HETATM    6  N4  UNL     1      -1.449  -0.712  -1.792  1.00  0.00    -0.306 N 
ATOM      7  H4  UNL     1      -0.961  -0.919  -2.664  1.00  0.00     0.170 HD
HETATM    8  C13 UNL     1      -2.729  -1.074  -1.617  1.00  0.00     0.281 A 
HETATM    9  O5  UNL     1      -3.289  -1.682  -2.588  1.00  0.00    -0.265 OA
ENDROOT
BRANCH   5  10
HETATM   10  N1  UNL     1       0.546   0.341  -0.924  1.00  0.00    -0.352 N 
HETATM   11  C8  UNL     1       1.458  -0.339  -0.350  1.00  0.00     0.095 C 
ATOM     12  H1  UNL     1       0.786   1.169  -1.469  1.00  0.00     0.166 HD
BRANCH  11  13
HETATM   13  C9  UNL     1       2.874   0.070  -0.472  1.00  0.00     0.171 C 
HETATM   14  C10 UNL     1       3.745  -1.130  -0.298  1.00  0.00     0.058 C 
HETATM   15  C11 UNL     1       4.858  -0.974   0.683  1.00  0.00     0.126 C 
HETATM   16  N2  UNL     1       5.401   0.370   0.655  1.00  0.00    -0.356 N 
HETATM   17  C12 UNL     1       4.452   1.433   0.754  1.00  0.00     0.213 C 
ATOM     18  H2  UNL     1       6.402   0.546   0.570  1.00  0.00     0.163 HD
HETATM   19  N3  UNL     1       4.830   2.620   1.056  1.00  0.00    -0.365 N 
HETATM   20  O4  UNL     1       3.118   1.086   0.504  1.00  0.00    -0.312 OA
ATOM     21  H32 UNL     1       5.801   2.873   1.238  1.00  0.00     0.159 HD
ATOM     22  H31 UNL     1       4.152   3.379   1.127  1.00  0.00     0.159 HD
ENDBRANCH  11  13
ENDBRANCH   5  10
BRANCH   4  23
HETATM   23  C6  UNL     1      -0.761   0.926   1.478  1.00  0.00     0.213 C 
HETATM   24  O2  UNL     1      -0.148   0.253   2.331  1.00  0.00    -0.644 OA
HETATM   25  O3  UNL     1      -0.796   2.317   1.527  1.00  0.00    -0.644 OA
ENDBRANCH   4  23
BRANCH   1  26
HETATM   26  O1  UNL     1      -4.721  -1.213  -0.358  1.00  0.00    -0.350 OA
HETATM   27  C1  UNL     1      -5.846  -0.447  -0.726  1.00  0.00     0.210 C 
ENDBRANCH   1  26
TORSDOF 4
