REMARK  13 active torsions:
REMARK  status: ('A' for Active; 'I' for Inactive)
REMARK    1  A    between atoms: C3_5  and  N2_6 
REMARK    2  A    between atoms: N2_6  and  C4_8 
REMARK    3  A    between atoms: C4_8  and  C5_9 
REMARK    4  A    between atoms: C5_9  and  C6_10 
REMARK    5  A    between atoms: C6_10  and  C7_11 
REMARK    6  A    between atoms: C7_11  and  O1_12 
REMARK    7  A    between atoms: C8_16  and  N4_17 
REMARK    8  A    between atoms: C9_20  and  N5_21 
REMARK    9  A    between atoms: N5_21  and  C10_23 
REMARK   10  A    between atoms: C11_26  and  S1_27 
REMARK   11  A    between atoms: S1_27  and  C12_28 
REMARK   12  A    between atoms: C13_33  and  N9_34 
REMARK   13  A    between atoms: N10_37  and  N11_38 
ROOT
HETATM    1  C10 UNL     1       1.788   2.218  -0.176  1.00  0.00     0.701 A 
HETATM    2  N6  UNL     1       2.181   1.107  -0.847  1.00  0.00    -0.167 N 
ATOM      3  H6  UNL     1       1.589   0.304  -1.059  1.00  0.00     0.186 HD
HETATM    4  C11 UNL     1       3.471   1.231  -1.187  1.00  0.00     0.182 A 
HETATM    5  N12 UNL     1       3.883   2.419  -0.728  1.00  0.00    -0.263 N 
ATOM      6  H12 UNL     1       4.823   2.801  -0.831  1.00  0.00     0.190 HD
HETATM    7  N13 UNL     1       2.858   3.025  -0.110  1.00  0.00    -0.126 N 
HETATM    8  C14 UNL     1       2.922   4.332   0.517  1.00  0.00     0.197 C 
ENDROOT
BRANCH   1   9
HETATM    9  N5  UNL     1       0.647   2.470   0.301  1.00  0.00    -0.184 N 
ATOM     10  H5  UNL     1       0.554   3.369   0.774  1.00  0.00     0.184 HD
BRANCH   9  11
HETATM   11  C9  UNL     1      -0.504   1.683   0.268  1.00  0.00     0.116 A 
HETATM   12  C2  UNL     1      -1.664   2.001  -0.411  1.00  0.00     0.053 A 
HETATM   13  C1  UNL     1      -1.720   3.286  -1.172  1.00  0.00     0.071 C 
HETATM   14  N1  UNL     1      -2.716   1.149  -0.371  1.00  0.00    -0.194 N 
HETATM   15  C3  UNL     1      -2.708  -0.005   0.297  1.00  0.00     0.679 A 
ATOM     16  H1  UNL     1      -3.562   1.404  -0.880  1.00  0.00     0.184 HD
HETATM   17  N3  UNL     1      -1.563  -0.320   0.968  1.00  0.00    -0.175 N 
HETATM   18  C8  UNL     1      -0.513   0.486   0.953  1.00  0.00     0.144 A 
ATOM     19  H3  UNL     1      -1.515  -1.194   1.492  1.00  0.00     0.186 HD
BRANCH  15  20
HETATM   20  N2  UNL     1      -3.698  -0.832   0.343  1.00  0.00    -0.226 N 
ATOM     21  H2  UNL     1      -3.616  -1.697   0.877  1.00  0.00     0.177 HD
BRANCH  20  22
HETATM   22  C4  UNL     1      -4.903  -0.537  -0.351  1.00  0.00     0.138 C 
BRANCH  22  23
HETATM   23  C5  UNL     1      -5.926  -1.613  -0.398  1.00  0.00     0.022 C 
BRANCH  23  24
HETATM   24  C6  UNL     1      -5.561  -2.882  -1.061  1.00  0.00     0.028 C 
BRANCH  24  25
HETATM   25  C7  UNL     1      -4.414  -3.648  -0.519  1.00  0.00     0.164 C 
BRANCH  25  26
HETATM   26  O1  UNL     1      -4.296  -4.820  -1.317  1.00  0.00    -0.401 OA
ATOM     27  H1  UNL     1      -3.561  -5.311  -0.970  1.00  0.00     0.209 HD
ENDBRANCH  25  26
ENDBRANCH  24  25
ENDBRANCH  23  24
ENDBRANCH  22  23
ENDBRANCH  20  22
ENDBRANCH  15  20
BRANCH  18  28
HETATM   28  N4  UNL     1       0.539   0.110   1.624  1.00  0.00    -0.383 N 
ATOM     29  H42 UNL     1       0.532  -0.775   2.131  1.00  0.00     0.157 HD
ATOM     30  H41 UNL     1       1.348   0.731   1.612  1.00  0.00     0.157 HD
ENDBRANCH  18  28
ENDBRANCH   9  11
ENDBRANCH   1   9
BRANCH   4  31
HETATM   31  S1  UNL     1       4.453   0.062  -2.074  1.00  0.00    -0.012 SA
BRANCH  31  32
HETATM   32  C12 UNL     1       5.272  -1.078  -0.960  1.00  0.00     0.206 A 
HETATM   33  N7  UNL     1       6.087  -2.083  -1.339  1.00  0.00    -0.263 N 
HETATM   34  N8  UNL     1       6.538  -2.749  -0.291  1.00  0.00    -0.129 N 
ATOM     35  H7  UNL     1       6.324  -2.300  -2.307  1.00  0.00     0.189 HD
HETATM   36  C13 UNL     1       6.002  -2.160   0.789  1.00  0.00     0.713 A 
ATOM     37  H8  UNL     1       7.168  -3.551  -0.301  1.00  0.00     0.205 HD
HETATM   38  N10 UNL     1       5.214  -1.121   0.387  1.00  0.00    -0.067 N 
BRANCH  36  39
HETATM   39  N9  UNL     1       6.179  -2.492   2.034  1.00  0.00    -0.231 N 
ATOM     40  H92 UNL     1       6.768  -3.269   2.334  1.00  0.00     0.174 HD
ATOM     41  H91 UNL     1       5.772  -2.044   2.855  1.00  0.00     0.174 HD
ENDBRANCH  36  39
BRANCH  38  42
HETATM   42  N11 UNL     1       4.481  -0.258   1.192  1.00  0.00    -0.322 N 
ATOM     43 2H11 UNL     1       3.892   0.519   0.892  1.00  0.00     0.178 HD
ATOM     44 1H11 UNL     1       4.437  -0.291   2.211  1.00  0.00     0.178 HD
ENDBRANCH  38  42
ENDBRANCH  31  32
ENDBRANCH   4  31
TORSDOF 13
