REMARK  11 active torsions:
REMARK  status: ('A' for Active; 'I' for Inactive)
REMARK    1  A    between atoms: C4_4  and  C5_5 
REMARK    2  A    between atoms: C5_5  and  O1_6 
REMARK    3  A    between atoms: C5_5  and  O2_8 
REMARK    4  A    between atoms: N2_13  and  N3_15 
REMARK    5  A    between atoms: C9_20  and  N4_21 
REMARK    6  A    between atoms: N5_24  and  O3_25 
REMARK    7  A    between atoms: C11_28  and  C12_29 
REMARK    8  A    between atoms: C12_29  and  N6_30 
REMARK    9  A    between atoms: C13_32  and  C14_33 
REMARK   10  A    between atoms: C14_33  and  N7_34 
REMARK   11  A    between atoms: N7_34  and  C15_36 
ROOT
HETATM    1  C1  UNL     1      -5.370  -4.071   0.383  1.00  0.00     0.018 C 
HETATM    2  C2  UNL     1      -4.799  -3.049   0.252  1.00  0.00    -0.073 C 
HETATM    3  C3  UNL     1      -4.080  -1.822   0.104  1.00  0.00     0.073 C 
HETATM    4  C4  UNL     1      -4.841  -0.646   0.170  1.00  0.00     0.087 C 
HETATM    5  N1  UNL     1      -4.456   0.547  -0.276  1.00  0.00    -0.338 N 
ATOM      6  H1  UNL     1      -5.177   1.124  -0.709  1.00  0.00     0.167 HD
HETATM    7  C6  UNL     1      -3.193   1.088  -0.217  1.00  0.00     0.150 C 
HETATM    8  N2  UNL     1      -3.057   2.355  -0.344  1.00  0.00    -0.290 N 
ATOM      9  H2  UNL     1      -2.103   2.710  -0.278  1.00  0.00     0.188 HD
HETATM   10  C7  UNL     1      -1.993   0.441  -0.035  1.00  0.00     0.119 A 
HETATM   11  C8  UNL     1      -1.768  -0.908   0.064  1.00  0.00     0.123 A 
HETATM   12  C9  UNL     1      -2.723  -1.920  -0.099  1.00  0.00     0.079 C 
HETATM   13  N5  UNL     1      -0.457  -1.116   0.220  1.00  0.00    -0.201 N 
HETATM   14  C10 UNL     1       0.113   0.138   0.204  1.00  0.00     0.166 A 
HETATM   15  C11 UNL     1       1.357   0.709   0.184  1.00  0.00     0.075 A 
HETATM   16  N8  UNL     1       1.172   1.992   0.020  1.00  0.00    -0.351 N 
ATOM     17  H8  UNL     1       1.918   2.685  -0.038  1.00  0.00     0.166 HD
HETATM   18  C17 UNL     1      -0.133   2.268  -0.061  1.00  0.00     0.191 A 
HETATM   19  N9  UNL     1      -0.799   1.084   0.054  1.00  0.00    -0.284 N 
ENDROOT
BRANCH   4  20
HETATM   20  C5  UNL     1      -6.125  -0.754   0.878  1.00  0.00     0.306 C 
BRANCH  20  21
HETATM   21  O1  UNL     1      -6.447   0.459   1.515  1.00  0.00    -0.366 OA
ATOM     22  H1  UNL     1      -7.277   0.389   1.972  1.00  0.00     0.213 HD
ENDBRANCH  20  21
BRANCH  20  23
HETATM   23  O2  UNL     1      -5.851  -1.598   2.048  1.00  0.00    -0.366 OA
ATOM     24  H2  UNL     1      -6.681  -1.668   2.505  1.00  0.00     0.213 HD
ENDBRANCH  20  23
ENDBRANCH   4  20
BRANCH  12  25
HETATM   25  N4  UNL     1      -2.253  -3.007  -0.529  1.00  0.00    -0.396 N 
ATOM     26  H42 UNL     1      -2.948  -3.744  -0.648  1.00  0.00     0.156 HD
ATOM     27  H41 UNL     1      -1.247  -3.080  -0.680  1.00  0.00     0.156 HD
ENDBRANCH  12  25
BRANCH  13  28
HETATM   28  O3  UNL     1       0.158  -2.331   0.320  1.00  0.00    -0.281 OA
ATOM     29  H3  UNL     1       1.090  -2.479   0.431  1.00  0.00     0.245 HD
ENDBRANCH  13  28
BRANCH   8  30
HETATM   30  N3  UNL     1      -4.046   3.308  -0.561  1.00  0.00    -0.344 N 
ATOM     31  H32 UNL     1      -4.993   2.934  -0.624  1.00  0.00     0.176 HD
ATOM     32  H31 UNL     1      -3.938   4.317  -0.662  1.00  0.00     0.176 HD
ENDBRANCH   8  30
BRANCH  15  33
HETATM   33  C12 UNL     1       2.653   0.016   0.492  1.00  0.00     0.180 C 
BRANCH  33  34
HETATM   34  N6  UNL     1       3.191  -0.473  -0.729  1.00  0.00    -0.392 N 
HETATM   35  C13 UNL     1       3.922   0.172  -1.642  1.00  0.00     0.100 C 
ATOM     36  H6  UNL     1       2.991  -1.451  -0.937  1.00  0.00     0.159 HD
BRANCH  35  37
HETATM   37  C14 UNL     1       5.300   0.676  -1.487  1.00  0.00     0.103 C 
BRANCH  37  38
HETATM   38  N7  UNL     1       6.313  -0.246  -1.191  1.00  0.00    -0.378 N 
ATOM     39  H7  UNL     1       7.018  -0.451  -1.899  1.00  0.00     0.164 HD
BRANCH  38  40
HETATM   40  C15 UNL     1       6.385  -0.892   0.046  1.00  0.00     0.056 C 
HETATM   41  C16 UNL     1       6.722  -0.044   1.225  1.00  0.00     0.054 C 
ENDBRANCH  38  40
ENDBRANCH  37  38
ENDBRANCH  35  37
ENDBRANCH  33  34
ENDBRANCH  15  33
TORSDOF 11
