REMARK  4 active torsions:
REMARK  status: ('A' for Active; 'I' for Inactive)
REMARK    1  A    between atoms: C2_2  and  C5_5 
REMARK    2  A    between atoms: C5_5  and  C6_6 
REMARK    3  A    between atoms: C6_6  and  C7_7 
REMARK    4  A    between atoms: C19_19  and  O1_20 
ROOT
HETATM    1  C7  UNL     1      -1.891   0.295  -0.741  1.00  0.00     0.015 C 
HETATM    2  C8  UNL     1      -2.087   1.635  -1.364  1.00  0.00     0.009 C 
HETATM    3  C9  UNL     1      -1.004   1.898  -2.395  1.00  0.00     0.005 C 
HETATM    4  C10 UNL     1       0.298   1.995  -1.641  1.00  0.00     0.035 C 
HETATM    5  C11 UNL     1       0.474   0.864  -0.691  1.00  0.00    -0.072 C 
HETATM    6  C12 UNL     1      -0.494   0.080  -0.267  1.00  0.00    -0.073 C 
HETATM    7  C13 UNL     1      -0.297  -1.046   0.683  1.00  0.00     0.035 C 
HETATM    8  C14 UNL     1       1.120  -1.458   0.865  1.00  0.00     0.010 C 
HETATM    9  C15 UNL     1       2.057  -0.871  -0.161  1.00  0.00     0.002 C 
HETATM   10  C16 UNL     1       3.469  -1.211   0.175  1.00  0.00     0.019 C 
HETATM   11  C17 UNL     1       4.347  -1.104  -1.077  1.00  0.00     0.012 C 
HETATM   12  C18 UNL     1       5.736  -1.520  -0.700  1.00  0.00     0.032 C 
HETATM   13  C19 UNL     1       6.310  -0.575   0.335  1.00  0.00     0.122 C 
HETATM   14  C20 UNL     1       5.466  -0.594   1.615  1.00  0.00     0.065 C 
HETATM   15  C21 UNL     1       4.067  -0.254   1.162  1.00  0.00    -0.077 C 
HETATM   16  C22 UNL     1       3.443   0.807   1.616  1.00  0.00    -0.023 C 
HETATM   17  C23 UNL     1       2.059   1.180   1.196  1.00  0.00     0.036 C 
HETATM   18  C24 UNL     1       1.850   0.608  -0.187  1.00  0.00     0.023 C 
ENDROOT
BRANCH   1  19
HETATM   19  C6  UNL     1      -2.892   0.041   0.369  1.00  0.00     0.010 C 
BRANCH  19  20
HETATM   20  C5  UNL     1      -4.289   0.104  -0.197  1.00  0.00     0.009 C 
BRANCH  20  21
HETATM   21  C2  UNL     1      -5.336  -0.149   0.869  1.00  0.00    -0.051 C 
HETATM   22  C1  UNL     1      -6.690  -0.062   0.193  1.00  0.00     0.014 C 
HETATM   23  C3  UNL     1      -5.162  -1.539   1.413  1.00  0.00     0.014 C 
HETATM   24  C4  UNL     1      -5.234   0.913   1.942  1.00  0.00     0.014 C 
ENDBRANCH  20  21
ENDBRANCH  19  20
ENDBRANCH   1  19
BRANCH  13  25
HETATM   25  O1  UNL     1       6.195   0.715  -0.181  1.00  0.00    -0.395 OA
ATOM     26  H1  UNL     1       6.555   1.308   0.468  1.00  0.00     0.210 HD
ENDBRANCH  13  25
TORSDOF 4
