REMARK  10 active torsions:
REMARK  status: ('A' for Active; 'I' for Inactive)
REMARK    1  A    between atoms: C2_2  and  C3_3 
REMARK    2  A    between atoms: C3_3  and  C4_4 
REMARK    3  A    between atoms: C4_4  and  C5_5 
REMARK    4  A    between atoms: C5_5  and  C6_6 
REMARK    5  A    between atoms: C6_6  and  C7_7 
REMARK    6  A    between atoms: C7_7  and  O1_8 
REMARK    7  A    between atoms: C7_7  and  C8_10 
REMARK    8  A    between atoms: C9_11  and  C10_12 
REMARK    9  A    between atoms: C13_15  and  O2_16 
REMARK   10  A    between atoms: C16_25  and  C17_26 
ROOT
HETATM    1  C10 UNL     1       0.264  -0.721  -1.155  1.00  0.00     0.149 C 
HETATM    2  C11 UNL     1      -0.223   0.073  -2.345  1.00  0.00     0.044 C 
HETATM    3  C12 UNL     1      -1.177   1.188  -1.994  1.00  0.00     0.086 C 
HETATM    4  C13 UNL     1      -2.405   1.243  -2.786  1.00  0.00     0.111 C 
HETATM    5  N1  UNL     1      -3.494   0.401  -2.878  1.00  0.00    -0.361 N 
ATOM      6  H1  UNL     1      -3.728   0.106  -3.826  1.00  0.00     0.162 HD
HETATM    7  C14 UNL     1      -4.374  -0.141  -1.826  1.00  0.00     0.182 C 
HETATM    8  C15 UNL     1      -4.686   0.886  -0.776  1.00  0.00     0.241 C 
HETATM    9  O3  UNL     1      -5.803   1.509  -0.998  1.00  0.00    -0.271 OA
HETATM   10  N2  UNL     1      -3.961   1.251   0.369  1.00  0.00    -0.346 N 
ATOM     11  H2  UNL     1      -3.545   2.175   0.254  1.00  0.00     0.163 HD
HETATM   12  C16 UNL     1      -3.640   0.712   1.631  1.00  0.00     0.180 C 
HETATM   13  C20 UNL     1      -2.423  -0.211   1.682  1.00  0.00     0.253 C 
HETATM   14  O4  UNL     1      -1.393   0.132   2.294  1.00  0.00    -0.270 OA
HETATM   15  N3  UNL     1      -2.452  -1.469   1.026  1.00  0.00    -0.235 N 
HETATM   16  C21 UNL     1      -3.584  -2.298   1.010  1.00  0.00     0.235 C 
HETATM   17  O5  UNL     1      -4.081  -3.128   1.812  1.00  0.00    -0.272 OA
HETATM   18  C22 UNL     1      -4.407  -2.150  -0.310  1.00  0.00     0.090 C 
HETATM   19  C23 UNL     1      -3.816  -3.255  -1.161  1.00  0.00     0.047 C 
HETATM   20  C24 UNL     1      -2.780  -2.237  -1.597  1.00  0.00     0.134 C 
HETATM   21  O6  UNL     1      -1.552  -2.405  -0.974  1.00  0.00    -0.338 OA
HETATM   22  C25 UNL     1      -1.261  -1.757   0.208  1.00  0.00     0.383 C 
HETATM   23  O7  UNL     1      -0.499  -0.599  -0.013  1.00  0.00    -0.334 OA
HETATM   24  C26 UNL     1      -3.655  -1.184  -1.173  1.00  0.00     0.060 C 
ENDROOT
BRANCH   1  25
HETATM   25  C9  UNL     1       1.722  -0.434  -0.864  1.00  0.00     0.003 C 
HETATM   26  C8  UNL     1       2.647  -0.518  -1.785  1.00  0.00     0.003 C 
BRANCH  26  27
HETATM   27  C7  UNL     1       4.090  -0.249  -1.559  1.00  0.00     0.140 C 
BRANCH  27  28
HETATM   28  C6  UNL     1       4.430  -0.200  -0.103  1.00  0.00     0.036 C 
BRANCH  28  29
HETATM   29  C5  UNL     1       5.890  -0.159   0.242  1.00  0.00     0.003 C 
BRANCH  29  30
HETATM   30  C4  UNL     1       6.666   0.995  -0.265  1.00  0.00     0.004 C 
BRANCH  30  31
HETATM   31  C3  UNL     1       8.087   0.950   0.206  1.00  0.00     0.026 C 
BRANCH  31  32
HETATM   32  C2  UNL     1       8.305   1.116   1.652  1.00  0.00    -0.037 C 
HETATM   33  C1  UNL     1       7.386   1.535   2.475  1.00  0.00     0.007 C 
ENDBRANCH  31  32
ENDBRANCH  30  31
ENDBRANCH  29  30
ENDBRANCH  28  29
ENDBRANCH  27  28
BRANCH  27  34
HETATM   34  O1  UNL     1       4.551   0.858  -2.203  1.00  0.00    -0.392 OA
ATOM     35  H1  UNL     1       4.335   0.827  -3.128  1.00  0.00     0.210 HD
ENDBRANCH  27  34
ENDBRANCH  26  27
ENDBRANCH   1  25
BRANCH   4  36
HETATM   36  O2  UNL     1      -2.504   2.286  -3.561  1.00  0.00    -0.350 OA
ATOM     37  H2  UNL     1      -3.302   2.322  -4.076  1.00  0.00     0.219 HD
ENDBRANCH   4  36
BRANCH  12  38
HETATM   38  C17 UNL     1      -3.479   1.769   2.716  1.00  0.00     0.009 C 
HETATM   39  C18 UNL     1      -3.143   1.080   3.997  1.00  0.00     0.012 C 
HETATM   40  C19 UNL     1      -4.853   2.413   2.873  1.00  0.00     0.012 C 
ENDBRANCH  12  38
TORSDOF 10
