REMARK  5 active torsions:
REMARK  status: ('A' for Active; 'I' for Inactive)
REMARK    1  A    between atoms: C1_2  and  N1_3 
REMARK    2  A    between atoms: N1_3  and  C2_5 
REMARK    3  A    between atoms: C2_5  and  C3_6 
REMARK    4  A    between atoms: C3_6  and  N2_7 
REMARK    5  A    between atoms: N2_7  and  C4_9 
ROOT
HETATM    1  C4  UNL     1      -0.358   0.427  -0.130  1.00  0.00     0.042 A 
HETATM    2  C5  UNL     1      -0.267   1.777   0.045  1.00  0.00     0.047 A 
HETATM    3  C6  UNL     1      -1.377   2.573   0.285  1.00  0.00     0.090 A 
HETATM    4  N3  UNL     1      -2.571   1.972   0.343  1.00  0.00    -0.365 N 
ATOM      5  H3  UNL     1      -3.399   2.541   0.519  1.00  0.00     0.165 HD
HETATM    6  C7  UNL     1      -2.718   0.659   0.179  1.00  0.00     0.044 A 
HETATM    7  C8  UNL     1      -3.959   0.047   0.241  1.00  0.00     0.030 A 
HETATM    8  C9  UNL     1      -4.095  -1.309   0.070  1.00  0.00     0.002 A 
HETATM    9  C10 UNL     1      -3.002  -2.100  -0.167  1.00  0.00     0.001 A 
HETATM   10  C11 UNL     1      -1.757  -1.496  -0.230  1.00  0.00     0.016 A 
HETATM   11  C12 UNL     1      -1.616  -0.143  -0.061  1.00  0.00     0.017 A 
ENDROOT
BRANCH   1  12
HETATM   12  N2  UNL     1       0.632  -0.332  -0.351  1.00  0.00    -0.388 N 
ATOM     13  H2  UNL     1       0.450  -1.329  -0.467  1.00  0.00     0.159 HD
BRANCH  12  14
HETATM   14  C3  UNL     1       2.006   0.119  -0.450  1.00  0.00     0.139 C 
BRANCH  14  15
HETATM   15  C2  UNL     1       2.886  -1.085  -0.403  1.00  0.00     0.141 C 
BRANCH  15  16
HETATM   16  N1  UNL     1       4.297  -0.785  -0.493  1.00  0.00    -0.367 N 
ATOM     17  H1  UNL     1       4.820  -1.183  -1.273  1.00  0.00     0.161 HD
BRANCH  16  18
HETATM   18  C1  UNL     1       4.994   0.019   0.424  1.00  0.00     0.348 C 
HETATM   19  O1  UNL     1       4.385   0.521   1.388  1.00  0.00    -0.284 OA
ENDBRANCH  16  18
ENDBRANCH  15  16
ENDBRANCH  14  15
ENDBRANCH  12  14
ENDBRANCH   1  12
TORSDOF 5
