REMARK  5 active torsions:
REMARK  status: ('A' for Active; 'I' for Inactive)
REMARK    1  A    between atoms: C1_4  and  C2_5 
REMARK    2  A    between atoms: C1_4  and  N3_10 
REMARK    3  A    between atoms: C2_5  and  N2_6 
REMARK    4  A    between atoms: N3_10  and  C6_12 
REMARK    5  A    between atoms: C9_15  and  C10_16 
ROOT
HETATM    1  C6  UNL     1      -0.216  -0.678  -0.900  1.00  0.00     0.092 C 
HETATM    2  C7  UNL     1      -0.816   0.585  -0.434  1.00  0.00     0.015 C 
HETATM    3  C8  UNL     1      -0.974   0.636   1.097  1.00  0.00     0.026 C 
HETATM    4  C9  UNL     1      -2.354   0.004   0.841  1.00  0.00     0.043 C 
HETATM    5  C11 UNL     1      -2.327  -1.465   0.828  1.00  0.00     0.024 C 
HETATM    6  C12 UNL     1      -2.229  -2.144  -0.477  1.00  0.00    -0.002 A 
HETATM    7  C13 UNL     1      -2.501  -1.422  -1.687  1.00  0.00    -0.003 A 
HETATM    8  C14 UNL     1      -2.971  -0.013  -1.586  1.00  0.00     0.011 C 
HETATM    9  C15 UNL     1      -2.295   0.681  -0.486  1.00  0.00     0.009 C 
HETATM   10  C16 UNL     1      -1.116  -1.702  -1.449  1.00  0.00     0.018 A 
ENDROOT
BRANCH   1  11
HETATM   11  N3  UNL     1       0.884  -0.420  -1.847  1.00  0.00    -0.373 N 
ATOM     12  H3  UNL     1       0.838  -0.784  -2.799  1.00  0.00     0.161 HD
BRANCH  11  13
HETATM   13  C1  UNL     1       2.010   0.340  -1.426  1.00  0.00     0.099 C 
HETATM   14  N1  UNL     1       2.104   1.554  -1.838  1.00  0.00    -0.388 N 
ATOM     15  H12 UNL     1       2.912   2.099  -1.536  1.00  0.00     0.157 HD
ATOM     16  H11 UNL     1       1.387   1.949  -2.446  1.00  0.00     0.157 HD
BRANCH  13  17
HETATM   17  C2  UNL     1       3.059  -0.238  -0.536  1.00  0.00     0.347 C 
BRANCH  17  18
HETATM   18  N2  UNL     1       4.065   0.762  -0.285  1.00  0.00     0.095 N 
HETATM   19  C3  UNL     1       5.145   0.334   0.567  1.00  0.00     0.274 C 
HETATM   20  C4  UNL     1       4.462   0.875   1.803  1.00  0.00     0.060 C 
HETATM   21  C5  UNL     1       3.663   1.678   0.783  1.00  0.00     0.274 C 
ENDBRANCH  17  18
ENDBRANCH  13  17
ENDBRANCH  11  13
ENDBRANCH   1  11
BRANCH   4  22
HETATM   22  C10 UNL     1      -3.333   0.572   1.803  1.00  0.00     0.240 C 
HETATM   23  N4  UNL     1      -4.692   0.150   1.776  1.00  0.00    -0.061 NA
HETATM   24  O1  UNL     1      -3.022   1.431   2.669  1.00  0.00    -0.276 OA
ENDBRANCH   4  22
TORSDOF 5
