REMARK  11 active torsions:
REMARK  status: ('A' for Active; 'I' for Inactive)
REMARK    1  A    between atoms: C2_2  and  C3_3 
REMARK    2  A    between atoms: C3_3  and  C4_4 
REMARK    3  A    between atoms: C4_4  and  C5_5 
REMARK    4  A    between atoms: C5_5  and  C6_6 
REMARK    5  A    between atoms: C6_6  and  C7_7 
REMARK    6  A    between atoms: C7_7  and  C8_8 
REMARK    7  A    between atoms: C7_7  and  C12_17 
REMARK       I    between atoms: C8_8  and  N1_10 
REMARK    8  A    between atoms: C14_22  and  C15_23 
REMARK    9  A    between atoms: C15_23  and  C17_25 
REMARK   10  A    between atoms: C20_31  and  C21_32 
REMARK   11  A    between atoms: C21_32  and  C22_33 
ROOT
HETATM    1  C12 UNL     1       0.001  -0.221  -0.021  1.00  0.00     0.159 C 
HETATM    2  N2  UNL     1       0.579  -1.017  -1.066  1.00  0.00    -0.345 N 
ATOM      3  H2  UNL     1       0.075  -1.869  -1.310  1.00  0.00     0.163 HD
HETATM    4  C13 UNL     1       1.747  -0.768  -1.790  1.00  0.00     0.241 C 
HETATM    5  O2  UNL     1       1.780  -1.054  -3.035  1.00  0.00    -0.271 OA
HETATM    6  C14 UNL     1       2.989  -0.186  -1.227  1.00  0.00     0.180 C 
HETATM    7  N3  UNL     1       3.823  -1.281  -0.801  1.00  0.00    -0.347 N 
ATOM      8  H3  UNL     1       3.945  -2.067  -1.439  1.00  0.00     0.163 HD
HETATM    9  C19 UNL     1       4.486  -1.330   0.457  1.00  0.00     0.222 C 
HETATM   10  O3  UNL     1       5.624  -1.861   0.474  1.00  0.00    -0.273 OA
HETATM   11  C20 UNL     1       3.904  -0.797   1.711  1.00  0.00     0.084 C 
HETATM   12  C23 UNL     1       2.628  -1.518   2.088  1.00  0.00     0.024 C 
HETATM   13  C24 UNL     1       1.531  -0.583   2.541  1.00  0.00     0.077 C 
HETATM   14  S4  UNL     1       0.007  -0.899   1.614  1.00  0.00    -0.143 SA
ENDROOT
BRANCH   1  15
HETATM   15  C7  UNL     1      -1.361   0.320  -0.425  1.00  0.00     0.111 C 
BRANCH  15  16
HETATM   16  C6  UNL     1      -2.376  -0.703  -0.767  1.00  0.00     0.017 C 
BRANCH  16  17
HETATM   17  C5  UNL     1      -2.950  -1.489   0.378  1.00  0.00     0.001 C 
BRANCH  17  18
HETATM   18  C4  UNL     1      -3.993  -2.477  -0.127  1.00  0.00     0.000 C 
BRANCH  18  19
HETATM   19  C3  UNL     1      -5.135  -1.795  -0.825  1.00  0.00    -0.000 C 
BRANCH  19  20
HETATM   20  C2  UNL     1      -5.860  -0.825   0.091  1.00  0.00    -0.005 C 
HETATM   21  C1  UNL     1      -6.413  -1.567   1.284  1.00  0.00     0.005 C 
ENDBRANCH  19  20
ENDBRANCH  18  19
ENDBRANCH  17  18
ENDBRANCH  16  17
ENDBRANCH  15  16
BRANCH  15  22
HETATM   22  C8  UNL     1      -1.816   1.380   0.502  1.00  0.00     0.228 C 
HETATM   23  O1  UNL     1      -1.282   1.363   1.641  1.00  0.00    -0.273 OA
HETATM   24  N1  UNL     1      -2.775   2.386   0.230  1.00  0.00    -0.333 N 
HETATM   25  C9  UNL     1      -3.373   2.401  -1.073  1.00  0.00     0.207 C 
HETATM   26  C11 UNL     1      -3.063   3.314   1.285  1.00  0.00     0.207 C 
HETATM   27  S1  UNL     1      -3.972   4.053  -1.588  1.00  0.00    -0.091 SA
HETATM   28  C10 UNL     1      -5.091   4.570  -0.291  1.00  0.00     0.107 C 
HETATM   29  S2  UNL     1      -6.075   5.525  -0.478  1.00  0.00    -0.065 SA
HETATM   30  S3  UNL     1      -4.830   3.748   1.276  1.00  0.00    -0.091 SA
ENDBRANCH  15  22
ENDBRANCH   1  15
BRANCH   6  31
HETATM   31  C15 UNL     1       3.627   0.866  -2.026  1.00  0.00     0.013 C 
HETATM   32  C16 UNL     1       2.655   2.052  -2.204  1.00  0.00     0.012 C 
BRANCH  31  33
HETATM   33  C17 UNL     1       4.220   0.546  -3.337  1.00  0.00     0.002 C 
HETATM   34  C18 UNL     1       5.334  -0.471  -3.286  1.00  0.00     0.005 C 
ENDBRANCH  31  33
ENDBRANCH   6  31
BRANCH  11  35
HETATM   35  C21 UNL     1       4.946  -0.887   2.791  1.00  0.00     0.085 C 
BRANCH  35  36
HETATM   36  C22 UNL     1       4.478  -0.373   4.123  1.00  0.00     0.354 C 
HETATM   37  F1  UNL     1       4.118   0.944   4.036  1.00  0.00    -0.214 F 
HETATM   38  F2  UNL     1       5.570  -0.448   4.987  1.00  0.00    -0.214 F 
ENDBRANCH  35  36
ENDBRANCH  11  35
TORSDOF 11
