REMARK  9 active torsions:
REMARK  status: ('A' for Active; 'I' for Inactive)
REMARK    1  A    between atoms: C2_2  and  C3_3 
REMARK    2  A    between atoms: C3_3  and  C4_4 
REMARK    3  A    between atoms: C5_5  and  C6_6 
REMARK    4  A    between atoms: C6_6  and  C7_7 
REMARK    5  A    between atoms: C7_7  and  O1_8 
REMARK    6  A    between atoms: C7_7  and  C8_11 
REMARK    7  A    between atoms: C8_11  and  C9_12 
REMARK    8  A    between atoms: C8_11  and  C13_19 
REMARK    9  A    between atoms: C10_13  and  C11_15 
ROOT
HETATM    1  C8  UNL     1      -1.507   0.409  -0.717  1.00  0.00     0.136 C 
ENDROOT
BRANCH   1   2
HETATM    2  C7  UNL     1      -0.184  -0.308  -0.839  1.00  0.00     0.151 C 
HETATM    3 CL1  UNL     1      -0.251  -1.554  -2.124  1.00  0.00    -0.087 Cl
BRANCH   2   4
HETATM    4  C6  UNL     1       0.314  -0.926   0.422  1.00  0.00     0.082 C 
BRANCH   4   5
HETATM    5  C5  UNL     1       1.615  -1.584   0.113  1.00  0.00    -0.026 C 
HETATM    6  C4  UNL     1       2.754  -1.255   0.706  1.00  0.00    -0.030 C 
BRANCH   6   7
HETATM    7  C3  UNL     1       3.992  -1.948   0.347  1.00  0.00     0.026 C 
BRANCH   7   8
HETATM    8  C2  UNL     1       5.063  -1.043  -0.198  1.00  0.00    -0.001 C 
HETATM    9  C1  UNL     1       5.494   0.028   0.743  1.00  0.00     0.005 C 
ENDBRANCH   7   8
ENDBRANCH   6   7
ENDBRANCH   4   5
ENDBRANCH   2   4
BRANCH   2  10
HETATM   10  O1  UNL     1       0.760   0.627  -1.269  1.00  0.00    -0.373 OA
ATOM     11  H1  UNL     1       0.442   1.021  -2.073  1.00  0.00     0.212 HD
ENDBRANCH   2  10
ENDBRANCH   1   2
BRANCH   1  12
HETATM   12  C9  UNL     1      -2.598  -0.470  -0.275  1.00  0.00     0.013 C 
HETATM   13  C10 UNL     1      -3.617  -0.831  -1.046  1.00  0.00     0.047 C 
HETATM   14 CL2  UNL     1      -3.642  -0.210  -2.686  1.00  0.00    -0.086 Cl
BRANCH  13  15
HETATM   15  C11 UNL     1      -4.712  -1.706  -0.617  1.00  0.00     0.147 C 
HETATM   16  C12 UNL     1      -4.569  -2.176   0.812  1.00  0.00     0.056 C 
HETATM   17 CL3  UNL     1      -6.272  -0.902  -0.874  1.00  0.00    -0.096 Cl
HETATM   18 CL4  UNL     1      -4.709  -3.171  -1.653  1.00  0.00    -0.096 Cl
ENDBRANCH  13  15
ENDBRANCH   1  12
BRANCH   1  19
HETATM   19  C13 UNL     1      -1.379   1.656   0.064  1.00  0.00     0.152 A 
HETATM   20  N1  UNL     1      -1.144   1.787   1.385  1.00  0.00    -0.281 N 
HETATM   21  N2  UNL     1      -1.112   3.083   1.636  1.00  0.00    -0.282 N 
ATOM     22  H1  UNL     1      -1.016   1.032   2.059  1.00  0.00     0.189 HD
HETATM   23  C14 UNL     1      -1.322   3.757   0.501  1.00  0.00     0.136 A 
ATOM     24  H2  UNL     1      -0.952   3.503   2.552  1.00  0.00     0.189 HD
HETATM   25  C15 UNL     1      -1.373   5.243   0.301  1.00  0.00     0.099 C 
HETATM   26  O2  UNL     1      -1.479   2.870  -0.424  1.00  0.00    -0.282 OA
ENDBRANCH   1  19
TORSDOF 9
