REMARK  3 active torsions:
REMARK  status: ('A' for Active; 'I' for Inactive)
REMARK    1  A    between atoms: C4_4  and  C5_5 
REMARK    2  A    between atoms: C5_5  and  C6_6 
REMARK    3  A    between atoms: C6_6  and  C7_7 
ROOT
HETATM    1  C5  UNL     1      -0.527   0.404   0.145  1.00  0.00    -0.061 C 
ENDROOT
BRANCH   1   2
HETATM    2  C4  UNL     1      -1.882   0.845  -0.020  1.00  0.00     0.021 A 
HETATM    3  C3  UNL     1      -2.368   1.900   0.723  1.00  0.00     0.029 A 
HETATM    4  C2  UNL     1      -3.688   2.344   0.576  1.00  0.00    -0.032 A 
HETATM    5  C1  UNL     1      -4.245   3.463   1.347  1.00  0.00     0.050 C 
HETATM    6  C19 UNL     1      -4.500   1.690  -0.344  1.00  0.00     0.066 A 
HETATM    7  C17 UNL     1      -4.040   0.639  -1.094  1.00  0.00     0.061 A 
HETATM    8  N3  UNL     1      -5.794   1.857  -0.728  1.00  0.00    -0.350 N 
HETATM    9  C16 UNL     1      -2.744   0.240  -0.917  1.00  0.00     0.052 A 
HETATM   10  N2  UNL     1      -5.000   0.173  -1.907  1.00  0.00    -0.350 N 
HETATM   11  C18 UNL     1      -6.085   0.939  -1.670  1.00  0.00     0.181 A 
ATOM     12  H2  UNL     1      -4.925  -0.600  -2.568  1.00  0.00     0.166 HD
ATOM     13  H3  UNL     1      -6.437   2.560  -0.364  1.00  0.00     0.166 HD
ENDBRANCH   1   2
BRANCH   1  14
HETATM   14  C6  UNL     1       0.614   0.041   0.289  1.00  0.00    -0.060 C 
BRANCH  14  15
HETATM   15  C7  UNL     1       1.971  -0.372   0.478  1.00  0.00     0.034 A 
HETATM   16  C8  UNL     1       2.833   0.244   1.357  1.00  0.00     0.109 A 
HETATM   17  N1  UNL     1       4.107  -0.154   1.526  1.00  0.00    -0.364 N 
HETATM   18  C9  UNL     1       4.601  -1.196   0.824  1.00  0.00     0.042 A 
ATOM     19  H1  UNL     1       4.705   0.336   2.191  1.00  0.00     0.165 HD
HETATM   20  C10 UNL     1       5.920  -1.596   1.009  1.00  0.00     0.030 A 
HETATM   21  C14 UNL     1       3.761  -1.832  -0.064  1.00  0.00    -0.008 A 
HETATM   22  C11 UNL     1       6.354  -2.669   0.256  1.00  0.00     0.002 A 
HETATM   23  C12 UNL     1       5.574  -3.343  -0.640  1.00  0.00     0.001 A 
HETATM   24  C13 UNL     1       4.259  -2.903  -0.789  1.00  0.00     0.014 A 
HETATM   25  C15 UNL     1       2.444  -1.434  -0.250  1.00  0.00     0.035 A 
ENDBRANCH  14  15
ENDBRANCH   1  14
TORSDOF 3
