REMARK  1 active torsions:
REMARK  status: ('A' for Active; 'I' for Inactive)
REMARK    1  A    between atoms: N2_11  and  O1_12 
ROOT
HETATM    1  N1  UNL     1       5.298   0.968   0.226  1.00  0.00    -0.102 NA
HETATM    2  C1  UNL     1       3.950   0.523   0.173  1.00  0.00     0.049 A 
HETATM    3  C2  UNL     1       3.655  -0.812   0.216  1.00  0.00     0.039 A 
HETATM    4  C3  UNL     1       2.348  -1.294   0.167  1.00  0.00    -0.021 A 
HETATM    5  C4  UNL     1       2.081  -2.645   0.213  1.00  0.00     0.012 A 
HETATM    6  C5  UNL     1       0.778  -3.076   0.162  1.00  0.00     0.002 A 
HETATM    7  C6  UNL     1      -0.272  -2.170   0.065  1.00  0.00     0.013 A 
HETATM    8  C7  UNL     1      -0.001  -0.824   0.019  1.00  0.00    -0.009 A 
HETATM    9  C8  UNL     1      -0.992   0.139  -0.077  1.00  0.00     0.015 A 
HETATM   10  C9  UNL     1      -0.654   1.485  -0.119  1.00  0.00     0.075 A 
HETATM   11  N2  UNL     1       0.621   1.866  -0.067  1.00  0.00    -0.223 N 
HETATM   12  C10 UNL     1       1.594   0.966   0.026  1.00  0.00     0.076 A 
HETATM   13  C11 UNL     1       2.901   1.425   0.076  1.00  0.00     0.059 A 
HETATM   14  C12 UNL     1       1.322  -0.381   0.071  1.00  0.00     0.015 A 
HETATM   15  C13 UNL     1      -1.880   2.268  -0.221  1.00  0.00     0.045 A 
HETATM   16  C14 UNL     1      -2.841   1.365  -0.232  1.00  0.00    -0.023 A 
HETATM   17  C15 UNL     1      -4.203   1.619  -0.317  1.00  0.00     0.012 A 
HETATM   18  C16 UNL     1      -5.075   0.575  -0.318  1.00  0.00     0.001 A 
HETATM   19  C17 UNL     1      -4.565  -0.684  -0.234  1.00  0.00     0.001 A 
HETATM   20  C18 UNL     1      -3.196  -0.972  -0.147  1.00  0.00     0.013 A 
HETATM   21  C19 UNL     1      -2.310   0.071  -0.146  1.00  0.00    -0.012 A 
ENDROOT
BRANCH  11  22
HETATM   22  O1  UNL     1       0.882   3.233  -0.114  1.00  0.00    -0.282 OA
ATOM     23  H1  UNL     1       1.792   3.505  -0.077  1.00  0.00     0.245 HD
ENDBRANCH  11  22
TORSDOF 1
