REMARK  7 active torsions:
REMARK  status: ('A' for Active; 'I' for Inactive)
REMARK    1  A    between atoms: C2_2  and  N1_4 
REMARK       I    between atoms: N1_4  and  C4_6 
REMARK    2  A    between atoms: C4_6  and  C5_8 
REMARK       I    between atoms: N2_13  and  C10_14 
REMARK    3  A    between atoms: C10_14  and  C11_16 
REMARK    4  A    between atoms: C11_16  and  C12_17 
REMARK    5  A    between atoms: C11_16  and  N3_22 
REMARK    6  A    between atoms: C12_17  and  C13_18 
REMARK       I    between atoms: N3_22  and  C17_24 
REMARK       I    between atoms: C17_24  and  N4_26 
REMARK    7  A    between atoms: N4_26  and  C18_28 
ROOT
HETATM    1  C11 UNL     1      -0.339  -1.114   0.896  1.00  0.00     0.179 C 
ENDROOT
BRANCH   1   2
HETATM    2  C10 UNL     1      -1.083  -0.933  -0.390  1.00  0.00     0.243 C 
HETATM    3  N2  UNL     1      -2.497  -0.651  -0.399  1.00  0.00    -0.332 N 
HETATM    4  C5  UNL     1      -3.296  -0.432  -1.563  1.00  0.00     0.180 C 
HETATM    5  C9  UNL     1      -3.334  -0.518   0.760  1.00  0.00     0.092 A 
HETATM    6  C6  UNL     1      -4.725  -0.312  -1.160  1.00  0.00     0.042 C 
HETATM    7  C7  UNL     1      -4.701  -0.225   0.336  1.00  0.00     0.013 A 
HETATM    8  C8  UNL     1      -4.403  -1.455   1.115  1.00  0.00     0.032 A 
HETATM    9  O2  UNL     1      -0.528  -1.005  -1.520  1.00  0.00    -0.271 OA
BRANCH   4  10
HETATM   10  C4  UNL     1      -2.875   0.772  -2.324  1.00  0.00     0.241 C 
HETATM   11  N1  UNL     1      -3.531   1.128  -3.521  1.00  0.00    -0.355 N 
ATOM     12  H1  UNL     1      -4.299   0.540  -3.844  1.00  0.00     0.162 HD
HETATM   13  O1  UNL     1      -1.931   1.458  -1.884  1.00  0.00    -0.271 OA
BRANCH  11  14
HETATM   14  C2  UNL     1      -3.173   2.282  -4.315  1.00  0.00     0.076 C 
HETATM   15  C1  UNL     1      -2.922   1.988  -5.751  1.00  0.00     0.032 C 
HETATM   16  C3  UNL     1      -4.232   3.365  -4.223  1.00  0.00     0.032 C 
ENDBRANCH  11  14
ENDBRANCH   4  10
ENDBRANCH   1   2
BRANCH   1  17
HETATM   17  C12 UNL     1      -0.641  -2.464   1.431  1.00  0.00     0.043 C 
BRANCH  17  18
HETATM   18  C13 UNL     1       0.010  -2.823   2.734  1.00  0.00    -0.049 C 
HETATM   19  C14 UNL     1      -0.349  -1.908   3.871  1.00  0.00     0.014 C 
HETATM   20  C15 UNL     1      -0.607  -4.186   3.109  1.00  0.00     0.014 C 
HETATM   21  C16 UNL     1       1.476  -3.029   2.708  1.00  0.00     0.014 C 
ENDBRANCH  17  18
ENDBRANCH   1  17
BRANCH   1  22
HETATM   22  N3  UNL     1       1.083  -1.165   0.449  1.00  0.00    -0.330 N 
HETATM   23  C17 UNL     1       1.944  -0.082   0.678  1.00  0.00     0.317 C 
HETATM   24  O3  UNL     1       1.566   0.985   1.268  1.00  0.00    -0.247 OA
HETATM   25  N4  UNL     1       3.288  -0.127   0.255  1.00  0.00    -0.339 N 
ATOM     26  H4  UNL     1       3.629  -0.969  -0.210  1.00  0.00     0.164 HD
ATOM     27  H3  UNL     1       1.433  -1.996  -0.028  1.00  0.00     0.165 HD
BRANCH  25  28
HETATM   28  C18 UNL     1       4.206   0.983   0.457  1.00  0.00     0.086 C 
HETATM   29  C19 UNL     1       5.348   0.688   1.354  1.00  0.00     0.025 C 
HETATM   30  C20 UNL     1       6.325   1.822   1.345  1.00  0.00     0.002 C 
HETATM   31  C21 UNL     1       5.694   3.035   0.753  1.00  0.00     0.000 C 
HETATM   32  C22 UNL     1       5.324   2.828  -0.703  1.00  0.00     0.002 C 
HETATM   33  C23 UNL     1       4.570   1.554  -0.888  1.00  0.00     0.025 C 
ENDBRANCH  25  28
ENDBRANCH   1  22
TORSDOF 7
