REMARK  6 active torsions:
REMARK  status: ('A' for Active; 'I' for Inactive)
REMARK       I    between atoms: C2_2  and  N1_4 
REMARK    1  A    between atoms: N1_4  and  C3_6 
REMARK    2  A    between atoms: C3_6  and  C4_7 
REMARK    3  A    between atoms: C3_6  and  C8_11 
REMARK    4  A    between atoms: C4_7  and  C5_8 
REMARK       I    between atoms: C8_11  and  N2_13 
REMARK    5  A    between atoms: C13_18  and  C14_19 
REMARK       I    between atoms: C14_19  and  N3_21 
REMARK    6  A    between atoms: N3_21  and  C15_23 
ROOT
HETATM    1  C8  UNL     1      -2.160   0.012  -0.886  1.00  0.00     0.267 C 
HETATM    2  O2  UNL     1      -1.571   0.623  -1.793  1.00  0.00    -0.266 OA
HETATM    3  N2  UNL     1      -1.397  -0.926  -0.106  1.00  0.00    -0.334 N 
HETATM    4  C9  UNL     1      -2.103  -2.081   0.454  1.00  0.00     0.127 C 
HETATM    5  C10 UNL     1      -1.199  -3.312   0.512  1.00  0.00     0.020 C 
HETATM    6  C11 UNL     1       0.080  -3.013   1.216  1.00  0.00     0.004 C 
HETATM    7  C12 UNL     1       0.112  -1.568   1.661  1.00  0.00     0.035 C 
HETATM    8  C13 UNL     1      -0.101  -0.704   0.355  1.00  0.00     0.179 C 
ENDROOT
BRANCH   8   9
HETATM    9  C14 UNL     1       1.146  -0.913  -0.377  1.00  0.00     0.241 C 
HETATM   10  O3  UNL     1       1.353  -1.593  -1.397  1.00  0.00    -0.271 OA
HETATM   11  N3  UNL     1       2.297  -0.231   0.186  1.00  0.00    -0.354 N 
ATOM     12  H3  UNL     1       2.127   0.367   0.995  1.00  0.00     0.162 HD
BRANCH  11  13
HETATM   13  C15 UNL     1       3.630  -0.315  -0.277  1.00  0.00     0.092 C 
HETATM   14  C16 UNL     1       4.635  -0.151   0.859  1.00  0.00     0.009 C 
HETATM   15  C17 UNL     1       4.669   1.304   1.292  1.00  0.00     0.011 C 
HETATM   16  C21 UNL     1       6.009  -0.529   0.382  1.00  0.00     0.011 C 
HETATM   17  C18 UNL     1       5.106   2.167   0.114  1.00  0.00    -0.013 C 
HETATM   18  C19 UNL     1       6.437   1.725  -0.383  1.00  0.00     0.009 C 
HETATM   19  C24 UNL     1       4.048   2.053  -0.970  1.00  0.00     0.011 C 
HETATM   20  C20 UNL     1       6.383   0.279  -0.854  1.00  0.00    -0.013 C 
HETATM   21  C22 UNL     1       5.356   0.156  -1.926  1.00  0.00     0.011 C 
HETATM   22  C23 UNL     1       3.996   0.626  -1.403  1.00  0.00     0.009 C 
ENDBRANCH  11  13
ENDBRANCH   8   9
BRANCH   1  23
HETATM   23  C3  UNL     1      -3.612   0.269  -0.631  1.00  0.00     0.080 C 
BRANCH  23  24
HETATM   24  N1  UNL     1      -4.598  -0.639  -1.007  1.00  0.00    -0.326 N 
HETATM   25  C2  UNL     1      -5.500  -0.678  -2.097  1.00  0.00     0.218 C 
HETATM   26  C1  UNL     1      -6.442  -1.849  -2.173  1.00  0.00     0.117 C 
HETATM   27  O1  UNL     1      -5.537   0.194  -2.965  1.00  0.00    -0.274 OA
ATOM     28  H1  UNL     1      -4.688  -1.432  -0.372  1.00  0.00     0.168 HD
ENDBRANCH  23  24
BRANCH  23  29
HETATM   29  C4  UNL     1      -3.721   1.019   0.651  1.00  0.00     0.067 C 
BRANCH  29  30
HETATM   30  C5  UNL     1      -4.904   1.888   0.852  1.00  0.00    -0.017 C 
HETATM   31  C6  UNL     1      -5.079   2.994  -0.156  1.00  0.00     0.010 C 
HETATM   32  C7  UNL     1      -6.191   1.214   1.225  1.00  0.00     0.010 C 
ENDBRANCH  29  30
ENDBRANCH  23  29
ENDBRANCH   1  23
TORSDOF 6
