REMARK  4 active torsions:
REMARK  status: ('A' for Active; 'I' for Inactive)
REMARK    1  A    between atoms: C2_2  and  C5_5 
REMARK    2  A    between atoms: C7_8  and  C8_9 
REMARK    3  A    between atoms: C9_10  and  C10_11 
REMARK    4  A    between atoms: C10_11  and  C11_14 
ROOT
HETATM    1  C5  UNL     1      -1.253  -0.202   0.399  1.00  0.00    -0.025 A 
HETATM    2  C6  UNL     1      -0.868  -0.745   1.605  1.00  0.00     0.151 A 
HETATM    3  O1  UNL     1       0.422  -0.615   1.721  1.00  0.00    -0.313 OA
HETATM    4  C7  UNL     1       0.937  -0.010   0.658  1.00  0.00     0.128 A 
HETATM    5  C12 UNL     1      -0.097   0.264  -0.199  1.00  0.00     0.056 A 
ENDROOT
BRANCH   4   6
HETATM    6  C8  UNL     1       2.312   0.310   0.420  1.00  0.00    -0.035 C 
HETATM    7  C9  UNL     1       3.482   0.592   0.234  1.00  0.00    -0.012 C 
BRANCH   7   8
HETATM    8  C10 UNL     1       4.898   0.911   0.022  1.00  0.00     0.402 C 
HETATM    9  F1  UNL     1       5.665   0.622   1.147  1.00  0.00    -0.181 F 
HETATM   10  F2  UNL     1       5.076   2.235  -0.256  1.00  0.00    -0.181 F 
BRANCH   8  11
HETATM   11  C11 UNL     1       5.376  -0.001  -1.079  1.00  0.00     0.467 C 
HETATM   12  F3  UNL     1       5.240  -1.316  -0.751  1.00  0.00    -0.164 F 
HETATM   13  F4  UNL     1       4.718   0.343  -2.254  1.00  0.00    -0.164 F 
HETATM   14  F5  UNL     1       6.749   0.252  -1.197  1.00  0.00    -0.164 F 
ENDBRANCH   8  11
ENDBRANCH   7   8
ENDBRANCH   4   6
BRANCH   1  15
HETATM   15  C2  UNL     1      -2.643  -0.189  -0.100  1.00  0.00    -0.022 C 
HETATM   16  C1  UNL     1      -2.675  -0.358  -1.591  1.00  0.00     0.019 C 
HETATM   17  C3  UNL     1      -3.257   1.137   0.288  1.00  0.00     0.019 C 
HETATM   18  C4  UNL     1      -3.449  -1.267   0.619  1.00  0.00     0.019 C 
ENDBRANCH   1  15
TORSDOF 4
