REMARK  8 active torsions:
REMARK  status: ('A' for Active; 'I' for Inactive)
REMARK    1  A    between atoms: C3_3  and  C4_4 
REMARK    2  A    between atoms: C4_4  and  C5_5 
REMARK    3  A    between atoms: C7_9  and  O3_11 
REMARK    4  A    between atoms: C9_13  and  O4_14 
REMARK    5  A    between atoms: C9_13  and  N1_16 
REMARK    6  A    between atoms: N1_16  and  N2_18 
REMARK    7  A    between atoms: C10_23  and  O5_24 
REMARK    8  A    between atoms: C10_23  and  N4_26 
ROOT
HETATM    1  C1  UNL     1      -0.854   3.563   1.689  1.00  0.00     0.012 C 
HETATM    2  C2  UNL     1      -1.211   2.624   1.027  1.00  0.00    -0.116 C 
HETATM    3  C3  UNL     1      -1.661   1.502   0.248  1.00  0.00     0.119 C 
ENDROOT
BRANCH   3   4
HETATM    4  C4  UNL     1      -0.533   0.880  -0.611  1.00  0.00     0.127 C 
HETATM    5  C6  UNL     1      -1.261  -0.135  -1.471  1.00  0.00     0.069 C 
HETATM    6  C7  UNL     1      -1.129  -1.447  -0.830  1.00  0.00     0.112 C 
HETATM    7  C8  UNL     1      -2.440  -2.070  -0.412  1.00  0.00     0.051 C 
HETATM    8  C9  UNL     1      -0.194  -1.225   0.340  1.00  0.00     0.240 C 
HETATM    9  C10 UNL     1       0.417   0.137   0.241  1.00  0.00     0.331 C 
BRANCH   4  10
HETATM   10  C5  UNL     1      -0.080   1.940  -1.492  1.00  0.00     0.188 C 
HETATM   11  O1  UNL     1      -0.439   3.134  -1.349  1.00  0.00    -0.647 OA
HETATM   12  O2  UNL     1       0.784   1.734  -2.563  1.00  0.00    -0.647 OA
ENDBRANCH   4  10
BRANCH   6  13
HETATM   13  O3  UNL     1      -0.552  -2.326  -1.766  1.00  0.00    -0.385 OA
ATOM     14  H3  UNL     1      -0.466  -3.176  -1.351  1.00  0.00     0.210 HD
ENDBRANCH   6  13
BRANCH   8  15
HETATM   15  O4  UNL     1      -0.934  -1.371   1.559  1.00  0.00    -0.363 OA
ATOM     16  H4  UNL     1      -0.347  -1.232   2.293  1.00  0.00     0.213 HD
ENDBRANCH   8  15
BRANCH   8  17
HETATM   17  N1  UNL     1       0.666  -2.358   0.330  1.00  0.00    -0.281 N 
ATOM     18  H1  UNL     1       1.481  -2.320  -0.282  1.00  0.00     0.185 HD
BRANCH  17  19
HETATM   19  N2  UNL     1       0.511  -3.378   0.996  1.00  0.00    -0.251 N 
HETATM   20  N3  UNL     1       0.574  -4.163   1.961  1.00  0.00    -0.331 N 
ATOM     21  H32 UNL     1       1.085  -3.545   2.592  1.00  0.00     0.178 HD
ATOM     22  H31 UNL     1       0.445  -5.010   2.514  1.00  0.00     0.178 HD
ATOM     23  H2  UNL     1       0.002  -3.955   0.327  1.00  0.00     0.207 HD
ENDBRANCH  17  19
ENDBRANCH   8  17
BRANCH   9  24
HETATM   24  O5  UNL     1       0.326   0.634   1.584  1.00  0.00    -0.358 OA
ATOM     25  H5  UNL     1       0.937   0.156   2.132  1.00  0.00     0.213 HD
ENDBRANCH   9  24
BRANCH   9  26
HETATM   26  N4  UNL     1       1.790   0.148  -0.048  1.00  0.00     0.121 N 
HETATM   27  C11 UNL     1       2.452   1.424  -0.015  1.00  0.00     0.313 C 
HETATM   28  C12 UNL     1       2.539  -0.670   0.922  1.00  0.00     0.313 C 
ENDBRANCH   9  26
ENDBRANCH   3   4
TORSDOF 8
