REMARK  3 active torsions:
REMARK  status: ('A' for Active; 'I' for Inactive)
REMARK       I    between atoms: N1_2  and  C2_4 
REMARK    1  A    between atoms: C2_4  and  C3_6 
REMARK    2  A    between atoms: C5_11  and  N3_12 
REMARK    3  A    between atoms: N3_12  and  C6_14 
ROOT
HETATM    1  C3  UNL     1       2.026  -0.115  -0.176  1.00  0.00     0.069 A 
HETATM    2  C4  UNL     1       1.120  -0.785  -1.176  1.00  0.00     0.254 C 
HETATM    3  N2  UNL     1       0.317   0.263  -1.763  1.00  0.00    -0.053 N 
ATOM      4  H21 UNL     1      -0.027   0.010  -2.689  1.00  0.00     0.279 HD
ATOM      5  H22 UNL     1       0.877   1.072  -2.030  1.00  0.00     0.279 HD
HETATM    6  C5  UNL     1      -0.766   0.621  -0.853  1.00  0.00     0.285 C 
HETATM    7  C11 UNL     1      -0.204   0.887   0.505  1.00  0.00     0.060 C 
HETATM    8  C12 UNL     1       1.281   0.842   0.633  1.00  0.00     0.010 A 
HETATM    9  C13 UNL     1       1.817  -0.377   1.304  1.00  0.00     0.027 A 
ENDROOT
BRANCH   6  10
HETATM   10  N3  UNL     1      -1.637  -0.537  -0.801  1.00  0.00    -0.349 N 
ATOM     11  H3  UNL     1      -1.342  -1.389  -1.278  1.00  0.00     0.163 HD
BRANCH  10  12
HETATM   12  C6  UNL     1      -2.881  -0.540  -0.118  1.00  0.00     0.103 A 
HETATM   13  C7  UNL     1      -3.645  -1.696  -0.121  1.00  0.00     0.048 A 
HETATM   14  C8  UNL     1      -4.866  -1.769   0.508  1.00  0.00     0.007 A 
HETATM   15  C9  UNL     1      -5.356  -0.664   1.165  1.00  0.00     0.042 A 
HETATM   16  C10 UNL     1      -4.574   0.466   1.147  1.00  0.00     0.102 A 
HETATM   17  S1  UNL     1      -5.125   1.792   1.915  1.00  0.00    -0.060 SA
HETATM   18  N4  UNL     1      -3.370   0.534   0.526  1.00  0.00    -0.334 N 
ATOM     19  H4  UNL     1      -2.834   1.402   0.548  1.00  0.00     0.168 HD
ENDBRANCH  10  12
ENDBRANCH   6  10
BRANCH   1  20
HETATM   20  C2  UNL     1       3.416   0.142  -0.621  1.00  0.00     0.228 C 
HETATM   21  N1  UNL     1       4.384   0.765   0.207  1.00  0.00    -0.365 N 
HETATM   22  C1  UNL     1       5.740   1.010  -0.241  1.00  0.00     0.149 C 
ATOM     23  H1  UNL     1       4.117   1.050   1.149  1.00  0.00     0.161 HD
HETATM   24  O1  UNL     1       3.760  -0.201  -1.775  1.00  0.00    -0.273 OA
ENDBRANCH   1  20
TORSDOF 3
