REMARK  3 active torsions:
REMARK  status: ('A' for Active; 'I' for Inactive)
REMARK    1  A    between atoms: O1_2  and  C2_3 
REMARK    2  A    between atoms: C8_12  and  O4_13 
REMARK    3  A    between atoms: C9_15  and  O5_16 
ROOT
HETATM    1  C2  UNL     1       1.942   0.068  -0.720  1.00  0.00     0.293 C 
HETATM    2  O2  UNL     1       0.993   0.868  -1.294  1.00  0.00    -0.327 OA
HETATM    3  C3  UNL     1      -0.300   0.582  -1.064  1.00  0.00     0.293 C 
HETATM    4  O3  UNL     1      -1.162   1.660  -0.944  1.00  0.00    -0.270 OA
HETATM    5  N1  UNL     1      -2.245   1.240  -0.295  1.00  0.00    -0.194 NA
HETATM    6  C4  UNL     1      -2.899   2.275   0.472  1.00  0.00     0.144 C 
HETATM    7  C5  UNL     1      -1.879   0.166   0.588  1.00  0.00     0.093 C 
HETATM    8  C6  UNL     1      -2.665  -1.056   0.203  1.00  0.00     0.029 C 
HETATM    9  C7  UNL     1      -0.409   0.030   0.367  1.00  0.00     0.094 C 
HETATM   10  C8  UNL     1       0.119  -1.346   0.308  1.00  0.00     0.162 C 
HETATM   11  C9  UNL     1       1.510  -1.272  -0.269  1.00  0.00     0.202 C 
ENDROOT
BRANCH   1  12
HETATM   12  O1  UNL     1       2.533   0.779   0.322  1.00  0.00    -0.363 OA
HETATM   13  C1  UNL     1       3.876   1.053   0.073  1.00  0.00     0.204 C 
ENDBRANCH   1  12
BRANCH  11  14
HETATM   14  O5  UNL     1       1.702  -2.254  -1.267  1.00  0.00    -0.388 OA
ATOM     15  H5  UNL     1       1.424  -3.115  -0.977  1.00  0.00     0.210 HD
ENDBRANCH  11  14
BRANCH  10  16
HETATM   16  O4  UNL     1       0.083  -1.933   1.566  1.00  0.00    -0.392 OA
ATOM     17  H4  UNL     1       0.423  -2.819   1.528  1.00  0.00     0.210 HD
ENDBRANCH  10  16
TORSDOF 3
