REMARK  4 active torsions:
REMARK  status: ('A' for Active; 'I' for Inactive)
REMARK    1  A    between atoms: C3_4  and  C4_5 
REMARK    2  A    between atoms: C5_7  and  N2_8 
REMARK    3  A    between atoms: C9_14  and  O2_15 
REMARK    4  A    between atoms: C10_17  and  O3_18 
ROOT
HETATM    1  N1  UNL     1       4.521   0.520  -1.444  1.00  0.00    -0.192 NA
HETATM    2  C1  UNL     1       4.063   0.920  -0.462  1.00  0.00     0.087 C 
HETATM    3  C2  UNL     1       3.490   1.441   0.755  1.00  0.00     0.092 C 
HETATM    4  C3  UNL     1       2.214   1.289   1.023  1.00  0.00     0.018 C 
ENDROOT
BRANCH   4   5
HETATM    5  C4  UNL     1       1.318   0.579   0.087  1.00  0.00     0.179 C 
HETATM    6  O1  UNL     1       0.042   1.032   0.259  1.00  0.00    -0.350 OA
HETATM    7  C5  UNL     1      -0.782  -0.002   0.603  1.00  0.00     0.275 C 
HETATM    8  C9  UNL     1      -0.106  -1.286   0.180  1.00  0.00     0.200 C 
HETATM    9  C10 UNL     1       1.352  -0.900   0.253  1.00  0.00     0.184 C 
BRANCH   7  10
HETATM   10  N2  UNL     1      -2.100   0.146   0.015  1.00  0.00    -0.272 N 
HETATM   11  C6  UNL     1      -2.446   0.836  -1.094  1.00  0.00     0.114 A 
HETATM   12  C7  UNL     1      -3.810   0.717  -1.307  1.00  0.00     0.037 A 
HETATM   13  C8  UNL     1      -4.268  -0.070  -0.281  1.00  0.00     0.108 A 
HETATM   14  N3  UNL     1      -3.218  -0.388   0.481  1.00  0.00    -0.308 N 
ATOM     15  H3  UNL     1      -3.271  -0.970   1.317  1.00  0.00     0.186 HD
ENDBRANCH   7  10
BRANCH   8  16
HETATM   16  O2  UNL     1      -0.401  -2.339   1.044  1.00  0.00    -0.388 OA
ATOM     17  H2  UNL     1       0.024  -3.146   0.778  1.00  0.00     0.210 HD
ENDBRANCH   8  16
BRANCH   9  18
HETATM   18  O3  UNL     1       1.941  -1.297   1.451  1.00  0.00    -0.390 OA
ATOM     19  H3  UNL     1       1.963  -2.241   1.557  1.00  0.00     0.210 HD
ENDBRANCH   9  18
ENDBRANCH   4   5
TORSDOF 4
