REMARK  19 active torsions:
REMARK  status: ('A' for Active; 'I' for Inactive)
REMARK    1  A    between atoms: C2_2  and  N1_3 
REMARK    2  A    between atoms: N1_3  and  C3_4 
REMARK    3  A    between atoms: N1_3  and  C5_6 
REMARK    4  A    between atoms: C5_6  and  C6_7 
REMARK    5  A    between atoms: C6_7  and  N2_8 
REMARK    6  A    between atoms: C8_13  and  N4_14 
REMARK    7  A    between atoms: N4_14  and  C9_16 
REMARK    8  A    between atoms: C9_16  and  C10_17 
REMARK    9  A    between atoms: C10_17  and  C11_18 
REMARK   10  A    between atoms: C11_18  and  C12_19 
REMARK   11  A    between atoms: C12_19  and  N5_20 
REMARK   12  A    between atoms: C13_26  and  N7_27 
REMARK   13  A    between atoms: N7_27  and  C14_29 
REMARK   14  A    between atoms: C14_29  and  C15_30 
REMARK   15  A    between atoms: C15_30  and  C16_31 
REMARK   16  A    between atoms: C16_31  and  C17_32 
REMARK   17  A    between atoms: C17_32  and  C18_33 
REMARK   18  A    between atoms: C18_33  and  C19_34 
REMARK   19  A    between atoms: C19_34  and  N8_35 
ROOT
HETATM    1  N2  UNL     1      -2.207  -1.122   0.864  1.00  0.00    -0.220 N 
ATOM      2  H2  UNL     1      -3.189  -0.849   0.828  1.00  0.00     0.178 HD
HETATM    3  C7  UNL     1      -1.327  -0.259   0.509  1.00  0.00     0.707 A 
HETATM    4  N3  UNL     1      -1.719   0.984   0.098  1.00  0.00    -0.022 N 
ATOM      5  H3  UNL     1      -2.715   1.204   0.080  1.00  0.00     0.203 HD
HETATM    6  C8  UNL     1      -0.844   1.922  -0.281  1.00  0.00     0.707 A 
HETATM    7  N6  UNL     1       0.483   1.663  -0.270  1.00  0.00    -0.022 N 
ATOM      8  H6  UNL     1       1.153   2.376  -0.559  1.00  0.00     0.203 HD
HETATM    9  C13 UNL     1       0.912   0.428   0.135  1.00  0.00     0.707 A 
HETATM   10  N9  UNL     1       0.010  -0.485   0.508  1.00  0.00    -0.022 N 
ATOM     11  H9  UNL     1       0.345  -1.400   0.808  1.00  0.00     0.203 HD
ENDROOT
BRANCH   9  12
HETATM   12  N7  UNL     1       2.169   0.246   0.118  1.00  0.00    -0.225 N 
ATOM     13  H7  UNL     1       2.703   1.055  -0.199  1.00  0.00     0.177 HD
BRANCH  12  14
HETATM   14  C14 UNL     1       2.962  -0.871   0.458  1.00  0.00     0.138 C 
BRANCH  14  15
HETATM   15  C15 UNL     1       4.165  -0.302   1.257  1.00  0.00     0.020 C 
BRANCH  15  16
HETATM   16  C16 UNL     1       4.863   0.663   0.382  1.00  0.00     0.002 C 
BRANCH  16  17
HETATM   17  C17 UNL     1       5.490   0.156  -0.834  1.00  0.00     0.002 C 
BRANCH  17  18
HETATM   18  C18 UNL     1       6.699  -0.680  -0.763  1.00  0.00     0.027 C 
BRANCH  18  19
HETATM   19  C19 UNL     1       6.721  -1.980  -0.078  1.00  0.00     0.229 C 
BRANCH  19  20
HETATM   20  N8  UNL     1       5.820  -2.983  -0.563  1.00  0.00    -0.079 N 
ATOM     21  H83 UNL     1       4.869  -2.615  -0.565  1.00  0.00     0.274 HD
ATOM     22  H82 UNL     1       5.970  -3.122  -1.562  1.00  0.00     0.274 HD
ATOM     23  H81 UNL     1       5.835  -3.885  -0.088  1.00  0.00     0.274 HD
ENDBRANCH  19  20
ENDBRANCH  18  19
ENDBRANCH  17  18
ENDBRANCH  16  17
ENDBRANCH  15  16
ENDBRANCH  14  15
ENDBRANCH  12  14
ENDBRANCH   9  12
BRANCH   6  24
HETATM   24  N4  UNL     1      -1.262   3.080  -0.658  1.00  0.00    -0.225 N 
ATOM     25  H4  UNL     1      -2.269   3.241  -0.651  1.00  0.00     0.177 HD
BRANCH  24  26
HETATM   26  C9  UNL     1      -0.420   4.167  -1.089  1.00  0.00     0.138 C 
BRANCH  26  27
HETATM   27  C10 UNL     1      -1.194   5.235  -1.816  1.00  0.00     0.022 C 
BRANCH  27  28
HETATM   28  C11 UNL     1      -2.277   5.841  -0.953  1.00  0.00     0.029 C 
BRANCH  28  29
HETATM   29  C12 UNL     1      -1.691   6.475   0.290  1.00  0.00     0.229 C 
BRANCH  29  30
HETATM   30  N5  UNL     1      -2.759   7.047   1.093  1.00  0.00    -0.079 N 
ATOM     31  H53 UNL     1      -3.333   7.701   0.561  1.00  0.00     0.274 HD
ATOM     32  H52 UNL     1      -3.483   6.364   1.314  1.00  0.00     0.274 HD
ATOM     33  H51 UNL     1      -2.364   7.474   1.931  1.00  0.00     0.274 HD
ENDBRANCH  29  30
ENDBRANCH  28  29
ENDBRANCH  27  28
ENDBRANCH  26  27
ENDBRANCH  24  26
ENDBRANCH   6  24
BRANCH   1  34
HETATM   34  C6  UNL     1      -1.891  -2.445   1.308  1.00  0.00     0.183 C 
BRANCH  34  35
HETATM   35  C5  UNL     1      -3.048  -3.340   1.563  1.00  0.00     0.088 C 
BRANCH  35  36
HETATM   36  N1  UNL     1      -3.925  -3.651   0.528  1.00  0.00    -0.353 N 
BRANCH  36  37
HETATM   37  C2  UNL     1      -4.781  -2.687  -0.017  1.00  0.00     0.064 C 
HETATM   38  C1  UNL     1      -6.239  -3.017   0.235  1.00  0.00     0.055 C 
ENDBRANCH  36  37
BRANCH  36  39
HETATM   39  C3  UNL     1      -3.926  -4.942  -0.029  1.00  0.00     0.064 C 
HETATM   40  C4  UNL     1      -3.396  -5.109  -1.407  1.00  0.00     0.055 C 
ENDBRANCH  36  39
ENDBRANCH  35  36
ENDBRANCH  34  35
ENDBRANCH   1  34
TORSDOF 19
