REMARK  2 active torsions:
REMARK  status: ('A' for Active; 'I' for Inactive)
REMARK    1  A    between atoms: C3_3  and  N1_4 
REMARK       I    between atoms: N1_4  and  C4_6 
REMARK       I    between atoms: C4_6  and  N2_8 
REMARK       I    between atoms: N3_10  and  C6_11 
REMARK    2  A    between atoms: C6_11  and  C7_13 
ROOT
HETATM    1  C1  UNL     1       5.229  -2.826  -0.214  1.00  0.00     0.014 C 
HETATM    2  C2  UNL     1       5.177  -1.744   0.316  1.00  0.00    -0.098 C 
HETATM    3  C3  UNL     1       5.106  -0.406   0.942  1.00  0.00     0.217 C 
ENDROOT
BRANCH   3   4
HETATM    4  N1  UNL     1       3.789   0.102   0.686  1.00  0.00    -0.333 N 
HETATM    5  C4  UNL     1       2.611  -0.550   1.128  1.00  0.00     0.320 C 
HETATM    6  O1  UNL     1       2.730  -1.619   1.771  1.00  0.00    -0.247 OA
HETATM    7  N2  UNL     1       1.315  -0.055   0.879  1.00  0.00    -0.315 N 
HETATM    8  C5  UNL     1       0.122  -0.735   1.338  1.00  0.00     0.257 C 
HETATM    9  C15 UNL     1       1.216   1.195   0.125  1.00  0.00     0.169 C 
HETATM   10  N3  UNL     1      -0.939  -0.681   0.348  1.00  0.00    -0.332 N 
HETATM   11  C6  UNL     1      -1.864  -1.746   0.308  1.00  0.00     0.225 C 
HETATM   12  C10 UNL     1      -1.043   0.429  -0.567  1.00  0.00     0.167 C 
HETATM   13  O2  UNL     1      -1.767  -2.712   1.116  1.00  0.00    -0.273 OA
HETATM   14  C11 UNL     1      -0.238   1.575  -0.064  1.00  0.00     0.093 C 
HETATM   15  C12 UNL     1      -0.284   2.778  -0.959  1.00  0.00     0.043 C 
HETATM   16  O3  UNL     1      -0.784   2.028   1.116  1.00  0.00    -0.377 OA
HETATM   17  C13 UNL     1      -1.574   3.458  -0.533  1.00  0.00     0.029 C 
HETATM   18  C14 UNL     1      -1.898   2.781   0.787  1.00  0.00     0.169 C 
ATOM     19  H1  UNL     1       3.696   0.972   0.162  1.00  0.00     0.165 HD
BRANCH  11  20
HETATM   20  C7  UNL     1      -2.949  -1.730  -0.685  1.00  0.00     0.078 A 
HETATM   21  C8  UNL     1      -4.260  -2.339  -0.309  1.00  0.00     0.015 A 
HETATM   22  C9  UNL     1      -3.362  -3.103  -1.198  1.00  0.00     0.015 A 
ENDBRANCH  11  20
ENDBRANCH   3   4
TORSDOF 2
