REMARK  2 active torsions:
REMARK  status: ('A' for Active; 'I' for Inactive)
REMARK    1  A    between atoms: C2_2  and  N1_4 
REMARK       I    between atoms: N1_4  and  C4_5 
REMARK    2  A    between atoms: N1_4  and  C12_21 
REMARK       I    between atoms: N3_7  and  C5_9 
REMARK       I    between atoms: C5_9  and  N6_14 
ROOT
HETATM    1  N1  UNL     1      -2.567   0.359   0.140  1.00  0.00    -0.346 N 
HETATM    2  C4  UNL     1      -1.424  -0.482  -0.208  1.00  0.00     0.205 C 
HETATM    3  N2  UNL     1      -1.590  -1.226  -1.406  1.00  0.00    -0.063 NA
HETATM    4  N3  UNL     1      -0.382  -0.530   0.514  1.00  0.00    -0.163 N 
ATOM      5  H3  UNL     1      -0.323   0.028   1.366  1.00  0.00     0.187 HD
HETATM    6  C5  UNL     1       0.702  -1.363   0.133  1.00  0.00     0.691 C 
HETATM    7  N4  UNL     1       0.548  -2.651  -0.028  1.00  0.00    -0.126 N 
ATOM      8  H4  UNL     1      -0.371  -3.066   0.124  1.00  0.00     0.197 HD
HETATM    9  C6  UNL     1       1.614  -3.472  -0.403  1.00  0.00     0.196 C 
HETATM   10  N5  UNL     1       2.492  -4.168  -0.728  1.00  0.00    -0.171 NA
HETATM   11  N6  UNL     1       1.995  -0.820  -0.086  1.00  0.00    -0.214 N 
HETATM   12  C7  UNL     1       3.123  -1.038   0.777  1.00  0.00     0.171 C 
HETATM   13  C8  UNL     1       4.381  -0.940  -0.062  1.00  0.00     0.292 C 
HETATM   14  N7  UNL     1       4.537   0.362  -0.645  1.00  0.00     0.087 N 
HETATM   15  C9  UNL     1       5.492   1.161   0.066  1.00  0.00     0.310 C 
HETATM   16  C10 UNL     1       3.277   1.051  -0.847  1.00  0.00     0.292 C 
HETATM   17  C11 UNL     1       2.220   0.024  -1.266  1.00  0.00     0.171 C 
ENDROOT
BRANCH   1  18
HETATM   18  C2  UNL     1      -3.410  -0.265   1.093  1.00  0.00     0.079 C 
HETATM   19  C1  UNL     1      -4.644   0.419   1.528  1.00  0.00     0.032 C 
HETATM   20  C3  UNL     1      -3.767  -1.695   0.725  1.00  0.00     0.032 C 
ENDBRANCH   1  18
BRANCH   1  21
HETATM   21  C12 UNL     1      -2.620   1.610  -0.504  1.00  0.00     0.087 A 
HETATM   22  C13 UNL     1      -2.486   2.818   0.469  1.00  0.00     0.027 A 
HETATM   23  C14 UNL     1      -3.651   2.635  -0.434  1.00  0.00     0.027 A 
ENDBRANCH   1  21
TORSDOF 2
