REMARK  4 active torsions:
REMARK  status: ('A' for Active; 'I' for Inactive)
REMARK    1  A    between atoms: N2_5  and  C4_6 
REMARK    2  A    between atoms: C4_6  and  N3_8 
REMARK    3  A    between atoms: C5_10  and  C6_11 
REMARK    4  A    between atoms: C6_11  and  N4_12 
ROOT
HETATM    1  C4  UNL     1      -0.975  -0.429   1.208  1.00  0.00     0.173 C 
HETATM    2  S1  UNL     1      -0.460   0.259   2.586  1.00  0.00    -0.041 SA
ENDROOT
BRANCH   1   3
HETATM    3  N2  UNL     1      -2.121   0.051   0.547  1.00  0.00    -0.355 N 
HETATM    4  C3  UNL     1      -2.465  -0.653  -0.666  1.00  0.00     0.141 C 
HETATM    5  C2  UNL     1      -3.916  -1.121  -0.646  1.00  0.00     0.132 C 
HETATM    6  N1  UNL     1      -4.763   0.044  -0.729  1.00  0.00    -0.238 NA
HETATM    7  C1  UNL     1      -5.707   0.020   0.339  1.00  0.00     0.135 C 
HETATM    8  N5  UNL     1      -4.067   1.220  -0.877  1.00  0.00    -0.353 N 
HETATM    9  C13 UNL     1      -3.748   1.888   0.344  1.00  0.00     0.153 C 
ATOM     10  H5  UNL     1      -3.799   1.588  -1.790  1.00  0.00     0.174 HD
HETATM   11  C12 UNL     1      -2.761   1.176   1.202  1.00  0.00     0.146 C 
ENDBRANCH   1   3
BRANCH   1  12
HETATM   12  N3  UNL     1      -0.263  -1.523   0.668  1.00  0.00    -0.345 N 
HETATM   13  C5  UNL     1       0.993  -1.466   0.375  1.00  0.00     0.093 C 
ATOM     14  H3  UNL     1      -0.763  -2.396   0.502  1.00  0.00     0.167 HD
BRANCH  13  15
HETATM   15  C6  UNL     1       1.693  -0.179   0.629  1.00  0.00     0.317 C 
BRANCH  15  16
HETATM   16  N4  UNL     1       2.851  -0.162  -0.267  1.00  0.00     0.093 N 
HETATM   17  C7  UNL     1       3.605   1.054  -0.100  1.00  0.00     0.273 C 
HETATM   18  C8  UNL     1       4.789   1.044  -1.011  1.00  0.00     0.030 C 
HETATM   19  C9  UNL     1       5.564  -0.252  -0.968  1.00  0.00     0.003 C 
HETATM   20  C10 UNL     1       5.077  -1.056   0.201  1.00  0.00     0.030 C 
HETATM   21  C11 UNL     1       3.609  -1.353   0.006  1.00  0.00     0.273 C 
ENDBRANCH  15  16
ENDBRANCH  13  15
ENDBRANCH   1  12
TORSDOF 4
