REMARK  2 active torsions:
REMARK  status: ('A' for Active; 'I' for Inactive)
REMARK    1  A    between atoms: C1_2  and  C2_3 
REMARK       I    between atoms: C1_2  and  N3_14 
REMARK    2  A    between atoms: C2_3  and  N1_4 
ROOT
HETATM    1  C2  UNL     1       1.127  -1.406  -0.321  1.00  0.00     0.134 C 
ENDROOT
BRANCH   1   2
HETATM    2  C1  UNL     1       2.131  -1.537   0.716  1.00  0.00     0.257 C 
HETATM    3  O1  UNL     1       1.854  -1.367   1.918  1.00  0.00    -0.267 OA
HETATM    4  N3  UNL     1       3.469  -1.867   0.386  1.00  0.00    -0.303 N 
HETATM    5  C11 UNL     1       4.434  -1.053   0.305  1.00  0.00     0.142 C 
ATOM      6  H3  UNL     1       3.672  -2.849   0.197  1.00  0.00     0.171 HD
HETATM    7  N4  UNL     1       4.538   0.349   0.492  1.00  0.00    -0.370 N 
HETATM    8  S1  UNL     1       6.112  -1.555  -0.119  1.00  0.00    -0.092 SA
HETATM    9  C12 UNL     1       5.592   0.945  -0.269  1.00  0.00     0.132 C 
ATOM     10  H4  UNL     1       3.922   0.880   1.108  1.00  0.00     0.161 HD
HETATM   11  C13 UNL     1       6.865   0.124  -0.039  1.00  0.00     0.102 C 
ENDBRANCH   1   2
BRANCH   1  12
HETATM   12  N1  UNL     1      -0.197  -1.056   0.066  1.00  0.00    -0.285 NA
HETATM   13  C3  UNL     1      -1.057  -1.108  -1.094  1.00  0.00     0.123 C 
HETATM   14  C4  UNL     1      -1.908   0.115  -1.272  1.00  0.00     0.252 C 
HETATM   15  N2  UNL     1      -2.640   0.361  -0.049  1.00  0.00    -0.065 N 
HETATM   16  C5  UNL     1      -3.440   1.560  -0.275  1.00  0.00     0.237 C 
HETATM   17  C8  UNL     1      -3.599  -0.709   0.149  1.00  0.00     0.237 C 
HETATM   18  C9  UNL     1      -1.783   0.507   1.087  1.00  0.00     0.252 C 
HETATM   19  C6  UNL     1      -4.550   1.392   0.763  1.00  0.00     0.029 C 
HETATM   20  C7  UNL     1      -4.902  -0.069   0.559  1.00  0.00     0.029 C 
HETATM   21  C10 UNL     1      -0.331   0.210   0.703  1.00  0.00     0.123 C 
ENDBRANCH   1  12
TORSDOF 2
