REMARK  10 active torsions:
REMARK  status: ('A' for Active; 'I' for Inactive)
REMARK    1  A    between atoms: C5_6  and  C6_7 
REMARK    2  A    between atoms: C6_7  and  N1_8 
REMARK    3  A    between atoms: C7_10  and  C8_11 
REMARK    4  A    between atoms: C7_10  and  N4_29 
REMARK    5  A    between atoms: C8_11  and  C9_12 
REMARK    6  A    between atoms: C9_12  and  C10_13 
REMARK    7  A    between atoms: C10_13  and  C11_14 
REMARK    8  A    between atoms: C11_14  and  N2_15 
REMARK       I    between atoms: N2_15  and  C12_17 
REMARK    9  A    between atoms: C12_17  and  C13_19 
REMARK       I    between atoms: C13_19  and  N3_21 
REMARK   10  A    between atoms: N3_21  and  C14_23 
ROOT
HETATM    1  C8  UNL     1      -1.520   0.651   0.356  1.00  0.00     0.076 C 
ENDROOT
BRANCH   1   2
HETATM    2  C7  UNL     1      -2.957   0.945   0.626  1.00  0.00     0.081 C 
HETATM    3  N1  UNL     1      -3.829   0.223   0.016  1.00  0.00    -0.379 N 
ATOM      4  H1  UNL     1      -4.820   0.402   0.179  1.00  0.00     0.160 HD
BRANCH   3   5
HETATM    5  C6  UNL     1      -3.449  -0.833  -0.892  1.00  0.00     0.125 C 
BRANCH   5   6
HETATM    6  C5  UNL     1      -4.577  -1.757  -1.218  1.00  0.00     0.006 C 
HETATM    7  C4  UNL     1      -5.152  -2.458   0.020  1.00  0.00     0.009 C 
HETATM    8  C3  UNL     1      -6.553  -2.869  -0.482  1.00  0.00     0.043 C 
HETATM    9  C2  UNL     1      -6.944  -1.588  -1.171  1.00  0.00     0.100 C 
HETATM   10  C1  UNL     1      -8.154  -1.796  -2.069  1.00  0.00     0.051 C 
HETATM   11  F1  UNL     1      -7.323  -0.710  -0.180  1.00  0.00    -0.243 F 
HETATM   12  C24 UNL     1      -5.740  -1.164  -1.920  1.00  0.00     0.049 C 
ENDBRANCH   5   6
ENDBRANCH   3   5
BRANCH   2  13
HETATM   13  N4  UNL     1      -3.299   1.971   1.534  1.00  0.00    -0.307 N 
HETATM   14  C20 UNL     1      -2.412   2.848   2.279  1.00  0.00     0.133 C 
HETATM   15  C21 UNL     1      -3.298   4.073   2.571  1.00  0.00     0.029 C 
HETATM   16  C22 UNL     1      -4.602   3.378   2.870  1.00  0.00     0.105 C 
HETATM   17  C23 UNL     1      -4.651   2.307   1.855  1.00  0.00     0.225 C 
HETATM   18  O3  UNL     1      -5.724   1.832   1.407  1.00  0.00    -0.273 OA
ENDBRANCH   2  13
ENDBRANCH   1   2
BRANCH   1  19
HETATM   19  C9  UNL     1      -0.946  -0.080   1.517  1.00  0.00     0.009 C 
BRANCH  19  20
HETATM   20  C10 UNL     1       0.526  -0.383   1.235  1.00  0.00     0.020 C 
BRANCH  20  21
HETATM   21  C11 UNL     1       0.727  -1.216   0.018  1.00  0.00     0.123 C 
BRANCH  21  22
HETATM   22  N2  UNL     1       2.121  -1.503  -0.175  1.00  0.00    -0.353 N 
HETATM   23  C12 UNL     1       3.065  -0.479  -0.383  1.00  0.00     0.309 C 
HETATM   24  O1  UNL     1       2.790   0.745  -0.420  1.00  0.00    -0.262 OA
ATOM     25  H2  UNL     1       2.435  -2.473  -0.161  1.00  0.00     0.162 HD
BRANCH  23  26
HETATM   26  C13 UNL     1       4.463  -0.830  -0.569  1.00  0.00     0.309 C 
HETATM   27  O2  UNL     1       4.793  -2.037  -0.563  1.00  0.00    -0.262 OA
HETATM   28  N3  UNL     1       5.437   0.171  -0.756  1.00  0.00    -0.348 N 
ATOM     29  H3  UNL     1       5.160   1.153  -0.759  1.00  0.00     0.163 HD
BRANCH  28  30
HETATM   30  C14 UNL     1       6.821  -0.183  -0.943  1.00  0.00     0.084 C 
HETATM   31  C15 UNL     1       7.406   0.332  -2.225  1.00  0.00     0.025 C 
HETATM   32  C16 UNL     1       8.730   1.029  -2.043  1.00  0.00     0.002 C 
HETATM   33  C17 UNL     1       9.664   0.329  -1.104  1.00  0.00     0.000 C 
HETATM   34  C18 UNL     1       8.998  -0.178   0.148  1.00  0.00     0.002 C 
HETATM   35  C19 UNL     1       7.600   0.382   0.254  1.00  0.00     0.025 C 
ENDBRANCH  28  30
ENDBRANCH  23  26
ENDBRANCH  21  22
ENDBRANCH  20  21
ENDBRANCH  19  20
ENDBRANCH   1  19
TORSDOF 10
