REMARK  4 active torsions:
REMARK  status: ('A' for Active; 'I' for Inactive)
REMARK    1  A    between atoms: C2_2  and  C3_3 
REMARK    2  A    between atoms: C19_27  and  C20_28 
REMARK    3  A    between atoms: C20_28  and  N5_29 
REMARK    4  A    between atoms: N8_45  and  C28_46 
ROOT
HETATM    1  C3  UNL     1      -4.541  -1.346   0.190  1.00  0.00     0.277 C 
HETATM    2  C4  UNL     1      -3.352  -1.910   0.903  1.00  0.00    -0.021 A 
HETATM    3  C5  UNL     1      -3.356  -3.184   1.408  1.00  0.00     0.010 A 
HETATM    4  C6  UNL     1      -2.251  -3.773   2.102  1.00  0.00     0.009 A 
HETATM    5  C7  UNL     1      -1.096  -3.073   2.307  1.00  0.00    -0.038 A 
HETATM    6  C8  UNL     1      -1.064  -1.787   1.809  1.00  0.00     0.009 A 
HETATM    7  C9  UNL     1      -2.173  -1.230   1.126  1.00  0.00     0.010 A 
HETATM    8  C10 UNL     1       0.103  -3.673   3.047  1.00  0.00     0.188 C 
HETATM    9  N1  UNL     1       0.992  -4.330   2.086  1.00  0.00    -0.283 N 
HETATM   10  C11 UNL     1       1.839  -3.855   1.167  1.00  0.00     0.140 A 
HETATM   11  C12 UNL     1       2.384  -4.955   0.573  1.00  0.00     0.070 A 
HETATM   12  N2  UNL     1       1.841  -6.097   1.160  1.00  0.00    -0.287 N 
ATOM     13  H2  UNL     1       2.058  -7.065   0.921  1.00  0.00     0.188 HD
HETATM   14  N3  UNL     1       1.010  -5.696   2.064  1.00  0.00    -0.240 N 
ATOM     15  H3  UNL     1       0.455  -6.303   2.667  1.00  0.00     0.208 HD
HETATM   16  C13 UNL     1       3.400  -5.105  -0.532  1.00  0.00     0.292 C 
HETATM   17  N4  UNL     1       4.715  -4.657  -0.219  1.00  0.00    -0.066 N 
ATOM     18  H41 UNL     1       5.333  -5.417   0.065  1.00  0.00     0.277 HD
ATOM     19  H42 UNL     1       4.753  -4.119   0.647  1.00  0.00     0.277 HD
HETATM   20  C14 UNL     1       5.230  -3.906  -1.380  1.00  0.00     0.271 C 
HETATM   21  C15 UNL     1       4.929  -2.422  -1.288  1.00  0.00    -0.032 A 
HETATM   22  C16 UNL     1       3.716  -1.918  -1.630  1.00  0.00     0.009 A 
HETATM   23  C17 UNL     1       3.448  -0.522  -1.544  1.00  0.00     0.010 A 
HETATM   24  C18 UNL     1       4.363   0.409  -1.122  1.00  0.00    -0.025 A 
HETATM   25  C19 UNL     1       5.606  -0.067  -0.762  1.00  0.00    -0.025 A 
HETATM   26  C21 UNL     1       5.841  -1.485  -0.862  1.00  0.00     0.018 A 
HETATM   27  C22 UNL     1       3.856   1.858  -1.121  1.00  0.00     0.271 C 
HETATM   28  N6  UNL     1       3.193   2.208   0.113  1.00  0.00    -0.069 N 
ATOM     29  H61 UNL     1       3.611   3.015   0.577  1.00  0.00     0.277 HD
ATOM     30  H62 UNL     1       3.353   1.531   0.859  1.00  0.00     0.277 HD
HETATM   31  C23 UNL     1       1.771   2.396  -0.200  1.00  0.00     0.260 C 
HETATM   32  C24 UNL     1       1.290   3.767   0.223  1.00  0.00     0.221 C 
HETATM   33  O1  UNL     1      -0.081   3.781   0.190  1.00  0.00    -0.302 OA
HETATM   34  N7  UNL     1      -0.638   4.864   0.750  1.00  0.00    -0.200 NA
HETATM   35  C25 UNL     1      -0.010   6.096   0.384  1.00  0.00     0.143 C 
HETATM   36  C26 UNL     1      -2.058   4.918   0.438  1.00  0.00     0.150 C 
HETATM   37  C27 UNL     1      -2.739   3.589   0.636  1.00  0.00     0.289 C 
HETATM   38  N8  UNL     1      -3.566   3.279  -0.509  1.00  0.00     0.091 N 
HETATM   39  C30 UNL     1      -3.466   1.897  -0.903  1.00  0.00     0.302 C 
HETATM   40  C31 UNL     1      -4.382   0.969  -0.173  1.00  0.00     0.303 C 
HETATM   41  N9  UNL     1      -4.414  -0.300  -0.749  1.00  0.00     0.098 N 
HETATM   42  C32 UNL     1      -3.421  -0.537  -1.729  1.00  0.00     0.311 C 
ENDROOT
BRANCH  25  43
HETATM   43  C20 UNL     1       6.880   0.601  -0.207  1.00  0.00     0.268 C 
BRANCH  43  44
HETATM   44  N5  UNL     1       7.963  -0.347   0.016  1.00  0.00    -0.075 N 
ATOM     45  H53 UNL     1       7.660  -1.113   0.618  1.00  0.00     0.274 HD
ATOM     46  H52 UNL     1       8.167  -0.875  -0.833  1.00  0.00     0.274 HD
ATOM     47  H51 UNL     1       8.806   0.095   0.383  1.00  0.00     0.274 HD
ENDBRANCH  43  44
ENDBRANCH  25  43
BRANCH  38  48
HETATM   48  C28 UNL     1      -4.867   3.827  -0.447  1.00  0.00     0.268 C 
HETATM   49  C29 UNL     1      -5.713   3.522  -1.655  1.00  0.00     0.037 C 
ENDBRANCH  38  48
BRANCH   1  50
HETATM   50  C2  UNL     1      -5.331  -2.350  -0.641  1.00  0.00     0.003 C 
HETATM   51  C1  UNL     1      -6.454  -2.861  -0.167  1.00  0.00     0.009 C 
ENDBRANCH   1  50
TORSDOF 4
