REMARK  8 active torsions:
REMARK  status: ('A' for Active; 'I' for Inactive)
REMARK    1  A    between atoms: C2_2  and  N1_3 
REMARK    2  A    between atoms: N1_3  and  C3_4 
REMARK    3  A    between atoms: C3_4  and  C4_5 
REMARK    4  A    between atoms: C5_6  and  C6_7 
REMARK    5  A    between atoms: C11_12  and  N2_13 
REMARK    6  A    between atoms: N2_13  and  C12_15 
REMARK    7  A    between atoms: C12_15  and  C13_16 
REMARK    8  A    between atoms: C13_16  and  O1_17 
ROOT
HETATM    1  C3  UNL     1      -0.916   0.775   1.179  1.00  0.00     0.353 C 
ENDROOT
BRANCH   1   2
HETATM    2  N1  UNL     1      -1.459   1.448   0.051  1.00  0.00     0.061 N 
HETATM    3  C14 UNL     1      -2.628   0.907  -0.521  1.00  0.00     0.257 C 
HETATM    4  C15 UNL     1      -2.757  -0.585  -0.486  1.00  0.00     0.273 C 
HETATM    5  C19 UNL     1      -3.853   1.396   0.099  1.00  0.00     0.135 C 
HETATM    6  N4  UNL     1      -4.071  -0.885   0.054  1.00  0.00    -0.071 N 
HETATM    7  C16 UNL     1      -4.086  -2.141   0.772  1.00  0.00     0.272 C 
HETATM    8  C17 UNL     1      -5.024  -0.960  -1.030  1.00  0.00     0.272 C 
HETATM    9  C18 UNL     1      -4.385   0.222   0.914  1.00  0.00     0.259 C 
HETATM   10  N5  UNL     1      -3.691   2.582   0.831  1.00  0.00    -0.183 NA
HETATM   11  C20 UNL     1      -4.008   2.504   2.233  1.00  0.00     0.131 C 
HETATM   12  S1  UNL     1      -2.039   3.003   0.621  1.00  0.00     0.389 S 
HETATM   13  O2  UNL     1      -1.891   4.049  -0.434  1.00  0.00    -0.181 OA
HETATM   14  O3  UNL     1      -1.428   3.377   1.915  1.00  0.00    -0.181 OA
BRANCH   2  15
HETATM   15  C2  UNL     1      -0.423   1.771  -0.921  1.00  0.00     0.256 C 
HETATM   16  C1  UNL     1      -0.383   0.855  -2.093  1.00  0.00     0.036 C 
ENDBRANCH   2  15
ENDBRANCH   1   2
BRANCH   1  17
HETATM   17  C4  UNL     1       0.331   0.037   0.859  1.00  0.00    -0.070 C 
HETATM   18  C5  UNL     1       1.353  -0.557   0.618  1.00  0.00    -0.047 C 
BRANCH  18  19
HETATM   19  C6  UNL     1       2.588  -1.252   0.344  1.00  0.00     0.088 A 
HETATM   20  C7  UNL     1       2.655  -2.626   0.359  1.00  0.00     0.046 A 
HETATM   21  C8  UNL     1       3.833  -3.306   0.098  1.00  0.00    -0.056 A 
HETATM   22  C9  UNL     1       3.907  -4.799   0.115  1.00  0.00     0.048 C 
HETATM   23  C10 UNL     1       4.949  -2.559  -0.180  1.00  0.00     0.055 A 
HETATM   24  C11 UNL     1       4.905  -1.147  -0.202  1.00  0.00     0.106 A 
HETATM   25  N3  UNL     1       3.727  -0.573   0.062  1.00  0.00    -0.335 N 
ATOM     26  H3  UNL     1       3.682   0.446   0.050  1.00  0.00     0.168 HD
BRANCH  24  27
HETATM   27  N2  UNL     1       5.972  -0.579  -0.465  1.00  0.00    -0.354 N 
ATOM     28  H2  UNL     1       6.679  -1.299  -0.615  1.00  0.00     0.166 HD
BRANCH  27  29
HETATM   29  C12 UNL     1       6.577   0.642  -0.634  1.00  0.00     0.088 C 
BRANCH  29  30
HETATM   30  C13 UNL     1       5.726   1.892  -0.587  1.00  0.00     0.208 C 
BRANCH  30  31
HETATM   31  O1  UNL     1       6.582   2.999  -0.789  1.00  0.00    -0.396 OA
ATOM     32  H1  UNL     1       6.048   3.784  -0.759  1.00  0.00     0.209 HD
ENDBRANCH  30  31
ENDBRANCH  29  30
ENDBRANCH  27  29
ENDBRANCH  24  27
ENDBRANCH  18  19
ENDBRANCH   1  17
TORSDOF 8
