REMARK  7 active torsions:
REMARK  status: ('A' for Active; 'I' for Inactive)
REMARK    1  A    between atoms: C2_2  and  N1_3 
REMARK    2  A    between atoms: C2_2  and  N3_30 
REMARK       I    between atoms: N1_3  and  C3_4 
REMARK    3  A    between atoms: C3_4  and  C4_6 
REMARK    4  A    between atoms: C6_8  and  C7_9 
REMARK       I    between atoms: C7_9  and  N2_11 
REMARK    5  A    between atoms: N2_11  and  C8_13 
REMARK    6  A    between atoms: C19_24  and  S1_26 
REMARK    7  A    between atoms: N3_30  and  N4_32 
ROOT
HETATM    1  C4  UNL     1      -1.927  -0.960  -0.247  1.00  0.00     0.145 C 
HETATM    2  C5  UNL     1      -1.246  -1.925  -1.143  1.00  0.00    -0.057 C 
HETATM    3  C6  UNL     1      -0.101  -2.266  -1.640  1.00  0.00     0.078 C 
HETATM    4  C18 UNL     1      -2.627  -2.542  -1.369  1.00  0.00     0.061 C 
HETATM    5  C19 UNL     1      -2.980  -2.014  -0.029  1.00  0.00     0.080 C 
HETATM    6  C20 UNL     1      -2.578  -3.005   1.051  1.00  0.00     0.033 C 
ENDROOT
BRANCH   1   7
HETATM    7  C3  UNL     1      -2.369   0.284  -0.925  1.00  0.00     0.303 C 
HETATM    8  N1  UNL     1      -2.787   1.358  -0.285  1.00  0.00    -0.355 NA
HETATM    9  O1  UNL     1      -2.324   0.264  -2.205  1.00  0.00    -0.256 OA
BRANCH   8  10
HETATM   10  C2  UNL     1      -3.166   2.322   0.289  1.00  0.00     0.171 C 
HETATM   11  C1  UNL     1      -2.267   3.332   0.955  1.00  0.00     0.108 C 
BRANCH  10  12
HETATM   12  N3  UNL     1      -4.577   2.614   0.395  1.00  0.00    -0.264 N 
ATOM     13  H3  UNL     1      -5.175   2.583  -0.430  1.00  0.00     0.191 HD
BRANCH  12  14
HETATM   14  N4  UNL     1      -5.101   2.934   1.625  1.00  0.00    -0.247 N 
HETATM   15  N5  UNL     1      -4.388   2.854   2.666  1.00  0.00    -0.331 N 
ATOM     16  H52 UNL     1      -3.419   2.548   2.575  1.00  0.00     0.178 HD
ATOM     17  H51 UNL     1      -4.777   3.091   3.579  1.00  0.00     0.178 HD
ATOM     18  H4  UNL     1      -6.072   3.238   1.698  1.00  0.00     0.207 HD
ENDBRANCH  12  14
ENDBRANCH  10  12
ENDBRANCH   8  10
ENDBRANCH   1   7
BRANCH   3  19
HETATM   19  C7  UNL     1       1.188  -1.681  -1.438  1.00  0.00     0.242 C 
HETATM   20  O2  UNL     1       2.164  -2.251  -2.056  1.00  0.00    -0.269 OA
HETATM   21  N2  UNL     1       1.405  -0.561  -0.630  1.00  0.00    -0.348 N 
ATOM     22  H2  UNL     1       0.588  -0.153  -0.175  1.00  0.00     0.163 HD
BRANCH  21  23
HETATM   23  C8  UNL     1       2.691   0.077  -0.378  1.00  0.00     0.034 C 
HETATM   24  C9  UNL     1       3.653  -0.879   0.288  1.00  0.00     0.035 C 
HETATM   25  C10 UNL     1       4.960  -0.152   0.538  1.00  0.00    -0.012 C 
HETATM   26  C11 UNL     1       4.734   0.994   1.472  1.00  0.00     0.009 C 
HETATM   27  C15 UNL     1       5.562   0.292  -0.779  1.00  0.00     0.009 C 
HETATM   28  C12 UNL     1       3.750   1.946   0.867  1.00  0.00    -0.012 C 
HETATM   29  C13 UNL     1       4.352   2.449  -0.450  1.00  0.00     0.009 C 
HETATM   30  C17 UNL     1       2.463   1.280   0.518  1.00  0.00     0.035 C 
HETATM   31  C14 UNL     1       4.596   1.310  -1.384  1.00  0.00    -0.012 C 
HETATM   32  C16 UNL     1       3.305   0.530  -1.668  1.00  0.00     0.035 C 
ENDBRANCH  21  23
ENDBRANCH   3  19
BRANCH   5  33
HETATM   33  S1  UNL     1      -4.639  -1.551   0.149  1.00  0.00     0.150 S 
HETATM   34  C21 UNL     1      -5.571  -3.083   0.366  1.00  0.00     0.162 C 
HETATM   35  O3  UNL     1      -4.886  -0.731   1.400  1.00  0.00    -0.227 OA
HETATM   36  O4  UNL     1      -5.253  -0.866  -1.032  1.00  0.00    -0.227 OA
ENDBRANCH   5  33
TORSDOF 7
