REMARK  8 active torsions:
REMARK  status: ('A' for Active; 'I' for Inactive)
REMARK    1  A    between atoms: C2_2  and  C3_3 
REMARK    2  A    between atoms: C3_3  and  N2_7 
REMARK    3  A    between atoms: N2_7  and  C4_9 
REMARK    4  A    between atoms: C4_9  and  C5_10 
REMARK    5  A    between atoms: C4_9  and  C11_18 
REMARK       I    between atoms: C5_10  and  N3_12 
REMARK       I    between atoms: C11_18  and  N4_20 
REMARK    6  A    between atoms: C18_28  and  C19_29 
REMARK    7  A    between atoms: C18_28  and  C21_33 
REMARK    8  A    between atoms: C19_29  and  C20_30 
ROOT
HETATM    1  C4  UNL     1       0.510  -0.715  -0.211  1.00  0.00     0.268 C 
ENDROOT
BRANCH   1   2
HETATM    2  N2  UNL     1      -0.825  -1.304  -0.503  1.00  0.00    -0.355 N 
ATOM      3  H2  UNL     1      -1.001  -1.865  -1.336  1.00  0.00     0.162 HD
BRANCH   2   4
HETATM    4  C3  UNL     1      -1.864  -1.027   0.479  1.00  0.00     0.102 C 
HETATM    5  N1  UNL     1      -1.499  -1.298   1.656  1.00  0.00    -0.385 N 
ATOM      6  H12 UNL     1      -2.227  -1.104   2.344  1.00  0.00     0.157 HD
ATOM      7  H11 UNL     1      -0.599  -1.677   1.952  1.00  0.00     0.157 HD
BRANCH   4   8
HETATM    8  C2  UNL     1      -3.166  -0.478   0.051  1.00  0.00    -0.015 C 
HETATM    9  C1  UNL     1      -3.398  -0.413  -1.422  1.00  0.00     0.052 C 
HETATM   10  C18 UNL     1      -4.080  -0.161   0.907  1.00  0.00    -0.053 C 
BRANCH  10  11
HETATM   11  C19 UNL     1      -3.817  -0.222   2.387  1.00  0.00     0.148 C 
BRANCH  11  12
HETATM   12  C20 UNL     1      -4.363  -1.425   3.035  1.00  0.00     0.176 C 
HETATM   13  O3  UNL     1      -4.477  -1.402   4.283  1.00  0.00    -0.648 OA
HETATM   14  O4  UNL     1      -4.760  -2.583   2.379  1.00  0.00    -0.648 OA
ENDBRANCH  11  12
ENDBRANCH  10  11
BRANCH  10  15
HETATM   15  C21 UNL     1      -5.412   0.343   0.478  1.00  0.00    -0.027 C 
HETATM   16  C22 UNL     1      -6.424   0.369   1.633  1.00  0.00     0.019 C 
HETATM   17  C23 UNL     1      -5.338   1.745  -0.039  1.00  0.00     0.019 C 
HETATM   18  C24 UNL     1      -6.042  -0.554  -0.548  1.00  0.00     0.019 C 
ENDBRANCH  10  15
ENDBRANCH   4   8
ENDBRANCH   2   4
ENDBRANCH   1   2
BRANCH   1  19
HETATM   19  C5  UNL     1       0.568   0.518  -0.998  1.00  0.00     0.252 C 
HETATM   20  O1  UNL     1       0.229   0.357  -2.233  1.00  0.00    -0.270 OA
HETATM   21  N3  UNL     1       0.923   1.817  -0.620  1.00  0.00    -0.350 N 
HETATM   22  C6  UNL     1       1.234   2.153   0.729  1.00  0.00     0.126 C 
HETATM   23  C10 UNL     1       0.972   2.821  -1.701  1.00  0.00     0.126 C 
HETATM   24  C7  UNL     1       0.787   3.533   1.136  1.00  0.00     0.020 C 
HETATM   25  C8  UNL     1       0.235   4.361   0.006  1.00  0.00     0.003 C 
HETATM   26  C9  UNL     1       1.202   4.192  -1.170  1.00  0.00     0.020 C 
ENDBRANCH   1  19
BRANCH   1  27
HETATM   27  C11 UNL     1       1.491  -1.752  -0.605  1.00  0.00     0.252 C 
HETATM   28  O2  UNL     1       1.018  -2.825  -1.127  1.00  0.00    -0.270 OA
HETATM   29  N4  UNL     1       2.873  -1.676  -0.459  1.00  0.00    -0.347 N 
HETATM   30  C12 UNL     1       3.665  -2.845  -0.919  1.00  0.00     0.154 C 
HETATM   31  C17 UNL     1       3.660  -0.617   0.081  1.00  0.00     0.154 C 
HETATM   32  C13 UNL     1       4.893  -2.346  -1.624  1.00  0.00     0.256 C 
HETATM   33  N5  UNL     1       5.747  -1.726  -0.658  1.00  0.00    -0.072 N 
HETATM   34  C14 UNL     1       6.692  -0.895  -1.407  1.00  0.00     0.272 C 
HETATM   35  C15 UNL     1       6.539  -2.785  -0.035  1.00  0.00     0.272 C 
HETATM   36  C16 UNL     1       5.076  -0.980   0.366  1.00  0.00     0.256 C 
ENDBRANCH   1  27
TORSDOF 8
