REMARK  10 active torsions:
REMARK  status: ('A' for Active; 'I' for Inactive)
REMARK    1  A    between atoms: C2_2  and  O1_5 
REMARK    2  A    between atoms: O1_5  and  C5_6 
REMARK    3  A    between atoms: C5_6  and  C6_8 
REMARK    4  A    between atoms: C9_11  and  C10_12 
REMARK    5  A    between atoms: C10_12  and  N1_13 
REMARK    6  A    between atoms: N1_13  and  C11_14 
REMARK    7  A    between atoms: N1_13  and  C21_26 
REMARK    8  A    between atoms: C11_14  and  O3_15 
REMARK    9  A    between atoms: C11_14  and  C12_17 
REMARK   10  A    between atoms: C24_29  and  O4_30 
ROOT
HETATM    1  N1  UNL     1      -2.041   0.989   0.106  1.00  0.00    -0.360 N 
ENDROOT
BRANCH   1   2
HETATM    2  C10 UNL     1      -1.076   0.934   1.158  1.00  0.00     0.129 C 
BRANCH   2   3
HETATM    3  C9  UNL     1       0.323   0.653   0.805  1.00  0.00     0.004 C 
HETATM    4  C8  UNL     1       1.110   0.631   2.143  1.00  0.00     0.007 C 
HETATM    5  C7  UNL     1       2.319  -0.230   1.902  1.00  0.00     0.015 C 
HETATM    6  C6  UNL     1       2.917   0.120   0.570  1.00  0.00     0.085 C 
HETATM    7  C28 UNL     1       2.055  -0.529  -0.498  1.00  0.00     0.015 C 
HETATM    8  C27 UNL     1       0.600  -0.562   0.014  1.00  0.00     0.007 C 
BRANCH   6   9
HETATM    9  C5  UNL     1       4.320  -0.371   0.499  1.00  0.00     0.263 C 
HETATM   10  O2  UNL     1       4.818  -0.982   1.492  1.00  0.00    -0.265 OA
BRANCH   9  11
HETATM   11  O1  UNL     1       5.125  -0.201  -0.598  1.00  0.00    -0.311 OA
BRANCH  11  12
HETATM   12  C2  UNL     1       6.451  -0.644  -0.713  1.00  0.00     0.060 C 
HETATM   13  C1  UNL     1       6.953  -0.235  -2.104  1.00  0.00     0.045 C 
HETATM   14  C3  UNL     1       7.382  -0.012   0.281  1.00  0.00     0.045 C 
HETATM   15  C4  UNL     1       6.576  -2.147  -0.637  1.00  0.00     0.045 C 
ENDBRANCH  11  12
ENDBRANCH   9  11
ENDBRANCH   6   9
ENDBRANCH   2   3
ENDBRANCH   1   2
BRANCH   1  16
HETATM   16  C11 UNL     1      -2.825  -0.076  -0.322  1.00  0.00     0.122 C 
BRANCH  16  17
HETATM   17  O3  UNL     1      -3.587   0.246  -1.375  1.00  0.00    -0.349 OA
ATOM     18  H3  UNL     1      -4.123  -0.482  -1.668  1.00  0.00     0.219 HD
ENDBRANCH  16  17
BRANCH  16  19
HETATM   19  C12 UNL     1      -3.059  -1.458   0.059  1.00  0.00     0.026 C 
HETATM   20  C13 UNL     1      -2.779  -1.842   1.466  1.00  0.00     0.022 C 
HETATM   21  C14 UNL     1      -3.245  -3.253   1.773  1.00  0.00    -0.013 C 
HETATM   22  C15 UNL     1      -4.709  -3.446   1.457  1.00  0.00     0.010 C 
HETATM   23  C19 UNL     1      -2.621  -4.207   0.739  1.00  0.00     0.010 C 
HETATM   24  C16 UNL     1      -4.647  -3.210  -0.062  1.00  0.00    -0.009 C 
HETATM   25  C17 UNL     1      -4.608  -1.722  -0.209  1.00  0.00     0.023 C 
HETATM   26  C18 UNL     1      -3.313  -3.714  -0.515  1.00  0.00    -0.009 C 
HETATM   27  C20 UNL     1      -2.544  -2.455  -0.946  1.00  0.00     0.023 C 
ENDBRANCH  16  19
ENDBRANCH   1  16
BRANCH   1  28
HETATM   28  C21 UNL     1      -2.268   2.297  -0.540  1.00  0.00     0.086 C 
HETATM   29  C22 UNL     1      -1.042   2.869  -1.170  1.00  0.00     0.028 C 
HETATM   30  C23 UNL     1      -1.474   4.055  -2.051  1.00  0.00     0.034 C 
HETATM   31  C24 UNL     1      -2.229   5.061  -1.208  1.00  0.00     0.118 C 
HETATM   32  C25 UNL     1      -3.307   4.474  -0.366  1.00  0.00     0.034 C 
HETATM   33  C26 UNL     1      -2.743   3.318   0.477  1.00  0.00     0.028 C 
BRANCH  31  34
HETATM   34  O4  UNL     1      -2.749   6.019  -2.052  1.00  0.00    -0.396 OA
ATOM     35  H4  UNL     1      -3.223   6.650  -1.523  1.00  0.00     0.210 HD
ENDBRANCH  31  34
ENDBRANCH   1  28
TORSDOF 10
