REMARK  6 active torsions:
REMARK  status: ('A' for Active; 'I' for Inactive)
REMARK    1  A    between atoms: C4_4  and  C6_6 
REMARK    2  A    between atoms: C8_10  and  C9_11 
REMARK    3  A    between atoms: C16_18  and  C17_19 
REMARK    4  A    between atoms: C17_19  and  C19_21 
REMARK    5  A    between atoms: C17_19  and  C23_28 
REMARK    6  A    between atoms: C19_21  and  N1_22 
ROOT
HETATM    1  C9  UNL     1      -0.357  -1.186  -0.669  1.00  0.00    -0.014 C 
HETATM    2  C10 UNL     1       0.083  -1.100  -2.178  1.00  0.00     0.020 C 
HETATM    3  C11 UNL     1      -0.992  -2.586  -0.793  1.00  0.00     0.014 C 
HETATM    4  C12 UNL     1       0.011  -3.702  -0.674  1.00  0.00     0.005 C 
HETATM    5  C13 UNL     1       0.326  -3.548   0.806  1.00  0.00     0.034 C 
HETATM    6  C14 UNL     1       1.232  -2.361   0.703  1.00  0.00    -0.079 C 
HETATM    7  C15 UNL     1       2.531  -2.707   1.361  1.00  0.00     0.043 C 
HETATM    8  C16 UNL     1       0.925  -1.224   0.015  1.00  0.00    -0.049 C 
ENDROOT
BRANCH   1   9
HETATM    9  C8  UNL     1      -1.517  -0.281  -0.562  1.00  0.00     0.016 C 
HETATM   10  C4  UNL     1      -2.423  -0.047   0.556  1.00  0.00     0.044 C 
HETATM   11  C3  UNL     1      -3.416   1.012   0.181  1.00  0.00    -0.009 C 
HETATM   12  C5  UNL     1      -3.490  -1.223   0.740  1.00  0.00     0.026 C 
HETATM   13  C2  UNL     1      -3.235   2.058  -0.582  1.00  0.00    -0.087 C 
HETATM   14  C1  UNL     1      -4.268   3.072  -0.910  1.00  0.00     0.043 C 
HETATM   15  C25 UNL     1      -1.907   2.195  -1.154  1.00  0.00     0.034 C 
HETATM   16  C24 UNL     1      -1.531   0.809  -1.654  1.00  0.00     0.011 C 
BRANCH  10  17
HETATM   17  C6  UNL     1      -2.121   0.260   1.958  1.00  0.00     0.251 C 
HETATM   18  C7  UNL     1      -1.577   1.533   2.413  1.00  0.00     0.091 C 
HETATM   19  F1  UNL     1      -3.337   0.161   2.724  1.00  0.00    -0.206 F 
HETATM   20  F2  UNL     1      -1.408  -0.741   2.609  1.00  0.00    -0.206 F 
ENDBRANCH  10  17
ENDBRANCH   1   9
BRANCH   8  21
HETATM   21  C17 UNL     1       2.067  -0.285   0.117  1.00  0.00     0.085 C 
HETATM   22  C18 UNL     1       3.139  -0.479  -0.900  1.00  0.00     0.033 C 
BRANCH  21  23
HETATM   23  C19 UNL     1       1.688   1.189  -0.100  1.00  0.00     0.154 C 
BRANCH  23  24
HETATM   24  N1  UNL     1       2.731   2.147   0.044  1.00  0.00    -0.350 N 
HETATM   25  C20 UNL     1       3.624   2.629  -0.841  1.00  0.00     0.108 A 
HETATM   26  C21 UNL     1       4.435   3.594  -0.264  1.00  0.00     0.106 A 
HETATM   27  N2  UNL     1       4.009   3.683   0.998  1.00  0.00    -0.361 N 
HETATM   28  C22 UNL     1       2.998   2.823   1.175  1.00  0.00     0.182 A 
ATOM     29  H2  UNL     1       4.391   4.304   1.711  1.00  0.00     0.166 HD
ENDBRANCH  23  24
ENDBRANCH  21  23
BRANCH  21  30
HETATM   30  C23 UNL     1       2.664  -0.076   1.438  1.00  0.00     0.187 C 
HETATM   31  O1  UNL     1       1.891   0.002   2.456  1.00  0.00    -0.647 OA
HETATM   32  O2  UNL     1       4.008   0.061   1.741  1.00  0.00    -0.647 OA
ENDBRANCH  21  30
ENDBRANCH   8  21
TORSDOF 6
