REMARK  1 active torsions:
REMARK  status: ('A' for Active; 'I' for Inactive)
REMARK    1  A    between atoms: C5_6  and  N1_7 
REMARK       I    between atoms: N2_9  and  C6_11 
ROOT
HETATM    1  C1  UNL     1      -4.892   0.661   0.141  1.00  0.00     0.068 C 
HETATM    2  C2  UNL     1      -3.422   0.528  -0.180  1.00  0.00     0.007 A 
HETATM    3  C3  UNL     1      -2.890   0.184  -1.390  1.00  0.00     0.045 A 
HETATM    4  C4  UNL     1      -1.526   0.190  -1.207  1.00  0.00     0.037 A 
HETATM    5  S1  UNL     1       0.021  -0.056  -1.938  1.00  0.00    -0.068 SA
HETATM    6  C5  UNL     1       1.015   0.275  -0.596  1.00  0.00     0.109 A 
HETATM    7  C7  UNL     1       0.117   0.571   0.391  1.00  0.00     0.074 A 
HETATM    8 BR1  UNL     1       0.849   1.020   2.138  1.00  0.00    -0.046 Br
HETATM    9  C8  UNL     1      -1.192   0.524   0.066  1.00  0.00     0.070 A 
HETATM   10  N5  UNL     1      -2.399   0.727   0.676  1.00  0.00    -0.358 N 
ATOM     11  H5  UNL     1      -2.511   0.995   1.654  1.00  0.00     0.166 HD
ENDROOT
BRANCH   6  12
HETATM   12  N1  UNL     1       2.436   0.227  -0.609  1.00  0.00    -0.290 N 
HETATM   13  N2  UNL     1       3.092  -0.765  -0.164  1.00  0.00    -0.273 N 
HETATM   14  C6  UNL     1       4.489  -0.851  -0.159  1.00  0.00     0.200 C 
ATOM     15  H2  UNL     1       2.566  -1.552   0.215  1.00  0.00     0.189 HD
HETATM   16  N3  UNL     1       5.297   0.145  -0.315  1.00  0.00    -0.372 N 
HETATM   17  N4  UNL     1       5.095  -2.142   0.034  1.00  0.00    -0.062 NA
ATOM     18  H32 UNL     1       4.867   1.060  -0.452  1.00  0.00     0.158 HD
ATOM     19  H31 UNL     1       6.315   0.082  -0.311  1.00  0.00     0.158 HD
ATOM     20  H1  UNL     1       2.949   1.021  -0.991  1.00  0.00     0.187 HD
ENDBRANCH   6  12
TORSDOF 1
