REMARK  14 active torsions:
REMARK  status: ('A' for Active; 'I' for Inactive)
REMARK    1  A    between atoms: C2_2  and  C4_4 
REMARK    2  A    between atoms: C4_4  and  C5_5 
REMARK    3  A    between atoms: C5_5  and  N1_6 
REMARK    4  A    between atoms: C5_5  and  C6_10 
REMARK    5  A    between atoms: C6_10  and  C7_12 
REMARK    6  A    between atoms: C7_12  and  C8_13 
REMARK    7  A    between atoms: C7_12  and  C26_35 
REMARK    8  A    between atoms: C8_13  and  N2_14 
REMARK    9  A    between atoms: C11_17  and  C12_18 
REMARK   10  A    between atoms: C20_26  and  C21_27 
REMARK       I    between atoms: C21_27  and  N3_29 
REMARK   11  A    between atoms: N3_29  and  C22_31 
REMARK   12  A    between atoms: C26_35  and  O3_36 
REMARK   13  A    between atoms: C26_35  and  N4_38 
REMARK   14  A    between atoms: N5_41  and  N6_42 
ROOT
HETATM    1  C7  UNL     1      -1.696   0.165  -0.816  1.00  0.00     0.078 C 
ENDROOT
BRANCH   1   2
HETATM    2  C6  UNL     1      -2.078   1.510  -0.381  1.00  0.00     0.195 C 
HETATM    3  O1  UNL     1      -1.395   2.086   0.446  1.00  0.00    -0.290 OA
BRANCH   2   4
HETATM    4  C5  UNL     1      -3.255   2.263  -0.869  1.00  0.00     0.258 C 
BRANCH   4   5
HETATM    5  C4  UNL     1      -3.370   2.370  -2.331  1.00  0.00     0.045 C 
BRANCH   5   6
HETATM    6  C2  UNL     1      -4.678   2.988  -2.734  1.00  0.00    -0.020 C 
HETATM    7  C1  UNL     1      -4.923   4.372  -2.242  1.00  0.00     0.009 C 
HETATM    8  C3  UNL     1      -4.832   2.992  -4.264  1.00  0.00     0.009 C 
ENDBRANCH   5   6
ENDBRANCH   4   5
BRANCH   4   9
HETATM    9  N1  UNL     1      -3.326   3.570  -0.252  1.00  0.00    -0.068 N 
ATOM     10  H13 UNL     1      -2.632   4.209  -0.640  1.00  0.00     0.275 HD
ATOM     11  H12 UNL     1      -4.169   4.073  -0.529  1.00  0.00     0.275 HD
ATOM     12  H11 UNL     1      -3.246   3.496   0.762  1.00  0.00     0.275 HD
ENDBRANCH   4   9
ENDBRANCH   2   4
ENDBRANCH   1   2
BRANCH   1  13
HETATM   13  C8  UNL     1      -0.403  -0.364  -0.195  1.00  0.00     0.106 C 
BRANCH  13  14
HETATM   14  N2  UNL     1       0.750   0.359  -0.467  1.00  0.00    -0.376 N 
HETATM   15  C9  UNL     1       1.211   0.339  -1.817  1.00  0.00     0.123 C 
HETATM   16  C10 UNL     1       2.545  -0.280  -2.072  1.00  0.00     0.025 C 
HETATM   17  C11 UNL     1       3.351  -0.305  -0.825  1.00  0.00    -0.006 C 
HETATM   18  C19 UNL     1       3.067   0.969  -0.081  1.00  0.00     0.040 C 
HETATM   19  C20 UNL     1       1.607   0.897   0.476  1.00  0.00     0.176 C 
BRANCH  17  20
HETATM   20  C12 UNL     1       4.834  -0.440  -1.011  1.00  0.00    -0.010 C 
HETATM   21  C13 UNL     1       5.145  -1.711  -1.756  1.00  0.00     0.005 C 
HETATM   22  C14 UNL     1       5.638  -1.493  -3.152  1.00  0.00     0.000 C 
HETATM   23  C15 UNL     1       6.991  -0.867  -3.247  1.00  0.00     0.000 C 
HETATM   24  C16 UNL     1       7.610  -0.534  -1.908  1.00  0.00     0.000 C 
HETATM   25  C17 UNL     1       6.982   0.647  -1.240  1.00  0.00     0.000 C 
HETATM   26  C18 UNL     1       5.495   0.757  -1.611  1.00  0.00     0.005 C 
ENDBRANCH  17  20
BRANCH  19  27
HETATM   27  C21 UNL     1       1.806   0.261   1.768  1.00  0.00     0.241 C 
HETATM   28  O2  UNL     1       1.340  -0.834   2.072  1.00  0.00    -0.271 OA
HETATM   29  N3  UNL     1       2.586   0.939   2.743  1.00  0.00    -0.351 N 
ATOM     30  H3  UNL     1       2.981   1.848   2.502  1.00  0.00     0.163 HD
BRANCH  29  31
HETATM   31  C22 UNL     1       2.847   0.406   4.056  1.00  0.00     0.022 C 
HETATM   32  C23 UNL     1       3.577  -0.938   3.935  1.00  0.00     0.037 C 
HETATM   33  C24 UNL     1       3.789   1.331   4.781  1.00  0.00     0.037 C 
HETATM   34  C25 UNL     1       1.575   0.169   4.837  1.00  0.00     0.037 C 
ENDBRANCH  29  31
ENDBRANCH  19  27
ENDBRANCH  13  14
ENDBRANCH   1  13
BRANCH   1  35
HETATM   35  C26 UNL     1      -2.763  -0.834  -0.896  1.00  0.00     0.153 C 
BRANCH  35  36
HETATM   36  O3  UNL     1      -2.899  -1.422  -2.056  1.00  0.00    -0.345 OA
ATOM     37  H3  UNL     1      -3.591  -2.070  -2.108  1.00  0.00     0.219 HD
ENDBRANCH  35  36
BRANCH  35  38
HETATM   38  N4  UNL     1      -3.665  -1.253   0.103  1.00  0.00    -0.358 N 
HETATM   39  C27 UNL     1      -3.668  -0.711   1.410  1.00  0.00     0.141 C 
HETATM   40  C28 UNL     1      -3.768  -1.757   2.494  1.00  0.00     0.134 C 
HETATM   41  N5  UNL     1      -4.361  -2.980   2.023  1.00  0.00    -0.226 NA
HETATM   42  C29 UNL     1      -5.310  -2.796   0.976  1.00  0.00     0.041 C 
HETATM   43  C30 UNL     1      -6.429  -1.895   1.432  1.00  0.00     0.035 C 
HETATM   44  C31 UNL     1      -5.933  -4.170   0.713  1.00  0.00     0.035 C 
HETATM   45  C32 UNL     1      -4.634  -2.312  -0.253  1.00  0.00     0.151 C 
BRANCH  41  46
HETATM   46  N6  UNL     1      -4.867  -3.729   3.088  1.00  0.00    -0.362 NA
ATOM     47  H62 UNL     1      -4.188  -3.861   3.837  1.00  0.00     0.171 HD
ATOM     48  H61 UNL     1      -5.287  -4.596   2.754  1.00  0.00     0.171 HD
ENDBRANCH  41  46
ENDBRANCH  35  38
ENDBRANCH   1  35
TORSDOF 14
