REMARK  2 active torsions:
REMARK  status: ('A' for Active; 'I' for Inactive)
REMARK    1  A    between atoms: C3_5  and  C4_6 
REMARK    2  A    between atoms: N4_10  and  C5_11 
ROOT
HETATM    1  C4  UNL     1       0.377  -0.814  -0.581  1.00  0.00     0.132 A 
HETATM    2  N2  UNL     1       0.551  -1.792   0.296  1.00  0.00    -0.277 N 
ATOM      3  H2  UNL     1       1.125  -2.620   0.135  1.00  0.00     0.184 HD
HETATM    4  N3  UNL     1      -0.121  -1.547   1.408  1.00  0.00    -0.012 NA
HETATM    5  N4  UNL     1      -0.754  -0.376   1.256  1.00  0.00    -0.205 N 
HETATM    6  C7  UNL     1      -0.458   0.104   0.019  1.00  0.00     0.157 A 
HETATM    7 CL1  UNL     1      -1.040   1.607  -0.663  1.00  0.00    -0.060 Cl
ENDROOT
BRANCH   5   8
HETATM    8  C5  UNL     1      -1.591   0.290   2.179  1.00  0.00     0.194 A 
HETATM    9  N5  UNL     1      -2.781   0.861   1.970  1.00  0.00    -0.221 N 
HETATM   10  O1  UNL     1      -3.190   1.358   3.113  1.00  0.00    -0.153 OA
ATOM     11  H5  UNL     1      -3.281   0.903   1.082  1.00  0.00     0.198 HD
HETATM   12  N6  UNL     1      -2.351   1.154   4.061  1.00  0.00    -0.222 N 
HETATM   13  C6  UNL     1      -1.306   0.470   3.509  1.00  0.00     0.169 A 
ATOM     14  H6  UNL     1      -2.445   1.445   5.034  1.00  0.00     0.198 HD
HETATM   15  N7  UNL     1      -0.269   0.092   4.171  1.00  0.00    -0.381 N 
ATOM     16  H72 UNL     1       0.512  -0.419   3.759  1.00  0.00     0.157 HD
ATOM     17  H71 UNL     1      -0.057   0.226   5.160  1.00  0.00     0.157 HD
ENDBRANCH   5   8
BRANCH   1  18
HETATM   18  C3  UNL     1       0.941  -0.688  -1.934  1.00  0.00     0.159 A 
HETATM   19  N1  UNL     1       1.227   0.404  -2.563  1.00  0.00    -0.319 N 
HETATM   20  C2  UNL     1       1.754   0.118  -3.853  1.00  0.00     0.162 A 
ATOM     21  H1  UNL     1       1.093   1.342  -2.186  1.00  0.00     0.169 HD
HETATM   22  C1  UNL     1       2.159   0.967  -4.783  1.00  0.00     0.074 C 
HETATM   23  O2  UNL     1       1.760  -1.266  -3.948  1.00  0.00    -0.219 OA
HETATM   24  N8  UNL     1       1.265  -1.801  -2.782  1.00  0.00    -0.241 N 
ATOM     25  H8  UNL     1       1.151  -2.791  -2.563  1.00  0.00     0.196 HD
ENDBRANCH   1  18
TORSDOF 2
