REMARK  6 active torsions:
REMARK  status: ('A' for Active; 'I' for Inactive)
REMARK    1  A    between atoms: C3_5  and  N2_6 
REMARK    2  A    between atoms: N6_17  and  C6_18 
REMARK    3  A    between atoms: C6_18  and  S1_19 
REMARK    4  A    between atoms: S1_19  and  C7_20 
REMARK    5  A    between atoms: C8_23  and  N8_24 
REMARK    6  A    between atoms: N9_27  and  C9_28 
ROOT
HETATM    1  C7  UNL     1      -2.166   0.272   0.082  1.00  0.00     0.177 A 
HETATM    2  N7  UNL     1      -2.680  -0.337   1.162  1.00  0.00    -0.167 N 
ATOM      3  H7  UNL     1      -2.171  -0.592   2.008  1.00  0.00     0.186 HD
HETATM    4  C8  UNL     1      -3.980  -0.549   0.928  1.00  0.00     0.714 A 
HETATM    5  N9  UNL     1      -4.285  -0.077  -0.293  1.00  0.00     0.094 N 
HETATM    6  N14 UNL     1      -3.184   0.416  -0.795  1.00  0.00    -0.243 N 
ATOM      7  H14 UNL     1      -3.104   0.847  -1.716  1.00  0.00     0.191 HD
ENDROOT
BRANCH   1   8
HETATM    8  S1  UNL     1      -0.489   0.818  -0.225  1.00  0.00    -0.070 SA
BRANCH   8   9
HETATM    9  C6  UNL     1       0.552   0.423   1.223  1.00  0.00     0.234 C 
BRANCH   9  10
HETATM   10  N6  UNL     1       1.902   0.858   0.987  1.00  0.00    -0.250 N 
HETATM   11  C4  UNL     1       2.890   0.142   0.425  1.00  0.00     0.170 A 
HETATM   12  N3  UNL     1       2.922  -1.118  -0.058  1.00  0.00    -0.173 N 
HETATM   13  C5  UNL     1       4.023   0.944   0.391  1.00  0.00     0.118 A 
HETATM   14  C3  UNL     1       4.061  -1.608  -0.579  1.00  0.00     0.677 A 
ATOM     15  H3  UNL     1       2.083  -1.698  -0.028  1.00  0.00     0.186 HD
HETATM   16  N1  UNL     1       5.182  -0.839  -0.622  1.00  0.00    -0.194 N 
HETATM   17  C2  UNL     1       5.171   0.407  -0.151  1.00  0.00     0.054 A 
ATOM     18  H1  UNL     1       6.041  -1.221  -1.019  1.00  0.00     0.184 HD
HETATM   19  C1  UNL     1       6.378   1.301  -0.173  1.00  0.00     0.071 C 
HETATM   20  N4  UNL     1       3.673   2.115   0.934  1.00  0.00    -0.281 N 
HETATM   21  N5  UNL     1       2.406   2.054   1.287  1.00  0.00    -0.238 N 
ATOM     22  H4  UNL     1       4.286   2.921   1.055  1.00  0.00     0.188 HD
ATOM     23  H5  UNL     1       1.886   2.813   1.727  1.00  0.00     0.208 HD
BRANCH  14  24
HETATM   24  N2  UNL     1       4.078  -2.819  -1.039  1.00  0.00    -0.234 N 
ATOM     25  H22 UNL     1       4.942  -3.191  -1.434  1.00  0.00     0.174 HD
ATOM     26  H21 UNL     1       3.237  -3.396  -1.007  1.00  0.00     0.174 HD
ENDBRANCH  14  24
ENDBRANCH   9  10
ENDBRANCH   8   9
ENDBRANCH   1   8
BRANCH   4  27
HETATM   27  N8  UNL     1      -4.850  -1.116   1.720  1.00  0.00    -0.232 N 
ATOM     28  H82 UNL     1      -4.619  -1.474   2.647  1.00  0.00     0.174 HD
ATOM     29  H81 UNL     1      -5.841  -1.278   1.542  1.00  0.00     0.174 HD
ENDBRANCH   4  27
BRANCH   5  30
HETATM   30  C9  UNL     1      -5.553  -0.100  -0.931  1.00  0.00     0.750 A 
HETATM   31  N10 UNL     1      -5.824  -0.187  -2.245  1.00  0.00    -0.113 N 
HETATM   32  N11 UNL     1      -7.129  -0.179  -2.453  1.00  0.00    -0.213 N 
ATOM     33  H10 UNL     1      -5.120  -0.250  -2.980  1.00  0.00     0.207 HD
HETATM   34  N12 UNL     1      -7.699  -0.087  -1.267  1.00  0.00    -0.213 N 
ATOM     35  H11 UNL     1      -7.603  -0.233  -3.355  1.00  0.00     0.210 HD
HETATM   36  N13 UNL     1      -6.772  -0.038  -0.329  1.00  0.00    -0.113 N 
ATOM     37  H12 UNL     1      -8.705  -0.058  -1.100  1.00  0.00     0.210 HD
ATOM     38  H13 UNL     1      -6.940   0.034   0.674  1.00  0.00     0.207 HD
ENDBRANCH   5  30
TORSDOF 6
