REMARK  7 active torsions:
REMARK  status: ('A' for Active; 'I' for Inactive)
REMARK    1  A    between atoms: N1_2  and  C2_4 
REMARK    2  A    between atoms: C3_7  and  N3_8 
REMARK    3  A    between atoms: N3_8  and  C4_10 
REMARK    4  A    between atoms: C6_14  and  O1_15 
REMARK    5  A    between atoms: O1_15  and  C7_16 
REMARK    6  A    between atoms: C7_16  and  C8_17 
REMARK    7  A    between atoms: C8_17  and  N5_18 
ROOT
HETATM    1  C4  UNL     1       2.172  -0.802   0.757  1.00  0.00     0.127 A 
HETATM    2  N4  UNL     1       1.736   0.144   1.621  1.00  0.00    -0.349 N 
ATOM      3  H4  UNL     1       2.389   0.666   2.205  1.00  0.00     0.167 HD
HETATM    4  C5  UNL     1       0.412   0.373   1.683  1.00  0.00     0.126 A 
HETATM    5  C6  UNL     1      -0.514  -0.303   0.915  1.00  0.00     0.084 A 
HETATM    6  C14 UNL     1      -0.052  -1.275   0.029  1.00  0.00     0.048 A 
HETATM    7  C15 UNL     1       1.287  -1.510  -0.036  1.00  0.00    -0.015 A 
HETATM    8  C16 UNL     1       1.783  -2.549  -0.983  1.00  0.00     0.052 C 
ENDROOT
BRANCH   1   9
HETATM    9  N3  UNL     1       3.550  -1.031   0.701  1.00  0.00    -0.176 N 
ATOM     10  H3  UNL     1       3.895  -1.928   1.043  1.00  0.00     0.186 HD
BRANCH   9  11
HETATM   11  C3  UNL     1       4.421  -0.185   0.245  1.00  0.00     0.685 A 
HETATM   12  N2  UNL     1       5.731  -0.502   0.235  1.00  0.00    -0.175 N 
HETATM   13  C2  UNL     1       6.701   0.287  -0.207  1.00  0.00     0.140 A 
ATOM     14  H2  UNL     1       5.997  -1.419   0.595  1.00  0.00     0.186 HD
HETATM   15  C18 UNL     1       6.360   1.527  -0.695  1.00  0.00     0.094 A 
HETATM   16  C17 UNL     1       5.023   1.892  -0.702  1.00  0.00     0.133 A 
HETATM   17 CL1  UNL     1       7.590   2.619  -1.294  1.00  0.00    -0.079 Cl
HETATM   18  N6  UNL     1       4.082   1.026  -0.231  1.00  0.00    -0.200 N 
ATOM     19  H6  UNL     1       3.100   1.302  -0.240  1.00  0.00     0.183 HD
BRANCH  13  20
HETATM   20  N1  UNL     1       7.961  -0.044  -0.206  1.00  0.00    -0.379 N 
HETATM   21  C1  UNL     1       8.274  -1.367   0.321  1.00  0.00     0.147 C 
ATOM     22  H1  UNL     1       8.685   0.585  -0.553  1.00  0.00     0.160 HD
ENDBRANCH  13  20
ENDBRANCH   9  11
ENDBRANCH   1   9
BRANCH   5  23
HETATM   23  O1  UNL     1      -1.879  -0.069   0.978  1.00  0.00    -0.348 OA
BRANCH  23  24
HETATM   24  C7  UNL     1      -2.426   0.883   1.833  1.00  0.00     0.206 C 
BRANCH  24  25
HETATM   25  C8  UNL     1      -3.903   0.979   1.745  1.00  0.00     0.302 C 
BRANCH  25  26
HETATM   26  N5  UNL     1      -4.453   1.342   0.479  1.00  0.00     0.124 N 
HETATM   27  C9  UNL     1      -5.902   1.423   0.624  1.00  0.00     0.282 C 
HETATM   28  C10 UNL     1      -6.492   0.038   0.444  1.00  0.00     0.109 C 
HETATM   29  C11 UNL     1      -6.385  -0.299  -1.036  1.00  0.00     0.249 C 
HETATM   30  F1  UNL     1      -6.248  -1.666  -1.197  1.00  0.00    -0.206 F 
HETATM   31  F2  UNL     1      -7.540   0.156  -1.636  1.00  0.00    -0.206 F 
HETATM   32  C12 UNL     1      -5.224   0.445  -1.650  1.00  0.00     0.148 C 
HETATM   33  C13 UNL     1      -4.074   0.525  -0.630  1.00  0.00     0.410 C 
HETATM   34  F3  UNL     1      -3.061   1.198  -1.327  1.00  0.00    -0.216 F 
ENDBRANCH  25  26
ENDBRANCH  24  25
ENDBRANCH  23  24
ENDBRANCH   5  23
TORSDOF 7
