REMARK  6 active torsions:
REMARK  status: ('A' for Active; 'I' for Inactive)
REMARK    1  A    between atoms: N1_2  and  C2_5 
REMARK    2  A    between atoms: C2_5  and  C3_6 
REMARK    3  A    between atoms: N2_9  and  C6_10 
REMARK    4  A    between atoms: C6_10  and  C7_11 
REMARK    5  A    between atoms: C7_11  and  N3_12 
REMARK    6  A    between atoms: N3_12  and  C8_14 
ROOT
HETATM    1  C3  UNL     1       2.892   0.516  -0.438  1.00  0.00     0.017 C 
HETATM    2  C4  UNL     1       2.138   0.592   0.886  1.00  0.00     0.026 C 
HETATM    3  C5  UNL     1       0.718   0.264   0.610  1.00  0.00     0.122 C 
HETATM    4  N2  UNL     1       0.490  -0.907  -0.149  1.00  0.00    -0.392 N 
HETATM    5  C13 UNL     1       1.406  -1.293  -1.109  1.00  0.00     0.058 C 
HETATM    6  C14 UNL     1       2.853  -0.907  -0.886  1.00  0.00     0.050 C 
ENDROOT
BRANCH   4   7
HETATM    7  C6  UNL     1      -0.389  -1.863   0.444  1.00  0.00     0.141 C 
BRANCH   7   8
HETATM    8  C7  UNL     1      -1.773  -1.167   0.417  1.00  0.00     0.134 C 
BRANCH   8   9
HETATM    9  N3  UNL     1      -2.043  -0.941  -0.955  1.00  0.00    -0.411 N 
ATOM     10  H3  UNL     1      -1.439  -1.310  -1.689  1.00  0.00     0.154 HD
BRANCH   9  11
HETATM   11  C8  UNL     1      -3.219  -0.161  -1.258  1.00  0.00     0.114 C 
HETATM   12  C9  UNL     1      -3.096   1.261  -0.754  1.00  0.00     0.032 C 
HETATM   13  C10 UNL     1      -4.221   1.726   0.095  1.00  0.00     0.022 C 
HETATM   14  C11 UNL     1      -4.719   0.701   1.075  1.00  0.00     0.119 C 
HETATM   15  N4  UNL     1      -4.855  -0.604   0.542  1.00  0.00    -0.400 N 
HETATM   16  C12 UNL     1      -4.500  -0.808  -0.807  1.00  0.00     0.080 C 
ATOM     17  H4  UNL     1      -5.199  -1.373   1.117  1.00  0.00     0.158 HD
ENDBRANCH   9  11
ENDBRANCH   8   9
ENDBRANCH   7   8
ENDBRANCH   4   7
BRANCH   1  18
HETATM   18  C2  UNL     1       4.285   1.087  -0.275  1.00  0.00     0.236 C 
BRANCH  18  19
HETATM   19  N1  UNL     1       5.039   0.351   0.726  1.00  0.00    -0.079 N 
HETATM   20  C1  UNL     1       6.314   0.976   0.904  1.00  0.00     0.267 C 
ATOM     21  H12 UNL     1       5.121  -0.640   0.499  1.00  0.00     0.276 HD
ATOM     22  H11 UNL     1       4.528   0.255   1.604  1.00  0.00     0.276 HD
ENDBRANCH  18  19
ENDBRANCH   1  18
TORSDOF 6
