REMARK  4 active torsions:
REMARK  status: ('A' for Active; 'I' for Inactive)
REMARK    1  A    between atoms: N1_11  and  C8_12 
REMARK    2  A    between atoms: C8_12  and  O3_13 
REMARK    3  A    between atoms: C8_12  and  N2_15 
REMARK    4  A    between atoms: C21_29  and  C22_31 
ROOT
HETATM    1  C1  UNL     1      -5.749   1.313  -0.610  1.00  0.00     0.044 C 
HETATM    2  C2  UNL     1      -4.330   1.112  -0.120  1.00  0.00     0.176 C 
HETATM    3  O1  UNL     1      -3.491   2.117  -0.652  1.00  0.00    -0.312 OA
HETATM    4  C3  UNL     1      -2.477   1.931  -1.568  1.00  0.00     0.268 C 
HETATM    5  O2  UNL     1      -1.526   2.753  -1.538  1.00  0.00    -0.264 OA
HETATM    6  C4  UNL     1      -2.408   0.855  -2.580  1.00  0.00     0.185 C 
HETATM    7  S1  UNL     1      -0.969  -0.227  -2.406  1.00  0.00    -0.152 SA
HETATM    8  C5  UNL     1       0.102   0.204  -1.045  1.00  0.00     0.082 C 
HETATM    9  C6  UNL     1       1.325   0.906  -1.672  1.00  0.00     0.037 C 
HETATM   10  C7  UNL     1       2.122   1.484  -0.496  1.00  0.00     0.127 C 
HETATM   11  N1  UNL     1       2.529   0.372   0.285  1.00  0.00    -0.345 N 
HETATM   12  C13 UNL     1       1.406  -0.384   0.917  1.00  0.00     0.161 C 
HETATM   13  C14 UNL     1       0.667  -0.970  -0.296  1.00  0.00     0.221 C 
HETATM   14  N3  UNL     1      -0.230  -2.016   0.035  1.00  0.00    -0.068 N 
HETATM   15  C15 UNL     1       0.333  -2.762   1.174  1.00  0.00     0.272 C 
HETATM   16  C16 UNL     1      -0.180  -2.993  -1.073  1.00  0.00     0.272 C 
HETATM   17  C17 UNL     1      -1.583  -1.659   0.212  1.00  0.00     0.237 C 
HETATM   18  C18 UNL     1      -2.261  -2.100   1.457  1.00  0.00     0.028 C 
HETATM   19  C19 UNL     1      -2.791  -0.918   2.292  1.00  0.00     0.005 C 
HETATM   20  C20 UNL     1      -4.132  -0.474   1.810  1.00  0.00     0.056 C 
HETATM   21  C21 UNL     1      -4.188   0.967   1.352  1.00  0.00     0.226 C 
HETATM   22  F1  UNL     1      -2.986   1.607   1.700  1.00  0.00    -0.231 F 
ENDROOT
BRANCH  11  23
HETATM   23  C8  UNL     1       3.827  -0.073   0.501  1.00  0.00     0.217 C 
BRANCH  23  24
HETATM   24  O3  UNL     1       3.966  -1.135   1.290  1.00  0.00    -0.333 OA
ATOM     25  H3  UNL     1       4.854  -1.439   1.438  1.00  0.00     0.220 HD
ENDBRANCH  23  24
BRANCH  23  26
HETATM   26  N2  UNL     1       5.055   0.391   0.035  1.00  0.00    -0.348 N 
HETATM   27  C9  UNL     1       6.351  -0.239   0.405  1.00  0.00     0.126 C 
HETATM   28  C10 UNL     1       7.349   0.909   0.272  1.00  0.00     0.021 C 
HETATM   29  C11 UNL     1       6.866   1.535  -1.009  1.00  0.00     0.021 C 
HETATM   30  C12 UNL     1       5.352   1.481  -0.840  1.00  0.00     0.126 C 
ENDBRANCH  23  26
ENDBRANCH  11  23
BRANCH  21  31
HETATM   31  C22 UNL     1      -5.247   1.650   2.179  1.00  0.00     0.425 C 
HETATM   32  F2  UNL     1      -6.527   1.198   1.931  1.00  0.00    -0.167 F 
HETATM   33  F3  UNL     1      -5.169   3.027   2.081  1.00  0.00    -0.167 F 
HETATM   34  F4  UNL     1      -5.008   1.366   3.532  1.00  0.00    -0.167 F 
ENDBRANCH  21  31
TORSDOF 4
