REMARK  7 active torsions:
REMARK  status: ('A' for Active; 'I' for Inactive)
REMARK    1  A    between atoms: N1_1  and  C1_4 
REMARK    2  A    between atoms: C2_7  and  C3_8 
REMARK       I    between atoms: C3_8  and  N3_10 
REMARK    3  A    between atoms: N3_10  and  C4_12 
REMARK    4  A    between atoms: C4_12  and  C5_13 
REMARK       I    between atoms: C5_13  and  N4_15 
REMARK    5  A    between atoms: C10_20  and  O3_21 
REMARK    6  A    between atoms: C11_23  and  O4_24 
REMARK    7  A    between atoms: C12_26  and  O5_27 
ROOT
HETATM    1  C1  UNL     1       4.567  -1.274  -0.769  1.00  0.00     0.136 A 
HETATM    2  N2  UNL     1       3.251  -1.303  -0.587  1.00  0.00    -0.334 N 
ATOM      3  H2  UNL     1       2.724  -2.088  -0.970  1.00  0.00     0.168 HD
HETATM    4  C2  UNL     1       2.565  -0.320   0.097  1.00  0.00     0.138 A 
HETATM    5  C10 UNL     1       3.369   0.692   0.572  1.00  0.00     0.134 A 
HETATM    6  C11 UNL     1       4.750   0.747   0.395  1.00  0.00     0.138 A 
HETATM    7  C12 UNL     1       5.357  -0.262  -0.292  1.00  0.00     0.146 A 
ENDROOT
BRANCH   4   8
HETATM    8  C3  UNL     1       1.138  -0.432   0.248  1.00  0.00     0.271 C 
HETATM    9  O1  UNL     1       0.581  -1.466  -0.278  1.00  0.00    -0.266 OA
HETATM   10  N3  UNL     1       0.266   0.437   0.893  1.00  0.00    -0.347 N 
ATOM     11  H3  UNL     1       0.661   1.271   1.328  1.00  0.00     0.163 HD
BRANCH  10  12
HETATM   12  C4  UNL     1      -1.163   0.240   0.989  1.00  0.00     0.225 C 
BRANCH  12  13
HETATM   13  C5  UNL     1      -1.880   0.194  -0.286  1.00  0.00     0.237 C 
HETATM   14  O2  UNL     1      -1.333   0.320  -1.414  1.00  0.00    -0.272 OA
HETATM   15  N4  UNL     1      -3.279  -0.005  -0.256  1.00  0.00    -0.351 N 
HETATM   16  C6  UNL     1      -4.147  -0.077  -1.408  1.00  0.00     0.126 C 
HETATM   17  C9  UNL     1      -4.090  -0.170   0.920  1.00  0.00     0.126 C 
HETATM   18  C7  UNL     1      -5.557   0.078  -0.894  1.00  0.00     0.021 C 
HETATM   19  C8  UNL     1      -5.360   0.566   0.530  1.00  0.00     0.021 C 
ENDBRANCH  12  13
ENDBRANCH  10  12
ENDBRANCH   4   8
BRANCH   5  20
HETATM   20  O3  UNL     1       2.761   1.731   1.278  1.00  0.00    -0.356 OA
ATOM     21  H3  UNL     1       3.316   2.429   1.606  1.00  0.00     0.218 HD
ENDBRANCH   5  20
BRANCH   1  22
HETATM   22  N1  UNL     1       5.143  -2.243  -1.429  1.00  0.00    -0.383 N 
ATOM     23  H12 UNL     1       4.555  -2.997  -1.784  1.00  0.00     0.157 HD
ATOM     24  H11 UNL     1       6.153  -2.221  -1.569  1.00  0.00     0.157 HD
ENDBRANCH   1  22
BRANCH   6  25
HETATM   25  O4  UNL     1       5.498   1.796   0.900  1.00  0.00    -0.355 OA
ATOM     26  H4  UNL     1       6.440   1.833   0.779  1.00  0.00     0.218 HD
ENDBRANCH   6  25
BRANCH   7  27
HETATM   27  O5  UNL     1       6.752  -0.258  -0.501  1.00  0.00    -0.355 OA
ATOM     28  H5  UNL     1       7.300   0.444  -0.170  1.00  0.00     0.218 HD
ENDBRANCH   7  27
TORSDOF 7
