REMARK  16 active torsions:
REMARK  status: ('A' for Active; 'I' for Inactive)
REMARK    1  A    between atoms: C2_2  and  O1_3 
REMARK    2  A    between atoms: O1_3  and  C3_4 
REMARK    3  A    between atoms: C6_7  and  C7_8 
REMARK    4  A    between atoms: C7_8  and  C8_9 
REMARK    5  A    between atoms: C8_9  and  C9_10 
REMARK       I    between atoms: C9_10  and  N1_12 
REMARK    6  A    between atoms: C10_14  and  C11_15 
REMARK    7  A    between atoms: C10_14  and  C16_25 
REMARK    8  A    between atoms: C11_15  and  N2_16 
REMARK       I    between atoms: N2_16  and  C12_18 
REMARK    9  A    between atoms: C12_18  and  C13_20 
REMARK   10  A    between atoms: C13_20  and  O4_21 
REMARK   11  A    between atoms: O4_21  and  C14_22 
REMARK   12  A    between atoms: C16_25  and  C17_26 
REMARK       I    between atoms: C17_26  and  N3_28 
REMARK   13  A    between atoms: N3_28  and  C18_30 
REMARK   14  A    between atoms: C18_30  and  C19_31 
REMARK   15  A    between atoms: C26_41  and  O9_43 
REMARK   16  A    between atoms: O9_43  and  C28_44 
ROOT
HETATM    1  C7  UNL     1      -0.761   0.357   2.401  1.00  0.00     0.050 C 
ENDROOT
BRANCH   1   2
HETATM    2  C6  UNL     1      -1.821  -0.448   1.816  1.00  0.00    -0.030 A 
HETATM    3  C5  UNL     1      -2.514   0.072   0.738  1.00  0.00    -0.011 A 
HETATM    4  C4  UNL     1      -3.494  -0.730   0.194  1.00  0.00     0.111 A 
HETATM    5  C25 UNL     1      -2.335   1.392   0.164  1.00  0.00     0.083 C 
HETATM    6  C3  UNL     1      -3.809  -1.996   0.664  1.00  0.00     0.114 A 
HETATM    7  O11 UNL     1      -4.161  -0.171  -0.889  1.00  0.00    -0.334 OA
HETATM    8  C24 UNL     1      -3.115  -2.527   1.762  1.00  0.00     0.024 A 
HETATM    9  C20 UNL     1      -2.143  -1.720   2.290  1.00  0.00     0.025 A 
HETATM   10  C22 UNL     1      -3.322  -3.720   2.374  1.00  0.00    -0.041 A 
HETATM   11  S1  UNL     1      -1.552  -2.631   3.607  1.00  0.00    -0.100 SA
HETATM   12  C21 UNL     1      -2.535  -4.001   3.464  1.00  0.00     0.058 A 
HETATM   13  C23 UNL     1      -4.364  -4.760   1.980  1.00  0.00     0.049 C 
HETATM   14  C30 UNL     1      -4.516   1.220  -0.975  1.00  0.00     0.092 C 
HETATM   15  C26 UNL     1      -3.717   2.091  -0.060  1.00  0.00     0.102 C 
HETATM   16  C31 UNL     1      -4.257   1.630  -2.429  1.00  0.00     0.049 C 
HETATM   17  C32 UNL     1      -6.003   1.267  -0.764  1.00  0.00     0.049 C 
HETATM   18  C27 UNL     1      -4.308   2.251   1.304  1.00  0.00     0.050 C 
BRANCH   6  19
HETATM   19  O1  UNL     1      -4.819  -2.665  -0.007  1.00  0.00    -0.348 OA
BRANCH  19  20
HETATM   20  C2  UNL     1      -4.418  -3.391  -1.169  1.00  0.00     0.171 C 
HETATM   21  C1  UNL     1      -5.547  -4.105  -1.837  1.00  0.00     0.034 C 
ENDBRANCH  19  20
ENDBRANCH   6  19
BRANCH  15  22
HETATM   22  O9  UNL     1      -3.339   3.298  -0.667  1.00  0.00    -0.307 OA
BRANCH  22  23
HETATM   23  C28 UNL     1      -4.150   4.321  -1.038  1.00  0.00     0.255 C 
HETATM   24  C29 UNL     1      -3.575   5.554  -1.694  1.00  0.00     0.126 C 
HETATM   25  O10 UNL     1      -5.379   4.245  -0.837  1.00  0.00    -0.266 OA
ENDBRANCH  22  23
ENDBRANCH  15  22
ENDBRANCH   1   2
BRANCH   1  26
HETATM   26  C8  UNL     1       0.481   0.473   1.571  1.00  0.00     0.108 C 
BRANCH  26  27
HETATM   27  C9  UNL     1       1.238  -0.738   1.284  1.00  0.00     0.222 C 
HETATM   28  O2  UNL     1       1.423  -1.612   2.153  1.00  0.00    -0.273 OA
HETATM   29  N1  UNL     1       1.820  -1.004  -0.004  1.00  0.00    -0.332 N 
HETATM   30  C10 UNL     1       3.038  -0.666  -0.294  1.00  0.00     0.016 C 
ATOM     31  H1  UNL     1       1.256  -1.474  -0.713  1.00  0.00     0.168 HD
BRANCH  30  32
HETATM   32  C11 UNL     1       3.854   0.016   0.737  1.00  0.00     0.175 C 
BRANCH  32  33
HETATM   33  N2  UNL     1       4.259   1.325   0.251  1.00  0.00    -0.354 N 
HETATM   34  C12 UNL     1       5.049   2.154   1.094  1.00  0.00     0.242 C 
HETATM   35  O3  UNL     1       5.372   1.724   2.234  1.00  0.00    -0.271 OA
ATOM     36  H2  UNL     1       3.982   1.643  -0.678  1.00  0.00     0.162 HD
BRANCH  34  37
HETATM   37  C13 UNL     1       5.458   3.487   0.598  1.00  0.00     0.281 C 
BRANCH  37  38
HETATM   38  O4  UNL     1       6.249   4.126   1.552  1.00  0.00    -0.312 OA
BRANCH  38  39
HETATM   39  C14 UNL     1       7.456   3.687   1.989  1.00  0.00     0.255 C 
HETATM   40  C15 UNL     1       8.259   4.428   3.031  1.00  0.00     0.126 C 
HETATM   41  O5  UNL     1       7.945   2.616   1.515  1.00  0.00    -0.266 OA
ENDBRANCH  38  39
ENDBRANCH  37  38
ENDBRANCH  34  37
ENDBRANCH  32  33
ENDBRANCH  30  32
BRANCH  30  42
HETATM   42  C16 UNL     1       3.629  -0.954  -1.616  1.00  0.00     0.157 C 
BRANCH  42  43
HETATM   43  C17 UNL     1       4.713  -1.942  -1.566  1.00  0.00     0.223 C 
HETATM   44  O6  UNL     1       5.047  -2.469  -0.501  1.00  0.00    -0.273 OA
HETATM   45  N3  UNL     1       5.430  -2.340  -2.748  1.00  0.00    -0.351 N 
ATOM     46  H3  UNL     1       5.181  -1.925  -3.646  1.00  0.00     0.163 HD
BRANCH  45  47
HETATM   47  C18 UNL     1       6.494  -3.314  -2.690  1.00  0.00     0.235 C 
BRANCH  47  48
HETATM   48  C19 UNL     1       7.042  -3.528  -4.049  1.00  0.00     0.191 C 
HETATM   49  O7  UNL     1       6.603  -2.931  -5.065  1.00  0.00    -0.647 OA
HETATM   50  O8  UNL     1       8.096  -4.447  -4.167  1.00  0.00    -0.647 OA
ENDBRANCH  47  48
ENDBRANCH  45  47
ENDBRANCH  42  43
ENDBRANCH  30  42
ENDBRANCH  26  27
ENDBRANCH   1  26
TORSDOF 16
