REMARK  9 active torsions:
REMARK  status: ('A' for Active; 'I' for Inactive)
REMARK    1  A    between atoms: C2_2  and  C3_3 
REMARK    2  A    between atoms: C3_3  and  C4_4 
REMARK    3  A    between atoms: C6_8  and  N2_9 
REMARK    4  A    between atoms: N3_12  and  C9_13 
REMARK    5  A    between atoms: C9_13  and  C10_14 
REMARK    6  A    between atoms: C12_18  and  N5_19 
REMARK    7  A    between atoms: C13_24  and  N7_25 
REMARK    8  A    between atoms: C15_29  and  O1_30 
REMARK    9  A    between atoms: O1_30  and  C16_31 
ROOT
HETATM    1  N2  UNL     1       0.425   0.793  -0.048  1.00  0.00    -0.338 N 
HETATM    2  C7  UNL     1       0.780   0.175  -1.295  1.00  0.00     0.156 C 
HETATM    3  C8  UNL     1       2.229   0.589  -1.499  1.00  0.00     0.294 C 
HETATM    4  N3  UNL     1       2.742   0.719  -0.180  1.00  0.00     0.111 N 
HETATM    5  C14 UNL     1       1.654   0.901   0.720  1.00  0.00     0.399 C 
ENDROOT
BRANCH   1   6
HETATM    6  C6  UNL     1      -0.821   1.253   0.461  1.00  0.00     0.138 A 
HETATM    7  N1  UNL     1      -1.040   2.534   0.806  1.00  0.00    -0.350 N 
HETATM    8  C5  UNL     1      -2.190   3.019   1.287  1.00  0.00     0.097 A 
ATOM      9  H1  UNL     1      -0.266   3.189   0.692  1.00  0.00     0.166 HD
HETATM   10  C4  UNL     1      -3.261   2.198   1.464  1.00  0.00    -0.040 A 
HETATM   11  C21 UNL     1      -3.104   0.855   1.127  1.00  0.00     0.049 A 
HETATM   12  C15 UNL     1      -1.903   0.393   0.634  1.00  0.00     0.113 A 
BRANCH  10  13
HETATM   13  C3  UNL     1      -4.538   2.729   1.996  1.00  0.00     0.040 C 
BRANCH  13  14
HETATM   14  C2  UNL     1      -5.444   3.205   0.871  1.00  0.00     0.000 C 
HETATM   15  C1  UNL     1      -4.818   4.298   0.053  1.00  0.00     0.005 C 
ENDBRANCH  13  14
ENDBRANCH  10  13
BRANCH  12  16
HETATM   16  O1  UNL     1      -1.777  -0.923   0.313  1.00  0.00    -0.342 OA
BRANCH  16  17
HETATM   17  C16 UNL     1      -2.705  -1.944   0.399  1.00  0.00     0.129 C 
HETATM   18  C17 UNL     1      -2.884  -2.722  -0.888  1.00  0.00     0.032 C 
HETATM   19  C18 UNL     1      -3.634  -3.951  -0.354  1.00  0.00     0.002 C 
HETATM   20  C19 UNL     1      -2.995  -4.206   0.994  1.00  0.00     0.002 C 
HETATM   21  C20 UNL     1      -2.091  -3.036   1.288  1.00  0.00     0.032 C 
ENDBRANCH  16  17
ENDBRANCH  12  16
ENDBRANCH   1   6
BRANCH   4  22
HETATM   22  C9  UNL     1       3.667  -0.287   0.185  1.00  0.00     0.318 C 
BRANCH  22  23
HETATM   23  C10 UNL     1       4.937  -0.327  -0.542  1.00  0.00     0.030 A 
HETATM   24  C11 UNL     1       5.306   0.570  -1.513  1.00  0.00     0.118 A 
HETATM   25  N4  UNL     1       6.511   0.495  -2.146  1.00  0.00    -0.201 N 
HETATM   26  C12 UNL     1       7.371  -0.484  -1.816  1.00  0.00     0.677 A 
ATOM     27  H4  UNL     1       6.758   1.176  -2.864  1.00  0.00     0.183 HD
HETATM   28  N6  UNL     1       7.057  -1.392  -0.867  1.00  0.00    -0.177 N 
HETATM   29  C13 UNL     1       5.875  -1.327  -0.240  1.00  0.00     0.124 A 
ATOM     30  H6  UNL     1       7.721  -2.128  -0.627  1.00  0.00     0.185 HD
BRANCH  26  31
HETATM   31  N5  UNL     1       8.537  -0.608  -2.385  1.00  0.00    -0.234 N 
ATOM     32  H52 UNL     1       8.774   0.078  -3.102  1.00  0.00     0.174 HD
ATOM     33  H51 UNL     1       9.190  -1.351  -2.135  1.00  0.00     0.174 HD
ENDBRANCH  26  31
BRANCH  29  34
HETATM   34  N7  UNL     1       5.544  -2.175   0.666  1.00  0.00    -0.385 N 
ATOM     35  H72 UNL     1       4.644  -2.126   1.143  1.00  0.00     0.157 HD
ATOM     36  H71 UNL     1       6.225  -2.902   0.885  1.00  0.00     0.157 HD
ENDBRANCH  29  34
ENDBRANCH  22  23
ENDBRANCH   4  22
TORSDOF 9
