REMARK  14 active torsions:
REMARK  status: ('A' for Active; 'I' for Inactive)
REMARK    1  A    between atoms: C2_2  and  O1_3 
REMARK    2  A    between atoms: O1_3  and  C3_4 
REMARK    3  A    between atoms: C3_4  and  C4_6 
REMARK    4  A    between atoms: C4_6  and  C5_7 
REMARK    5  A    between atoms: C9_13  and  N2_14 
REMARK       I    between atoms: N2_14  and  C10_16 
REMARK    6  A    between atoms: C10_16  and  C11_18 
REMARK    7  A    between atoms: C11_18  and  C12_19 
REMARK    8  A    between atoms: C12_19  and  C13_20 
REMARK    9  A    between atoms: C13_20  and  C14_21 
REMARK   10  A    between atoms: C14_21  and  C15_22 
REMARK   11  A    between atoms: C15_22  and  N3_23 
REMARK   12  A    between atoms: C16_24  and  S1_25 
REMARK   13  A    between atoms: S1_25  and  C17_26 
REMARK   14  A    between atoms: C17_26  and  C18_27 
ROOT
HETATM    1  C13 UNL     1      -0.513  -4.098   1.673  1.00  0.00    -0.029 C 
ENDROOT
BRANCH   1   2
HETATM    2  C12 UNL     1       0.700  -3.714   2.375  1.00  0.00    -0.022 C 
BRANCH   2   3
HETATM    3  C11 UNL     1       1.565  -2.600   1.941  1.00  0.00     0.130 C 
BRANCH   3   4
HETATM    4  C10 UNL     1       2.115  -2.682   0.578  1.00  0.00     0.226 C 
HETATM    5  N2  UNL     1       2.998  -1.736   0.084  1.00  0.00    -0.312 N 
ATOM      6  H2  UNL     1       3.269  -1.879  -0.889  1.00  0.00     0.170 HD
HETATM    7  O3  UNL     1       1.755  -3.647  -0.142  1.00  0.00    -0.273 OA
BRANCH   5   8
HETATM    8  C9  UNL     1       3.581  -0.621   0.687  1.00  0.00     0.114 A 
HETATM    9  C5  UNL     1       4.427   0.212   0.002  1.00  0.00    -0.005 A 
HETATM   10  C6  UNL     1       4.999   1.292   0.671  1.00  0.00     0.013 A 
HETATM   11  C7  UNL     1       4.738   1.545   1.999  1.00  0.00     0.018 A 
HETATM   12  C8  UNL     1       3.888   0.692   2.655  1.00  0.00     0.089 A 
HETATM   13  N1  UNL     1       3.346  -0.346   1.989  1.00  0.00    -0.352 N 
ATOM     14  H1  UNL     1       2.717  -0.965   2.501  1.00  0.00     0.166 HD
BRANCH   9  15
HETATM   15  C4  UNL     1       4.688  -0.031  -1.424  1.00  0.00     0.153 C 
BRANCH  15  16
HETATM   16  C3  UNL     1       3.498   0.435  -2.183  1.00  0.00     0.263 C 
HETATM   17  O2  UNL     1       2.539   0.937  -1.514  1.00  0.00    -0.265 OA
BRANCH  16  18
HETATM   18  O1  UNL     1       3.348   0.369  -3.549  1.00  0.00    -0.322 OA
BRANCH  18  19
HETATM   19  C2  UNL     1       2.121   0.875  -4.113  1.00  0.00     0.174 C 
HETATM   20  C1  UNL     1       1.967   2.343  -3.758  1.00  0.00     0.034 C 
ENDBRANCH  18  19
ENDBRANCH  16  18
ENDBRANCH  15  16
ENDBRANCH   9  15
ENDBRANCH   5   8
ENDBRANCH   3   4
ENDBRANCH   2   3
ENDBRANCH   1   2
BRANCH   1  21
HETATM   21  C14 UNL     1      -1.657  -3.184   1.481  1.00  0.00     0.047 C 
BRANCH  21  22
HETATM   22  C15 UNL     1      -1.370  -1.993   0.664  1.00  0.00     0.135 C 
BRANCH  22  23
HETATM   23  N3  UNL     1      -2.555  -1.150   0.459  1.00  0.00    -0.325 N 
HETATM   24  C16 UNL     1      -2.988  -0.128   1.219  1.00  0.00     0.147 A 
HETATM   25  N4  UNL     1      -4.116   0.339   0.619  1.00  0.00    -0.335 N 
HETATM   26  C24 UNL     1      -4.373  -0.384  -0.492  1.00  0.00     0.061 A 
ATOM     27  H4  UNL     1      -4.682   1.117   0.957  1.00  0.00     0.168 HD
HETATM   28  C25 UNL     1      -5.353  -0.359  -1.458  1.00  0.00     0.032 A 
HETATM   29  C29 UNL     1      -3.373  -1.330  -0.585  1.00  0.00     0.063 A 
HETATM   30  C26 UNL     1      -5.352  -1.249  -2.502  1.00  0.00     0.002 A 
HETATM   31  C27 UNL     1      -4.366  -2.204  -2.620  1.00  0.00     0.002 A 
HETATM   32  C28 UNL     1      -3.393  -2.230  -1.659  1.00  0.00     0.032 A 
BRANCH  24  33
HETATM   33  S1  UNL     1      -2.204   0.453   2.727  1.00  0.00    -0.089 SA
BRANCH  33  34
HETATM   34  C17 UNL     1      -0.944   1.718   2.318  1.00  0.00     0.121 C 
BRANCH  34  35
HETATM   35  C18 UNL     1      -1.596   2.919   1.743  1.00  0.00    -0.049 A 
HETATM   36  C19 UNL     1      -2.043   3.992   2.481  1.00  0.00     0.008 A 
HETATM   37  C20 UNL     1      -2.651   5.081   1.882  1.00  0.00     0.001 A 
HETATM   38  C21 UNL     1      -2.826   5.116   0.497  1.00  0.00     0.000 A 
HETATM   39  C22 UNL     1      -2.379   4.044  -0.244  1.00  0.00     0.001 A 
HETATM   40  C23 UNL     1      -1.774   2.966   0.372  1.00  0.00     0.008 A 
ENDBRANCH  34  35
ENDBRANCH  33  34
ENDBRANCH  24  33
ENDBRANCH  22  23
ENDBRANCH  21  22
ENDBRANCH   1  21
TORSDOF 14
