REMARK  14 active torsions:
REMARK  status: ('A' for Active; 'I' for Inactive)
REMARK    1  A    between atoms: C2_2  and  C3_3 
REMARK    2  A    between atoms: C3_3  and  C4_4 
REMARK    3  A    between atoms: C4_4  and  C5_5 
REMARK    4  A    between atoms: C5_5  and  C6_6 
REMARK    5  A    between atoms: C6_6  and  C7_7 
REMARK    6  A    between atoms: C7_7  and  C8_8 
REMARK    7  A    between atoms: C8_8  and  C9_9 
REMARK    8  A    between atoms: C9_9  and  S1_10 
REMARK    9  A    between atoms: S1_10  and  C10_11 
REMARK   10  A    between atoms: C10_11  and  C11_12 
REMARK   11  A    between atoms: C10_11  and  N4_32 
REMARK   12  A    between atoms: C12_17  and  C13_18 
REMARK   13  A    between atoms: C17_22  and  O1_23 
REMARK   14  A    between atoms: O1_23  and  C18_24 
ROOT
HETATM    1  N4  UNL     1      -0.469  -2.223  -1.888  1.00  0.00    -0.345 N 
HETATM    2  C23 UNL     1      -0.537  -2.168  -3.217  1.00  0.00     0.092 A 
HETATM    3  C24 UNL     1      -0.375  -3.320  -4.003  1.00  0.00     0.019 A 
HETATM    4  C25 UNL     1      -0.144  -4.509  -3.386  1.00  0.00     0.025 A 
HETATM    5  C26 UNL     1      -0.075  -4.564  -2.010  1.00  0.00     0.060 A 
HETATM    6  C27 UNL     1       0.167  -5.796  -1.308  1.00  0.00     0.101 C 
HETATM    7  N5  UNL     1       0.351  -6.797  -0.756  1.00  0.00    -0.191 NA
HETATM    8  C28 UNL     1      -0.243  -3.387  -1.268  1.00  0.00     0.114 A 
ENDROOT
BRANCH   1   9
HETATM    9  C10 UNL     1      -0.636  -1.035  -1.099  1.00  0.00     0.209 C 
BRANCH   9  10
HETATM   10  S1  UNL     1      -1.468  -1.426   0.434  1.00  0.00    -0.137 SA
BRANCH  10  11
HETATM   11  C9  UNL     1      -3.126  -2.076   0.189  1.00  0.00     0.076 C 
BRANCH  11  12
HETATM   12  C8  UNL     1      -3.971  -0.959  -0.414  1.00  0.00     0.010 C 
BRANCH  12  13
HETATM   13  C7  UNL     1      -5.367  -1.446  -0.641  1.00  0.00     0.001 C 
BRANCH  13  14
HETATM   14  C6  UNL     1      -6.069  -1.896   0.603  1.00  0.00     0.000 C 
BRANCH  14  15
HETATM   15  C5  UNL     1      -6.187  -0.783   1.625  1.00  0.00     0.000 C 
BRANCH  15  16
HETATM   16  C4  UNL     1      -6.975   0.360   1.015  1.00  0.00     0.000 C 
BRANCH  16  17
HETATM   17  C3  UNL     1      -7.072   1.458   2.070  1.00  0.00    -0.000 C 
BRANCH  17  18
HETATM   18  C2  UNL     1      -7.863   2.640   1.502  1.00  0.00    -0.005 C 
HETATM   19  C1  UNL     1      -7.143   3.176   0.269  1.00  0.00     0.005 C 
ENDBRANCH  17  18
ENDBRANCH  16  17
ENDBRANCH  15  16
ENDBRANCH  14  15
ENDBRANCH  13  14
ENDBRANCH  12  13
ENDBRANCH  11  12
ENDBRANCH  10  11
ENDBRANCH   9  10
BRANCH   9  20
HETATM   20  C11 UNL     1       0.730  -0.511  -0.767  1.00  0.00     0.101 A 
HETATM   21  N1  UNL     1       1.464   0.394  -1.408  1.00  0.00    -0.294 N 
HETATM   22  N2  UNL     1       2.606   0.704  -0.970  1.00  0.00    -0.292 N 
ATOM     23  H1  UNL     1       1.104   0.837  -2.253  1.00  0.00     0.187 HD
HETATM   24  C12 UNL     1       3.079   0.133   0.127  1.00  0.00     0.101 A 
ATOM     25  H2  UNL     1       3.168   1.398  -1.463  1.00  0.00     0.187 HD
HETATM   26  S2  UNL     1       1.787  -0.906   0.532  1.00  0.00    -0.052 SA
BRANCH  24  27
HETATM   27  C13 UNL     1       4.363   0.351   0.781  1.00  0.00     0.002 A 
HETATM   28  C14 UNL     1       4.704  -0.349   1.915  1.00  0.00     0.014 A 
HETATM   29  C15 UNL     1       5.891  -0.194   2.573  1.00  0.00     0.004 A 
HETATM   30  C16 UNL     1       6.801   0.739   2.043  1.00  0.00     0.037 A 
HETATM   31  C17 UNL     1       6.515   1.464   0.916  1.00  0.00     0.070 A 
HETATM   32  C22 UNL     1       5.270   1.256   0.284  1.00  0.00     0.051 A 
BRANCH  31  33
HETATM   33  O1  UNL     1       7.365   2.376   0.368  1.00  0.00    -0.340 OA
BRANCH  33  34
HETATM   34  C18 UNL     1       8.631   2.687   0.852  1.00  0.00     0.170 C 
HETATM   35  C19 UNL     1       8.668   4.135   1.147  1.00  0.00     0.023 C 
HETATM   36  C20 UNL     1       9.198   4.772   0.137  1.00  0.00     0.081 C 
HETATM   37  N3  UNL     1       9.547   3.846  -0.880  1.00  0.00    -0.396 N 
HETATM   38  C21 UNL     1       9.600   2.502  -0.312  1.00  0.00     0.155 C 
ATOM     39  H3  UNL     1       9.732   4.082  -1.855  1.00  0.00     0.158 HD
ENDBRANCH  33  34
ENDBRANCH  31  33
ENDBRANCH  24  27
ENDBRANCH   9  20
ENDBRANCH   1   9
TORSDOF 14
