REMARK  14 active torsions:
REMARK  status: ('A' for Active; 'I' for Inactive)
REMARK    1  A    between atoms: C2_2  and  C3_3 
REMARK    2  A    between atoms: C3_3  and  C4_4 
REMARK    3  A    between atoms: C4_4  and  C5_5 
REMARK    4  A    between atoms: C5_5  and  C6_6 
REMARK    5  A    between atoms: C6_6  and  C7_7 
REMARK    6  A    between atoms: C7_7  and  N1_8 
REMARK    7  A    between atoms: N1_8  and  C8_9 
REMARK    8  A    between atoms: N1_8  and  C15_16 
REMARK    9  A    between atoms: C8_9  and  C9_10 
REMARK   10  A    between atoms: N5_27  and  C20_28 
REMARK   11  A    between atoms: C22_30  and  O1_31 
REMARK   12  A    between atoms: C24_34  and  O2_35 
REMARK   13  A    between atoms: O2_35  and  C25_36 
REMARK   14  A    between atoms: C25_36  and  C26_37 
ROOT
HETATM    1  C15 UNL     1      -1.309   0.219   1.325  1.00  0.00     0.135 A 
HETATM    2  N2  UNL     1      -1.511  -0.267   2.551  1.00  0.00    -0.337 N 
ATOM      3  H2  UNL     1      -2.384  -0.057   3.034  1.00  0.00     0.168 HD
HETATM    4  C16 UNL     1      -0.576  -1.037   3.170  1.00  0.00     0.183 A 
HETATM    5  N3  UNL     1       0.574  -1.318   2.541  1.00  0.00    -0.336 N 
ATOM      6  H3  UNL     1       1.270  -1.896   3.011  1.00  0.00     0.168 HD
HETATM    7  C17 UNL     1       0.830  -0.857   1.309  1.00  0.00     0.141 A 
HETATM    8  C18 UNL     1      -0.129  -0.069   0.681  1.00  0.00     0.122 A 
HETATM    9  N4  UNL     1       0.352   0.269  -0.508  1.00  0.00    -0.346 N 
ATOM     10  H4  UNL     1      -0.116   0.846  -1.207  1.00  0.00     0.167 HD
HETATM   11  C19 UNL     1       1.583  -0.295  -0.624  1.00  0.00     0.185 A 
HETATM   12  N5  UNL     1       1.892  -0.979   0.461  1.00  0.00    -0.320 N 
ENDROOT
BRANCH   1  13
HETATM   13  N1  UNL     1      -2.365   1.002   0.729  1.00  0.00    -0.365 N 
BRANCH  13  14
HETATM   14  C7  UNL     1      -3.231   0.455  -0.264  1.00  0.00     0.124 C 
BRANCH  14  15
HETATM   15  C6  UNL     1      -3.144  -1.063  -0.330  1.00  0.00     0.020 C 
BRANCH  15  16
HETATM   16  C5  UNL     1      -4.062  -1.642  -1.380  1.00  0.00     0.002 C 
BRANCH  16  17
HETATM   17  C4  UNL     1      -5.509  -1.330  -1.130  1.00  0.00     0.000 C 
BRANCH  17  18
HETATM   18  C3  UNL     1      -5.975  -1.875   0.210  1.00  0.00    -0.000 C 
BRANCH  18  19
HETATM   19  C2  UNL     1      -5.811  -3.368   0.265  1.00  0.00    -0.005 C 
HETATM   20  C1  UNL     1      -6.601  -4.074  -0.804  1.00  0.00     0.005 C 
ENDBRANCH  18  19
ENDBRANCH  17  18
ENDBRANCH  16  17
ENDBRANCH  15  16
ENDBRANCH  14  15
ENDBRANCH  13  14
BRANCH  13  21
HETATM   21  C8  UNL     1      -2.456   2.359   1.173  1.00  0.00     0.129 C 
BRANCH  21  22
HETATM   22  C9  UNL     1      -2.054   3.404   0.197  1.00  0.00     0.004 C 
HETATM   23  C10 UNL     1      -2.896   3.418  -1.022  1.00  0.00     0.006 C 
HETATM   24  C11 UNL     1      -3.175   4.888  -1.385  1.00  0.00     0.000 C 
HETATM   25  C12 UNL     1      -4.006   5.560  -0.329  1.00  0.00     0.000 C 
HETATM   26  C13 UNL     1      -3.408   5.328   1.054  1.00  0.00     0.000 C 
HETATM   27  C14 UNL     1      -2.008   4.776   0.875  1.00  0.00     0.006 C 
ENDBRANCH  21  22
ENDBRANCH  13  21
ENDBRANCH   1  13
BRANCH  12  28
HETATM   28  C20 UNL     1       3.047  -1.750   0.829  1.00  0.00     0.123 C 
HETATM   29  C21 UNL     1       3.496  -1.368   2.252  1.00  0.00     0.060 C 
HETATM   30  C22 UNL     1       4.999  -1.627   2.266  1.00  0.00     0.122 C 
HETATM   31  C23 UNL     1       5.282  -2.337   0.960  1.00  0.00     0.065 C 
HETATM   32  C24 UNL     1       4.276  -1.562   0.051  1.00  0.00     0.147 C 
BRANCH  30  33
HETATM   33  O1  UNL     1       5.257  -2.502   3.346  1.00  0.00    -0.395 OA
ATOM     34  H1  UNL     1       6.193  -2.663   3.355  1.00  0.00     0.210 HD
ENDBRANCH  30  33
BRANCH  32  35
HETATM   35  O2  UNL     1       4.351  -2.052  -1.213  1.00  0.00    -0.379 OA
BRANCH  35  36
HETATM   36  C25 UNL     1       4.933  -1.295  -2.180  1.00  0.00     0.206 C 
BRANCH  36  37
HETATM   37  C26 UNL     1       6.362  -0.963  -1.959  1.00  0.00    -0.035 A 
HETATM   38  C27 UNL     1       7.305  -1.886  -2.351  1.00  0.00     0.009 A 
HETATM   39  C28 UNL     1       8.661  -1.698  -2.205  1.00  0.00     0.001 A 
HETATM   40  C29 UNL     1       9.092  -0.525  -1.637  1.00  0.00     0.000 A 
HETATM   41  C30 UNL     1       8.161   0.412  -1.238  1.00  0.00     0.001 A 
HETATM   42  C31 UNL     1       6.788   0.209  -1.393  1.00  0.00     0.009 A 
ENDBRANCH  36  37
ENDBRANCH  35  36
ENDBRANCH  32  35
ENDBRANCH  12  28
TORSDOF 14
