REMARK  17 active torsions:
REMARK  status: ('A' for Active; 'I' for Inactive)
REMARK    1  A    between atoms: C2_2  and  C3_3 
REMARK    2  A    between atoms: C3_3  and  N1_4 
REMARK    3  A    between atoms: N1_4  and  C4_6 
REMARK    4  A    between atoms: C5_9  and  C6_10 
REMARK    5  A    between atoms: C6_10  and  C7_11 
REMARK    6  A    between atoms: C7_11  and  C8_12 
REMARK    7  A    between atoms: C8_12  and  N3_13 
REMARK    8  A    between atoms: C10_20  and  N7_21 
REMARK    9  A    between atoms: N7_21  and  C11_23 
REMARK   10  A    between atoms: C11_23  and  C12_24 
REMARK   11  A    between atoms: C12_24  and  C13_25 
REMARK   12  A    between atoms: C13_25  and  C14_26 
REMARK   13  A    between atoms: C14_26  and  C15_27 
REMARK   14  A    between atoms: C15_27  and  C16_28 
REMARK   15  A    between atoms: C16_28  and  C17_29 
REMARK   16  A    between atoms: C17_29  and  N8_30 
REMARK   17  A    between atoms: N8_30  and  C18_32 
ROOT
HETATM    1  C4  UNL     1      -2.243   2.750   0.043  1.00  0.00     0.694 A 
HETATM    2  N2  UNL     1      -2.639   1.565   0.517  1.00  0.00    -0.180 N 
ATOM      3  H2  UNL     1      -3.606   1.434   0.813  1.00  0.00     0.185 HD
HETATM    4  C5  UNL     1      -1.767   0.542   0.606  1.00  0.00     0.113 A 
HETATM    5  N6  UNL     1      -0.505   0.709   0.224  1.00  0.00    -0.180 N 
ATOM      6  H6  UNL     1       0.154  -0.066   0.294  1.00  0.00     0.185 HD
HETATM    7  C10 UNL     1      -0.093   1.904  -0.257  1.00  0.00     0.694 A 
HETATM    8  N9  UNL     1      -0.958   2.933  -0.350  1.00  0.00    -0.022 N 
ATOM      9  H9  UNL     1      -0.651   3.836  -0.711  1.00  0.00     0.203 HD
ENDROOT
BRANCH   7  10
HETATM   10  N7  UNL     1       1.110   2.113  -0.637  1.00  0.00    -0.226 N 
ATOM     11  H7  UNL     1       1.345   3.042  -0.987  1.00  0.00     0.177 HD
BRANCH  10  12
HETATM   12  C11 UNL     1       2.161   1.115  -0.602  1.00  0.00     0.138 C 
BRANCH  12  13
HETATM   13  C12 UNL     1       1.974   0.078  -1.691  1.00  0.00     0.020 C 
BRANCH  13  14
HETATM   14  C13 UNL     1       3.032  -0.971  -1.697  1.00  0.00     0.002 C 
BRANCH  14  15
HETATM   15  C14 UNL     1       3.109  -1.757  -0.413  1.00  0.00     0.000 C 
BRANCH  15  16
HETATM   16  C15 UNL     1       4.182  -2.807  -0.449  1.00  0.00     0.002 C 
BRANCH  16  17
HETATM   17  C16 UNL     1       5.560  -2.262  -0.668  1.00  0.00     0.020 C 
BRANCH  17  18
HETATM   18  C17 UNL     1       5.924  -1.295   0.457  1.00  0.00     0.122 C 
BRANCH  18  19
HETATM   19  N8  UNL     1       7.244  -0.761   0.267  1.00  0.00    -0.368 N 
ATOM     20  H8  UNL     1       7.800  -1.042  -0.541  1.00  0.00     0.161 HD
BRANCH  19  21
HETATM   21  C18 UNL     1       7.767   0.153   1.202  1.00  0.00     0.348 C 
HETATM   22  O1  UNL     1       7.089   0.496   2.186  1.00  0.00    -0.284 OA
ENDBRANCH  19  21
ENDBRANCH  18  19
ENDBRANCH  17  18
ENDBRANCH  16  17
ENDBRANCH  15  16
ENDBRANCH  14  15
ENDBRANCH  13  14
ENDBRANCH  12  13
ENDBRANCH  10  12
ENDBRANCH   7  10
BRANCH   4  23
HETATM   23  C6  UNL     1      -2.219  -0.767   1.133  1.00  0.00     0.079 C 
BRANCH  23  24
HETATM   24  C7  UNL     1      -2.723  -1.645   0.016  1.00  0.00     0.027 C 
BRANCH  24  25
HETATM   25  C8  UNL     1      -3.170  -2.973   0.632  1.00  0.00     0.122 C 
BRANCH  25  26
HETATM   26  N3  UNL     1      -4.217  -2.661   1.576  1.00  0.00    -0.367 N 
HETATM   27  C9  UNL     1      -5.479  -2.819   1.299  1.00  0.00     0.196 C 
HETATM   28  N4  UNL     1      -6.456  -2.493   2.270  1.00  0.00    -0.067 NA
HETATM   29  N5  UNL     1      -5.798  -3.317   0.012  1.00  0.00    -0.067 NA
ATOM     30  H3  UNL     1      -3.958  -2.303   2.495  1.00  0.00     0.161 HD
ENDBRANCH  25  26
ENDBRANCH  24  25
ENDBRANCH  23  24
ENDBRANCH   4  23
BRANCH   1  31
HETATM   31  N1  UNL     1      -3.077   3.741  -0.047  1.00  0.00    -0.222 N 
ATOM     32  H1  UNL     1      -4.043   3.602   0.249  1.00  0.00     0.178 HD
BRANCH  31  33
HETATM   33  C3  UNL     1      -2.681   5.030  -0.552  1.00  0.00     0.164 C 
BRANCH  33  34
HETATM   34  C2  UNL     1      -3.879   5.910  -0.561  1.00  0.00    -0.017 C 
HETATM   35  C1  UNL     1      -5.074   5.476  -0.147  1.00  0.00     0.008 C 
ENDBRANCH  33  34
ENDBRANCH  31  33
ENDBRANCH   1  31
TORSDOF 17
