REMARK  4 active torsions:
REMARK  status: ('A' for Active; 'I' for Inactive)
REMARK    1  A    between atoms: C2_3  and  N2_4 
REMARK    2  A    between atoms: N3_6  and  C3_8 
REMARK    3  A    between atoms: C5_15  and  O2_16 
REMARK    4  A    between atoms: N7_24  and  N8_25 
ROOT
HETATM    1  N2  UNL     1       0.359  -0.011   0.298  1.00  0.00    -0.291 N 
ATOM      2  H2  UNL     1       0.607   0.849   0.788  1.00  0.00     0.187 HD
HETATM    3  N3  UNL     1       1.288  -0.614  -0.291  1.00  0.00    -0.281 N 
ATOM      4  H3  UNL     1       1.110  -1.480  -0.800  1.00  0.00     0.188 HD
ENDROOT
BRANCH   1   5
HETATM    5  C2  UNL     1      -0.985  -0.402   0.349  1.00  0.00     0.160 A 
HETATM    6  C1  UNL     1      -1.982   0.543   0.280  1.00  0.00     0.176 A 
HETATM    7  N1  UNL     1      -1.606   1.898   0.159  1.00  0.00    -0.078 NA
HETATM    8  N7  UNL     1      -3.299   0.198   0.326  1.00  0.00    -0.195 N 
HETATM    9  C7  UNL     1      -3.579  -1.112   0.442  1.00  0.00     0.349 A 
HETATM   10  N6  UNL     1      -2.637  -2.069   0.513  1.00  0.00    -0.272 N 
HETATM   11  O4  UNL     1      -4.805  -1.473   0.489  1.00  0.00    -0.244 OA
HETATM   12  C6  UNL     1      -1.323  -1.730   0.467  1.00  0.00     0.281 A 
ATOM     13  H6  UNL     1      -2.909  -3.048   0.601  1.00  0.00     0.174 HD
HETATM   14  O3  UNL     1      -0.461  -2.654   0.536  1.00  0.00    -0.265 OA
BRANCH   8  15
HETATM   15  N8  UNL     1      -4.290   1.178   0.254  1.00  0.00    -0.333 N 
ATOM     16  H82 UNL     1      -4.078   2.172   0.166  1.00  0.00     0.177 HD
ATOM     17  H81 UNL     1      -5.276   0.920   0.288  1.00  0.00     0.177 HD
ENDBRANCH   8  15
ENDBRANCH   1   5
BRANCH   3  18
HETATM   18  C3  UNL     1       2.597  -0.059  -0.230  1.00  0.00     0.176 A 
HETATM   19  N4  UNL     1       2.924   1.244  -0.153  1.00  0.00    -0.290 N 
HETATM   20  C4  UNL     1       4.283   1.346  -0.115  1.00  0.00     0.328 A 
ATOM     21  H4  UNL     1       2.266   2.023  -0.127  1.00  0.00     0.172 HD
HETATM   22  O1  UNL     1       4.866   2.455  -0.042  1.00  0.00    -0.247 OA
HETATM   23  N5  UNL     1       4.822   0.105  -0.168  1.00  0.00    -0.286 N 
HETATM   24  C5  UNL     1       3.781  -0.758  -0.239  1.00  0.00     0.191 A 
ATOM     25  H5  UNL     1       5.814  -0.132  -0.157  1.00  0.00     0.172 HD
BRANCH  24  26
HETATM   26  O2  UNL     1       3.915  -2.125  -0.309  1.00  0.00    -0.343 OA
ATOM     27  H2  UNL     1       4.733  -2.608  -0.315  1.00  0.00     0.219 HD
ENDBRANCH  24  26
ENDBRANCH   3  18
TORSDOF 4
