REMARK  4 active torsions:
REMARK  status: ('A' for Active; 'I' for Inactive)
REMARK    1  A    between atoms: C2_2  and  C3_3 
REMARK    2  A    between atoms: N1_5  and  C5_6 
REMARK    3  A    between atoms: C5_6  and  C6_7 
REMARK    4  A    between atoms: C7_8  and  C8_9 
ROOT
HETATM    1  C5  UNL     1      -0.359  -0.779   2.074  1.00  0.00     0.156 C 
ENDROOT
BRANCH   1   2
HETATM    2  N1  UNL     1      -1.592  -0.935   1.319  1.00  0.00    -0.347 N 
HETATM    3  C4  UNL     1      -2.417   0.018   0.878  1.00  0.00     0.121 A 
HETATM    4  C3  UNL     1      -3.489  -0.526   0.198  1.00  0.00     0.048 A 
HETATM    5  N2  UNL     1      -3.287  -1.855   0.240  1.00  0.00    -0.351 N 
HETATM    6  C14 UNL     1      -2.145  -2.115   0.914  1.00  0.00     0.183 A 
ATOM      7  H2  UNL     1      -3.901  -2.558  -0.173  1.00  0.00     0.166 HD
BRANCH   4   8
HETATM    8  C2  UNL     1      -4.603   0.170  -0.434  1.00  0.00     0.021 C 
HETATM    9  C1  UNL     1      -4.715   1.486  -0.422  1.00  0.00     0.013 C 
ENDBRANCH   4   8
ENDBRANCH   1   2
BRANCH   1  10
HETATM   10  C6  UNL     1       0.741  -0.659   1.069  1.00  0.00    -0.006 C 
HETATM   11  C7  UNL     1       1.500   0.394   1.005  1.00  0.00     0.009 C 
BRANCH  11  12
HETATM   12  C8  UNL     1       2.570   0.515   0.031  1.00  0.00    -0.036 A 
HETATM   13  C9  UNL     1       2.837  -0.474  -0.874  1.00  0.00     0.011 A 
HETATM   14  C10 UNL     1       3.868  -0.374  -1.823  1.00  0.00     0.001 A 
HETATM   15  C11 UNL     1       4.613   0.784  -1.804  1.00  0.00     0.000 A 
HETATM   16  C12 UNL     1       4.377   1.801  -0.913  1.00  0.00     0.001 A 
HETATM   17  C13 UNL     1       3.368   1.665  -0.007  1.00  0.00     0.011 A 
ENDBRANCH  11  12
ENDBRANCH   1  10
TORSDOF 4
