REMARK  3 active torsions:
REMARK  status: ('A' for Active; 'I' for Inactive)
REMARK    1  A    between atoms: C2_2  and  O2_4 
REMARK    2  A    between atoms: O2_4  and  N1_5 
REMARK    3  A    between atoms: C3_7  and  C4_8 
ROOT
HETATM    1  N1  UNL     1       1.232   1.341   0.473  1.00  0.00    -0.272 N 
ATOM      2  H1  UNL     1       1.627   2.179   0.900  1.00  0.00     0.193 HD
HETATM    3  C3  UNL     1      -0.035   1.244   0.334  1.00  0.00     0.092 C 
ENDROOT
BRANCH   1   4
HETATM    4  O2  UNL     1       2.069   0.337   0.057  1.00  0.00    -0.201 OA
BRANCH   4   5
HETATM    5  C2  UNL     1       3.429   0.346   0.245  1.00  0.00     0.277 C 
HETATM    6  C1  UNL     1       4.229  -0.796  -0.249  1.00  0.00     0.128 C 
HETATM    7  O1  UNL     1       3.968   1.300   0.822  1.00  0.00    -0.264 OA
ENDBRANCH   4   5
ENDBRANCH   1   4
BRANCH   3   8
HETATM    8  C4  UNL     1      -0.611   0.033  -0.284  1.00  0.00     0.026 C 
HETATM    9  C5  UNL     1      -1.740   0.330  -1.216  1.00  0.00     0.010 C 
HETATM   10  C6  UNL     1      -3.023  -0.065  -0.525  1.00  0.00     0.001 C 
HETATM   11  C7  UNL     1      -2.614  -0.050   0.934  1.00  0.00     0.001 C 
HETATM   12  C8  UNL     1      -1.260  -0.766   0.851  1.00  0.00     0.010 C 
ENDBRANCH   3   8
TORSDOF 3
