REMARK  2 active torsions:
REMARK  status: ('A' for Active; 'I' for Inactive)
REMARK    1  A    between atoms: C7_7  and  O1_8 
REMARK    2  A    between atoms: C7_7  and  O2_10 
ROOT
HETATM    1  C1  UNL     1      -2.903  -0.090  -1.280  1.00  0.00     0.098 C 
HETATM    2  C2  UNL     1      -1.975  -0.197  -0.492  1.00  0.00    -0.172 C 
HETATM    3  C3  UNL     1      -0.911  -0.358   0.432  1.00  0.00     0.064 C 
HETATM    4  C4  UNL     1      -0.913  -1.682   1.205  1.00  0.00     0.034 C 
HETATM    5  C5  UNL     1      -0.708   0.758   1.402  1.00  0.00     0.032 C 
HETATM    6  C6  UNL     1       0.807   0.537   1.140  1.00  0.00     0.072 C 
HETATM    7  C7  UNL     1       0.464  -0.065  -0.196  1.00  0.00     0.180 C 
ENDROOT
BRANCH   7   8
HETATM    8  O1  UNL     1       0.513   0.738  -1.277  1.00  0.00    -0.358 OA
HETATM    9  C8  UNL     1       0.082   2.006  -1.245  1.00  0.00     0.205 C 
ENDBRANCH   7   8
BRANCH   7  10
HETATM   10  O2  UNL     1       0.996  -1.317  -0.495  1.00  0.00    -0.358 OA
HETATM   11  C9  UNL     1       2.317  -1.265  -0.901  1.00  0.00     0.205 C 
ENDBRANCH   7  10
TORSDOF 2
