REMARK  6 active torsions:
REMARK  status: ('A' for Active; 'I' for Inactive)
REMARK    1  A    between atoms: N1_1  and  C1_5 
REMARK    2  A    between atoms: C3_7  and  N2_8 
REMARK    3  A    between atoms: N2_8  and  C4_9 
REMARK    4  A    between atoms: N2_8  and  S1_11 
REMARK    5  A    between atoms: S1_11  and  N3_12 
REMARK    6  A    between atoms: C5_17  and  N4_18 
ROOT
HETATM    1  C1  UNL     1      -1.974  -0.386  -0.972  1.00  0.00     0.217 C 
HETATM    2  C2  UNL     1      -0.632   0.228  -1.292  1.00  0.00     0.063 C 
HETATM    3  C3  UNL     1      -0.033  -0.624  -0.166  1.00  0.00     0.138 C 
HETATM    4  C5  UNL     1      -1.387  -0.831   0.365  1.00  0.00     0.237 C 
ENDROOT
BRANCH   3   5
HETATM    5  N2  UNL     1       1.002  -0.002   0.452  1.00  0.00    -0.253 N 
BRANCH   5   6
HETATM    6  C4  UNL     1       1.035   1.182   1.141  1.00  0.00     0.189 C 
HETATM    7 CL1  UNL     1       1.373   2.636   0.129  1.00  0.00    -0.077 Cl
ENDBRANCH   5   6
BRANCH   5   8
HETATM    8  S1  UNL     1       2.534  -0.772   0.345  1.00  0.00     0.319 S 
HETATM    9  O1  UNL     1       3.327  -0.550   1.599  1.00  0.00    -0.182 OA
HETATM   10  O2  UNL     1       2.267  -2.249   0.119  1.00  0.00    -0.182 OA
BRANCH   8  11
HETATM   11  N3  UNL     1       3.338  -0.191  -1.056  1.00  0.00    -0.311 N 
ATOM     12  H32 UNL     1       2.957   0.496  -1.706  1.00  0.00     0.170 HD
ATOM     13  H31 UNL     1       4.248  -0.648  -1.120  1.00  0.00     0.170 HD
ENDBRANCH   8  11
ENDBRANCH   5   8
ENDBRANCH   3   5
BRANCH   4  14
HETATM   14  N4  UNL     1      -1.889  -0.058   1.434  1.00  0.00    -0.071 N 
ATOM     15  H43 UNL     1      -1.741   0.939   1.275  1.00  0.00     0.274 HD
ATOM     16  H42 UNL     1      -2.909  -0.066   1.453  1.00  0.00     0.274 HD
ATOM     17  H41 UNL     1      -1.497  -0.355   2.327  1.00  0.00     0.274 HD
ENDBRANCH   4  14
BRANCH   1  18
HETATM   18  N1  UNL     1      -3.001   0.604  -0.892  1.00  0.00    -0.073 N 
ATOM     19  H13 UNL     1      -2.759   1.338  -0.226  1.00  0.00     0.274 HD
ATOM     20  H12 UNL     1      -3.042   1.167  -1.742  1.00  0.00     0.274 HD
ATOM     21  H11 UNL     1      -3.907   0.189  -0.676  1.00  0.00     0.274 HD
ENDBRANCH   1  18
TORSDOF 6
