REMARK  6 active torsions:
REMARK  status: ('A' for Active; 'I' for Inactive)
REMARK    1  A    between atoms: O1_2  and  C2_3 
REMARK    2  A    between atoms: N2_7  and  C4_9 
REMARK    3  A    between atoms: C4_9  and  C5_10 
REMARK    4  A    between atoms: C8_13  and  C9_14 
REMARK       I    between atoms: C9_14  and  N3_16 
REMARK    5  A    between atoms: N3_16  and  C10_18 
REMARK    6  A    between atoms: C18_27  and  C19_28 
ROOT
HETATM    1  C4  UNL     1      -1.257  -0.700   0.207  1.00  0.00     0.126 C 
ENDROOT
BRANCH   1   2
HETATM    2  N2  UNL     1      -2.306   0.104  -0.340  1.00  0.00    -0.376 N 
HETATM    3  C3  UNL     1      -3.525  -0.202  -0.116  1.00  0.00     0.106 A 
HETATM    4  N1  UNL     1      -3.839  -1.262   0.620  1.00  0.00    -0.308 N 
HETATM    5  C17 UNL     1      -4.514   0.585  -0.650  1.00  0.00     0.078 A 
HETATM    6  C2  UNL     1      -5.119  -1.589   0.858  1.00  0.00     0.225 A 
ATOM      7  H1  UNL     1      -3.094  -1.838   1.012  1.00  0.00     0.171 HD
HETATM    8  N4  UNL     1      -6.085  -0.813   0.331  1.00  0.00    -0.322 N 
HETATM    9  C18 UNL     1      -5.820   0.263  -0.415  1.00  0.00     0.044 A 
ATOM     10  H4  UNL     1      -7.059  -1.057   0.509  1.00  0.00     0.169 HD
ATOM     11  H2  UNL     1      -2.080   0.921  -0.908  1.00  0.00     0.161 HD
BRANCH   6  12
HETATM   12  O1  UNL     1      -5.423  -2.706   1.634  1.00  0.00    -0.327 OA
HETATM   13  C1  UNL     1      -4.396  -3.499   2.172  1.00  0.00     0.213 C 
ENDBRANCH   6  12
BRANCH   9  14
HETATM   14  C19 UNL     1      -6.881   1.126  -1.001  1.00  0.00    -0.035 A 
HETATM   15  C20 UNL     1      -6.868   2.186  -1.735  1.00  0.00    -0.017 A 
HETATM   16  C21 UNL     1      -8.290   2.298  -1.799  1.00  0.00     0.032 A 
HETATM   17  C22 UNL     1      -8.349   1.099  -0.969  1.00  0.00     0.044 A 
ENDBRANCH   9  14
ENDBRANCH   1   2
BRANCH   1  18
HETATM   18  C5  UNL     1      -0.100   0.249   0.547  1.00  0.00     0.003 C 
HETATM   19  C6  UNL     1       0.320   0.917  -0.718  1.00  0.00     0.007 C 
HETATM   20  C7  UNL     1       1.826   0.692  -0.881  1.00  0.00     0.014 C 
HETATM   21  C8  UNL     1       2.450   1.231   0.413  1.00  0.00     0.078 C 
HETATM   22  C15 UNL     1       2.237   0.160   1.459  1.00  0.00     0.014 C 
HETATM   23  C16 UNL     1       0.968  -0.591   1.184  1.00  0.00     0.007 C 
BRANCH  21  24
HETATM   24  C9  UNL     1       3.892   1.410   0.228  1.00  0.00     0.222 C 
HETATM   25  O2  UNL     1       4.393   2.546   0.366  1.00  0.00    -0.273 OA
HETATM   26  N3  UNL     1       4.685   0.273  -0.107  1.00  0.00    -0.356 N 
ATOM     27  H3  UNL     1       4.258  -0.647  -0.216  1.00  0.00     0.162 HD
BRANCH  26  28
HETATM   28  C10 UNL     1       6.105   0.454  -0.288  1.00  0.00     0.087 C 
HETATM   29  C11 UNL     1       6.540  -0.135  -1.616  1.00  0.00     0.028 C 
HETATM   30  C12 UNL     1       8.035  -0.280  -1.403  1.00  0.00     0.039 C 
HETATM   31  C13 UNL     1       8.175  -0.645   0.044  1.00  0.00     0.172 C 
HETATM   32  F1  UNL     1       9.068   0.204   0.690  1.00  0.00    -0.249 F 
HETATM   33  C14 UNL     1       6.819  -0.492   0.686  1.00  0.00     0.062 C 
ENDBRANCH  26  28
ENDBRANCH  21  24
ENDBRANCH   1  18
TORSDOF 6
