REMARK  5 active torsions:
REMARK  status: ('A' for Active; 'I' for Inactive)
REMARK    1  A    between atoms: C2_2  and  C3_3 
REMARK    2  A    between atoms: C3_3  and  C4_4 
REMARK    3  A    between atoms: C4_4  and  C5_5 
REMARK    4  A    between atoms: C5_5  and  C6_6 
REMARK    5  A    between atoms: C6_6  and  N1_7 
ROOT
HETATM    1  C3  UNL     1      -0.801  -0.323   0.026  1.00  0.00    -0.020 C 
HETATM    2  C8  UNL     1      -1.398   0.557   1.157  1.00  0.00     0.144 C 
HETATM    3  N2  UNL     1      -2.152   1.668   0.680  1.00  0.00    -0.319 N 
HETATM    4  C9  UNL     1      -1.920   2.956   1.136  1.00  0.00     0.179 C 
HETATM    5  N3  UNL     1      -1.712   4.039   1.505  1.00  0.00    -0.172 NA
HETATM    6  C10 UNL     1      -3.229   1.511  -0.332  1.00  0.00     0.139 C 
HETATM    7  C11 UNL     1      -3.065   0.052  -0.643  1.00  0.00     0.009 A 
HETATM    8  C12 UNL     1      -2.677  -0.633  -1.820  1.00  0.00     0.012 A 
HETATM    9  C13 UNL     1      -1.607   0.016  -1.168  1.00  0.00     0.002 A 
ENDROOT
BRANCH   1  10
HETATM   10  C2  UNL     1      -1.003  -1.755   0.397  1.00  0.00     0.007 C 
HETATM   11  C1  UNL     1      -0.328  -2.243   1.632  1.00  0.00     0.006 C 
ENDBRANCH   1  10
BRANCH   1  12
HETATM   12  C4  UNL     1       0.601   0.096  -0.255  1.00  0.00     0.013 C 
BRANCH  12  13
HETATM   13  C5  UNL     1       1.632  -0.026   0.776  1.00  0.00     0.028 C 
BRANCH  13  14
HETATM   14  C6  UNL     1       2.979   0.520   0.249  1.00  0.00     0.231 C 
BRANCH  14  15
HETATM   15  N1  UNL     1       3.384  -0.245  -0.927  1.00  0.00    -0.079 N 
HETATM   16  C7  UNL     1       4.630   0.221  -1.457  1.00  0.00     0.266 C 
ATOM     17  H12 UNL     1       3.415  -1.245  -0.728  1.00  0.00     0.276 HD
ATOM     18  H11 UNL     1       2.654  -0.247  -1.639  1.00  0.00     0.276 HD
ENDBRANCH  14  15
ENDBRANCH  13  14
ENDBRANCH  12  13
ENDBRANCH   1  12
TORSDOF 5
