REMARK  9 active torsions:
REMARK  status: ('A' for Active; 'I' for Inactive)
REMARK    1  A    between atoms: C8_8  and  O1_9 
REMARK    2  A    between atoms: O1_9  and  C9_10 
REMARK    3  A    between atoms: C9_10  and  C10_12 
REMARK    4  A    between atoms: C14_16  and  O3_17 
REMARK    5  A    between atoms: C15_19  and  C16_20 
REMARK    6  A    between atoms: C19_24  and  C21_26 
REMARK       I    between atoms: C21_26  and  N1_28 
REMARK    7  A    between atoms: N1_28  and  C22_30 
REMARK    8  A    between atoms: C22_30  and  C23_31 
REMARK    9  A    between atoms: C23_31  and  N2_32 
ROOT
HETATM    1  C1  UNL     1      -4.889   1.030   2.426  1.00  0.00     0.010 C 
HETATM    2  C2  UNL     1      -3.704   0.165   2.097  1.00  0.00    -0.014 C 
HETATM    3  C3  UNL     1      -4.020  -1.256   2.266  1.00  0.00     0.005 C 
HETATM    4  C4  UNL     1      -2.994  -2.206   1.683  1.00  0.00     0.014 C 
HETATM    5  C5  UNL     1      -2.915  -1.824   0.198  1.00  0.00    -0.015 C 
HETATM    6  C6  UNL     1      -4.408  -1.775  -0.209  1.00  0.00     0.020 C 
HETATM    7  C7  UNL     1      -2.289  -0.512   0.182  1.00  0.00    -0.041 C 
HETATM    8  C8  UNL     1      -1.142   0.166  -0.051  1.00  0.00     0.063 C 
HETATM    9  C13 UNL     1       0.169  -0.364  -0.453  1.00  0.00     0.106 C 
HETATM   10  C14 UNL     1       0.312  -0.922  -1.812  1.00  0.00     0.093 C 
HETATM   11  C15 UNL     1      -0.472  -2.175  -2.081  1.00  0.00     0.046 C 
HETATM   12  C17 UNL     1       0.511  -3.101  -2.837  1.00  0.00     0.021 C 
HETATM   13  C18 UNL     1       1.752  -2.804  -1.991  1.00  0.00     0.023 C 
HETATM   14  C19 UNL     1       1.728  -1.279  -2.133  1.00  0.00     0.070 C 
HETATM   15  C20 UNL     1       2.036  -1.026  -3.609  1.00  0.00     0.029 C 
HETATM   16  C27 UNL     1      -0.910  -2.933  -0.875  1.00  0.00     0.025 C 
HETATM   17  C28 UNL     1      -2.382  -2.905  -0.655  1.00  0.00    -0.005 C 
HETATM   18  C29 UNL     1      -2.826  -4.254  -0.099  1.00  0.00     0.011 C 
HETATM   19  C30 UNL     1      -3.206   0.567   0.706  1.00  0.00     0.041 C 
ENDROOT
BRANCH  14  20
HETATM   20  C21 UNL     1       2.788  -0.767  -1.283  1.00  0.00     0.229 C 
HETATM   21  O5  UNL     1       3.330  -1.475  -0.403  1.00  0.00    -0.273 OA
HETATM   22  N1  UNL     1       3.247   0.561  -1.422  1.00  0.00    -0.359 N 
ATOM     23  H1  UNL     1       2.832   1.166  -2.131  1.00  0.00     0.162 HD
BRANCH  22  24
HETATM   24  C22 UNL     1       4.298   1.074  -0.571  1.00  0.00     0.150 C 
BRANCH  24  25
HETATM   25  C23 UNL     1       3.984   1.091   0.884  1.00  0.00     0.255 C 
BRANCH  25  26
HETATM   26  N2  UNL     1       5.078   1.619   1.685  1.00  0.00    -0.077 N 
HETATM   27  C24 UNL     1       6.229   0.763   1.686  1.00  0.00     0.271 C 
HETATM   28  C25 UNL     1       5.379   2.957   1.206  1.00  0.00     0.271 C 
HETATM   29  C26 UNL     1       4.582   1.764   3.042  1.00  0.00     0.271 C 
ENDBRANCH  25  26
ENDBRANCH  24  25
ENDBRANCH  22  24
ENDBRANCH  14  20
BRANCH  10  30
HETATM   30  O3  UNL     1      -0.056   0.099  -2.726  1.00  0.00    -0.387 OA
ATOM     31  H3  UNL     1       0.036  -0.260  -3.601  1.00  0.00     0.210 HD
ENDBRANCH  10  30
BRANCH  11  32
HETATM   32  C16 UNL     1      -1.570  -1.978  -3.068  1.00  0.00     0.243 C 
HETATM   33  O4  UNL     1      -2.055  -0.953  -3.427  1.00  0.00    -0.306 OA
ENDBRANCH  11  32
BRANCH   8  34
HETATM   34  O1  UNL     1      -1.364   1.480   0.153  1.00  0.00    -0.283 OA
BRANCH  34  35
HETATM   35  C9  UNL     1      -0.633   2.595  -0.020  1.00  0.00     0.267 C 
HETATM   36  O2  UNL     1       0.518   2.506  -0.467  1.00  0.00    -0.265 OA
BRANCH  35  37
HETATM   37  C10 UNL     1      -1.120   3.953   0.295  1.00  0.00     0.078 C 
HETATM   38  C11 UNL     1      -1.384   4.144   1.774  1.00  0.00     0.020 C 
HETATM   39  C12 UNL     1      -2.414   4.304  -0.430  1.00  0.00     0.020 C 
ENDBRANCH  35  37
ENDBRANCH  34  35
ENDBRANCH   8  34
TORSDOF 9
