REMARK  8 active torsions:
REMARK  status: ('A' for Active; 'I' for Inactive)
REMARK    1  A    between atoms: C2_2  and  C3_3 
REMARK    2  A    between atoms: C3_3  and  C4_4 
REMARK    3  A    between atoms: C4_4  and  C5_5 
REMARK    4  A    between atoms: C5_5  and  C6_6 
REMARK    5  A    between atoms: C6_6  and  C7_7 
REMARK    6  A    between atoms: C7_7  and  N1_8 
REMARK       I    between atoms: N1_8  and  C8_10 
REMARK    7  A    between atoms: C8_10  and  C9_12 
REMARK    8  A    between atoms: C26_31  and  O4_32 
ROOT
HETATM    1  C9  UNL     1       1.670  -2.235   0.332  1.00  0.00     0.102 C 
HETATM    2  C10 UNL     1       1.652  -2.606   1.836  1.00  0.00     0.034 C 
HETATM    3  C11 UNL     1       1.679  -3.525  -0.380  1.00  0.00     0.144 C 
HETATM    4  O2  UNL     1       2.706  -4.003  -0.868  1.00  0.00    -0.297 OA
HETATM    5  C12 UNL     1       0.449  -4.307  -0.538  1.00  0.00     0.080 C 
HETATM    6  C13 UNL     1      -0.772  -3.560  -0.099  1.00  0.00     0.017 C 
HETATM    7  C14 UNL     1      -0.699  -2.143  -0.574  1.00  0.00    -0.034 C 
HETATM    8  C15 UNL     1      -0.510  -2.238  -2.101  1.00  0.00     0.016 C 
HETATM    9  C16 UNL     1      -1.921  -1.341  -0.319  1.00  0.00     0.002 C 
HETATM   10  C17 UNL     1      -2.775  -1.754   0.829  1.00  0.00     0.007 C 
HETATM   11  C18 UNL     1      -3.394  -0.623   1.614  1.00  0.00     0.014 C 
HETATM   12  C19 UNL     1      -3.902   0.523   0.825  1.00  0.00    -0.014 C 
HETATM   13  C20 UNL     1      -3.822   1.753   1.735  1.00  0.00     0.020 C 
HETATM   14  C21 UNL     1      -2.911   0.798  -0.262  1.00  0.00    -0.063 C 
HETATM   15  C22 UNL     1      -3.255   1.551  -1.259  1.00  0.00     0.054 C 
HETATM   16  C23 UNL     1      -4.589   2.097  -1.280  1.00  0.00     0.154 C 
HETATM   17  O3  UNL     1      -4.810   3.225  -1.755  1.00  0.00    -0.293 OA
HETATM   18  C24 UNL     1      -5.707   1.300  -0.729  1.00  0.00     0.071 C 
HETATM   19  C25 UNL     1      -6.863   2.160  -0.357  1.00  0.00     0.073 C 
HETATM   20  C26 UNL     1      -7.651   1.796   0.830  1.00  0.00     0.257 C 
HETATM   21  O5  UNL     1      -7.547   0.431   1.078  1.00  0.00    -0.361 OA
HETATM   22  C27 UNL     1      -6.227   0.201   1.465  1.00  0.00     0.177 C 
HETATM   23  C28 UNL     1      -5.277   0.291   0.303  1.00  0.00     0.033 C 
HETATM   24  C29 UNL     1      -1.598   0.143  -0.092  1.00  0.00     0.020 C 
HETATM   25  C30 UNL     1      -0.519   0.667  -0.941  1.00  0.00     0.010 C 
HETATM   26  C31 UNL     1       0.750  -0.136  -0.709  1.00  0.00     0.008 C 
HETATM   27  C32 UNL     1       0.483  -1.409   0.034  1.00  0.00     0.019 C 
ENDROOT
BRANCH   1  28
HETATM   28  C8  UNL     1       2.983  -1.515   0.123  1.00  0.00     0.237 C 
HETATM   29  N1  UNL     1       3.552  -1.362  -1.145  1.00  0.00    -0.336 N 
ATOM     30  H1  UNL     1       2.998  -1.801  -1.881  1.00  0.00     0.168 HD
HETATM   31  O1  UNL     1       3.508  -1.075   1.150  1.00  0.00    -0.272 OA
BRANCH  29  32
HETATM   32  C7  UNL     1       4.712  -0.742  -1.637  1.00  0.00     0.087 C 
BRANCH  32  33
HETATM   33  C6  UNL     1       4.918   0.719  -1.564  1.00  0.00    -0.010 C 
BRANCH  33  34
HETATM   34  C5  UNL     1       5.050   1.436  -0.297  1.00  0.00     0.028 C 
BRANCH  34  35
HETATM   35  C4  UNL     1       6.217   1.049   0.577  1.00  0.00     0.004 C 
BRANCH  35  36
HETATM   36  C3  UNL     1       7.545   1.267  -0.106  1.00  0.00    -0.000 C 
BRANCH  36  37
HETATM   37  C2  UNL     1       7.764   2.715  -0.489  1.00  0.00    -0.005 C 
HETATM   38  C1  UNL     1       7.727   3.563   0.782  1.00  0.00     0.005 C 
ENDBRANCH  36  37
ENDBRANCH  35  36
ENDBRANCH  34  35
ENDBRANCH  33  34
ENDBRANCH  32  33
ENDBRANCH  29  32
ENDBRANCH   1  28
BRANCH  20  39
HETATM   39  O4  UNL     1      -7.363   2.554   1.964  1.00  0.00    -0.371 OA
ATOM     40  H4  UNL     1      -7.872   2.319   2.731  1.00  0.00     0.212 HD
ENDBRANCH  20  39
TORSDOF 8
