REMARK  2 active torsions:
REMARK  status: ('A' for Active; 'I' for Inactive)
REMARK    1  A    between atoms: N1_1  and  N2_4 
REMARK    2  A    between atoms: N2_4  and  N3_6 
ROOT
HETATM    1  N3  UNL     1       1.630   0.147   1.400  1.00  0.00    -0.275 N 
ATOM      2  H3  UNL     1       1.557  -0.691   1.977  1.00  0.00     0.190 HD
HETATM    3  C1  UNL     1       0.742   0.416   0.512  1.00  0.00     0.103 C 
HETATM    4  N4  UNL     1       0.524   1.452  -0.440  1.00  0.00    -0.377 N 
ATOM      5  H4  UNL     1       1.107   2.202  -0.812  1.00  0.00     0.160 HD
HETATM    6  C2  UNL     1      -0.851   1.032  -0.681  1.00  0.00     0.138 C 
HETATM    7  C3  UNL     1      -0.497  -0.204   0.025  1.00  0.00     0.035 A 
HETATM    8  C4  UNL     1      -1.359  -1.067   0.783  1.00  0.00     0.020 A 
HETATM    9  C5  UNL     1      -0.609  -1.554  -0.466  1.00  0.00     0.020 A 
ENDROOT
BRANCH   1  10
HETATM   10  N2  UNL     1       2.698   1.033   1.554  1.00  0.00    -0.248 N 
ATOM     11  H2  UNL     1       2.555   1.993   1.866  1.00  0.00     0.207 HD
BRANCH  10  12
HETATM   12  N1  UNL     1       3.872   0.580   1.283  1.00  0.00    -0.331 N 
ATOM     13  H12 UNL     1       3.999  -0.383   0.972  1.00  0.00     0.178 HD
ATOM     14  H11 UNL     1       4.652   1.227   1.396  1.00  0.00     0.178 HD
ENDBRANCH  10  12
ENDBRANCH   1  10
TORSDOF 2
