REMARK  2 active torsions:
REMARK  status: ('A' for Active; 'I' for Inactive)
REMARK    1  A    between atoms: N2_4  and  N3_6 
REMARK    2  A    between atoms: C1_8  and  C2_9 
ROOT
HETATM    1  N3  UNL     1       2.224  -0.886   0.377  1.00  0.00    -0.295 N 
ATOM      2  H3  UNL     1       2.991  -1.542   0.525  1.00  0.00     0.187 HD
HETATM    3  C1  UNL     1       1.023  -1.320   0.470  1.00  0.00     0.145 C 
ENDROOT
BRANCH   1   4
HETATM    4  N2  UNL     1       2.532   0.443   0.083  1.00  0.00    -0.250 N 
HETATM    5  N1  UNL     1       3.170   0.753  -0.954  1.00  0.00    -0.331 N 
ATOM      6  H12 UNL     1       3.462   0.006  -1.584  1.00  0.00     0.178 HD
ATOM      7  H11 UNL     1       3.395   1.724  -1.169  1.00  0.00     0.178 HD
ATOM      8  H2  UNL     1       2.233   1.178   0.724  1.00  0.00     0.207 HD
ENDBRANCH   1   4
BRANCH   3   9
HETATM    9  C2  UNL     1      -0.117  -0.407   0.264  1.00  0.00     0.091 A 
HETATM   10  C3  UNL     1      -1.447  -0.796   0.347  1.00  0.00     0.040 A 
HETATM   11  C4  UNL     1      -2.241   0.311   0.099  1.00  0.00     0.027 A 
HETATM   12  C5  UNL     1      -1.338   1.332  -0.125  1.00  0.00     0.142 A 
HETATM   13  O1  UNL     1      -0.101   0.857  -0.016  1.00  0.00    -0.321 OA
ENDBRANCH   3   9
TORSDOF 2
