REMARK  3 active torsions:
REMARK  status: ('A' for Active; 'I' for Inactive)
REMARK    1  A    between atoms: C1_2  and  N1_3 
REMARK    2  A    between atoms: C1_2  and  C8_11 
REMARK    3  A    between atoms: N1_3  and  C2_5 
ROOT
HETATM    1  N1  UNL     1       1.224   0.462   0.277  1.00  0.00    -0.378 N 
ATOM      2  H1  UNL     1       1.197   1.472   0.140  1.00  0.00     0.160 HD
ENDROOT
BRANCH   1   3
HETATM    3  C1  UNL     1       2.403  -0.246  -0.066  1.00  0.00     0.107 C 
HETATM    4  S1  UNL     1       2.475  -1.860   0.146  1.00  0.00    -0.063 SA
BRANCH   3   5
HETATM    5  C8  UNL     1       3.577   0.464  -0.616  1.00  0.00     0.239 C 
HETATM    6 CL1  UNL     1       4.103   1.667   0.610  1.00  0.00    -0.101 Cl
HETATM    7 CL2  UNL     1       4.920  -0.667  -0.878  1.00  0.00    -0.101 Cl
ENDBRANCH   3   5
ENDBRANCH   1   3
BRANCH   1   8
HETATM    8  C2  UNL     1       0.045  -0.212   0.821  1.00  0.00     0.082 C 
HETATM    9  C3  UNL     1      -0.990   0.857   1.097  1.00  0.00     0.025 C 
HETATM   10  C4  UNL     1      -1.572   1.190  -0.285  1.00  0.00     0.002 C 
HETATM   11  C5  UNL     1      -2.555   0.087  -0.588  1.00  0.00     0.000 C 
HETATM   12  C6  UNL     1      -1.906  -1.231  -0.397  1.00  0.00     0.002 C 
HETATM   13  C7  UNL     1      -0.439  -1.239  -0.159  1.00  0.00     0.025 C 
ENDBRANCH   1   8
TORSDOF 3
