REMARK  4 active torsions:
REMARK  status: ('A' for Active; 'I' for Inactive)
REMARK    1  A    between atoms: C2_2  and  C15_18 
REMARK    2  A    between atoms: C3_3  and  C4_4 
REMARK    3  A    between atoms: C4_4  and  C5_5 
REMARK    4  A    between atoms: C10_10  and  O1_11 
ROOT
HETATM    1  C1  UNL     1       1.391   1.308  -0.821  1.00  0.00     0.048 C 
HETATM    2  C2  UNL     1       1.635  -0.055  -1.312  1.00  0.00    -0.064 C 
HETATM    3  C3  UNL     1       0.659  -0.780  -1.868  1.00  0.00    -0.019 C 
ENDROOT
BRANCH   3   4
HETATM    4  C4  UNL     1      -0.737  -0.358  -2.071  1.00  0.00     0.040 C 
BRANCH   4   5
HETATM    5  C5  UNL     1      -1.618  -1.295  -1.270  1.00  0.00     0.059 C 
HETATM    6  C6  UNL     1      -1.329  -1.281   0.189  1.00  0.00     0.013 C 
HETATM    7  C7  UNL     1      -2.039  -0.237   0.974  1.00  0.00     0.013 C 
HETATM    8  C8  UNL     1      -3.409   0.090   0.527  1.00  0.00    -0.008 C 
HETATM    9  C9  UNL     1      -3.523   1.412  -0.205  1.00  0.00     0.018 C 
HETATM   10  C10 UNL     1      -4.460   0.071   1.593  1.00  0.00     0.127 C 
HETATM   11  C13 UNL     1      -3.940  -1.044  -0.366  1.00  0.00     0.066 C 
HETATM   12  C11 UNL     1      -5.737  -0.055   0.785  1.00  0.00     0.033 C 
HETATM   13  C12 UNL     1      -5.333  -0.575  -0.584  1.00  0.00     0.015 C 
HETATM   14  C14 UNL     1      -3.080  -1.045  -1.561  1.00  0.00     0.136 C 
HETATM   15  O2  UNL     1      -3.439  -0.870  -2.691  1.00  0.00    -0.297 OA
BRANCH  10  16
HETATM   16  O1  UNL     1      -4.453   1.197   2.403  1.00  0.00    -0.395 OA
ATOM     17  H1  UNL     1      -5.120   1.185   3.079  1.00  0.00     0.210 HD
ENDBRANCH  10  16
ENDBRANCH   4   5
ENDBRANCH   3   4
BRANCH   2  18
HETATM   18  C15 UNL     1       2.940  -0.686  -1.204  1.00  0.00     0.031 C 
HETATM   19  C16 UNL     1       4.054  -0.248  -0.738  1.00  0.00     0.009 C 
HETATM   20  C17 UNL     1       5.255  -1.167  -0.762  1.00  0.00     0.057 C 
HETATM   21  N1  UNL     1       4.282   1.071  -0.216  1.00  0.00    -0.361 N 
HETATM   22  C18 UNL     1       6.265  -0.803   0.273  1.00  0.00     0.012 C 
HETATM   23  C19 UNL     1       5.719  -0.034   1.449  1.00  0.00     0.060 C 
HETATM   24  C20 UNL     1       4.998   1.193   1.004  1.00  0.00     0.043 C 
HETATM   25  C21 UNL     1       4.997   2.335   1.662  1.00  0.00     0.125 C 
HETATM   26 CL1  UNL     1       5.883   2.488   3.168  1.00  0.00    -0.069 Cl
HETATM   27 CL2  UNL     1       4.111   3.707   1.036  1.00  0.00    -0.069 Cl
ATOM     28  H1  UNL     1       3.939   1.896  -0.708  1.00  0.00     0.165 HD
ENDBRANCH   2  18
TORSDOF 4
