REMARK  13 active torsions:
REMARK  status: ('A' for Active; 'I' for Inactive)
REMARK    1  A    between atoms: C2_2  and  C3_3 
REMARK    2  A    between atoms: C3_3  and  C5_5 
REMARK    3  A    between atoms: C5_5  and  C6_6 
REMARK    4  A    between atoms: C6_6  and  C7_7 
REMARK    5  A    between atoms: C6_6  and  C29_41 
REMARK    6  A    between atoms: C7_7  and  O1_8 
REMARK    7  A    between atoms: O1_8  and  C8_9 
REMARK    8  A    between atoms: C13_15  and  O3_16 
REMARK    9  A    between atoms: O3_16  and  C14_17 
REMARK   10  A    between atoms: C22_27  and  N1_28 
REMARK       I    between atoms: N1_28  and  C23_30 
REMARK   11  A    between atoms: C26_34  and  O7_35 
REMARK   12  A    between atoms: C28_38  and  O8_39 
REMARK   13  A    between atoms: C29_41  and  O10_43 
ROOT
HETATM    1  C8  UNL     1       1.208  -1.158  -0.143  1.00  0.00     0.289 C 
HETATM    2  O2  UNL     1       0.698  -2.444  -0.536  1.00  0.00    -0.348 OA
HETATM    3  C9  UNL     1      -0.088  -2.862   0.507  1.00  0.00     0.063 C 
HETATM    4  C10 UNL     1      -0.363  -4.343   0.230  1.00  0.00     0.046 C 
HETATM    5  C11 UNL     1       0.593  -2.861   1.859  1.00  0.00     0.046 C 
HETATM    6  C12 UNL     1      -1.368  -2.060   0.610  1.00  0.00     0.059 C 
HETATM    7  C13 UNL     1      -2.359  -2.625  -0.343  1.00  0.00     0.140 C 
HETATM    8  C16 UNL     1      -2.706  -1.643  -1.468  1.00  0.00     0.042 C 
HETATM    9  C17 UNL     1      -3.299  -0.462  -0.721  1.00  0.00     0.038 C 
HETATM   10  C18 UNL     1      -3.999   0.412  -1.707  1.00  0.00     0.022 C 
HETATM   11  C19 UNL     1      -3.244   0.671  -2.970  1.00  0.00     0.023 C 
HETATM   12  C20 UNL     1      -5.346  -0.208  -2.108  1.00  0.00     0.023 C 
HETATM   13  C21 UNL     1      -4.353   1.672  -0.969  1.00  0.00     0.158 C 
HETATM   14  O5  UNL     1      -5.488   2.011  -0.725  1.00  0.00    -0.295 OA
HETATM   15  C22 UNL     1      -3.157   2.468  -0.564  1.00  0.00     0.158 C 
HETATM   16  C25 UNL     1      -1.959   1.611  -0.235  1.00  0.00     0.071 C 
HETATM   17  C26 UNL     1      -2.347   0.207   0.197  1.00  0.00     0.071 C 
HETATM   18  C27 UNL     1      -1.115  -0.607   0.528  1.00  0.00     0.063 C 
HETATM   19  C28 UNL     1       0.116  -0.178  -0.259  1.00  0.00     0.180 C 
ENDROOT
BRANCH   1  20
HETATM   20  O1  UNL     1       2.278  -0.887  -0.995  1.00  0.00    -0.358 OA
BRANCH  20  21
HETATM   21  C7  UNL     1       3.466  -1.010  -0.368  1.00  0.00     0.185 C 
BRANCH  21  22
HETATM   22  C6  UNL     1       3.934  -0.065   0.661  1.00  0.00     0.110 C 
BRANCH  22  23
HETATM   23  C5  UNL     1       4.170   1.344   0.253  1.00  0.00     0.021 C 
BRANCH  23  24
HETATM   24  C3  UNL     1       5.194   1.535  -0.842  1.00  0.00    -0.018 C 
HETATM   25  C4  UNL     1       6.594   1.136  -0.450  1.00  0.00     0.010 C 
BRANCH  24  26
HETATM   26  C2  UNL     1       5.258   3.053  -1.098  1.00  0.00    -0.000 C 
HETATM   27  C1  UNL     1       6.228   3.381  -2.193  1.00  0.00     0.005 C 
ENDBRANCH  24  26
ENDBRANCH  23  24
ENDBRANCH  22  23
BRANCH  22  28
HETATM   28  C29 UNL     1       5.029  -0.646   1.517  1.00  0.00     0.264 C 
HETATM   29  O9  UNL     1       5.720  -1.624   1.198  1.00  0.00    -0.265 OA
BRANCH  28  30
HETATM   30  O10 UNL     1       5.282  -0.038   2.759  1.00  0.00    -0.326 OA
HETATM   31  C30 UNL     1       6.296  -0.529   3.616  1.00  0.00     0.213 C 
ENDBRANCH  28  30
ENDBRANCH  22  28
ENDBRANCH  21  22
ENDBRANCH  20  21
ENDBRANCH   1  20
BRANCH  19  32
HETATM   32  O8  UNL     1       0.617   1.020   0.275  1.00  0.00    -0.390 OA
ATOM     33  H8  UNL     1      -0.088   1.653   0.200  1.00  0.00     0.210 HD
ENDBRANCH  19  32
BRANCH  17  34
HETATM   34  O7  UNL     1      -3.049   0.435   1.415  1.00  0.00    -0.389 OA
ATOM     35  H7  UNL     1      -2.439   0.864   2.003  1.00  0.00     0.210 HD
ENDBRANCH  17  34
BRANCH   7  36
HETATM   36  O3  UNL     1      -3.627  -2.851   0.298  1.00  0.00    -0.316 OA
BRANCH  36  37
HETATM   37  C14 UNL     1      -4.329  -4.012   0.236  1.00  0.00     0.255 C 
HETATM   38  C15 UNL     1      -5.630  -4.123   0.946  1.00  0.00     0.126 C 
HETATM   39  O4  UNL     1      -3.886  -4.982  -0.411  1.00  0.00    -0.266 OA
ENDBRANCH  36  37
ENDBRANCH   7  36
BRANCH  15  40
HETATM   40  N1  UNL     1      -3.551   3.332   0.505  1.00  0.00    -0.350 N 
HETATM   41  C23 UNL     1      -3.622   4.738   0.321  1.00  0.00     0.214 C 
HETATM   42  C24 UNL     1      -4.028   5.658   1.414  1.00  0.00     0.117 C 
HETATM   43  O6  UNL     1      -3.332   5.257  -0.811  1.00  0.00    -0.274 OA
ATOM     44  H1  UNL     1      -3.785   2.932   1.414  1.00  0.00     0.163 HD
ENDBRANCH  15  40
TORSDOF 13
