REMARK  6 active torsions:
REMARK  status: ('A' for Active; 'I' for Inactive)
REMARK    1  A    between atoms: C2_2  and  N1_3 
REMARK    2  A    between atoms: N1_3  and  C3_6 
REMARK    3  A    between atoms: C6_15  and  C7_16 
REMARK    4  A    between atoms: C7_16  and  N6_17 
REMARK    5  A    between atoms: N6_17  and  C8_20 
REMARK    6  A    between atoms: C8_20  and  O1_21 
ROOT
HETATM    1  C3  UNL     1      -0.778  -0.657   0.632  1.00  0.00     0.274 A 
HETATM    2  C4  UNL     1      -1.542  -1.381  -0.374  1.00  0.00     0.128 A 
HETATM    3  N2  UNL     1      -2.934  -1.121  -0.691  1.00  0.00    -0.085 NA
HETATM    4  N3  UNL     1      -1.084  -2.387  -1.065  1.00  0.00    -0.321 N 
ATOM      5  H3  UNL     1      -1.693  -2.830  -1.753  1.00  0.00     0.169 HD
HETATM    6  C5  UNL     1       0.231  -2.887  -0.893  1.00  0.00     0.189 A 
HETATM    7  N4  UNL     1       0.686  -3.998  -1.695  1.00  0.00    -0.064 NA
HETATM    8  N5  UNL     1       0.955  -2.330  -0.036  1.00  0.00    -0.356 N 
ATOM      9  H5  UNL     1       1.898  -2.703   0.073  1.00  0.00     0.162 HD
HETATM   10  C6  UNL     1       0.608  -1.240   0.797  1.00  0.00     0.147 A 
ENDROOT
BRANCH  10  11
HETATM   11  C7  UNL     1       1.688  -0.162   0.797  1.00  0.00     0.262 C 
BRANCH  11  12
HETATM   12  N6  UNL     1       1.731   0.598  -0.411  1.00  0.00    -0.052 N 
ATOM     13  H62 UNL     1       1.835  -0.016  -1.219  1.00  0.00     0.279 HD
ATOM     14  H61 UNL     1       0.816   0.998  -0.618  1.00  0.00     0.279 HD
BRANCH  12  15
HETATM   15  C8  UNL     1       2.737   1.612  -0.414  1.00  0.00     0.396 C 
BRANCH  15  16
HETATM   16  O1  UNL     1       2.780   2.342  -1.590  1.00  0.00    -0.375 OA
ATOM     17  H1  UNL     1       3.449   3.016  -1.592  1.00  0.00     0.211 HD
ENDBRANCH  15  16
ENDBRANCH  12  15
ENDBRANCH  11  12
ENDBRANCH  10  11
BRANCH   1  18
HETATM   18  N1  UNL     1      -0.725   0.744   0.383  1.00  0.00    -0.063 N 
ATOM     19  H12 UNL     1      -0.252   0.934  -0.500  1.00  0.00     0.278 HD
ATOM     20  H11 UNL     1      -0.077   1.199   1.026  1.00  0.00     0.278 HD
BRANCH  18  21
HETATM   21  C2  UNL     1      -2.002   1.384   0.418  1.00  0.00     0.229 C 
HETATM   22  C1  UNL     1      -1.759   2.930   0.368  1.00  0.00     0.034 C 
ENDBRANCH  18  21
ENDBRANCH   1  18
TORSDOF 6
