REMARK  4 active torsions:
REMARK  status: ('A' for Active; 'I' for Inactive)
REMARK    1  A    between atoms: C2_2  and  C3_4 
REMARK    2  A    between atoms: C3_4  and  S2_6 
REMARK    3  A    between atoms: S2_6  and  C4_7 
REMARK    4  A    between atoms: C4_7  and  C5_8 
ROOT
HETATM    1  C5  UNL     1       0.670   0.949   0.398  1.00  0.00     0.151 A 
HETATM    2  N1  UNL     1       0.795   0.690  -0.897  1.00  0.00    -0.279 N 
ATOM      3  H1  UNL     1       0.009   0.515  -1.523  1.00  0.00     0.189 HD
HETATM    4  N2  UNL     1       2.056   0.686  -1.279  1.00  0.00    -0.263 N 
ATOM      5  H2  UNL     1       2.415   0.513  -2.218  1.00  0.00     0.190 HD
HETATM    6  C6  UNL     1       2.770   0.957  -0.175  1.00  0.00     0.238 A 
HETATM    7  N3  UNL     1       4.072   1.054  -0.087  1.00  0.00    -0.364 N 
ATOM      8  H31 UNL     1       4.615   1.260   0.752  1.00  0.00     0.159 HD
ATOM      9  H32 UNL     1       4.730   0.935  -0.857  1.00  0.00     0.159 HD
HETATM   10  O1  UNL     1       1.924   1.110   0.814  1.00  0.00    -0.263 OA
ENDROOT
BRANCH   1  11
HETATM   11  C4  UNL     1      -0.484   1.072   1.332  1.00  0.00     0.166 C 
BRANCH  11  12
HETATM   12  S2  UNL     1      -0.928  -0.384   2.182  1.00  0.00    -0.109 SA
BRANCH  12  13
HETATM   13  C3  UNL     1      -1.675  -1.678   1.315  1.00  0.00     0.088 C 
HETATM   14  S1  UNL     1      -1.609  -3.171   2.134  1.00  0.00    -0.071 SA
BRANCH  13  15
HETATM   15  C2  UNL     1      -2.307  -1.718   0.033  1.00  0.00     0.052 C 
HETATM   16  C1  UNL     1      -2.523  -0.747  -0.813  1.00  0.00     0.039 C 
HETATM   17 CL1  UNL     1      -2.897  -3.336  -0.500  1.00  0.00    -0.083 Cl
ENDBRANCH  13  15
ENDBRANCH  12  13
ENDBRANCH  11  12
ENDBRANCH   1  11
TORSDOF 4
