REMARK  7 active torsions:
REMARK  status: ('A' for Active; 'I' for Inactive)
REMARK    1  A    between atoms: C2_2  and  C3_3 
REMARK    2  A    between atoms: C3_3  and  N1_4 
REMARK       I    between atoms: N1_4  and  C4_6 
REMARK    3  A    between atoms: C4_6  and  C5_8 
REMARK    4  A    between atoms: C6_9  and  C7_10 
REMARK    5  A    between atoms: C14_20  and  C15_21 
REMARK    6  A    between atoms: C16_22  and  C17_23 
REMARK    7  A    between atoms: C18_24  and  C19_25 
ROOT
HETATM    1  C5  UNL     1      -1.910  -0.019   0.370  1.00  0.00     0.099 C 
HETATM    2  C6  UNL     1      -2.523  -1.420   0.360  1.00  0.00     0.089 C 
HETATM    3  C8  UNL     1      -2.014  -2.027  -0.906  1.00  0.00     0.020 C 
HETATM    4  C9  UNL     1      -0.566  -1.512  -0.923  1.00  0.00     0.001 C 
HETATM    5  C10 UNL     1       0.218  -2.390  -0.030  1.00  0.00     0.009 C 
HETATM    6  C11 UNL     1       1.167  -3.313  -0.807  1.00  0.00     0.084 C 
HETATM    7  C12 UNL     1       2.324  -2.839   0.036  1.00  0.00     0.132 C 
HETATM    8  O3  UNL     1       3.472  -3.143   0.220  1.00  0.00    -0.298 OA
HETATM    9  C13 UNL     1       1.436  -1.799   0.571  1.00  0.00     0.068 C 
HETATM   10  C14 UNL     1       1.763  -0.418   0.064  1.00  0.00     0.025 C 
HETATM   11  C22 UNL     1       0.556   0.479   0.135  1.00  0.00    -0.001 C 
HETATM   12  C23 UNL     1       0.396   0.857   1.606  1.00  0.00     0.011 C 
HETATM   13  C24 UNL     1      -0.687  -0.073  -0.486  1.00  0.00    -0.023 C 
HETATM   14  C25 UNL     1      -0.888   0.707  -1.796  1.00  0.00     0.017 C 
ENDROOT
BRANCH   1  15
HETATM   15  C4  UNL     1      -2.885   1.024   0.058  1.00  0.00     0.223 C 
HETATM   16  N1  UNL     1      -3.698   1.075  -1.104  1.00  0.00    -0.357 N 
ATOM     17  H1  UNL     1      -3.612   0.330  -1.795  1.00  0.00     0.162 HD
HETATM   18  O1  UNL     1      -3.061   2.002   0.868  1.00  0.00    -0.273 OA
BRANCH  16  19
HETATM   19  C3  UNL     1      -4.648   2.147  -1.347  1.00  0.00     0.149 C 
BRANCH  19  20
HETATM   20  C2  UNL     1      -5.681   2.246  -0.302  1.00  0.00    -0.018 C 
HETATM   21  C1  UNL     1      -5.790   3.367   0.384  1.00  0.00     0.008 C 
ENDBRANCH  19  20
ENDBRANCH  16  19
ENDBRANCH   1  15
BRANCH   2  22
HETATM   22  C7  UNL     1      -3.965  -1.423   0.511  1.00  0.00     0.236 C 
HETATM   23  N2  UNL     1      -4.571  -0.864   1.660  1.00  0.00    -0.062 NA
HETATM   24  O2  UNL     1      -4.699  -1.920  -0.370  1.00  0.00    -0.276 OA
ENDBRANCH   2  22
BRANCH  10  25
HETATM   25  C15 UNL     1       2.448  -0.418  -1.231  1.00  0.00    -0.012 C 
HETATM   26  C16 UNL     1       3.713  -0.054  -1.370  1.00  0.00     0.061 C 
BRANCH  26  27
HETATM   27  C17 UNL     1       4.451   0.359  -0.210  1.00  0.00    -0.074 C 
HETATM   28  C18 UNL     1       5.094   0.697   0.772  1.00  0.00    -0.074 C 
BRANCH  28  29
HETATM   29  C19 UNL     1       5.848   1.068   1.927  1.00  0.00     0.060 C 
HETATM   30  C20 UNL     1       7.128   1.300   1.842  1.00  0.00    -0.022 C 
HETATM   31  C21 UNL     1       7.819   1.182   0.545  1.00  0.00     0.036 C 
ENDBRANCH  28  29
ENDBRANCH  26  27
ENDBRANCH  10  25
TORSDOF 7
