REMARK  6 active torsions:
REMARK  status: ('A' for Active; 'I' for Inactive)
REMARK    1  A    between atoms: C2_2  and  C3_4 
REMARK    2  A    between atoms: C5_9  and  C6_10 
REMARK    3  A    between atoms: C6_10  and  N2_11 
REMARK    4  A    between atoms: C10_15  and  C11_16 
REMARK    5  A    between atoms: C11_16  and  C12_17 
REMARK       I    between atoms: C12_17  and  N3_19 
REMARK    6  A    between atoms: N3_19  and  C13_21 
ROOT
HETATM    1  C3  UNL     1      -4.827   1.163   1.273  1.00  0.00     0.159 C 
HETATM    2  N1  UNL     1      -4.933  -0.024   2.135  1.00  0.00    -0.349 N 
ATOM      3  H1  UNL     1      -5.774  -0.331   2.623  1.00  0.00     0.163 HD
HETATM    4  C4  UNL     1      -3.640  -0.686   2.176  1.00  0.00     0.229 C 
HETATM    5  O2  UNL     1      -3.393  -1.522   3.070  1.00  0.00    -0.273 OA
HETATM    6  C5  UNL     1      -2.933  -0.124   1.048  1.00  0.00     0.073 C 
HETATM    7  C9  UNL     1      -1.462   0.117   1.211  1.00  0.00     0.026 C 
HETATM    8  C10 UNL     1      -1.242   1.434   0.493  1.00  0.00    -0.004 C 
HETATM    9  C23 UNL     1      -2.648   1.955   0.142  1.00  0.00     0.013 C 
HETATM   10  C24 UNL     1      -3.391   1.329   1.218  1.00  0.00     0.036 C 
ENDROOT
BRANCH   8  11
HETATM   11  C11 UNL     1      -0.368   1.336  -0.696  1.00  0.00     0.107 C 
BRANCH  11  12
HETATM   12  C12 UNL     1       0.982   0.836  -0.285  1.00  0.00     0.218 C 
HETATM   13  O3  UNL     1       1.210   0.640   0.926  1.00  0.00    -0.274 OA
HETATM   14  N3  UNL     1       2.003   0.579  -1.223  1.00  0.00    -0.352 N 
ATOM     15  H3  UNL     1       1.794   0.747  -2.207  1.00  0.00     0.163 HD
BRANCH  14  16
HETATM   16  C13 UNL     1       3.317   0.097  -0.894  1.00  0.00     0.034 C 
HETATM   17  C14 UNL     1       3.248  -1.255  -0.193  1.00  0.00     0.035 C 
HETATM   18  C15 UNL     1       4.633  -1.842  -0.094  1.00  0.00    -0.012 C 
HETATM   19  C16 UNL     1       5.451  -0.929   0.794  1.00  0.00     0.009 C 
HETATM   20  C20 UNL     1       5.321  -1.977  -1.414  1.00  0.00     0.009 C 
HETATM   21  C17 UNL     1       5.477   0.460   0.195  1.00  0.00    -0.012 C 
HETATM   22  C18 UNL     1       6.231   0.351  -1.117  1.00  0.00     0.009 C 
HETATM   23  C22 UNL     1       4.087   1.007   0.037  1.00  0.00     0.035 C 
HETATM   24  C19 UNL     1       5.459  -0.593  -1.999  1.00  0.00    -0.012 C 
HETATM   25  C21 UNL     1       4.087  -0.019  -2.199  1.00  0.00     0.035 C 
ENDBRANCH  14  16
ENDBRANCH  11  12
ENDBRANCH   8  11
BRANCH   6  26
HETATM   26  C6  UNL     1      -3.311  -0.748  -0.229  1.00  0.00     0.290 C 
BRANCH  26  27
HETATM   27  N2  UNL     1      -3.051  -2.121  -0.345  1.00  0.00     0.081 N 
HETATM   28  C7  UNL     1      -3.779  -3.068   0.399  1.00  0.00     0.309 C 
HETATM   29  C8  UNL     1      -3.018  -2.501  -1.741  1.00  0.00     0.309 C 
ENDBRANCH  26  27
ENDBRANCH   6  26
BRANCH   1  30
HETATM   30  C2  UNL     1      -5.415   2.354   2.007  1.00  0.00     0.146 C 
HETATM   31  C1  UNL     1      -5.393   3.631   1.275  1.00  0.00     0.093 C 
HETATM   32  O1  UNL     1      -5.874   2.250   3.130  1.00  0.00    -0.296 OA
ENDBRANCH   1  30
TORSDOF 6
