REMARK  1 active torsions:
REMARK  status: ('A' for Active; 'I' for Inactive)
REMARK    1  A    between atoms: N1_2  and  N2_4 
ROOT
HETATM    1  N2  UNL     1       0.601  -0.192  -0.047  1.00  0.00    -0.131 N 
HETATM    2  C1  UNL     1      -0.206   0.807   0.358  1.00  0.00     0.234 A 
HETATM    3  N3  UNL     1      -1.486   0.503   0.092  1.00  0.00    -0.344 N 
ATOM      4  H3  UNL     1      -2.301   1.082   0.294  1.00  0.00     0.167 HD
HETATM    5  C2  UNL     1      -1.490  -0.714  -0.494  1.00  0.00     0.200 A 
HETATM    6  N4  UNL     1      -0.198  -1.124  -0.572  1.00  0.00    -0.270 N 
ATOM      7  H4  UNL     1       0.115  -2.009  -0.971  1.00  0.00     0.190 HD
ENDROOT
BRANCH   1   8
HETATM    8  N1  UNL     1       1.991  -0.231   0.075  1.00  0.00    -0.016 N 
HETATM    9  O1  UNL     1       2.667   0.287  -0.840  1.00  0.00    -0.515 OA
HETATM   10  O2  UNL     1       2.578  -0.820   1.168  1.00  0.00    -0.515 OA
ENDBRANCH   1   8
TORSDOF 1
