REMARK  1 active torsions:
REMARK  status: ('A' for Active; 'I' for Inactive)
REMARK    1  A    between atoms: N3_7  and  O1_8 
ROOT
HETATM    1  C1  UNL     1       2.433   0.128  -0.109  1.00  0.00     0.095 C 
HETATM    2  C2  UNL     1       0.943   0.057  -0.052  1.00  0.00     0.142 A 
HETATM    3  N1  UNL     1      -0.056   0.160  -0.946  1.00  0.00    -0.268 N 
ATOM      4  H1  UNL     1      -0.098   0.321  -1.952  1.00  0.00     0.190 HD
HETATM    5  N2  UNL     1      -0.964  -0.031  -0.002  1.00  0.00    -0.209 N 
HETATM    6  C3  UNL     1      -2.419  -0.106   0.091  1.00  0.00     0.203 C 
HETATM    7  N3  UNL     1       0.004  -0.134   0.888  1.00  0.00    -0.133 N 
ENDROOT
BRANCH   7   8
HETATM    8  O1  UNL     1       0.119  -0.350   2.258  1.00  0.00    -0.265 OA
ATOM      9  H1  UNL     1      -0.546  -0.485   2.923  1.00  0.00     0.247 HD
ENDBRANCH   7   8
TORSDOF 1
