REMARK  6 active torsions:
REMARK  status: ('A' for Active; 'I' for Inactive)
REMARK    1  A    between atoms: C2_2  and  C3_3 
REMARK    2  A    between atoms: C3_3  and  C4_4 
REMARK    3  A    between atoms: C4_4  and  S1_6 
REMARK    4  A    between atoms: C4_4  and  C8_20 
REMARK    5  A    between atoms: S1_6  and  C6_7 
REMARK    6  A    between atoms: C7_16  and  N5_17 
ROOT
HETATM    1  C4  UNL     1      -0.311   0.688  -0.204  1.00  0.00     0.019 C 
HETATM    2  C5  UNL     1      -0.732   1.210  -1.540  1.00  0.00     0.028 C 
ENDROOT
BRANCH   1   3
HETATM    3  C3  UNL     1      -0.139   1.855   0.707  1.00  0.00     0.021 C 
BRANCH   3   4
HETATM    4  C2  UNL     1      -1.295   2.721   1.048  1.00  0.00    -0.003 C 
HETATM    5  C1  UNL     1      -1.960   3.521  -0.019  1.00  0.00     0.005 C 
ENDBRANCH   3   4
ENDBRANCH   1   3
BRANCH   1   6
HETATM    6  S1  UNL     1      -1.609  -0.325   0.622  1.00  0.00    -0.097 SA
BRANCH   6   7
HETATM    7  C6  UNL     1      -2.936  -0.959   0.063  1.00  0.00     0.132 A 
HETATM    8  N1  UNL     1      -3.382  -0.873  -1.177  1.00  0.00    -0.275 N 
HETATM    9  N2  UNL     1      -4.508  -1.408  -1.603  1.00  0.00    -0.227 N 
ATOM     10  H1  UNL     1      -2.816  -0.357  -1.851  1.00  0.00     0.189 HD
HETATM   11  N3  UNL     1      -5.288  -2.088  -0.793  1.00  0.00    -0.227 N 
ATOM     12  H2  UNL     1      -4.779  -1.292  -2.579  1.00  0.00     0.210 HD
HETATM   13  N4  UNL     1      -4.889  -2.204   0.456  1.00  0.00    -0.268 N 
ATOM     14  H3  UNL     1      -6.160  -2.506  -1.117  1.00  0.00     0.210 HD
HETATM   15  C7  UNL     1      -3.763  -1.684   0.936  1.00  0.00     0.150 A 
ATOM     16  H4  UNL     1      -5.483  -2.728   1.099  1.00  0.00     0.190 HD
BRANCH  15  17
HETATM   17  N5  UNL     1      -3.459  -1.853   2.173  1.00  0.00    -0.382 N 
ATOM     18  H52 UNL     1      -2.595  -1.454   2.541  1.00  0.00     0.157 HD
ATOM     19  H51 UNL     1      -4.060  -2.380   2.807  1.00  0.00     0.157 HD
ENDBRANCH  15  17
ENDBRANCH   6   7
ENDBRANCH   1   6
BRANCH   1  20
HETATM   20  C8  UNL     1       0.894  -0.215  -0.273  1.00  0.00    -0.020 C 
HETATM   21  C9  UNL     1       0.432  -1.300  -1.262  1.00  0.00     0.011 C 
HETATM   22  C10 UNL     1       1.344  -2.487  -1.380  1.00  0.00     0.001 C 
HETATM   23  C11 UNL     1       2.632  -1.963  -1.887  1.00  0.00     0.000 C 
HETATM   24  C12 UNL     1       3.113  -0.790  -1.194  1.00  0.00     0.005 C 
HETATM   25  C13 UNL     1       2.156   0.318  -0.820  1.00  0.00    -0.004 C 
HETATM   26  C14 UNL     1       3.015   1.148   0.122  1.00  0.00     0.005 C 
HETATM   27  C15 UNL     1       3.226   0.504   1.450  1.00  0.00     0.000 C 
HETATM   28  C16 UNL     1       2.112  -0.314   1.985  1.00  0.00     0.001 C 
HETATM   29  C17 UNL     1       1.219  -0.957   0.977  1.00  0.00     0.011 C 
ENDBRANCH   1  20
TORSDOF 6
