REMARK  11 active torsions:
REMARK  status: ('A' for Active; 'I' for Inactive)
REMARK    1  A    between atoms: C2_2  and  C3_3 
REMARK    2  A    between atoms: C4_4  and  C5_5 
REMARK    3  A    between atoms: C8_8  and  O1_9 
REMARK    4  A    between atoms: C14_16  and  C15_17 
REMARK    5  A    between atoms: C15_17  and  O2_18 
REMARK    6  A    between atoms: C15_17  and  C16_20 
REMARK    7  A    between atoms: C16_20  and  C17_21 
REMARK    8  A    between atoms: C17_21  and  C19_23 
REMARK    9  A    between atoms: C19_23  and  C20_24 
REMARK   10  A    between atoms: C20_24  and  O3_25 
REMARK   11  A    between atoms: C20_24  and  O4_27 
ROOT
HETATM    1  C1  UNL     1       1.043   1.609   2.202  1.00  0.00     0.048 C 
HETATM    2  C2  UNL     1       0.833   0.750   1.051  1.00  0.00    -0.059 C 
HETATM    3  C14 UNL     1       1.849   0.406   0.250  1.00  0.00     0.043 C 
ENDROOT
BRANCH   2   4
HETATM    4  C3  UNL     1      -0.492   0.202   0.689  1.00  0.00     0.007 C 
HETATM    5  C4  UNL     1      -1.586   0.409   1.324  1.00  0.00     0.009 C 
BRANCH   5   6
HETATM    6  C5  UNL     1      -2.938  -0.085   1.047  1.00  0.00    -0.046 C 
HETATM    7  C6  UNL     1      -3.924   0.272   1.857  1.00  0.00    -0.048 C 
HETATM    8  C7  UNL     1      -3.614   1.167   3.024  1.00  0.00     0.046 C 
HETATM    9  C8  UNL     1      -5.318  -0.118   1.716  1.00  0.00     0.147 C 
HETATM   10  C9  UNL     1      -5.682  -0.564   0.326  1.00  0.00     0.037 C 
HETATM   11  C10 UNL     1      -4.622  -1.398  -0.304  1.00  0.00     0.016 C 
HETATM   12  C11 UNL     1      -3.206  -0.957  -0.091  1.00  0.00    -0.020 C 
HETATM   13  C12 UNL     1      -2.796  -0.247  -1.381  1.00  0.00     0.020 C 
HETATM   14  C13 UNL     1      -2.337  -2.220   0.050  1.00  0.00     0.020 C 
BRANCH   9  15
HETATM   15  O1  UNL     1      -6.109   1.021   1.987  1.00  0.00    -0.391 OA
ATOM     16  H1  UNL     1      -7.020   0.766   1.895  1.00  0.00     0.210 HD
ENDBRANCH   9  15
ENDBRANCH   5   6
ENDBRANCH   2   4
BRANCH   3  17
HETATM   17  C15 UNL     1       3.206   0.828   0.428  1.00  0.00     0.066 C 
BRANCH  17  18
HETATM   18  O2  UNL     1       3.430   1.597   1.454  1.00  0.00    -0.361 OA
ATOM     19  H2  UNL     1       4.330   1.877   1.572  1.00  0.00     0.217 HD
ENDBRANCH  17  18
BRANCH  17  20
HETATM   20  C16 UNL     1       4.358   0.531  -0.354  1.00  0.00     0.039 C 
BRANCH  20  21
HETATM   21  C17 UNL     1       4.565  -0.166  -1.412  1.00  0.00    -0.076 C 
HETATM   22  C18 UNL     1       3.491  -0.898  -2.118  1.00  0.00     0.043 C 
BRANCH  21  23
HETATM   23  C19 UNL     1       5.921  -0.294  -2.052  1.00  0.00     0.094 C 
BRANCH  23  24
HETATM   24  C20 UNL     1       6.998   0.477  -1.384  1.00  0.00     0.257 C 
BRANCH  24  25
HETATM   25  O3  UNL     1       8.195   0.211  -2.111  1.00  0.00    -0.371 OA
ATOM     26  H3  UNL     1       8.885   0.705  -1.683  1.00  0.00     0.212 HD
ENDBRANCH  24  25
BRANCH  24  27
HETATM   27  O4  UNL     1       6.824   1.867  -1.543  1.00  0.00    -0.371 OA
ATOM     28  H4  UNL     1       7.514   2.361  -1.115  1.00  0.00     0.212 HD
ENDBRANCH  24  27
ENDBRANCH  23  24
ENDBRANCH  21  23
ENDBRANCH  20  21
ENDBRANCH  17  20
ENDBRANCH   3  17
TORSDOF 11
