REMARK  6 active torsions:
REMARK  status: ('A' for Active; 'I' for Inactive)
REMARK    1  A    between atoms: N1_2  and  C3_4 
REMARK    2  A    between atoms: C3_4  and  O1_5 
REMARK    3  A    between atoms: C4_7  and  N2_8 
REMARK       I    between atoms: N2_8  and  C5_10 
REMARK    4  A    between atoms: C5_10  and  C6_12 
REMARK    5  A    between atoms: C10_16  and  C11_17 
REMARK       I    between atoms: C11_17  and  N3_19 
REMARK    6  A    between atoms: N3_19  and  C12_21 
ROOT
HETATM    1  C6  UNL     1       0.997   1.072   1.146  1.00  0.00     0.091 C 
HETATM    2  C7  UNL     1       0.686  -0.257   1.747  1.00  0.00     0.015 C 
HETATM    3  C8  UNL     1      -0.240   0.037   2.892  1.00  0.00     0.002 C 
HETATM    4  C9  UNL     1      -0.529   1.507   2.881  1.00  0.00     0.015 C 
HETATM    5  C10 UNL     1      -0.108   1.988   1.526  1.00  0.00     0.091 C 
ENDROOT
BRANCH   1   6
HETATM    6  C5  UNL     1       1.378   1.052  -0.241  1.00  0.00     0.226 C 
HETATM    7  N2  UNL     1       2.554   0.302  -0.632  1.00  0.00    -0.333 N 
ATOM      8  H2  UNL     1       3.088  -0.197   0.079  1.00  0.00     0.168 HD
HETATM    9  O2  UNL     1       0.771   1.634  -1.131  1.00  0.00    -0.273 OA
BRANCH   7  10
HETATM   10  C4  UNL     1       2.974   0.249  -1.975  1.00  0.00     0.146 C 
HETATM   11  C3  UNL     1       4.147  -0.511  -2.298  1.00  0.00     0.153 C 
BRANCH  11  12
HETATM   12  N1  UNL     1       5.056  -1.273  -1.583  1.00  0.00    -0.370 N 
HETATM   13  C1  UNL     1       6.178  -1.915  -2.355  1.00  0.00     0.151 C 
HETATM   14  C2  UNL     1       5.105  -1.561  -0.187  1.00  0.00     0.151 C 
ENDBRANCH  11  12
BRANCH  11  15
HETATM   15  O1  UNL     1       4.446  -0.486  -3.606  1.00  0.00    -0.345 OA
ATOM     16  H1  UNL     1       3.822   0.037  -4.096  1.00  0.00     0.219 HD
ENDBRANCH  11  15
ENDBRANCH   7  10
ENDBRANCH   1   6
BRANCH   5  17
HETATM   17  C11 UNL     1      -1.256   2.061   0.639  1.00  0.00     0.223 C 
HETATM   18  O3  UNL     1      -1.612   3.147   0.128  1.00  0.00    -0.273 OA
HETATM   19  N3  UNL     1      -2.014   0.918   0.320  1.00  0.00    -0.355 N 
ATOM     20  H3  UNL     1      -1.748   0.019   0.721  1.00  0.00     0.162 HD
BRANCH  19  21
HETATM   21  C12 UNL     1      -3.182   0.984  -0.578  1.00  0.00     0.102 C 
HETATM   22  C13 UNL     1      -2.965   0.156  -1.801  1.00  0.00     0.027 C 
HETATM   23  C14 UNL     1      -4.251  -0.425  -2.355  1.00  0.00     0.002 C 
HETATM   24  C15 UNL     1      -4.813  -1.360  -1.327  1.00  0.00     0.002 C 
HETATM   25  C16 UNL     1      -4.788  -0.830   0.065  1.00  0.00     0.022 C 
HETATM   26  C17 UNL     1      -4.445   0.623   0.166  1.00  0.00     0.105 C 
HETATM   27 CL1  UNL     1      -5.797   1.678  -0.333  1.00  0.00    -0.123 Cl
ENDBRANCH  19  21
ENDBRANCH   5  17
TORSDOF 6
