REMARK  7 active torsions:
REMARK  status: ('A' for Active; 'I' for Inactive)
REMARK    1  A    between atoms: N1_1  and  C1_4 
REMARK    2  A    between atoms: C2_7  and  N3_8 
REMARK    3  A    between atoms: N3_8  and  O1_9 
REMARK    4  A    between atoms: N3_8  and  C3_11 
REMARK    5  A    between atoms: C3_11  and  N4_12 
REMARK    6  A    between atoms: C3_11  and  C4_16 
REMARK       I    between atoms: C4_16  and  N5_18 
REMARK    7  A    between atoms: N5_18  and  C5_20 
ROOT
HETATM    1  C3  UNL     1       0.542  -1.303   1.037  1.00  0.00     0.403 C 
ENDROOT
BRANCH   1   2
HETATM    2  N3  UNL     1       1.501  -1.329  -0.067  1.00  0.00    -0.203 N 
BRANCH   2   3
HETATM    3  C2  UNL     1       2.293  -0.175  -0.318  1.00  0.00     0.151 A 
HETATM    4  N2  UNL     1       3.604  -0.178   0.055  1.00  0.00    -0.175 N 
HETATM    5  C1  UNL     1       4.372   0.910  -0.123  1.00  0.00     0.680 A 
ATOM      6  H2  UNL     1       4.007  -1.016   0.474  1.00  0.00     0.186 HD
HETATM    7  N9  UNL     1       3.886   2.040  -0.674  1.00  0.00    -0.156 N 
HETATM    8  C9  UNL     1       2.603   2.048  -1.043  1.00  0.00     0.263 A 
ATOM      9  H9  UNL     1       4.478   2.860  -0.805  1.00  0.00     0.187 HD
HETATM   10  C8  UNL     1       1.766   0.961  -0.884  1.00  0.00     0.126 A 
HETATM   11  O4  UNL     1       2.101   3.077  -1.562  1.00  0.00    -0.268 OA
BRANCH   5  12
HETATM   12  N1  UNL     1       5.625   0.895   0.236  1.00  0.00    -0.234 N 
ATOM     13  H12 UNL     1       5.993   0.040   0.653  1.00  0.00     0.174 HD
ATOM     14  H11 UNL     1       6.208   1.721   0.101  1.00  0.00     0.174 HD
ENDBRANCH   5  12
ENDBRANCH   2   3
BRANCH   2  15
HETATM   15  O1  UNL     1       1.624  -2.322  -0.769  1.00  0.00    -0.283 OA
ATOM     16  H1  UNL     1       1.095  -3.093  -0.601  1.00  0.00     0.245 HD
ENDBRANCH   2  15
ENDBRANCH   1   2
BRANCH   1  17
HETATM   17  N4  UNL     1       0.143  -2.698   1.352  1.00  0.00    -0.047 N 
ATOM     18  H43 UNL     1      -0.214  -3.196   0.536  1.00  0.00     0.277 HD
ATOM     19  H42 UNL     1       0.944  -3.299   1.545  1.00  0.00     0.277 HD
ATOM     20  H41 UNL     1      -0.526  -2.680   2.122  1.00  0.00     0.277 HD
ENDBRANCH   1  17
BRANCH   1  21
HETATM   21  C4  UNL     1      -0.712  -0.591   0.649  1.00  0.00     0.272 C 
HETATM   22  O2  UNL     1      -1.182   0.289   1.402  1.00  0.00    -0.269 OA
HETATM   23  N5  UNL     1      -1.366  -0.914  -0.552  1.00  0.00    -0.328 N 
ATOM     24  H5  UNL     1      -0.940  -1.644  -1.123  1.00  0.00     0.165 HD
BRANCH  23  25
HETATM   25  C5  UNL     1      -2.567  -0.325  -1.056  1.00  0.00     0.281 A 
HETATM   26  N6  UNL     1      -3.685  -0.803  -0.296  1.00  0.00    -0.335 N 
HETATM   27  C6  UNL     1      -4.344   0.162   0.261  1.00  0.00     0.192 A 
ATOM     28  H6  UNL     1      -3.932  -1.788  -0.205  1.00  0.00     0.164 HD
HETATM   29  N7  UNL     1      -5.511   0.009   1.086  1.00  0.00    -0.063 NA
HETATM   30  N8  UNL     1      -3.756   1.408  -0.088  1.00  0.00    -0.298 N 
HETATM   31  C7  UNL     1      -2.645   1.150  -0.933  1.00  0.00     0.266 A 
ATOM     32  H8  UNL     1      -4.077   2.327   0.216  1.00  0.00     0.171 HD
HETATM   33  O3  UNL     1      -1.919   2.011  -1.442  1.00  0.00    -0.269 OA
ENDBRANCH  23  25
ENDBRANCH   1  21
TORSDOF 7
