REMARK  9 active torsions:
REMARK  status: ('A' for Active; 'I' for Inactive)
REMARK    1  A    between atoms: C2_2  and  N1_3 
REMARK    2  A    between atoms: N1_3  and  C4_6 
REMARK    3  A    between atoms: C4_6  and  C5_7 
REMARK    4  A    between atoms: C5_7  and  C6_8 
REMARK    5  A    between atoms: C6_8  and  C7_9 
REMARK    6  A    between atoms: C7_9  and  N2_10 
REMARK    7  A    between atoms: C11_20  and  C12_21 
REMARK    8  A    between atoms: C12_21  and  C13_22 
REMARK    9  A    between atoms: C15_26  and  N6_27 
ROOT
HETATM    1  N2  UNL     1       0.292  -1.275  -0.558  1.00  0.00    -0.268 N 
HETATM    2  C8  UNL     1       0.596  -2.610  -0.267  1.00  0.00     0.329 C 
HETATM    3  O1  UNL     1      -0.397  -3.304   0.135  1.00  0.00    -0.246 OA
HETATM    4  N3  UNL     1       1.807  -3.358  -0.332  1.00  0.00    -0.313 N 
ATOM      5  H3  UNL     1       1.650  -4.274   0.088  1.00  0.00     0.170 HD
HETATM    6  C9  UNL     1       3.148  -3.283  -0.771  1.00  0.00     0.166 C 
HETATM    7  C10 UNL     1       3.639  -2.067  -1.350  1.00  0.00     0.257 C 
HETATM    8  O2  UNL     1       4.715  -2.325  -1.987  1.00  0.00    -0.267 OA
HETATM    9  N4  UNL     1       3.307  -0.688  -1.436  1.00  0.00    -0.343 N 
ATOM     10  H4  UNL     1       3.778  -0.229  -2.216  1.00  0.00     0.163 HD
HETATM   11  C11 UNL     1       2.487   0.206  -0.711  1.00  0.00     0.183 C 
HETATM   12  C16 UNL     1       1.034  -0.091  -0.785  1.00  0.00     0.251 C 
HETATM   13  O3  UNL     1       0.302   0.881  -1.109  1.00  0.00    -0.271 OA
ENDROOT
BRANCH  11  14
HETATM   14  C12 UNL     1       2.927   0.361   0.753  1.00  0.00     0.094 C 
BRANCH  14  15
HETATM   15  C13 UNL     1       4.318   0.883   0.767  1.00  0.00     0.045 A 
HETATM   16  C14 UNL     1       5.515   0.193   0.771  1.00  0.00     0.131 A 
HETATM   17  N5  UNL     1       6.533   1.083   0.785  1.00  0.00    -0.200 N 
HETATM   18  C15 UNL     1       5.991   2.318   0.789  1.00  0.00     0.675 A 
ATOM     19  H5  UNL     1       7.529   0.861   0.791  1.00  0.00     0.183 HD
HETATM   20  N7  UNL     1       4.667   2.183   0.779  1.00  0.00    -0.194 N 
ATOM     21  H7  UNL     1       4.006   2.960   0.780  1.00  0.00     0.184 HD
BRANCH  18  22
HETATM   22  N6  UNL     1       6.653   3.421   0.801  1.00  0.00    -0.234 N 
ATOM     23  H62 UNL     1       7.668   3.524   0.809  1.00  0.00     0.174 HD
ATOM     24  H61 UNL     1       6.243   4.355   0.804  1.00  0.00     0.174 HD
ENDBRANCH  18  22
ENDBRANCH  14  15
ENDBRANCH  11  14
BRANCH   1  25
HETATM   25  C7  UNL     1      -1.132  -1.052  -0.647  1.00  0.00     0.137 C 
BRANCH  25  26
HETATM   26  C6  UNL     1      -1.734  -0.676   0.687  1.00  0.00     0.022 C 
BRANCH  26  27
HETATM   27  C5  UNL     1      -3.218  -0.446   0.596  1.00  0.00     0.031 C 
BRANCH  27  28
HETATM   28  C4  UNL     1      -3.556   0.675  -0.368  1.00  0.00     0.258 C 
BRANCH  28  29
HETATM   29  N1  UNL     1      -4.957   0.916  -0.473  1.00  0.00     0.010 N 
HETATM   30  C3  UNL     1      -5.644  -0.077  -1.277  1.00  0.00     0.295 C 
HETATM   31 CL1  UNL     1      -5.169   2.449  -1.308  1.00  0.00     0.117 Cl
BRANCH  29  32
HETATM   32  C2  UNL     1      -5.646   1.023   0.777  1.00  0.00     0.253 C 
HETATM   33  C1  UNL     1      -5.326   2.311   1.522  1.00  0.00     0.036 C 
ENDBRANCH  29  32
ENDBRANCH  28  29
ENDBRANCH  27  28
ENDBRANCH  26  27
ENDBRANCH  25  26
ENDBRANCH   1  25
TORSDOF 9
