REMARK  6 active torsions:
REMARK  status: ('A' for Active; 'I' for Inactive)
REMARK    1  A    between atoms: C2_2  and  C3_3 
REMARK    2  A    between atoms: C3_3  and  C4_4 
REMARK    3  A    between atoms: C4_4  and  C6_6 
REMARK    4  A    between atoms: C4_4  and  C19_23 
REMARK    5  A    between atoms: C6_6  and  N1_7 
REMARK       I    between atoms: C7_9  and  N3_11 
REMARK    6  A    between atoms: N3_11  and  C9_13 
ROOT
HETATM    1  N1  UNL     1       1.068  -0.260   0.324  1.00  0.00    -0.363 N 
ATOM      2  H1  UNL     1       1.100   0.746   0.159  1.00  0.00     0.162 HD
HETATM    3  C7  UNL     1       0.122  -0.915  -0.227  1.00  0.00     0.186 C 
HETATM    4  N2  UNL     1       0.028  -2.306  -0.034  1.00  0.00    -0.064 NA
HETATM    5  N3  UNL     1      -0.836  -0.259  -1.031  1.00  0.00    -0.351 N 
HETATM    6  C8  UNL     1      -0.450   0.157  -2.359  1.00  0.00     0.153 C 
ENDROOT
BRANCH   1   7
HETATM    7  C6  UNL     1       2.087  -0.823   1.154  1.00  0.00     0.140 C 
BRANCH   7   8
HETATM    8  C4  UNL     1       3.491  -0.561   0.593  1.00  0.00     0.051 C 
HETATM    9  C5  UNL     1       4.438  -1.111   1.664  1.00  0.00     0.027 C 
BRANCH   8  10
HETATM   10  C3  UNL     1       3.711   0.910   0.504  1.00  0.00     0.020 C 
BRANCH  10  11
HETATM   11  C2  UNL     1       5.089   1.351   0.162  1.00  0.00    -0.003 C 
HETATM   12  C1  UNL     1       5.158   2.874   0.113  1.00  0.00     0.005 C 
ENDBRANCH  10  11
ENDBRANCH   8  10
BRANCH   8  13
HETATM   13  C19 UNL     1       3.686  -1.287  -0.671  1.00  0.00     0.241 C 
HETATM   14  N4  UNL     1       3.653  -2.705  -0.746  1.00  0.00    -0.061 NA
HETATM   15  O1  UNL     1       3.886  -0.653  -1.725  1.00  0.00    -0.276 OA
ENDBRANCH   8  13
ENDBRANCH   7   8
ENDBRANCH   1   7
BRANCH   5  16
HETATM   16  C9  UNL     1      -2.187   0.009  -0.579  1.00  0.00     0.035 C 
HETATM   17  C10 UNL     1      -2.158   0.882   0.661  1.00  0.00     0.035 C 
HETATM   18  C11 UNL     1      -3.575   1.216   1.060  1.00  0.00    -0.012 C 
HETATM   19  C12 UNL     1      -4.340   1.914  -0.043  1.00  0.00     0.009 C 
HETATM   20  C16 UNL     1      -4.355  -0.040   1.404  1.00  0.00     0.009 C 
HETATM   21  C13 UNL     1      -4.367   1.016  -1.256  1.00  0.00    -0.012 C 
HETATM   22  C14 UNL     1      -5.000  -0.299  -0.954  1.00  0.00     0.009 C 
HETATM   23  C18 UNL     1      -2.913   0.767  -1.644  1.00  0.00     0.035 C 
HETATM   24  C15 UNL     1      -4.293  -0.960   0.224  1.00  0.00    -0.012 C 
HETATM   25  C17 UNL     1      -2.889  -1.279  -0.184  1.00  0.00     0.035 C 
ENDBRANCH   5  16
TORSDOF 6
