REMARK  17 active torsions:
REMARK  status: ('A' for Active; 'I' for Inactive)
REMARK    1  A    between atoms: C1_4  and  C2_5 
REMARK    2  A    between atoms: C1_4  and  C4_9 
REMARK    3  A    between atoms: C2_5  and  C3_6 
REMARK    4  A    between atoms: C4_9  and  N2_11 
REMARK    5  A    between atoms: N2_11  and  C5_13 
REMARK    6  A    between atoms: C6_16  and  O3_17 
REMARK    7  A    between atoms: O3_17  and  C7_18 
REMARK    8  A    between atoms: C7_18  and  C8_19 
REMARK    9  A    between atoms: C8_19  and  N4_20 
REMARK   10  A    between atoms: N4_20  and  C9_23 
REMARK   11  A    between atoms: C9_23  and  C10_24 
REMARK   12  A    between atoms: C11_25  and  N5_26 
REMARK   13  A    between atoms: C13_31  and  N6_32 
REMARK   14  A    between atoms: C14_36  and  O4_37 
REMARK   15  A    between atoms: C15_39  and  O5_40 
REMARK   16  A    between atoms: C16_43  and  C17_44 
REMARK   17  A    between atoms: C18_46  and  O7_47 
ROOT
HETATM    1  O3  UNL     1      -1.034   1.140  -0.791  1.00  0.00    -0.343 OA
ENDROOT
BRANCH   1   2
HETATM    2  C6  UNL     1      -1.607   0.128  -0.011  1.00  0.00     0.368 C 
HETATM    3  N3  UNL     1      -2.677  -0.444  -0.701  1.00  0.00    -0.352 N 
HETATM    4  C5  UNL     1      -4.012  -0.282  -0.280  1.00  0.00     0.210 C 
ATOM      5  H3  UNL     1      -2.487  -0.997  -1.537  1.00  0.00     0.160 HD
HETATM    6  C18 UNL     1      -4.098   0.324   1.086  1.00  0.00     0.190 C 
HETATM    7  C16 UNL     1      -2.849  -0.158   1.842  1.00  0.00     0.172 C 
HETATM    8  O6  UNL     1      -1.799   0.538   1.287  1.00  0.00    -0.335 OA
BRANCH   4   9
HETATM    9  N2  UNL     1      -4.719   0.551  -1.233  1.00  0.00    -0.366 N 
ATOM     10  H2  UNL     1      -4.252   0.998  -2.022  1.00  0.00     0.158 HD
BRANCH   9  11
HETATM   11  C4  UNL     1      -6.107   0.698  -0.986  1.00  0.00     0.313 C 
HETATM   12  F1  UNL     1      -6.635   1.608  -1.878  1.00  0.00    -0.221 F 
BRANCH  11  13
HETATM   13  C1  UNL     1      -6.918  -0.543  -1.069  1.00  0.00     0.043 C 
HETATM   14  N1  UNL     1      -6.537  -1.593  -1.667  1.00  0.00    -0.401 N 
ATOM     15  H12 UNL     1      -7.094  -2.446  -1.724  1.00  0.00     0.155 HD
ATOM     16  H11 UNL     1      -5.621  -1.601  -2.115  1.00  0.00     0.155 HD
BRANCH  13  17
HETATM   17  C2  UNL     1      -8.246  -0.531  -0.419  1.00  0.00     0.169 C 
BRANCH  17  18
HETATM   18  C3  UNL     1      -9.167   0.496  -0.942  1.00  0.00     0.178 C 
HETATM   19  O1  UNL     1      -9.139   1.676  -0.469  1.00  0.00    -0.648 OA
HETATM   20  O2  UNL     1     -10.097   0.281  -1.943  1.00  0.00    -0.648 OA
ENDBRANCH  17  18
ENDBRANCH  13  17
ENDBRANCH  11  13
ENDBRANCH   9  11
ENDBRANCH   4   9
BRANCH   6  21
HETATM   21  O7  UNL     1      -4.060   1.731   1.010  1.00  0.00    -0.389 OA
ATOM     22  H7  UNL     1      -4.115   2.116   1.877  1.00  0.00     0.210 HD
ENDBRANCH   6  21
BRANCH   7  23
HETATM   23  C17 UNL     1      -3.005   0.111   3.325  1.00  0.00     0.149 C 
HETATM   24 CL1  UNL     1      -1.537  -0.358   4.193  1.00  0.00    -0.128 Cl
ENDBRANCH   7  23
ENDBRANCH   1   2
BRANCH   1  25
HETATM   25  C7  UNL     1       0.297   0.884  -1.120  1.00  0.00     0.200 C 
BRANCH  25  26
HETATM   26  C8  UNL     1       1.176   0.811   0.085  1.00  0.00     0.258 C 
BRANCH  26  27
HETATM   27  N4  UNL     1       2.571   0.533  -0.284  1.00  0.00    -0.073 N 
ATOM     28  H42 UNL     1       2.662  -0.302  -0.863  1.00  0.00     0.277 HD
ATOM     29  H41 UNL     1       2.940   1.210  -0.952  1.00  0.00     0.277 HD
BRANCH  27  30
HETATM   30  C9  UNL     1       3.368   0.458   0.927  1.00  0.00     0.241 C 
BRANCH  30  31
HETATM   31  C10 UNL     1       4.801   0.138   0.714  1.00  0.00     0.073 C 
HETATM   32  C11 UNL     1       5.570   1.098  -0.124  1.00  0.00     0.193 C 
HETATM   33  C12 UNL     1       7.042   0.869   0.180  1.00  0.00     0.068 C 
HETATM   34  C13 UNL     1       7.343  -0.525   0.629  1.00  0.00     0.216 C 
HETATM   35  C14 UNL     1       6.446  -1.583   0.060  1.00  0.00     0.177 C 
HETATM   36  C15 UNL     1       4.994  -1.253   0.149  1.00  0.00     0.156 C 
BRANCH  32  37
HETATM   37  N5  UNL     1       5.369   0.960  -1.542  1.00  0.00    -0.074 N 
ATOM     38  H53 UNL     1       5.563   0.002  -1.834  1.00  0.00     0.274 HD
ATOM     39  H52 UNL     1       4.375   1.015  -1.764  1.00  0.00     0.274 HD
ATOM     40  H51 UNL     1       5.896   1.618  -2.116  1.00  0.00     0.274 HD
ENDBRANCH  32  37
BRANCH  34  41
HETATM   41  N6  UNL     1       8.701  -0.841   0.176  1.00  0.00    -0.072 N 
ATOM     42  H63 UNL     1       8.829  -0.708  -0.827  1.00  0.00     0.274 HD
ATOM     43  H62 UNL     1       9.395  -0.162   0.488  1.00  0.00     0.274 HD
ATOM     44  H61 UNL     1       8.906  -1.792   0.482  1.00  0.00     0.274 HD
ENDBRANCH  34  41
BRANCH  35  45
HETATM   45  O4  UNL     1       6.840  -1.989  -1.219  1.00  0.00    -0.391 OA
ATOM     46  H4  UNL     1       6.272  -2.659  -1.580  1.00  0.00     0.210 HD
ENDBRANCH  35  45
BRANCH  36  47
HETATM   47  O5  UNL     1       4.418  -1.404  -1.096  1.00  0.00    -0.392 OA
ATOM     48  H5  UNL     1       4.539  -2.277  -1.451  1.00  0.00     0.210 HD
ENDBRANCH  36  47
ENDBRANCH  30  31
ENDBRANCH  27  30
ENDBRANCH  26  27
ENDBRANCH  25  26
ENDBRANCH   1  25
TORSDOF 17
