REMARK  2 active torsions:
REMARK  status: ('A' for Active; 'I' for Inactive)
REMARK       I    between atoms: C1_4  and  N3_6 
REMARK    1  A    between atoms: N3_6  and  C2_8 
REMARK    2  A    between atoms: N5_15  and  N6_16 
ROOT
HETATM    1  C2  UNL     1      -0.309  -0.813  -0.153  1.00  0.00     0.704 A 
HETATM    2  N4  UNL     1       0.418  -1.939  -0.246  1.00  0.00    -0.150 N 
ATOM      3  H4  UNL     1      -0.041  -2.819  -0.480  1.00  0.00     0.188 HD
HETATM    4  C3  UNL     1       1.765  -1.915  -0.030  1.00  0.00     0.331 A 
HETATM    5  O1  UNL     1       2.458  -2.969  -0.116  1.00  0.00    -0.261 OA
HETATM    6  C4  UNL     1       2.410  -0.738   0.290  1.00  0.00     0.350 A 
HETATM    7  O2  UNL     1       3.652  -0.722   0.489  1.00  0.00    -0.258 OA
HETATM    8  N5  UNL     1       1.648   0.371   0.375  1.00  0.00    -0.144 N 
HETATM    9  N7  UNL     1       0.343   0.320   0.160  1.00  0.00    -0.107 N 
ATOM     10  H7  UNL     1      -0.195   1.183   0.236  1.00  0.00     0.208 HD
ENDROOT
BRANCH   1  11
HETATM   11  N3  UNL     1      -1.584  -0.818  -0.354  1.00  0.00    -0.162 N 
HETATM   12  C1  UNL     1      -2.382   0.348  -0.264  1.00  0.00     0.200 C 
HETATM   13  N1  UNL     1      -2.379   1.256  -1.165  1.00  0.00    -0.373 N 
HETATM   14  N2  UNL     1      -3.205   0.477   0.887  1.00  0.00    -0.063 NA
ATOM     15  H12 UNL     1      -2.954   2.096  -1.100  1.00  0.00     0.158 HD
ATOM     16  H11 UNL     1      -1.788   1.163  -1.991  1.00  0.00     0.158 HD
ATOM     17  H3  UNL     1      -2.037  -1.701  -0.588  1.00  0.00     0.187 HD
ENDBRANCH   1  11
BRANCH   8  18
HETATM   18  N6  UNL     1       2.319   1.560   0.701  1.00  0.00    -0.320 N 
ATOM     19  H62 UNL     1       3.325   1.599   0.867  1.00  0.00     0.179 HD
ATOM     20  H61 UNL     1       1.743   2.399   0.765  1.00  0.00     0.179 HD
ENDBRANCH   8  18
TORSDOF 2
