REMARK  10 active torsions:
REMARK  status: ('A' for Active; 'I' for Inactive)
REMARK    1  A    between atoms: C2_2  and  O1_3 
REMARK    2  A    between atoms: C2_2  and  C10_25 
REMARK    3  A    between atoms: O1_3  and  C3_4 
REMARK    4  A    between atoms: C4_6  and  C5_7 
REMARK    5  A    between atoms: C5_7  and  O3_8 
REMARK    6  A    between atoms: O3_8  and  C6_9 
REMARK       I    between atoms: C6_9  and  N1_11 
REMARK    7  A    between atoms: N1_11  and  N2_13 
REMARK    8  A    between atoms: C7_16  and  O5_17 
REMARK    9  A    between atoms: C8_19  and  O6_20 
REMARK   10  A    between atoms: C9_22  and  O7_23 
ROOT
HETATM    1  C3  UNL     1       0.440  -0.061  -0.501  1.00  0.00     0.292 C 
HETATM    2  O2  UNL     1       1.351  -1.127  -0.734  1.00  0.00    -0.348 OA
HETATM    3  C4  UNL     1       2.611  -0.639  -0.408  1.00  0.00     0.180 C 
HETATM    4  C7  UNL     1       2.981   0.294  -1.566  1.00  0.00     0.180 C 
HETATM    5  C8  UNL     1       2.121   1.515  -1.360  1.00  0.00     0.183 C 
HETATM    6  C9  UNL     1       0.659   1.058  -1.461  1.00  0.00     0.204 C 
ENDROOT
BRANCH   1   7
HETATM    7  O1  UNL     1      -0.851  -0.581  -0.458  1.00  0.00    -0.353 OA
BRANCH   7   8
HETATM    8  C2  UNL     1      -1.440  -0.595   0.775  1.00  0.00     0.127 C 
HETATM    9  C1  UNL     1      -1.449  -2.085   1.291  1.00  0.00     0.040 C 
BRANCH   8  10
HETATM   10  C10 UNL     1      -2.875  -0.231   0.740  1.00  0.00     0.049 C 
HETATM   11  C11 UNL     1      -3.237   1.139   0.288  1.00  0.00     0.018 C 
HETATM   12  C12 UNL     1      -4.611   1.422   0.931  1.00  0.00     0.007 C 
HETATM   13  C16 UNL     1      -3.530   0.957  -1.185  1.00  0.00     0.173 C 
HETATM   14  C13 UNL     1      -5.424   0.150   0.967  1.00  0.00     0.003 C 
HETATM   15  C14 UNL     1      -5.085  -0.848  -0.079  1.00  0.00     0.032 C 
HETATM   16  C15 UNL     1      -3.613  -1.079  -0.301  1.00  0.00     0.128 C 
HETATM   17  O8  UNL     1      -3.274  -0.381  -1.470  1.00  0.00    -0.385 OA
ENDBRANCH   8  10
ENDBRANCH   7   8
ENDBRANCH   1   7
BRANCH   6  18
HETATM   18  O7  UNL     1      -0.128   2.155  -1.107  1.00  0.00    -0.388 OA
ATOM     19  H7  UNL     1       0.012   2.868  -1.719  1.00  0.00     0.210 HD
ENDBRANCH   6  18
BRANCH   3  20
HETATM   20  C5  UNL     1       3.623  -1.739  -0.246  1.00  0.00     0.215 C 
BRANCH  20  21
HETATM   21  O3  UNL     1       4.907  -1.328   0.077  1.00  0.00    -0.300 OA
BRANCH  21  22
HETATM   22  C6  UNL     1       5.194  -0.633   1.235  1.00  0.00     0.379 C 
HETATM   23  O4  UNL     1       4.314  -0.327   2.075  1.00  0.00    -0.237 OA
HETATM   24  N1  UNL     1       6.546  -0.233   1.511  1.00  0.00    -0.252 N 
ATOM     25  H1  UNL     1       7.280  -0.470   0.843  1.00  0.00     0.191 HD
BRANCH  24  26
HETATM   26  N2  UNL     1       6.880   0.467   2.662  1.00  0.00    -0.341 N 
ATOM     27  H22 UNL     1       6.134   0.696   3.319  1.00  0.00     0.177 HD
ATOM     28  H21 UNL     1       7.840   0.751   2.858  1.00  0.00     0.177 HD
ENDBRANCH  24  26
ENDBRANCH  21  22
ENDBRANCH  20  21
ENDBRANCH   3  20
BRANCH   5  29
HETATM   29  O6  UNL     1       2.387   2.510  -2.289  1.00  0.00    -0.390 OA
ATOM     30  H6  UNL     1       1.845   3.279  -2.159  1.00  0.00     0.210 HD
ENDBRANCH   5  29
BRANCH   4  31
HETATM   31  O5  UNL     1       2.534  -0.342  -2.728  1.00  0.00    -0.390 OA
ATOM     32  H5  UNL     1       2.763   0.236  -3.446  1.00  0.00     0.210 HD
ENDBRANCH   4  31
TORSDOF 10
