REMARK  12 active torsions:
REMARK  status: ('A' for Active; 'I' for Inactive)
REMARK    1  A    between atoms: C2_2  and  C3_3 
REMARK    2  A    between atoms: C3_3  and  N1_4 
REMARK    3  A    between atoms: C7_8  and  C8_9 
REMARK    4  A    between atoms: C8_9  and  C9_10 
REMARK    5  A    between atoms: C13_15  and  C14_16 
REMARK    6  A    between atoms: C19_24  and  C20_25 
REMARK    7  A    between atoms: C20_25  and  C21_26 
REMARK    8  A    between atoms: C21_26  and  C22_27 
REMARK    9  A    between atoms: C22_27  and  N3_28 
REMARK   10  A    between atoms: C25_37  and  C26_38 
REMARK   11  A    between atoms: C31_49  and  C32_50 
REMARK   12  A    between atoms: C32_50  and  C34_52 
ROOT
HETATM    1  N1  UNL     1      -4.114  -0.269  -0.415  1.00  0.00     0.105 N 
HETATM    2  C4  UNL     1      -3.072   0.544   0.104  1.00  0.00     0.314 C 
HETATM    3  C5  UNL     1      -1.717  -0.156   0.254  1.00  0.00     0.142 C 
HETATM    4  C6  UNL     1      -0.818   0.896   0.876  1.00  0.00     0.068 C 
HETATM    5  C7  UNL     1       0.370   1.279   0.079  1.00  0.00     0.091 C 
HETATM    6  N2  UNL     1       1.611   1.216   0.869  1.00  0.00    -0.354 N 
ATOM      7  H2  UNL     1       1.804   1.995   1.498  1.00  0.00     0.162 HD
HETATM    8  C18 UNL     1       2.545   0.182   0.830  1.00  0.00     0.240 C 
HETATM    9  O1  UNL     1       3.288   0.043   1.865  1.00  0.00    -0.271 OA
HETATM   10  C19 UNL     1       2.805  -0.790  -0.251  1.00  0.00     0.176 C 
HETATM   11  N6  UNL     1       2.535  -2.156   0.077  1.00  0.00    -0.346 N 
ATOM     12  H6  UNL     1       3.331  -2.791   0.024  1.00  0.00     0.163 HD
HETATM   13  C24 UNL     1       1.317  -2.735   0.462  1.00  0.00     0.241 C 
HETATM   14  O2  UNL     1       0.824  -3.699  -0.233  1.00  0.00    -0.271 OA
HETATM   15  C25 UNL     1       0.473  -2.369   1.626  1.00  0.00     0.180 C 
HETATM   16  N7  UNL     1      -0.939  -2.368   1.355  1.00  0.00    -0.345 N 
ATOM     17  H7  UNL     1      -1.359  -3.292   1.255  1.00  0.00     0.163 HD
HETATM   18  C29 UNL     1      -1.822  -1.303   1.208  1.00  0.00     0.248 C 
HETATM   19  O3  UNL     1      -2.857  -1.281   1.971  1.00  0.00    -0.271 OA
HETATM   20  N8  UNL     1      -1.359  -0.569  -1.062  1.00  0.00    -0.340 N 
ATOM     21  H8  UNL     1      -0.441  -0.962  -1.268  1.00  0.00     0.163 HD
HETATM   22  C30 UNL     1      -2.363  -0.403  -2.091  1.00  0.00     0.252 C 
HETATM   23  O4  UNL     1      -2.053  -0.072  -3.262  1.00  0.00    -0.271 OA
HETATM   24  C31 UNL     1      -3.802  -0.622  -1.792  1.00  0.00     0.317 C 
ENDROOT
BRANCH   1  25
HETATM   25  C3  UNL     1      -5.288   0.607  -0.502  1.00  0.00     0.273 C 
BRANCH  25  26
HETATM   26  C2  UNL     1      -5.831   1.028   0.816  1.00  0.00     0.026 C 
HETATM   27  C1  UNL     1      -6.285  -0.085   1.698  1.00  0.00     0.007 C 
ENDBRANCH  25  26
ENDBRANCH   1  25
BRANCH   5  28
HETATM   28  C8  UNL     1       0.263   2.589  -0.616  1.00  0.00     0.063 C 
BRANCH  28  29
HETATM   29  C9  UNL     1       0.069   3.786   0.162  1.00  0.00    -0.056 A 
HETATM   30  C10 UNL     1      -1.170   4.296   0.437  1.00  0.00     0.009 A 
HETATM   31  C11 UNL     1      -1.376   5.440   1.176  1.00  0.00     0.025 A 
HETATM   32  C12 UNL     1      -0.284   6.120   1.674  1.00  0.00     0.040 A 
HETATM   33 CL1  UNL     1      -0.574   7.578   2.618  1.00  0.00    -0.084 Cl
HETATM   34  C13 UNL     1       0.974   5.642   1.421  1.00  0.00    -0.033 A 
HETATM   35  C17 UNL     1       1.144   4.484   0.671  1.00  0.00     0.016 A 
BRANCH  34  36
HETATM   36  C14 UNL     1       2.137   6.402   1.972  1.00  0.00     0.012 C 
HETATM   37  C15 UNL     1       3.437   5.700   1.596  1.00  0.00     0.015 C 
HETATM   38  C16 UNL     1       2.165   7.828   1.521  1.00  0.00     0.015 C 
ENDBRANCH  34  36
ENDBRANCH  28  29
ENDBRANCH   5  28
BRANCH  24  39
HETATM   39  C32 UNL     1      -4.086  -2.079  -2.073  1.00  0.00     0.024 C 
HETATM   40  C33 UNL     1      -3.721  -2.320  -3.534  1.00  0.00     0.012 C 
BRANCH  39  41
HETATM   41  C34 UNL     1      -5.526  -2.451  -1.901  1.00  0.00     0.002 C 
HETATM   42  C35 UNL     1      -5.663  -3.925  -2.210  1.00  0.00     0.005 C 
ENDBRANCH  39  41
ENDBRANCH  24  39
BRANCH  15  43
HETATM   43  C26 UNL     1       0.820  -3.435   2.688  1.00  0.00     0.009 C 
HETATM   44  C27 UNL     1       0.039  -3.222   3.961  1.00  0.00     0.012 C 
HETATM   45  C28 UNL     1       0.667  -4.827   2.203  1.00  0.00     0.012 C 
ENDBRANCH  15  43
BRANCH  10  46
HETATM   46  C20 UNL     1       4.265  -0.592  -0.636  1.00  0.00     0.036 C 
BRANCH  46  47
HETATM   47  C21 UNL     1       4.717  -1.497  -1.732  1.00  0.00     0.022 C 
BRANCH  47  48
HETATM   48  C22 UNL     1       6.187  -1.172  -1.998  1.00  0.00     0.122 C 
BRANCH  48  49
HETATM   49  N3  UNL     1       6.688  -2.027  -3.061  1.00  0.00    -0.367 N 
HETATM   50  C23 UNL     1       7.285  -3.139  -2.794  1.00  0.00     0.196 C 
HETATM   51  N4  UNL     1       7.479  -3.575  -1.467  1.00  0.00    -0.067 NA
HETATM   52  N5  UNL     1       7.758  -3.943  -3.862  1.00  0.00    -0.067 NA
ATOM     53  H3  UNL     1       6.566  -1.744  -4.033  1.00  0.00     0.161 HD
ENDBRANCH  48  49
ENDBRANCH  47  48
ENDBRANCH  46  47
ENDBRANCH  10  46
TORSDOF 12
