REMARK  2 active torsions:
REMARK  status: ('A' for Active; 'I' for Inactive)
REMARK       I    between atoms: C2_2  and  N1_4 
REMARK    1  A    between atoms: N1_4  and  N2_6 
REMARK    2  A    between atoms: N3_8  and  C3_10 
ROOT
HETATM    1  C3  UNL     1       0.042   1.340  -0.417  1.00  0.00     0.205 A 
HETATM    2  N4  UNL     1      -0.334   0.107  -0.773  1.00  0.00    -0.276 N 
ATOM      3  H4  UNL     1      -1.130  -0.324  -0.303  1.00  0.00     0.189 HD
HETATM    4  N5  UNL     1       0.299  -0.569  -1.718  1.00  0.00    -0.250 N 
ATOM      5  H5  UNL     1      -0.022  -1.507  -1.956  1.00  0.00     0.192 HD
HETATM    6  C4  UNL     1       1.352  -0.054  -2.372  1.00  0.00     0.341 A 
HETATM    7  O2  UNL     1       1.964  -0.690  -3.277  1.00  0.00    -0.245 OA
HETATM    8  N6  UNL     1       1.753   1.169  -2.046  1.00  0.00    -0.271 N 
ATOM      9  H6  UNL     1       2.551   1.581  -2.530  1.00  0.00     0.174 HD
HETATM   10  C5  UNL     1       1.117   1.883  -1.077  1.00  0.00     0.296 A 
HETATM   11  O3  UNL     1       1.558   3.052  -0.819  1.00  0.00    -0.264 OA
ENDROOT
BRANCH   1  12
HETATM   12  N3  UNL     1      -0.583   2.108   0.582  1.00  0.00    -0.265 N 
HETATM   13  N2  UNL     1      -1.257   1.594   1.501  1.00  0.00    -0.238 N 
ATOM     14  H2  UNL     1      -1.665   2.247   2.170  1.00  0.00     0.208 HD
ATOM     15  H3  UNL     1      -0.483   3.123   0.556  1.00  0.00     0.190 HD
BRANCH  13  16
HETATM   16  N1  UNL     1      -1.520   0.265   1.728  1.00  0.00    -0.256 N 
HETATM   17  C2  UNL     1      -0.608  -0.619   2.338  1.00  0.00     0.233 C 
HETATM   18  C1  UNL     1      -1.023  -2.053   2.526  1.00  0.00     0.119 C 
HETATM   19  O1  UNL     1       0.524  -0.319   2.741  1.00  0.00    -0.272 OA
ATOM     20  H1  UNL     1      -2.426  -0.103   1.439  1.00  0.00     0.191 HD
ENDBRANCH  13  16
ENDBRANCH   1  12
TORSDOF 2
