REMARK  6 active torsions:
REMARK  status: ('A' for Active; 'I' for Inactive)
REMARK    1  A    between atoms: C2_2  and  O1_3 
REMARK    2  A    between atoms: O1_3  and  C3_4 
REMARK    3  A    between atoms: C3_4  and  C4_6 
REMARK    4  A    between atoms: C5_7  and  N1_8 
REMARK       I    between atoms: N1_8  and  C6_10 
REMARK    5  A    between atoms: C6_10  and  C7_12 
REMARK    6  A    between atoms: C9_24  and  O5_25 
ROOT
HETATM    1  C4  UNL     1      -1.546  -2.073  -0.196  1.00  0.00     0.125 A 
HETATM    2  C5  UNL     1      -0.235  -1.770  -0.486  1.00  0.00     0.114 A 
HETATM    3  S1  UNL     1       0.354  -3.276  -1.100  1.00  0.00     0.007 SA
HETATM    4  N5  UNL     1      -1.035  -4.181  -0.965  1.00  0.00    -0.304 N 
ATOM      5  H5  UNL     1      -1.167  -5.161  -1.216  1.00  0.00     0.176 HD
HETATM    6  C9  UNL     1      -1.933  -3.346  -0.459  1.00  0.00     0.165 A 
ENDROOT
BRANCH   2   7
HETATM    7  N1  UNL     1       0.518  -0.572  -0.350  1.00  0.00    -0.312 N 
HETATM    8  C6  UNL     1       1.886  -0.572  -0.746  1.00  0.00     0.292 C 
HETATM    9  O3  UNL     1       2.402  -1.632  -1.208  1.00  0.00    -0.264 OA
ATOM     10  H1  UNL     1       0.086   0.273   0.025  1.00  0.00     0.170 HD
BRANCH   8  11
HETATM   11  C7  UNL     1       2.718   0.614  -0.637  1.00  0.00     0.193 A 
HETATM   12  N2  UNL     1       2.372   1.830  -0.179  1.00  0.00    -0.277 N 
HETATM   13  N3  UNL     1       3.413   2.658  -0.235  1.00  0.00    -0.250 N 
ATOM     14  H2  UNL     1       1.445   2.082   0.163  1.00  0.00     0.189 HD
HETATM   15  C8  UNL     1       4.450   1.966  -0.740  1.00  0.00     0.340 A 
ATOM     16  H3  UNL     1       3.422   3.637   0.052  1.00  0.00     0.192 HD
HETATM   17  O4  UNL     1       5.628   2.399  -0.953  1.00  0.00    -0.245 OA
HETATM   18  N4  UNL     1       4.012   0.720  -0.981  1.00  0.00    -0.288 N 
ATOM     19  H4  UNL     1       4.578  -0.035  -1.368  1.00  0.00     0.172 HD
ENDBRANCH   8  11
ENDBRANCH   2   7
BRANCH   1  20
HETATM   20  C3  UNL     1      -2.487  -1.056   0.376  1.00  0.00     0.300 C 
HETATM   21  O2  UNL     1      -3.657  -1.411   0.610  1.00  0.00    -0.259 OA
BRANCH  20  22
HETATM   22  O1  UNL     1      -2.129   0.222   0.650  1.00  0.00    -0.318 OA
BRANCH  22  23
HETATM   23  C2  UNL     1      -2.972   1.214   1.186  1.00  0.00     0.174 C 
HETATM   24  C1  UNL     1      -2.206   2.519   1.349  1.00  0.00     0.034 C 
ENDBRANCH  22  23
ENDBRANCH  20  22
ENDBRANCH   1  20
BRANCH   6  25
HETATM   25  O5  UNL     1      -3.141  -3.779  -0.237  1.00  0.00    -0.345 OA
ATOM     26  H5  UNL     1      -3.412  -4.671  -0.421  1.00  0.00     0.219 HD
ENDBRANCH   6  25
TORSDOF 6
