REMARK  5 active torsions:
REMARK  status: ('A' for Active; 'I' for Inactive)
REMARK    1  A    between atoms: C3_3  and  C4_4 
REMARK       I    between atoms: C4_4  and  N1_6 
REMARK    2  A    between atoms: N1_6  and  C5_7 
REMARK    3  A    between atoms: N1_6  and  C9_12 
REMARK    4  A    between atoms: C5_7  and  C6_8 
REMARK    5  A    between atoms: C11_19  and  O3_20 
ROOT
HETATM    1  C6  UNL     1      -2.526   1.397  -0.701  1.00  0.00     0.107 C 
HETATM    2  C7  UNL     1      -1.609   2.265  -1.520  1.00  0.00     0.027 C 
HETATM    3  C8  UNL     1      -3.772   2.136  -0.424  1.00  0.00     0.065 C 
HETATM    4  N2  UNL     1      -4.758   2.718  -0.223  1.00  0.00    -0.197 NA
ENDROOT
BRANCH   1   5
HETATM    5  C5  UNL     1      -1.968   0.935   0.595  1.00  0.00     0.153 C 
BRANCH   5   6
HETATM    6  N1  UNL     1      -0.767   0.144   0.519  1.00  0.00    -0.293 N 
HETATM    7  C4  UNL     1       0.492   0.746   0.579  1.00  0.00     0.286 C 
HETATM    8  O1  UNL     1       0.583   1.982   0.750  1.00  0.00    -0.265 OA
BRANCH   7   9
HETATM    9  C3  UNL     1       1.702  -0.059   0.443  1.00  0.00     0.178 A 
HETATM   10  C2  UNL     1       2.985   0.480   0.492  1.00  0.00     0.049 A 
HETATM   11  C1  UNL     1       3.332   1.906   0.683  1.00  0.00     0.057 C 
HETATM   12  C12 UNL     1       3.844  -0.579   0.328  1.00  0.00     0.274 A 
HETATM   13  N5  UNL     1       3.073  -1.655   0.194  1.00  0.00    -0.225 N 
HETATM   14  O5  UNL     1       5.117  -0.497   0.314  1.00  0.00    -0.266 OA
HETATM   15  O4  UNL     1       1.818  -1.348   0.262  1.00  0.00    -0.229 OA
ATOM     16  H5  UNL     1       3.426  -2.602   0.055  1.00  0.00     0.198 HD
ENDBRANCH   7   9
BRANCH   6  17
HETATM   17  C9  UNL     1      -0.892  -1.256   0.369  1.00  0.00     0.166 A 
HETATM   18  N3  UNL     1      -0.963  -2.179   1.366  1.00  0.00    -0.291 N 
HETATM   19  C10 UNL     1      -1.091  -3.420   0.866  1.00  0.00     0.328 A 
ATOM     20  H3  UNL     1      -0.924  -1.958   2.361  1.00  0.00     0.172 HD
HETATM   21  O2  UNL     1      -1.180  -4.477   1.566  1.00  0.00    -0.247 OA
HETATM   22  N4  UNL     1      -1.103  -3.291  -0.464  1.00  0.00    -0.286 N 
HETATM   23  C11 UNL     1      -0.985  -1.998  -0.814  1.00  0.00     0.189 A 
ATOM     24  H4  UNL     1      -1.190  -4.065  -1.122  1.00  0.00     0.172 HD
BRANCH  23  25
HETATM   25  O3  UNL     1      -0.962  -1.518  -2.093  1.00  0.00    -0.343 OA
ATOM     26  H3  UNL     1      -1.025  -2.022  -2.896  1.00  0.00     0.219 HD
ENDBRANCH  23  25
ENDBRANCH   6  17
ENDBRANCH   5   6
ENDBRANCH   1   5
TORSDOF 5
