REMARK  8 active torsions:
REMARK  status: ('A' for Active; 'I' for Inactive)
REMARK    1  A    between atoms: C2_2  and  C3_3 
REMARK    2  A    between atoms: C3_3  and  C4_4 
REMARK    3  A    between atoms: C4_4  and  C5_5 
REMARK    4  A    between atoms: C5_5  and  N1_6 
REMARK    5  A    between atoms: N1_6  and  C6_8 
REMARK    6  A    between atoms: C7_11  and  N3_12 
REMARK       I    between atoms: N3_12  and  C8_14 
REMARK    7  A    between atoms: N6_19  and  O1_20 
REMARK    8  A    between atoms: C9_22  and  N7_23 
REMARK       I    between atoms: N7_23  and  C10_25 
REMARK       I    between atoms: C10_25  and  N8_26 
REMARK       I    between atoms: C10_25  and  N9_30 
ROOT
HETATM    1  C6  UNL     1       0.376   0.031  -0.592  1.00  0.00     0.707 A 
HETATM    2  N2  UNL     1      -0.126  -1.209  -0.460  1.00  0.00    -0.019 N 
ATOM      3  H2  UNL     1       0.481  -2.014  -0.616  1.00  0.00     0.203 HD
HETATM    4  C7  UNL     1      -1.431  -1.412  -0.122  1.00  0.00     0.741 A 
HETATM    5  N6  UNL     1      -2.204  -0.332   0.075  1.00  0.00     0.128 N 
HETATM    6  C9  UNL     1      -1.744   0.918  -0.046  1.00  0.00     0.737 A 
HETATM    7  N10 UNL     1      -0.431   1.081  -0.386  1.00  0.00    -0.019 N 
ATOM      8  H10 UNL     1      -0.056   2.024  -0.485  1.00  0.00     0.203 HD
ENDROOT
BRANCH   6   9
HETATM    9  N7  UNL     1      -2.430   1.935   0.129  1.00  0.00    -0.170 N 
HETATM   10  C10 UNL     1      -3.772   2.182   0.476  1.00  0.00     0.494 C 
HETATM   11  N8  UNL     1      -4.055   3.605   0.182  1.00  0.00    -0.032 N 
HETATM   12  N9  UNL     1      -4.075   2.043   1.891  1.00  0.00    -0.032 N 
ATOM     13  H83 UNL     1      -3.403   4.242   0.639  1.00  0.00     0.278 HD
ATOM     14  H82 UNL     1      -3.840   3.862  -0.781  1.00  0.00     0.278 HD
ATOM     15  H81 UNL     1      -5.027   3.784   0.433  1.00  0.00     0.278 HD
ATOM     16  H93 UNL     1      -3.789   1.122   2.224  1.00  0.00     0.278 HD
ATOM     17  H92 UNL     1      -3.454   2.633   2.444  1.00  0.00     0.278 HD
ATOM     18  H91 UNL     1      -5.047   2.222   2.142  1.00  0.00     0.278 HD
ATOM     19  H7  UNL     1      -1.898   2.794  -0.011  1.00  0.00     0.181 HD
ENDBRANCH   6   9
BRANCH   5  20
HETATM   20  O1  UNL     1      -3.521  -0.500   0.416  1.00  0.00    -0.256 OA
ATOM     21  H1  UNL     1      -4.068   0.264   0.555  1.00  0.00     0.246 HD
ENDBRANCH   5  20
BRANCH   4  22
HETATM   22  N3  UNL     1      -1.884  -2.597  -0.003  1.00  0.00    -0.161 N 
HETATM   23  C8  UNL     1      -3.161  -3.027   0.328  1.00  0.00     0.200 C 
HETATM   24  N4  UNL     1      -3.447  -3.260   1.579  1.00  0.00    -0.373 N 
HETATM   25  N5  UNL     1      -4.131  -3.211  -0.708  1.00  0.00    -0.063 NA
ATOM     26  H42 UNL     1      -2.756  -3.129   2.317  1.00  0.00     0.158 HD
ATOM     27  H41 UNL     1      -4.386  -3.576   1.822  1.00  0.00     0.158 HD
ATOM     28  H3  UNL     1      -1.207  -3.340  -0.177  1.00  0.00     0.187 HD
ENDBRANCH   4  22
BRANCH   1  29
HETATM   29  N1  UNL     1       1.632   0.193  -0.918  1.00  0.00    -0.225 N 
ATOM     30  H1  UNL     1       2.002   1.139  -1.017  1.00  0.00     0.177 HD
BRANCH  29  31
HETATM   31  C5  UNL     1       2.509  -0.931  -1.142  1.00  0.00     0.138 C 
BRANCH  31  32
HETATM   32  C4  UNL     1       3.789  -0.393  -1.725  1.00  0.00     0.020 C 
BRANCH  32  33
HETATM   33  C3  UNL     1       4.405   0.594  -0.777  1.00  0.00     0.001 C 
BRANCH  33  34
HETATM   34  C2  UNL     1       4.720  -0.055   0.526  1.00  0.00    -0.004 C 
HETATM   35  C1  UNL     1       5.363   1.001   1.423  1.00  0.00     0.005 C 
ENDBRANCH  33  34
ENDBRANCH  32  33
ENDBRANCH  31  32
ENDBRANCH  29  31
ENDBRANCH   1  29
TORSDOF 8
