REMARK  6 active torsions:
REMARK  status: ('A' for Active; 'I' for Inactive)
REMARK    1  A    between atoms: C3_3  and  C4_4 
REMARK    2  A    between atoms: C4_4  and  C5_5 
REMARK    3  A    between atoms: C6_6  and  C7_7 
REMARK    4  A    between atoms: N2_17  and  C15_18 
REMARK    5  A    between atoms: C15_18  and  C16_19 
REMARK    6  A    between atoms: C18_26  and  C19_27 
ROOT
HETATM    1  C1  UNL     1       7.843   0.602   0.460  1.00  0.00     0.012 C 
HETATM    2  C2  UNL     1       7.571  -0.471  -0.023  1.00  0.00    -0.117 C 
HETATM    3  C3  UNL     1       7.235  -1.777  -0.627  1.00  0.00     0.105 C 
ENDROOT
BRANCH   3   4
HETATM    4  C4  UNL     1       6.168  -2.407   0.264  1.00  0.00     0.106 C 
BRANCH   4   5
HETATM    5  C5  UNL     1       5.010  -1.518   0.292  1.00  0.00    -0.100 C 
HETATM    6  C6  UNL     1       4.063  -0.783   0.333  1.00  0.00    -0.067 C 
BRANCH   6   7
HETATM    7  C7  UNL     1       2.942   0.092   0.406  1.00  0.00     0.019 A 
HETATM    8  C8  UNL     1       3.112   1.408   0.784  1.00  0.00     0.029 A 
HETATM    9  C9  UNL     1       2.060   2.296   0.871  1.00  0.00    -0.033 A 
HETATM   10  C10 UNL     1       2.274   3.720   1.283  1.00  0.00     0.050 C 
HETATM   11  C11 UNL     1       0.803   1.812   0.560  1.00  0.00     0.051 A 
HETATM   12  N1  UNL     1      -0.395   2.393   0.544  1.00  0.00    -0.340 N 
HETATM   13  C21 UNL     1       0.599   0.499   0.179  1.00  0.00     0.008 A 
HETATM   14  C12 UNL     1      -1.350   1.500   0.167  1.00  0.00     0.121 A 
ATOM     15  H1  UNL     1      -0.572   3.369   0.781  1.00  0.00     0.167 HD
HETATM   16  C13 UNL     1      -0.743   0.286  -0.071  1.00  0.00     0.036 A 
HETATM   17  N5  UNL     1      -2.672   1.568  -0.006  1.00  0.00    -0.326 N 
HETATM   18  C14 UNL     1      -1.529  -0.773  -0.467  1.00  0.00     0.108 A 
HETATM   19  N2  UNL     1      -2.885  -0.644  -0.627  1.00  0.00    -0.341 N 
HETATM   20  C18 UNL     1      -3.468   0.532  -0.399  1.00  0.00     0.096 A 
HETATM   21  C20 UNL     1      -3.317   2.842   0.247  1.00  0.00     0.159 C 
HETATM   22  C22 UNL     1       1.679  -0.359   0.104  1.00  0.00     0.035 A 
BRANCH  19  23
HETATM   23  C15 UNL     1      -3.592  -1.837  -0.980  1.00  0.00     0.176 C 
BRANCH  23  24
HETATM   24  C16 UNL     1      -3.883  -2.766   0.176  1.00  0.00     0.208 C 
HETATM   25  N3  UNL     1      -4.668  -2.269   1.252  1.00  0.00    -0.320 N 
HETATM   26  C17 UNL     1      -5.803  -2.931   0.741  1.00  0.00     0.319 C 
ATOM     27  H3  UNL     1      -4.485  -1.676   2.062  1.00  0.00     0.166 HD
HETATM   28  O1  UNL     1      -7.065  -2.915   0.969  1.00  0.00    -0.247 OA
HETATM   29  N4  UNL     1      -4.976  -3.642  -0.149  1.00  0.00    -0.320 N 
ATOM     30  H4  UNL     1      -5.100  -4.444  -0.767  1.00  0.00     0.166 HD
ENDBRANCH  23  24
ENDBRANCH  19  23
BRANCH  20  31
HETATM   31  C19 UNL     1      -4.936   0.799  -0.602  1.00  0.00     0.162 C 
HETATM   32 BR1  UNL     1      -5.215   1.467  -2.428  1.00  0.00    -0.088 Br
ENDBRANCH  20  31
ENDBRANCH   6   7
ENDBRANCH   4   5
ENDBRANCH   3   4
TORSDOF 6
