REMARK  6 active torsions:
REMARK  status: ('A' for Active; 'I' for Inactive)
REMARK    1  A    between atoms: C2_2  and  N1_3 
REMARK       I    between atoms: N1_3  and  C3_5 
REMARK       I    between atoms: C3_5  and  N2_7 
REMARK    2  A    between atoms: C6_10  and  N3_11 
REMARK       I    between atoms: N3_11  and  C7_13 
REMARK    3  A    between atoms: C7_13  and  C8_15 
REMARK    4  A    between atoms: C8_15  and  N4_16 
REMARK       I    between atoms: N4_16  and  C9_18 
REMARK    5  A    between atoms: C9_18  and  C10_20 
REMARK    6  A    between atoms: C19_31  and  C20_32 
ROOT
HETATM    1  N4  UNL     1      -1.565  -2.031   1.493  1.00  0.00    -0.350 N 
ATOM      2  H4  UNL     1      -1.914  -1.727   2.402  1.00  0.00     0.163 HD
HETATM    3  C9  UNL     1      -1.932  -1.348   0.268  1.00  0.00     0.257 C 
HETATM    4  O3  UNL     1      -1.345  -1.896  -0.748  1.00  0.00    -0.271 OA
ENDROOT
BRANCH   1   5
HETATM    5  C8  UNL     1      -0.660  -3.189   1.355  1.00  0.00     0.225 C 
BRANCH   5   6
HETATM    6  C7  UNL     1       0.680  -2.854   0.857  1.00  0.00     0.235 C 
HETATM    7  N3  UNL     1       1.226  -1.579   0.745  1.00  0.00    -0.355 N 
ATOM      8  H3  UNL     1       0.677  -0.776   1.051  1.00  0.00     0.162 HD
HETATM    9  O2  UNL     1       1.386  -3.864   0.507  1.00  0.00    -0.272 OA
BRANCH   7  10
HETATM   10  C6  UNL     1       2.553  -1.360   0.206  1.00  0.00     0.087 C 
HETATM   11  C5  UNL     1       2.757   0.048  -0.202  1.00  0.00     0.045 C 
HETATM   12  C4  UNL     1       4.132   0.546   0.117  1.00  0.00     0.129 C 
HETATM   13  N2  UNL     1       5.185  -0.420   0.094  1.00  0.00    -0.334 N 
HETATM   14  C3  UNL     1       6.516   0.005  -0.147  1.00  0.00     0.318 C 
HETATM   15  C23 UNL     1       4.940  -1.832   0.343  1.00  0.00     0.129 C 
HETATM   16  N1  UNL     1       6.765   1.391  -0.302  1.00  0.00    -0.343 N 
HETATM   17  O1  UNL     1       7.433  -0.837  -0.215  1.00  0.00    -0.247 OA
ATOM     18  H1  UNL     1       5.983   2.041  -0.225  1.00  0.00     0.164 HD
HETATM   19  C22 UNL     1       3.640  -1.863   1.173  1.00  0.00     0.045 C 
BRANCH  16  20
HETATM   20  C2  UNL     1       8.094   1.925  -0.567  1.00  0.00     0.120 C 
HETATM   21  C1  UNL     1       8.692   1.423  -1.858  1.00  0.00     0.026 C 
ENDBRANCH  16  20
ENDBRANCH   7  10
ENDBRANCH   5   6
ENDBRANCH   1   5
BRANCH   3  22
HETATM   22  C10 UNL     1      -2.832  -0.214   0.115  1.00  0.00     0.236 C 
HETATM   23  C11 UNL     1      -4.183  -0.537   0.707  1.00  0.00     0.286 C 
HETATM   24  N5  UNL     1      -5.312   0.119   0.183  1.00  0.00    -0.070 N 
HETATM   25  C12 UNL     1      -6.333  -0.833  -0.307  1.00  0.00     0.272 C 
HETATM   26  C13 UNL     1      -5.980   0.767   1.344  1.00  0.00     0.272 C 
HETATM   27  C14 UNL     1      -5.150   1.127  -0.794  1.00  0.00     0.264 C 
HETATM   28  C15 UNL     1      -3.912   1.134  -1.583  1.00  0.00     0.266 C 
HETATM   29  N6  UNL     1      -2.958   0.077  -1.316  1.00  0.00    -0.050 N 
HETATM   30  C16 UNL     1      -3.208  -1.020  -2.166  1.00  0.00     0.274 C 
HETATM   31  C17 UNL     1      -1.663   0.662  -1.641  1.00  0.00     0.239 C 
HETATM   32  C18 UNL     1      -1.242   1.437  -0.421  1.00  0.00     0.036 C 
HETATM   33  C19 UNL     1      -2.285   1.084   0.596  1.00  0.00     0.035 C 
BRANCH  33  34
HETATM   34  C20 UNL     1      -1.807   1.139   2.013  1.00  0.00     0.003 C 
HETATM   35  C21 UNL     1      -1.283   2.571   2.262  1.00  0.00     0.005 C 
ENDBRANCH  33  34
ENDBRANCH   3  22
TORSDOF 6
