REMARK  0 active torsions:
REMARK  status: ('A' for Active; 'I' for Inactive)
REMARK       I    between atoms: C2_4  and  N2_5 
REMARK       I    between atoms: C2_4  and  N6_24 
ROOT
HETATM    1  C1  UNL     1      -3.573   1.864  -0.127  1.00  0.00     0.165 C 
HETATM    2  N1  UNL     1      -2.270   1.514  -0.595  1.00  0.00    -0.230 N 
ATOM      3  H1  UNL     1      -1.695   2.232  -1.036  1.00  0.00     0.177 HD
HETATM    4  C2  UNL     1      -1.789   0.298  -0.476  1.00  0.00     0.676 C 
HETATM    5  N2  UNL     1      -0.575  -0.127  -0.885  1.00  0.00    -0.175 N 
ATOM      6  H2  UNL     1      -0.719  -0.777  -1.658  1.00  0.00     0.186 HD
HETATM    7  C3  UNL     1       0.643  -0.039  -0.692  1.00  0.00     0.142 C 
HETATM    8  N3  UNL     1       1.505  -0.822  -1.546  1.00  0.00    -0.339 N 
ATOM      9  H3  UNL     1       1.089  -1.149  -2.418  1.00  0.00     0.167 HD
HETATM   10  C4  UNL     1       2.893  -1.204  -1.321  1.00  0.00     0.067 A 
HETATM   11  C5  UNL     1       3.356  -2.357  -1.929  1.00  0.00     0.081 A 
HETATM   12  S1  UNL     1       4.977  -2.445  -1.451  1.00  0.00    -0.109 SA
HETATM   13  C6  UNL     1       5.060  -1.045  -0.499  1.00  0.00     0.081 A 
HETATM   14  C7  UNL     1       3.787  -0.516  -0.571  1.00  0.00     0.067 A 
HETATM   15  N4  UNL     1       3.556   0.722   0.170  1.00  0.00    -0.339 N 
ATOM     16  H4  UNL     1       4.370   1.330   0.265  1.00  0.00     0.167 HD
HETATM   17  C8  UNL     1       2.343   1.214   0.789  1.00  0.00     0.128 A 
HETATM   18  N5  UNL     1       2.430   2.046   1.795  1.00  0.00    -0.326 N 
ATOM     19  H5  UNL     1       3.347   2.342   2.130  1.00  0.00     0.169 HD
HETATM   20  C9  UNL     1       1.341   2.503   2.377  1.00  0.00     0.148 A 
HETATM   21 CL1  UNL     1       1.209   3.625   3.742  1.00  0.00    -0.056 Cl
HETATM   22  S2  UNL     1       0.107   1.738   1.480  1.00  0.00    -0.052 SA
HETATM   23  C10 UNL     1       1.078   0.856   0.387  1.00  0.00     0.096 A 
HETATM   24  N6  UNL     1      -2.686  -0.643   0.130  1.00  0.00    -0.227 N 
HETATM   25  C11 UNL     1      -3.905  -0.956  -0.566  1.00  0.00     0.168 C 
HETATM   26  C12 UNL     1      -2.379  -1.259   1.389  1.00  0.00     0.168 C 
ENDROOT
TORSDOF 0
