REMARK  6 active torsions:
REMARK  status: ('A' for Active; 'I' for Inactive)
REMARK       I    between atoms: C1_4  and  N3_6 
REMARK    1  A    between atoms: N3_6  and  C2_8 
REMARK    2  A    between atoms: C2_8  and  C3_9 
REMARK    3  A    between atoms: C4_10  and  C5_11 
REMARK    4  A    between atoms: C5_11  and  C6_12 
REMARK    5  A    between atoms: C5_11  and  C17_26 
REMARK       I    between atoms: C6_12  and  N4_14 
REMARK    6  A    between atoms: N4_14  and  C7_16 
REMARK       I    between atoms: C17_26  and  N5_28 
ROOT
HETATM    1  C5  UNL     1       1.440   0.217  -0.557  1.00  0.00     0.192 C 
ENDROOT
BRANCH   1   2
HETATM    2  C4  UNL     1       1.622  -1.219  -0.752  1.00  0.00    -0.006 C 
HETATM    3  C3  UNL     1       2.546  -2.059  -0.438  1.00  0.00    -0.010 C 
BRANCH   3   4
HETATM    4  C2  UNL     1       2.348  -3.520  -0.837  1.00  0.00     0.149 C 
BRANCH   4   5
HETATM    5  N3  UNL     1       3.454  -3.837  -1.698  1.00  0.00    -0.361 N 
HETATM    6  C1  UNL     1       4.760  -3.894  -1.171  1.00  0.00     0.181 C 
HETATM    7  N1  UNL     1       4.999  -4.720  -0.203  1.00  0.00    -0.374 N 
HETATM    8  N2  UNL     1       5.805  -3.088  -1.657  1.00  0.00    -0.064 NA
ATOM      9  H12 UNL     1       5.944  -4.761   0.178  1.00  0.00     0.158 HD
ATOM     10  H11 UNL     1       4.241  -5.305   0.149  1.00  0.00     0.158 HD
ATOM     11  H3  UNL     1       3.294  -4.020  -2.689  1.00  0.00     0.162 HD
ENDBRANCH   4   5
ENDBRANCH   3   4
ENDBRANCH   1   2
BRANCH   1  12
HETATM   12  C6  UNL     1       0.125   0.333   0.180  1.00  0.00     0.235 C 
HETATM   13  O1  UNL     1       0.176   0.817   1.310  1.00  0.00    -0.272 OA
HETATM   14  N4  UNL     1      -1.049  -0.114  -0.463  1.00  0.00    -0.351 N 
ATOM     15  H4  UNL     1      -0.954  -0.497  -1.404  1.00  0.00     0.163 HD
BRANCH  14  16
HETATM   16  C7  UNL     1      -2.361  -0.071   0.103  1.00  0.00     0.034 C 
HETATM   17  C8  UNL     1      -2.367  -0.914   1.366  1.00  0.00     0.035 C 
HETATM   18  C9  UNL     1      -3.782  -1.057   1.912  1.00  0.00    -0.012 C 
HETATM   19  C10 UNL     1      -4.244   0.366   2.233  1.00  0.00     0.009 C 
HETATM   20  C14 UNL     1      -4.710  -1.681   0.916  1.00  0.00     0.009 C 
HETATM   21  C11 UNL     1      -4.250   1.192   0.972  1.00  0.00    -0.012 C 
HETATM   22  C12 UNL     1      -5.213   0.591  -0.021  1.00  0.00     0.009 C 
HETATM   23  C16 UNL     1      -2.865   1.323   0.372  1.00  0.00     0.035 C 
HETATM   24  C13 UNL     1      -4.728  -0.813  -0.318  1.00  0.00    -0.012 C 
HETATM   25  C15 UNL     1      -3.334  -0.715  -0.856  1.00  0.00     0.035 C 
ENDBRANCH  14  16
ENDBRANCH   1  12
BRANCH   1  26
HETATM   26  C17 UNL     1       2.515   0.882   0.164  1.00  0.00     0.236 C 
HETATM   27  O2  UNL     1       3.413   0.304   0.818  1.00  0.00    -0.272 OA
HETATM   28  N5  UNL     1       2.622   2.316   0.177  1.00  0.00    -0.351 N 
HETATM   29  C18 UNL     1       3.618   3.085   0.850  1.00  0.00     0.126 C 
HETATM   30  C21 UNL     1       1.710   3.190  -0.520  1.00  0.00     0.126 C 
HETATM   31  C19 UNL     1       3.105   4.502   0.830  1.00  0.00     0.021 C 
HETATM   32  C20 UNL     1       2.354   4.565  -0.480  1.00  0.00     0.021 C 
ENDBRANCH   1  26
TORSDOF 6
