REMARK  6 active torsions:
REMARK  status: ('A' for Active; 'I' for Inactive)
REMARK    1  A    between atoms: N1_1  and  C1_4 
REMARK    2  A    between atoms: C4_12  and  N4_13 
REMARK    3  A    between atoms: N4_13  and  N5_15 
REMARK    4  A    between atoms: N7_22  and  C7_23 
REMARK    5  A    between atoms: C7_23  and  C8_24 
REMARK    6  A    between atoms: C8_24  and  C9_25 
ROOT
HETATM    1  C1  UNL     1      -0.475   1.015  -1.751  1.00  0.00     0.686 A 
HETATM    2  N2  UNL     1       0.724   1.550  -2.082  1.00  0.00    -0.154 N 
ATOM      3  H2  UNL     1       0.771   2.238  -2.834  1.00  0.00     0.187 HD
HETATM    4  C2  UNL     1       1.845   1.200  -1.450  1.00  0.00     0.290 A 
HETATM    5  O1  UNL     1       2.973   1.649  -1.702  1.00  0.00    -0.265 OA
HETATM    6  C3  UNL     1       1.728   0.253  -0.424  1.00  0.00     0.148 A 
HETATM    7  N3  UNL     1       2.810  -0.131   0.238  1.00  0.00    -0.333 N 
ATOM      8  H3  UNL     1       3.717   0.267  -0.006  1.00  0.00     0.168 HD
HETATM    9  C4  UNL     1       2.727  -1.038   1.227  1.00  0.00     0.135 A 
HETATM   10  C5  UNL     1       1.515  -1.581   1.564  1.00  0.00     0.139 A 
HETATM   11  N6  UNL     1       0.442  -1.182   0.887  1.00  0.00    -0.346 N 
ATOM     12  H6  UNL     1      -0.463  -1.583   1.135  1.00  0.00     0.167 HD
HETATM   13  C6  UNL     1       0.488  -0.274  -0.111  1.00  0.00     0.160 A 
HETATM   14  N7  UNL     1      -0.610   0.113  -0.779  1.00  0.00    -0.144 N 
ENDROOT
BRANCH   9  15
HETATM   15  N4  UNL     1       3.822  -1.366   1.830  1.00  0.00    -0.291 N 
ATOM     16  H4  UNL     1       3.785  -2.052   2.584  1.00  0.00     0.188 HD
BRANCH  15  17
HETATM   17  N5  UNL     1       5.052  -0.810   1.481  1.00  0.00    -0.344 N 
ATOM     18  H52 UNL     1       5.071  -0.125   0.725  1.00  0.00     0.176 HD
ATOM     19  H51 UNL     1       5.916  -1.069   1.957  1.00  0.00     0.176 HD
ENDBRANCH  15  17
ENDBRANCH   9  15
BRANCH  14  20
HETATM   20  C7  UNL     1      -1.862  -0.433  -0.447  1.00  0.00     0.099 C 
BRANCH  20  21
HETATM   21  C8  UNL     1      -2.649   0.287   0.594  1.00  0.00     0.145 C 
BRANCH  21  22
HETATM   22  C9  UNL     1      -3.919  -0.426   0.805  1.00  0.00     0.235 C 
HETATM   23  N8  UNL     1      -4.845   0.062   1.748  1.00  0.00    -0.062 NA
HETATM   24  O2  UNL     1      -4.184  -1.455   0.161  1.00  0.00    -0.277 OA
ENDBRANCH  21  22
ENDBRANCH  20  21
ENDBRANCH  14  20
BRANCH   1  25
HETATM   25  N1  UNL     1      -1.518   1.384  -2.388  1.00  0.00    -0.234 N 
ATOM     26  H12 UNL     1      -1.415   2.074  -3.132  1.00  0.00     0.174 HD
ATOM     27  H11 UNL     1      -2.421   0.981  -2.139  1.00  0.00     0.174 HD
ENDBRANCH   1  25
TORSDOF 6
