REMARK  10 active torsions:
REMARK  status: ('A' for Active; 'I' for Inactive)
REMARK    1  A    between atoms: C2_2  and  C3_3 
REMARK    2  A    between atoms: C2_2  and  C11_21 
REMARK    3  A    between atoms: C3_3  and  C4_4 
REMARK    4  A    between atoms: C4_4  and  O1_5 
REMARK    5  A    between atoms: C4_4  and  C5_7 
REMARK    6  A    between atoms: C5_7  and  C6_9 
REMARK    7  A    between atoms: C7_11  and  C8_12 
REMARK    8  A    between atoms: C8_12  and  O4_13 
REMARK    9  A    between atoms: C9_15  and  O5_16 
REMARK   10  A    between atoms: C10_18  and  O6_19 
ROOT
HETATM    1  C5  UNL     1      -1.823   1.179  -0.316  1.00  0.00     0.186 C 
HETATM    2  O2  UNL     1      -1.968   2.361  -0.520  1.00  0.00    -0.292 OA
ENDROOT
BRANCH   1   3
HETATM    3  C4  UNL     1      -0.572   0.509  -0.753  1.00  0.00     0.190 C 
BRANCH   3   4
HETATM    4  C3  UNL     1       0.105  -0.230   0.333  1.00  0.00     0.044 C 
BRANCH   4   5
HETATM    5  C2  UNL     1       1.313  -1.030   0.055  1.00  0.00    -0.012 C 
HETATM    6  C1  UNL     1       1.156  -2.144  -0.934  1.00  0.00     0.010 C 
BRANCH   5   7
HETATM    7  C11 UNL     1       2.648  -0.367   0.072  1.00  0.00    -0.011 C 
HETATM    8  C12 UNL     1       3.668  -1.455   0.487  1.00  0.00     0.005 C 
HETATM    9  C13 UNL     1       5.016  -0.899   0.741  1.00  0.00     0.000 C 
HETATM   10  C14 UNL     1       5.180   0.576   0.675  1.00  0.00     0.000 C 
HETATM   11  C15 UNL     1       5.252   1.166  -0.696  1.00  0.00     0.000 C 
HETATM   12  C16 UNL     1       3.838   1.429  -1.164  1.00  0.00     0.000 C 
HETATM   13  C17 UNL     1       3.169   0.075  -1.279  1.00  0.00     0.005 C 
ENDBRANCH   5   7
ENDBRANCH   4   5
ENDBRANCH   3   4
BRANCH   3  14
HETATM   14  O1  UNL     1       0.219   1.476  -1.350  1.00  0.00    -0.388 OA
ATOM     15  H1  UNL     1      -0.216   1.951  -2.048  1.00  0.00     0.210 HD
ENDBRANCH   3  14
ENDBRANCH   1   3
BRANCH   1  16
HETATM   16  C6  UNL     1      -2.933   0.476   0.371  1.00  0.00     0.225 C 
HETATM   17  O3  UNL     1      -3.977   1.315   0.702  1.00  0.00    -0.365 OA
HETATM   18  C7  UNL     1      -5.118   0.952   0.049  1.00  0.00     0.177 C 
HETATM   19  C9  UNL     1      -4.992  -0.505  -0.343  1.00  0.00     0.180 C 
HETATM   20  C10 UNL     1      -3.480  -0.556  -0.611  1.00  0.00     0.185 C 
BRANCH  18  21
HETATM   21  C8  UNL     1      -6.302   1.167   0.970  1.00  0.00     0.198 C 
BRANCH  21  22
HETATM   22  O4  UNL     1      -7.478   0.801   0.318  1.00  0.00    -0.398 OA
ATOM     23  H4  UNL     1      -8.220   0.936   0.895  1.00  0.00     0.209 HD
ENDBRANCH  21  22
ENDBRANCH  18  21
BRANCH  19  24
HETATM   24  O5  UNL     1      -5.331  -1.371   0.672  1.00  0.00    -0.390 OA
ATOM     25  H5  UNL     1      -5.252  -2.285   0.426  1.00  0.00     0.210 HD
ENDBRANCH  19  24
BRANCH  20  26
HETATM   26  O6  UNL     1      -3.346  -0.134  -1.940  1.00  0.00    -0.390 OA
ATOM     27  H6  UNL     1      -3.687  -0.776  -2.551  1.00  0.00     0.210 HD
ENDBRANCH  20  26
ENDBRANCH   1  16
TORSDOF 10
