REMARK  10 active torsions:
REMARK  status: ('A' for Active; 'I' for Inactive)
REMARK    1  A    between atoms: C2_2  and  N1_3 
REMARK    2  A    between atoms: C3_4  and  N2_5 
REMARK    3  A    between atoms: N2_5  and  C4_7 
REMARK    4  A    between atoms: N4_15  and  C8_16 
REMARK    5  A    between atoms: C10_21  and  C11_22 
REMARK    6  A    between atoms: C11_22  and  N6_23 
REMARK    7  A    between atoms: C11_22  and  C12_27 
REMARK    8  A    between atoms: C12_27  and  C13_28 
REMARK    9  A    between atoms: C13_28  and  C14_29 
REMARK   10  A    between atoms: C14_29  and  N7_30 
ROOT
HETATM    1  N1  UNL     1      -0.124  -0.513  -0.501  1.00  0.00    -0.320 N 
HETATM    2  C3  UNL     1       1.081  -0.109  -0.015  1.00  0.00     0.126 A 
HETATM    3  C9  UNL     1       1.040  -0.235   1.376  1.00  0.00     0.138 A 
HETATM    4  N5  UNL     1      -0.160  -0.697   1.648  1.00  0.00    -0.350 N 
ATOM      5  H5  UNL     1      -0.497  -0.896   2.590  1.00  0.00     0.166 HD
HETATM    6  C10 UNL     1      -0.899  -0.878   0.516  1.00  0.00     0.116 A 
ENDROOT
BRANCH   2   7
HETATM    7  N2  UNL     1       2.157   0.355  -0.803  1.00  0.00    -0.326 N 
ATOM      8  H2  UNL     1       2.037   0.401  -1.815  1.00  0.00     0.169 HD
BRANCH   7   9
HETATM    9  C4  UNL     1       3.401   0.761  -0.247  1.00  0.00     0.134 A 
HETATM   10  C5  UNL     1       3.527   1.983   0.232  1.00  0.00     0.074 A 
HETATM   11 CL1  UNL     1       2.097   3.044   0.140  1.00  0.00    -0.083 Cl
HETATM   12  C6  UNL     1       4.731   2.563   0.837  1.00  0.00     0.179 A 
HETATM   13  N3  UNL     1       5.842   1.648   0.876  1.00  0.00    -0.337 N 
HETATM   14  C7  UNL     1       5.696   0.337   0.358  1.00  0.00     0.326 A 
ATOM     15  H3  UNL     1       6.733   1.943   1.276  1.00  0.00     0.164 HD
HETATM   16  O1  UNL     1       6.700  -0.429   0.415  1.00  0.00    -0.247 OA
HETATM   17  N4  UNL     1       4.499  -0.135  -0.206  1.00  0.00    -0.257 N 
BRANCH  17  18
HETATM   18  C8  UNL     1       4.424  -1.490  -0.716  1.00  0.00     0.359 C 
HETATM   19  F1  UNL     1       4.016  -2.295   0.312  1.00  0.00    -0.233 F 
ENDBRANCH  17  18
ENDBRANCH   7   9
ENDBRANCH   2   7
BRANCH   1  20
HETATM   20  C2  UNL     1      -0.464  -0.542  -1.897  1.00  0.00     0.127 C 
HETATM   21  C1  UNL     1      -1.047   0.748  -2.418  1.00  0.00     0.027 C 
ENDBRANCH   1  20
BRANCH   6  22
HETATM   22  C11 UNL     1      -2.262  -1.375   0.563  1.00  0.00     0.250 C 
BRANCH  22  23
HETATM   23  N6  UNL     1      -2.632  -2.332  -0.443  1.00  0.00    -0.068 N 
ATOM     24  H63 UNL     1      -2.439  -1.949  -1.368  1.00  0.00     0.275 HD
ATOM     25  H62 UNL     1      -1.980  -3.116  -0.426  1.00  0.00     0.275 HD
ATOM     26  H61 UNL     1      -3.590  -2.681  -0.410  1.00  0.00     0.275 HD
ENDBRANCH  22  23
BRANCH  22  27
HETATM   27  C12 UNL     1      -3.336  -0.309   0.613  1.00  0.00     0.042 C 
BRANCH  27  28
HETATM   28  C13 UNL     1      -4.696  -0.996   0.663  1.00  0.00     0.030 C 
BRANCH  28  29
HETATM   29  C14 UNL     1      -5.751   0.113   0.714  1.00  0.00     0.230 C 
BRANCH  29  30
HETATM   30  N7  UNL     1      -5.544   0.921   1.888  1.00  0.00    -0.079 N 
ATOM     31  H73 UNL     1      -5.530   0.363   2.742  1.00  0.00     0.274 HD
ATOM     32  H72 UNL     1      -4.594   1.290   1.939  1.00  0.00     0.274 HD
ATOM     33  H71 UNL     1      -6.247   1.660   1.922  1.00  0.00     0.274 HD
ENDBRANCH  29  30
ENDBRANCH  28  29
ENDBRANCH  27  28
ENDBRANCH  22  27
ENDBRANCH   6  22
TORSDOF 10
