REMARK  8 active torsions:
REMARK  status: ('A' for Active; 'I' for Inactive)
REMARK    1  A    between atoms: C3_5  and  C4_6 
REMARK    2  A    between atoms: C4_6  and  C5_7 
REMARK    3  A    between atoms: C6_10  and  C7_11 
REMARK    4  A    between atoms: C7_11  and  C8_12 
REMARK    5  A    between atoms: C9_14  and  C10_15 
REMARK    6  A    between atoms: C10_15  and  C11_16 
REMARK    7  A    between atoms: C15_22  and  C16_23 
REMARK    8  A    between atoms: C16_23  and  O1_24 
ROOT
HETATM    1  C5  UNL     1      -0.796   1.170  -0.286  1.00  0.00     0.109 A 
HETATM    2  N2  UNL     1      -0.468   1.218  -1.624  1.00  0.00    -0.344 N 
ATOM      3  H2  UNL     1       0.364   1.667  -2.008  1.00  0.00     0.167 HD
HETATM    4  C6  UNL     1      -1.412   0.582  -2.351  1.00  0.00     0.034 A 
HETATM    5  C9  UNL     1      -2.352   0.128  -1.481  1.00  0.00     0.036 A 
HETATM    6  N3  UNL     1      -1.953   0.497  -0.244  1.00  0.00    -0.339 N 
HETATM    7  C12 UNL     1      -2.674   0.202   0.974  1.00  0.00     0.158 C 
ENDROOT
BRANCH   1   8
HETATM    8  C4  UNL     1      -0.031   1.742   0.804  1.00  0.00     0.079 C 
BRANCH   8   9
HETATM    9  C3  UNL     1       0.964   1.322   1.478  1.00  0.00     0.046 A 
HETATM   10  N1  UNL     1       1.549   2.026   2.476  1.00  0.00    -0.355 N 
HETATM   11  C2  UNL     1       2.576   1.346   3.012  1.00  0.00     0.036 A 
ATOM     12  H1  UNL     1       1.249   2.952   2.781  1.00  0.00     0.166 HD
HETATM   13  C1  UNL     1       3.333   1.780   3.998  1.00  0.00     0.044 C 
HETATM   14  C15 UNL     1       2.700   0.136   2.359  1.00  0.00     0.023 A 
HETATM   15  C13 UNL     1       1.670   0.130   1.388  1.00  0.00    -0.004 A 
HETATM   16  C14 UNL     1       1.436  -0.881   0.589  1.00  0.00     0.026 C 
BRANCH  14  17
HETATM   17  C16 UNL     1       3.600  -0.835   2.586  1.00  0.00     0.148 C 
BRANCH  17  18
HETATM   18  O1  UNL     1       3.816  -2.009   2.044  1.00  0.00    -0.367 OA
HETATM   19  C17 UNL     1       4.607  -3.031   2.709  1.00  0.00     0.208 C 
ENDBRANCH  17  18
ENDBRANCH  14  17
ENDBRANCH   8   9
ENDBRANCH   1   8
BRANCH   4  20
HETATM   20  C7  UNL     1      -1.338   0.465  -3.859  1.00  0.00     0.070 C 
BRANCH  20  21
HETATM   21  C8  UNL     1      -2.164   1.543  -4.476  1.00  0.00     0.091 C 
HETATM   22 BR1  UNL     1      -2.105   1.373  -6.405  1.00  0.00    -0.096 Br
ENDBRANCH  20  21
ENDBRANCH   4  20
BRANCH   5  23
HETATM   23  C10 UNL     1      -3.567  -0.670  -1.815  1.00  0.00     0.070 C 
BRANCH  23  24
HETATM   24  C11 UNL     1      -3.231  -2.135  -2.010  1.00  0.00     0.091 C 
HETATM   25 BR2  UNL     1      -4.872  -3.067  -2.425  1.00  0.00    -0.096 Br
ENDBRANCH  23  24
ENDBRANCH   5  23
TORSDOF 8
