REMARK  9 active torsions:
REMARK  status: ('A' for Active; 'I' for Inactive)
REMARK    1  A    between atoms: C2_3  and  C3_4 
REMARK    2  A    between atoms: C3_4  and  C4_5 
REMARK    3  A    between atoms: C4_5  and  N2_6 
REMARK    4  A    between atoms: C5_9  and  N4_10 
REMARK    5  A    between atoms: N7_19  and  C8_20 
REMARK    6  A    between atoms: C8_20  and  C9_21 
REMARK    7  A    between atoms: C9_21  and  C10_22 
REMARK    8  A    between atoms: C10_22  and  C11_23 
REMARK    9  A    between atoms: C12_24  and  C13_25 
ROOT
HETATM    1  C1  UNL     1       1.419  -1.946  -0.957  1.00  0.00     0.159 C 
HETATM    2  N1  UNL     1       0.878  -0.599  -0.711  1.00  0.00    -0.324 N 
HETATM    3  C2  UNL     1       1.701   0.377  -0.307  1.00  0.00     0.093 A 
HETATM    4  C6  UNL     1       1.172   1.627  -0.084  1.00  0.00     0.056 A 
HETATM    5  C7  UNL     1      -0.160   1.866  -0.270  1.00  0.00     0.096 A 
HETATM    6  N7  UNL     1      -0.963   0.866  -0.676  1.00  0.00    -0.337 N 
HETATM    7  C14 UNL     1      -0.423  -0.350  -0.888  1.00  0.00     0.158 A 
HETATM    8 BR2  UNL     1      -1.578  -1.761  -1.465  1.00  0.00    -0.010 Br
ENDROOT
BRANCH   3   9
HETATM    9  C3  UNL     1       3.106   0.121  -0.113  1.00  0.00    -0.022 C 
BRANCH   9  10
HETATM   10  C4  UNL     1       4.295  -0.076   0.047  1.00  0.00     0.062 C 
BRANCH  10  11
HETATM   11  N2  UNL     1       5.674  -0.283   0.245  1.00  0.00    -0.121 N 
HETATM   12  N3  UNL     1       6.530   0.528   0.867  1.00  0.00    -0.101 N 
HETATM   13  C5  UNL     1       7.758  -0.013   0.854  1.00  0.00     0.708 A 
ATOM     14  H3  UNL     1       6.288   1.424   1.289  1.00  0.00     0.208 HD
HETATM   15  N5  UNL     1       7.659  -1.180   0.212  1.00  0.00    -0.114 N 
HETATM   16  N6  UNL     1       6.392  -1.318  -0.145  1.00  0.00    -0.199 N 
ATOM     17  H5  UNL     1       8.416  -1.839   0.031  1.00  0.00     0.207 HD
ATOM     18  H6  UNL     1       6.020  -2.119  -0.655  1.00  0.00     0.211 HD
BRANCH  13  19
HETATM   19  N4  UNL     1       8.859   0.459   1.352  1.00  0.00    -0.232 N 
ATOM     20  H42 UNL     1       8.935   1.350   1.842  1.00  0.00     0.174 HD
ATOM     21  H41 UNL     1       9.792   0.048   1.342  1.00  0.00     0.174 HD
ENDBRANCH  13  19
ENDBRANCH  10  11
ENDBRANCH   9  10
ENDBRANCH   3   9
BRANCH   6  22
HETATM   22  C8  UNL     1      -2.374   1.134  -0.868  1.00  0.00     0.131 C 
BRANCH  22  23
HETATM   23  C9  UNL     1      -3.058   0.860   0.454  1.00  0.00     0.024 C 
BRANCH  23  24
HETATM   24  C10 UNL     1      -4.566   1.120   0.341  1.00  0.00     0.028 C 
BRANCH  24  25
HETATM   25  C11 UNL     1      -5.188   0.270  -0.666  1.00  0.00    -0.030 C 
HETATM   26  C12 UNL     1      -6.144  -0.594  -0.422  1.00  0.00    -0.020 C 
BRANCH  26  27
HETATM   27  C13 UNL     1      -6.765  -0.873   0.886  1.00  0.00     0.112 C 
HETATM   28 BR1  UNL     1      -8.678  -0.483   0.756  1.00  0.00    -0.092 Br
ENDBRANCH  26  27
ENDBRANCH  24  25
ENDBRANCH  23  24
ENDBRANCH  22  23
ENDBRANCH   6  22
TORSDOF 9
