REMARK  4 active torsions:
REMARK  status: ('A' for Active; 'I' for Inactive)
REMARK    1  A    between atoms: C8_10  and  C9_11 
REMARK       I    between atoms: C9_11  and  N1_13 
REMARK    2  A    between atoms: N1_13  and  C10_15 
REMARK    3  A    between atoms: C10_15  and  C11_16 
REMARK       I    between atoms: C11_16  and  N2_18 
REMARK    4  A    between atoms: N2_18  and  C12_20 
ROOT
HETATM    1  C1  UNL     1       4.051   3.500  -0.489  1.00  0.00     0.015 C 
HETATM    2  C2  UNL     1       4.069   2.301  -0.361  1.00  0.00    -0.073 C 
HETATM    3  C3  UNL     1       4.093   0.833  -0.194  1.00  0.00     0.168 C 
HETATM    4  F1  UNL     1       5.203   0.277  -0.762  1.00  0.00    -0.229 F 
HETATM    5  C4  UNL     1       4.051   0.482   1.276  1.00  0.00     0.090 C 
HETATM    6  C5  UNL     1       3.387  -0.879   1.250  1.00  0.00     0.143 C 
HETATM    7  O1  UNL     1       4.294  -1.806   0.794  1.00  0.00    -0.384 OA
HETATM    8  C6  UNL     1       3.466  -2.846   0.344  1.00  0.00     0.169 C 
HETATM    9  C7  UNL     1       2.376  -2.153  -0.444  1.00  0.00     0.048 C 
HETATM   10  C8  UNL     1       2.339  -0.781   0.176  1.00  0.00     0.073 C 
HETATM   11  C15 UNL     1       2.802   0.297  -0.752  1.00  0.00     0.079 C 
ENDROOT
BRANCH  10  12
HETATM   12  C9  UNL     1       1.031  -0.480   0.811  1.00  0.00     0.229 C 
HETATM   13  O2  UNL     1       0.974  -0.355   2.067  1.00  0.00    -0.273 OA
HETATM   14  N1  UNL     1      -0.159  -0.327   0.044  1.00  0.00    -0.352 N 
ATOM     15  H1  UNL     1      -0.142  -0.422  -0.971  1.00  0.00     0.162 HD
BRANCH  14  16
HETATM   16  C10 UNL     1      -1.391  -0.034   0.740  1.00  0.00     0.225 C 
BRANCH  16  17
HETATM   17  C11 UNL     1      -2.539   0.096  -0.181  1.00  0.00     0.235 C 
HETATM   18  O3  UNL     1      -2.313  -0.058  -1.409  1.00  0.00    -0.272 OA
HETATM   19  N2  UNL     1      -3.826   0.383   0.336  1.00  0.00    -0.356 N 
ATOM     20  H2  UNL     1      -3.965   0.500   1.340  1.00  0.00     0.162 HD
BRANCH  19  21
HETATM   21  C12 UNL     1      -4.936   0.508  -0.573  1.00  0.00     0.076 C 
HETATM   22  C13 UNL     1      -5.455   1.931  -0.470  1.00  0.00     0.032 C 
HETATM   23  C14 UNL     1      -6.038  -0.486  -0.255  1.00  0.00     0.032 C 
ENDBRANCH  19  21
ENDBRANCH  16  17
ENDBRANCH  14  16
ENDBRANCH  10  12
TORSDOF 4
