REMARK  3 active torsions:
REMARK  status: ('A' for Active; 'I' for Inactive)
REMARK    1  A    between atoms: C2_2  and  N1_3 
REMARK    2  A    between atoms: N1_3  and  C3_5 
REMARK    3  A    between atoms: C3_5  and  C4_6 
ROOT
HETATM    1  C4  UNL     1       0.045  -0.088  -0.564  1.00  0.00     0.009 C 
HETATM    2  C5  UNL     1      -0.642   1.207  -0.291  1.00  0.00     0.039 C 
HETATM    3  C6  UNL     1      -1.946   1.035  -1.040  1.00  0.00     0.186 C 
HETATM    4  C7  UNL     1      -1.993  -0.420  -1.527  1.00  0.00     0.038 C 
HETATM    5  C8  UNL     1      -1.123  -1.053  -0.424  1.00  0.00    -0.005 C 
HETATM    6  C9  UNL     1      -1.902  -0.884   0.841  1.00  0.00     0.032 C 
HETATM    7  C10 UNL     1      -3.102  -0.022   0.760  1.00  0.00     0.233 C 
HETATM    8  N2  UNL     1      -3.006   1.133  -0.070  1.00  0.00    -0.071 N 
ATOM      9  H21 UNL     1      -3.898   1.334  -0.522  1.00  0.00     0.277 HD
ATOM     10  H22 UNL     1      -2.911   1.980   0.491  1.00  0.00     0.277 HD
ENDROOT
BRANCH   1  11
HETATM   11  C3  UNL     1       1.231  -0.400   0.265  1.00  0.00     0.118 C 
BRANCH  11  12
HETATM   12  N1  UNL     1       2.189   0.643   0.014  1.00  0.00    -0.421 N 
ATOM     13  H1  UNL     1       1.974   1.436  -0.591  1.00  0.00     0.153 HD
BRANCH  12  14
HETATM   14  C2  UNL     1       3.449   0.511   0.652  1.00  0.00     0.109 C 
HETATM   15  C1  UNL     1       4.276  -0.631   0.053  1.00  0.00     0.026 C 
ENDBRANCH  12  14
ENDBRANCH  11  12
ENDBRANCH   1  11
TORSDOF 3
