REMARK  3 active torsions:
REMARK  status: ('A' for Active; 'I' for Inactive)
REMARK    1  A    between atoms: N1_2  and  C2_4 
REMARK    2  A    between atoms: C2_4  and  C3_5 
REMARK    3  A    between atoms: C3_5  and  N2_6 
ROOT
HETATM    1  N2  UNL     1       0.147  -0.747  -0.034  1.00  0.00     0.090 N 
HETATM    2  C4  UNL     1      -0.063   0.628  -0.270  1.00  0.00     0.273 C 
HETATM    3  C5  UNL     1      -1.468   0.841  -0.850  1.00  0.00     0.034 C 
HETATM    4  C6  UNL     1      -2.537   0.157  -0.073  1.00  0.00    -0.015 C 
HETATM    5  C7  UNL     1      -3.726   1.056   0.230  1.00  0.00     0.010 C 
HETATM    6  C8  UNL     1      -1.919  -0.362   1.200  1.00  0.00     0.034 C 
HETATM    7  C9  UNL     1      -0.877  -1.360   0.808  1.00  0.00     0.273 C 
ENDROOT
BRANCH   1   8
HETATM    8  C3  UNL     1       1.395  -1.191   0.436  1.00  0.00     0.291 C 
BRANCH   8   9
HETATM    9  C2  UNL     1       2.577  -1.121  -0.444  1.00  0.00     0.143 C 
BRANCH   9  10
HETATM   10  N1  UNL     1       2.989   0.159  -0.902  1.00  0.00    -0.424 N 
HETATM   11  C1  UNL     1       3.523   1.025   0.088  1.00  0.00     0.139 C 
ATOM     12  H1  UNL     1       2.906   0.438  -1.880  1.00  0.00     0.152 HD
ENDBRANCH   9  10
ENDBRANCH   8   9
ENDBRANCH   1   8
TORSDOF 3
