REMARK  15 active torsions:
REMARK  status: ('A' for Active; 'I' for Inactive)
REMARK    1  A    between atoms: C2_2  and  C3_3 
REMARK    2  A    between atoms: C3_3  and  C4_4 
REMARK    3  A    between atoms: C4_4  and  C5_5 
REMARK    4  A    between atoms: C5_5  and  C6_6 
REMARK    5  A    between atoms: C6_6  and  C7_7 
REMARK    6  A    between atoms: C9_9  and  O1_10 
REMARK    7  A    between atoms: O1_10  and  C10_11 
REMARK    8  A    between atoms: C11_13  and  C12_14 
REMARK    9  A    between atoms: C12_14  and  O3_15 
REMARK   10  A    between atoms: C13_17  and  O4_18 
REMARK   11  A    between atoms: C14_20  and  O5_21 
REMARK   12  A    between atoms: C14_20  and  C15_23 
REMARK   13  A    between atoms: C15_23  and  O6_24 
REMARK   14  A    between atoms: C19_29  and  O7_30 
REMARK   15  A    between atoms: C19_29  and  C20_32 
ROOT
HETATM    1  O1  UNL     1      -1.004  -0.870   0.466  1.00  0.00    -0.355 OA
ENDROOT
BRANCH   1   2
HETATM    2  C9  UNL     1      -0.359   0.357   0.561  1.00  0.00     0.132 C 
HETATM    3  C8  UNL     1       0.840   0.307  -0.347  1.00  0.00     0.064 C 
HETATM    4  C7  UNL     1       2.055   0.982   0.215  1.00  0.00     0.128 C 
HETATM    5  O10 UNL     1       1.794   2.081   0.979  1.00  0.00    -0.341 OA
HETATM    6  C19 UNL     1       0.942   1.930   2.017  1.00  0.00     0.256 C 
HETATM    7  C18 UNL     1       0.024   0.746   1.941  1.00  0.00     0.112 C 
BRANCH   4   8
HETATM    8  C6  UNL     1       3.030   1.236  -0.900  1.00  0.00     0.032 C 
BRANCH   8   9
HETATM    9  C5  UNL     1       4.285   1.906  -0.470  1.00  0.00     0.002 C 
BRANCH   9  10
HETATM   10  C4  UNL     1       5.082   1.154   0.543  1.00  0.00     0.000 C 
BRANCH  10  11
HETATM   11  C3  UNL     1       5.522  -0.208   0.054  1.00  0.00    -0.000 C 
BRANCH  11  12
HETATM   12  C2  UNL     1       6.388  -0.115  -1.186  1.00  0.00    -0.005 C 
HETATM   13  C1  UNL     1       6.752  -1.550  -1.559  1.00  0.00     0.005 C 
ENDBRANCH  11  12
ENDBRANCH  10  11
ENDBRANCH   9  10
ENDBRANCH   8   9
ENDBRANCH   4   8
BRANCH   6  14
HETATM   14  O7  UNL     1       0.101   3.071   2.041  1.00  0.00    -0.357 OA
ATOM     15  H7  UNL     1       0.682   3.821   2.089  1.00  0.00     0.213 HD
ENDBRANCH   6  14
BRANCH   6  16
HETATM   16  C20 UNL     1       1.714   1.965   3.288  1.00  0.00     0.238 C 
HETATM   17  O8  UNL     1       2.563   1.064   3.567  1.00  0.00    -0.644 OA
HETATM   18  O9  UNL     1       1.564   2.965   4.241  1.00  0.00    -0.644 OA
ENDBRANCH   6  16
ENDBRANCH   1   2
BRANCH   1  19
HETATM   19  C10 UNL     1      -2.275  -0.812  -0.059  1.00  0.00     0.267 C 
HETATM   20  O2  UNL     1      -2.295  -1.451  -1.309  1.00  0.00    -0.351 OA
HETATM   21  C11 UNL     1      -3.435  -1.043  -1.999  1.00  0.00     0.180 C 
HETATM   22  C13 UNL     1      -4.700  -1.385  -1.290  1.00  0.00     0.186 C 
HETATM   23  C14 UNL     1      -4.678  -1.168   0.183  1.00  0.00     0.115 C 
HETATM   24  C16 UNL     1      -3.332  -1.499   0.767  1.00  0.00     0.076 C 
HETATM   25  C17 UNL     1      -3.201  -1.067   2.188  1.00  0.00     0.018 C 
BRANCH  21  26
HETATM   26  C12 UNL     1      -3.431  -1.781  -3.339  1.00  0.00     0.198 C 
BRANCH  26  27
HETATM   27  O3  UNL     1      -3.456  -3.171  -3.120  1.00  0.00    -0.398 OA
ATOM     28  H3  UNL     1      -3.454  -3.629  -3.952  1.00  0.00     0.209 HD
ENDBRANCH  26  27
ENDBRANCH  21  26
BRANCH  22  29
HETATM   29  O4  UNL     1      -5.749  -0.682  -1.890  1.00  0.00    -0.390 OA
ATOM     30  H4  UNL     1      -6.556  -0.900  -1.438  1.00  0.00     0.210 HD
ENDBRANCH  22  29
BRANCH  23  31
HETATM   31  O5  UNL     1      -5.630  -2.029   0.762  1.00  0.00    -0.384 OA
ATOM     32  H5  UNL     1      -5.616  -1.891   1.702  1.00  0.00     0.210 HD
ENDBRANCH  23  31
BRANCH  23  33
HETATM   33  C15 UNL     1      -5.069   0.239   0.578  1.00  0.00     0.205 C 
BRANCH  33  34
HETATM   34  O6  UNL     1      -6.334   0.574   0.127  1.00  0.00    -0.398 OA
ATOM     35  H6  UNL     1      -6.580   1.458   0.375  1.00  0.00     0.209 HD
ENDBRANCH  33  34
ENDBRANCH  23  33
ENDBRANCH   1  19
TORSDOF 15
