REMARK  20 active torsions:
REMARK  status: ('A' for Active; 'I' for Inactive)
REMARK    1  A    between atoms: C3_3  and  C4_4 
REMARK    2  A    between atoms: C4_4  and  C5_5 
REMARK    3  A    between atoms: C5_5  and  C6_6 
REMARK    4  A    between atoms: C6_6  and  N1_7 
REMARK    5  A    between atoms: N1_7  and  C7_9 
REMARK    6  A    between atoms: C7_9  and  C8_10 
REMARK    7  A    between atoms: C8_10  and  N2_11 
REMARK    8  A    between atoms: C13_18  and  C14_19 
REMARK    9  A    between atoms: C14_19  and  C15_20 
REMARK   10  A    between atoms: C15_20  and  N4_21 
REMARK   11  A    between atoms: C15_20  and  C22_31 
REMARK   12  A    between atoms: N4_21  and  C16_24 
REMARK   13  A    between atoms: C16_24  and  C17_25 
REMARK   14  A    between atoms: C17_25  and  C18_26 
REMARK   15  A    between atoms: C18_26  and  N5_27 
REMARK   16  A    between atoms: C22_31  and  N7_35 
REMARK   17  A    between atoms: N7_35  and  C23_37 
REMARK   18  A    between atoms: C23_37  and  C24_38 
REMARK   19  A    between atoms: C24_38  and  C25_39 
REMARK   20  A    between atoms: C25_39  and  N8_40 
ROOT
HETATM    1  C15 UNL     1      -2.398  -0.030  -1.127  1.00  0.00     0.257 C 
ENDROOT
BRANCH   1   2
HETATM    2  C14 UNL     1      -1.518  -1.072  -0.584  1.00  0.00     0.098 C 
BRANCH   2   3
HETATM    3  C13 UNL     1      -0.089  -1.071  -0.842  1.00  0.00     0.018 A 
HETATM    4  C2  UNL     1       0.981  -0.624  -0.128  1.00  0.00    -0.032 A 
HETATM    5  C1  UNL     1       1.060  -0.068   1.272  1.00  0.00     0.050 C 
HETATM    6  C3  UNL     1       2.159  -0.817  -0.862  1.00  0.00    -0.035 A 
HETATM    7  C12 UNL     1       1.744  -1.399  -2.043  1.00  0.00     0.095 A 
HETATM    8  N3  UNL     1       0.419  -1.546  -2.027  1.00  0.00    -0.368 N 
ATOM      9  H3  UNL     1      -0.135  -1.951  -2.782  1.00  0.00     0.165 HD
BRANCH   6  10
HETATM   10  C4  UNL     1       3.552  -0.526  -0.522  1.00  0.00     0.042 C 
BRANCH  10  11
HETATM   11  C5  UNL     1       3.842   0.947  -0.663  1.00  0.00     0.024 C 
BRANCH  11  12
HETATM   12  C6  UNL     1       5.329   1.168  -0.299  1.00  0.00     0.114 C 
BRANCH  12  13
HETATM   13  N1  UNL     1       6.080   0.374  -1.226  1.00  0.00    -0.420 N 
ATOM     14  H1  UNL     1       5.633  -0.153  -1.976  1.00  0.00     0.153 HD
BRANCH  13  15
HETATM   15  C7  UNL     1       7.498   0.369  -1.030  1.00  0.00     0.141 C 
BRANCH  15  16
HETATM   16  C8  UNL     1       7.822  -0.364   0.255  1.00  0.00     0.255 C 
BRANCH  16  17
HETATM   17  N2  UNL     1       9.206  -0.450   0.565  1.00  0.00    -0.077 N 
HETATM   18  C9  UNL     1       9.745  -1.787   0.413  1.00  0.00     0.271 C 
HETATM   19  C10 UNL     1       9.384  -0.122   1.983  1.00  0.00     0.271 C 
HETATM   20  C11 UNL     1      10.036   0.501  -0.154  1.00  0.00     0.271 C 
ENDBRANCH  16  17
ENDBRANCH  15  16
ENDBRANCH  13  15
ENDBRANCH  12  13
ENDBRANCH  11  12
ENDBRANCH  10  11
ENDBRANCH   6  10
ENDBRANCH   2   3
ENDBRANCH   1   2
BRANCH   1  21
HETATM   21  N4  UNL     1      -3.791  -0.305  -0.670  1.00  0.00    -0.064 N 
ATOM     22  H42 UNL     1      -3.840  -0.290   0.349  1.00  0.00     0.278 HD
ATOM     23  H41 UNL     1      -4.398   0.486  -0.887  1.00  0.00     0.278 HD
BRANCH  21  24
HETATM   24  C16 UNL     1      -4.345  -1.499  -1.169  1.00  0.00     0.235 C 
BRANCH  24  25
HETATM   25  C17 UNL     1      -5.768  -1.745  -0.708  1.00  0.00     0.055 C 
BRANCH  25  26
HETATM   26  C18 UNL     1      -5.891  -1.849   0.776  1.00  0.00     0.237 C 
BRANCH  26  27
HETATM   27  N5  UNL     1      -7.280  -2.112   1.109  1.00  0.00    -0.079 N 
HETATM   28  C19 UNL     1      -7.621  -3.482   0.681  1.00  0.00     0.271 C 
HETATM   29  C20 UNL     1      -7.371  -2.130   2.557  1.00  0.00     0.271 C 
HETATM   30  C21 UNL     1      -8.197  -1.155   0.561  1.00  0.00     0.271 C 
ENDBRANCH  26  27
ENDBRANCH  25  26
ENDBRANCH  24  25
ENDBRANCH  21  24
ENDBRANCH   1  21
BRANCH   1  31
HETATM   31  C22 UNL     1      -2.200   1.378  -0.931  1.00  0.00     0.102 C 
HETATM   32  N6  UNL     1      -1.292   1.966  -0.306  1.00  0.00    -0.387 N 
ATOM     33  H62 UNL     1      -0.604   1.359   0.139  1.00  0.00     0.157 HD
ATOM     34  H61 UNL     1      -1.151   2.967  -0.167  1.00  0.00     0.157 HD
BRANCH  31  35
HETATM   35  N7  UNL     1      -3.181   2.243  -1.566  1.00  0.00    -0.378 N 
ATOM     36  H7  UNL     1      -3.061   2.471  -2.553  1.00  0.00     0.160 HD
BRANCH  35  37
HETATM   37  C23 UNL     1      -4.311   2.791  -0.869  1.00  0.00     0.122 C 
BRANCH  37  38
HETATM   38  C24 UNL     1      -3.863   3.821   0.131  1.00  0.00     0.047 C 
BRANCH  38  39
HETATM   39  C25 UNL     1      -5.042   4.434   0.867  1.00  0.00     0.231 C 
BRANCH  39  40
HETATM   40  N8  UNL     1      -5.968   5.097  -0.039  1.00  0.00    -0.079 N 
ATOM     41  H83 UNL     1      -5.490   5.791  -0.614  1.00  0.00     0.274 HD
ATOM     42  H82 UNL     1      -6.281   4.465  -0.776  1.00  0.00     0.274 HD
ATOM     43  H81 UNL     1      -6.760   5.509   0.455  1.00  0.00     0.274 HD
ENDBRANCH  39  40
ENDBRANCH  38  39
ENDBRANCH  37  38
ENDBRANCH  35  37
ENDBRANCH  31  35
ENDBRANCH   1  31
TORSDOF 20
