REMARK  6 active torsions:
REMARK  status: ('A' for Active; 'I' for Inactive)
REMARK    1  A    between atoms: C2_2  and  C3_3 
REMARK    2  A    between atoms: C3_3  and  C4_4 
REMARK    3  A    between atoms: C4_4  and  C5_5 
REMARK    4  A    between atoms: C5_5  and  C6_6 
REMARK    5  A    between atoms: C14_15  and  O2_16 
REMARK    6  A    between atoms: C22_27  and  O5_28 
ROOT
HETATM    1  C6  UNL     1       1.916  -0.199  -0.734  1.00  0.00     0.050 C 
HETATM    2  C7  UNL     1       0.900   0.751  -1.424  1.00  0.00     0.045 C 
HETATM    3  C8  UNL     1      -0.361   0.909  -0.644  1.00  0.00     0.161 C 
HETATM    4  O1  UNL     1      -1.447   1.447  -1.367  1.00  0.00    -0.345 OA
HETATM    5  C9  UNL     1      -2.719   1.336  -0.798  1.00  0.00     0.082 A 
HETATM    6  C10 UNL     1      -3.743   2.124  -0.535  1.00  0.00    -0.022 A 
HETATM    7  C11 UNL     1      -3.791   3.603  -0.848  1.00  0.00     0.051 C 
HETATM    8  C12 UNL     1      -4.811   1.368   0.101  1.00  0.00    -0.023 A 
HETATM    9  C13 UNL     1      -6.112   1.992   0.523  1.00  0.00     0.051 C 
HETATM   10  C14 UNL     1      -4.416   0.119   0.214  1.00  0.00     0.078 A 
HETATM   11  C15 UNL     1      -3.101  -0.008  -0.335  1.00  0.00     0.179 A 
HETATM   12  C16 UNL     1      -3.152  -0.981  -1.502  1.00  0.00     0.285 C 
HETATM   13  O3  UNL     1      -3.601  -1.027  -2.664  1.00  0.00    -0.263 OA
HETATM   14  O4  UNL     1      -2.457  -1.843  -0.694  1.00  0.00    -0.304 OA
HETATM   15  C17 UNL     1      -2.044  -0.813   0.233  1.00  0.00     0.128 C 
HETATM   16  C18 UNL     1      -2.167  -1.423   1.596  1.00  0.00     0.043 C 
HETATM   17  C19 UNL     1      -0.991  -2.105   2.126  1.00  0.00     0.003 C 
HETATM   18  C20 UNL     1      -0.051  -2.826   1.232  1.00  0.00     0.006 C 
HETATM   19  C21 UNL     1       1.231  -1.973   1.017  1.00  0.00     0.069 C 
HETATM   20  C22 UNL     1       1.298  -1.455  -0.345  1.00  0.00     0.166 C 
HETATM   21  O6  UNL     1      -0.053  -1.376  -0.775  1.00  0.00    -0.344 OA
HETATM   22  C23 UNL     1      -0.642  -0.382   0.026  1.00  0.00     0.192 C 
ENDROOT
BRANCH   1  23
HETATM   23  C5  UNL     1       2.748   0.597   0.175  1.00  0.00     0.010 C 
BRANCH  23  24
HETATM   24  C4  UNL     1       3.829  -0.134   0.926  1.00  0.00     0.001 C 
BRANCH  24  25
HETATM   25  C3  UNL     1       4.836  -0.796  -0.005  1.00  0.00    -0.000 C 
BRANCH  25  26
HETATM   26  C2  UNL     1       5.520   0.209  -0.883  1.00  0.00    -0.005 C 
HETATM   27  C1  UNL     1       6.275   1.246  -0.081  1.00  0.00     0.005 C 
ENDBRANCH  25  26
ENDBRANCH  24  25
ENDBRANCH  23  24
ENDBRANCH   1  23
BRANCH  20  28
HETATM   28  O5  UNL     1       1.768  -2.536  -1.157  1.00  0.00    -0.365 OA
ATOM     29  H5  UNL     1       1.364  -3.357  -0.903  1.00  0.00     0.213 HD
ENDBRANCH  20  28
BRANCH  10  30
HETATM   30  O2  UNL     1      -5.277  -0.822   0.806  1.00  0.00    -0.363 OA
ATOM     31  H2  UNL     1      -4.992  -1.724   0.888  1.00  0.00     0.217 HD
ENDBRANCH  10  30
TORSDOF 6
