REMARK  6 active torsions:
REMARK  status: ('A' for Active; 'I' for Inactive)
REMARK       I    between atoms: C1_2  and  N1_3 
REMARK    1  A    between atoms: C1_2  and  C12_16 
REMARK    2  A    between atoms: N1_3  and  C2_5 
REMARK    3  A    between atoms: C12_16  and  C13_17 
REMARK    4  A    between atoms: C12_16  and  N2_23 
REMARK    5  A    between atoms: C21_28  and  C22_29 
REMARK    6  A    between atoms: C22_29  and  O2_30 
ROOT
HETATM    1  C12 UNL     1      -1.949   0.391  -0.533  1.00  0.00     0.089 C 
ENDROOT
BRANCH   1   2
HETATM    2  C1  UNL     1      -0.604   0.723  -0.998  1.00  0.00     0.265 C 
HETATM    3  O1  UNL     1      -0.486   1.815  -1.674  1.00  0.00    -0.266 OA
HETATM    4  N1  UNL     1       0.581  -0.051  -0.772  1.00  0.00    -0.350 N 
ATOM      5  H1  UNL     1       0.502  -0.914  -0.234  1.00  0.00     0.163 HD
BRANCH   4   6
HETATM    6  C2  UNL     1       1.887   0.335  -1.272  1.00  0.00     0.096 C 
HETATM    7  C3  UNL     1       2.241  -0.404  -2.548  1.00  0.00     0.026 C 
HETATM    8  C4  UNL     1       2.919  -1.708  -2.370  1.00  0.00     0.002 C 
HETATM    9  C5  UNL     1       4.135  -1.537  -1.517  1.00  0.00     0.001 C 
HETATM   10  C6  UNL     1       3.894  -0.829  -0.232  1.00  0.00     0.014 C 
HETATM   11  C7  UNL     1       2.968   0.335  -0.258  1.00  0.00     0.011 C 
HETATM   12  C8  UNL     1       2.403   0.456   1.160  1.00  0.00     0.014 C 
HETATM   13  C11 UNL     1       3.817   1.615  -0.372  1.00  0.00     0.180 C 
HETATM   14  C9  UNL     1       3.356   1.310   1.924  1.00  0.00     0.004 C 
HETATM   15  C10 UNL     1       4.380   1.845   0.986  1.00  0.00     0.038 C 
HETATM   16  F1  UNL     1       4.758   1.534  -1.351  1.00  0.00    -0.249 F 
ENDBRANCH   4   6
ENDBRANCH   1   2
BRANCH   1  17
HETATM   17  C13 UNL     1      -2.041   0.168   0.988  1.00  0.00     0.042 C 
HETATM   18  C14 UNL     1      -1.599   1.441   1.662  1.00  0.00     0.011 C 
HETATM   19  C15 UNL     1      -2.664   2.458   1.863  1.00  0.00     0.001 C 
HETATM   20  C16 UNL     1      -3.984   1.864   2.292  1.00  0.00     0.000 C 
HETATM   21  C17 UNL     1      -3.767   0.411   2.678  1.00  0.00     0.001 C 
HETATM   22  C18 UNL     1      -3.411  -0.281   1.384  1.00  0.00     0.011 C 
ENDBRANCH   1  17
BRANCH   1  23
HETATM   23  N2  UNL     1      -2.716  -0.529  -1.309  1.00  0.00    -0.306 N 
HETATM   24  C19 UNL     1      -3.684  -0.111  -2.189  1.00  0.00     0.188 A 
HETATM   25  N3  UNL     1      -4.269  -1.145  -2.796  1.00  0.00    -0.360 N 
HETATM   26  C20 UNL     1      -3.705  -2.261  -2.335  1.00  0.00     0.116 A 
ATOM     27  H3  UNL     1      -5.015  -1.091  -3.489  1.00  0.00     0.166 HD
HETATM   28  C21 UNL     1      -2.731  -1.871  -1.403  1.00  0.00     0.056 A 
BRANCH  28  29
HETATM   29  C22 UNL     1      -1.868  -2.796  -0.674  1.00  0.00     0.223 C 
BRANCH  29  30
HETATM   30  O2  UNL     1      -2.217  -4.124  -1.041  1.00  0.00    -0.395 OA
ATOM     31  H2  UNL     1      -1.655  -4.726  -0.567  1.00  0.00     0.209 HD
ENDBRANCH  29  30
ENDBRANCH  28  29
ENDBRANCH   1  23
TORSDOF 6
