REMARK  14 active torsions:
REMARK  status: ('A' for Active; 'I' for Inactive)
REMARK    1  A    between atoms: C3_8  and  N3_9 
REMARK    2  A    between atoms: N7_21  and  C8_22 
REMARK    3  A    between atoms: C8_22  and  C9_23 
REMARK    4  A    between atoms: C8_22  and  C25_45 
REMARK    5  A    between atoms: C13_27  and  C14_28 
REMARK       I    between atoms: C14_28  and  N8_30 
REMARK    6  A    between atoms: N8_30  and  C15_32 
REMARK    7  A    between atoms: C17_34  and  C18_35 
REMARK    8  A    between atoms: C25_45  and  O4_46 
REMARK    9  A    between atoms: C25_45  and  C27_49 
REMARK   10  A    between atoms: C27_49  and  O5_50 
REMARK   11  A    between atoms: C27_49  and  C28_52 
REMARK   12  A    between atoms: C28_52  and  O6_53 
REMARK   13  A    between atoms: C28_52  and  C29_55 
REMARK   14  A    between atoms: C29_55  and  O7_56 
ROOT
HETATM    1  O4  UNL     1       0.252  -2.952  -0.048  1.00  0.00    -0.273 OA
HETATM    2  C26 UNL     1       0.918  -3.925  -0.697  1.00  0.00     0.229 C 
HETATM    3  N11 UNL     1       1.501  -4.743  -1.251  1.00  0.00    -0.164 NA
ENDROOT
BRANCH   1   4
HETATM    4  C25 UNL     1      -1.136  -2.734  -0.130  1.00  0.00     0.202 C 
BRANCH   4   5
HETATM    5  C8  UNL     1      -1.473  -1.326  -0.552  1.00  0.00     0.175 C 
BRANCH   5   6
HETATM    6  N7  UNL     1      -2.909  -1.188  -0.615  1.00  0.00    -0.274 N 
HETATM    7  C7  UNL     1      -3.780  -2.113  -1.219  1.00  0.00     0.203 A 
HETATM    8  N6  UNL     1      -5.070  -1.981  -1.292  1.00  0.00    -0.334 N 
HETATM    9  C5  UNL     1      -5.679  -0.829  -0.729  1.00  0.00     0.169 A 
ATOM     10  H6  UNL     1      -5.638  -2.695  -1.748  1.00  0.00     0.168 HD
HETATM   11  C4  UNL     1      -4.889   0.116  -0.122  1.00  0.00     0.190 A 
HETATM   12  N4  UNL     1      -6.949  -0.399  -0.637  1.00  0.00    -0.172 N 
HETATM   13  N3  UNL     1      -5.682   1.118   0.337  1.00  0.00    -0.107 N 
HETATM   14  N12 UNL     1      -3.484  -0.029  -0.044  1.00  0.00    -0.278 N 
HETATM   15  C6  UNL     1      -6.947   0.794   0.017  1.00  0.00     0.687 A 
HETATM   16  N5  UNL     1      -7.970   1.533   0.306  1.00  0.00    -0.234 N 
ATOM     17  H52 UNL     1      -7.969   2.427   0.796  1.00  0.00     0.174 HD
ATOM     18  H51 UNL     1      -8.930   1.287   0.063  1.00  0.00     0.174 HD
ATOM     19  H12 UNL     1      -2.905   0.678   0.409  1.00  0.00     0.189 HD
ATOM     20  H4  UNL     1      -7.772  -0.883  -0.995  1.00  0.00     0.186 HD
BRANCH  13  21
HETATM   21  C3  UNL     1      -5.216   2.272   1.022  1.00  0.00     0.205 A 
HETATM   22  N2  UNL     1      -5.216   3.495   0.461  1.00  0.00    -0.281 N 
HETATM   23  C2  UNL     1      -4.774   4.573   1.119  1.00  0.00     0.388 A 
ATOM     24  H2  UNL     1      -5.563   3.603  -0.492  1.00  0.00     0.173 HD
HETATM   25  O1  UNL     1      -4.333   4.418   2.337  1.00  0.00    -0.176 OA
HETATM   26  O2  UNL     1      -4.764   5.742   0.611  1.00  0.00    -0.236 OA
HETATM   27  N1  UNL     1      -4.296   3.269   2.959  1.00  0.00    -0.213 N 
HETATM   28  C1  UNL     1      -3.787   3.211   4.310  1.00  0.00     0.190 C 
HETATM   29  C30 UNL     1      -4.738   2.170   2.310  1.00  0.00     0.312 A 
HETATM   30  O8  UNL     1      -4.717   1.059   2.872  1.00  0.00    -0.262 OA
ENDBRANCH  13  21
ENDBRANCH   5   6
BRANCH   5  31
HETATM   31  C9  UNL     1      -0.839  -0.857  -1.777  1.00  0.00    -0.030 A 
HETATM   32  C10 UNL     1      -1.275  -1.142  -3.051  1.00  0.00     0.009 A 
HETATM   33  C11 UNL     1      -0.637  -0.670  -4.186  1.00  0.00     0.002 A 
HETATM   34  C12 UNL     1       0.480   0.118  -4.082  1.00  0.00     0.017 A 
HETATM   35  C13 UNL     1       0.916   0.403  -2.804  1.00  0.00     0.032 A 
HETATM   36  C24 UNL     1       0.306  -0.049  -1.668  1.00  0.00     0.026 A 
BRANCH  35  37
HETATM   37  C14 UNL     1       2.123   1.256  -2.651  1.00  0.00     0.253 C 
HETATM   38  O3  UNL     1       2.012   2.486  -2.780  1.00  0.00    -0.268 OA
HETATM   39  N8  UNL     1       3.369   0.639  -2.363  1.00  0.00    -0.337 N 
ATOM     40  H8  UNL     1       3.436  -0.374  -2.261  1.00  0.00     0.164 HD
BRANCH  39  41
HETATM   41  C15 UNL     1       4.532   1.468  -2.218  1.00  0.00     0.204 C 
HETATM   42  C16 UNL     1       5.279   1.244  -0.929  1.00  0.00     0.103 C 
HETATM   43  C17 UNL     1       6.663   1.602  -1.297  1.00  0.00     0.035 C 
HETATM   44  N9  UNL     1       6.771   1.491  -2.576  1.00  0.00    -0.305 N 
HETATM   45  N10 UNL     1       5.587   1.086  -3.161  1.00  0.00    -0.115 NA
ATOM     46  H9  UNL     1       7.629   1.680  -3.095  1.00  0.00     0.182 HD
BRANCH  43  47
HETATM   47  C18 UNL     1       7.698   2.004  -0.343  1.00  0.00    -0.013 A 
HETATM   48  C19 UNL     1       8.970   2.318  -0.756  1.00  0.00     0.013 A 
HETATM   49  C20 UNL     1       9.947   2.699   0.165  1.00  0.00     0.001 A 
HETATM   50  C21 UNL     1       9.665   2.771   1.514  1.00  0.00     0.000 A 
HETATM   51  C22 UNL     1       8.398   2.458   1.927  1.00  0.00     0.001 A 
HETATM   52  C23 UNL     1       7.423   2.077   1.002  1.00  0.00     0.013 A 
ENDBRANCH  43  47
ENDBRANCH  39  41
ENDBRANCH  35  37
ENDBRANCH   5  31
ENDBRANCH   4   5
BRANCH   4  53
HETATM   53  C27 UNL     1      -1.729  -3.009   1.250  1.00  0.00     0.181 C 
BRANCH  53  54
HETATM   54  O5  UNL     1      -1.176  -2.158   2.214  1.00  0.00    -0.390 OA
ATOM     55  H5  UNL     1      -1.545  -2.329   3.073  1.00  0.00     0.210 HD
ENDBRANCH  53  54
BRANCH  53  56
HETATM   56  C28 UNL     1      -1.500  -4.451   1.572  1.00  0.00     0.173 C 
BRANCH  56  57
HETATM   57  O6  UNL     1      -2.083  -5.212   0.558  1.00  0.00    -0.391 OA
ATOM     58  H6  UNL     1      -1.937  -6.128   0.763  1.00  0.00     0.210 HD
ENDBRANCH  56  57
BRANCH  56  59
HETATM   59  C29 UNL     1      -2.120  -4.841   2.894  1.00  0.00     0.198 C 
BRANCH  59  60
HETATM   60  O7  UNL     1      -1.566  -4.107   3.921  1.00  0.00    -0.398 OA
ATOM     61  H7  UNL     1      -1.956  -4.352   4.752  1.00  0.00     0.209 HD
ENDBRANCH  59  60
ENDBRANCH  56  59
ENDBRANCH  53  56
ENDBRANCH   4  53
ENDBRANCH   1   4
TORSDOF 14
