REMARK  1 active torsions:
REMARK  status: ('A' for Active; 'I' for Inactive)
REMARK    1  A    between atoms: N2_5  and  O2_6 
ROOT
HETATM    1  O1  UNL     1      -2.708   0.572  -0.283  1.00  0.00    -0.244 OA
HETATM    2  C1  UNL     1      -1.497   0.222  -0.083  1.00  0.00     0.357 A 
HETATM    3  N1  UNL     1      -0.434   0.460  -0.866  1.00  0.00    -0.207 N 
ATOM      4  H1  UNL     1      -0.470   0.969  -1.749  1.00  0.00     0.196 HD
HETATM    5  N2  UNL     1       0.664  -0.051  -0.343  1.00  0.00    -0.076 N 
HETATM    6  N3  UNL     1       0.285  -0.620   0.786  1.00  0.00    -0.196 N 
ATOM      7  H3  UNL     1       0.909  -1.108   1.429  1.00  0.00     0.212 HD
HETATM    8  N4  UNL     1      -1.016  -0.469   0.967  1.00  0.00    -0.232 N 
ATOM      9  H4  UNL     1      -1.558  -0.814   1.760  1.00  0.00     0.193 HD
ENDROOT
BRANCH   5  10
HETATM   10  O2  UNL     1       1.938  -0.002  -0.868  1.00  0.00    -0.252 OA
ATOM     11  H2  UNL     1       2.729  -0.370  -0.491  1.00  0.00     0.248 HD
ENDBRANCH   5  10
TORSDOF 1
