REMARK  3 active torsions:
REMARK  status: ('A' for Active; 'I' for Inactive)
REMARK    1  A    between atoms: N1_1  and  C1_4 
REMARK    2  A    between atoms: C2_7  and  N3_8 
REMARK    3  A    between atoms: N4_11  and  C3_12 
ROOT
HETATM    1  C1  UNL     1       1.465  -0.690   0.181  1.00  0.00     0.159 C 
HETATM    2  N2  UNL     1       0.359  -1.400  -0.191  1.00  0.00    -0.173 N 
ATOM      3  H2  UNL     1       0.506  -2.386  -0.407  1.00  0.00     0.186 HD
HETATM    4  C2  UNL     1      -0.922  -0.939  -0.306  1.00  0.00     0.690 C 
HETATM    5  N4  UNL     1      -1.419   0.289  -0.042  1.00  0.00    -0.071 N 
HETATM    6  C4  UNL     1      -0.743   1.364   0.396  1.00  0.00     0.349 C 
HETATM    7  O2  UNL     1      -1.439   2.317   0.864  1.00  0.00    -0.245 OA
HETATM    8  N5  UNL     1       0.593   1.595   0.417  1.00  0.00    -0.291 N 
ATOM      9  H5  UNL     1       0.894   2.537   0.668  1.00  0.00     0.172 HD
HETATM   10  C5  UNL     1       1.580   0.684   0.133  1.00  0.00     0.147 C 
HETATM   11  N6  UNL     1       2.712   1.138  -0.214  1.00  0.00    -0.382 N 
ATOM     12  H61 UNL     1       2.797   2.154  -0.249  1.00  0.00     0.157 HD
ATOM     13  H62 UNL     1       3.445   0.461  -0.425  1.00  0.00     0.157 HD
ENDROOT
BRANCH   1  14
HETATM   14  N1  UNL     1       2.472  -1.355   0.611  1.00  0.00    -0.382 N 
ATOM     15  H12 UNL     1       2.387  -2.371   0.646  1.00  0.00     0.157 HD
ATOM     16  H11 UNL     1       3.298  -0.825   0.889  1.00  0.00     0.157 HD
ENDBRANCH   1  14
BRANCH   4  17
HETATM   17  N3  UNL     1      -1.791  -1.768  -0.721  1.00  0.00    -0.234 N 
ATOM     18  H32 UNL     1      -1.416  -2.695  -0.920  1.00  0.00     0.174 HD
ATOM     19  H31 UNL     1      -2.747  -1.424  -0.807  1.00  0.00     0.174 HD
ENDBRANCH   4  17
BRANCH   5  20
HETATM   20  C3  UNL     1      -2.816   0.454  -0.254  1.00  0.00     0.381 C 
HETATM   21  O1  UNL     1      -3.315   1.584  -0.018  1.00  0.00    -0.282 OA
ENDBRANCH   5  20
TORSDOF 3
