REMARK  6 active torsions:
REMARK  status: ('A' for Active; 'I' for Inactive)
REMARK    1  A    between atoms: C2_2  and  C3_3 
REMARK    2  A    between atoms: C3_3  and  C4_4 
REMARK    3  A    between atoms: C3_3  and  N1_7 
REMARK    4  A    between atoms: C4_4  and  O1_5 
REMARK    5  A    between atoms: C6_12  and  N3_13 
REMARK    6  A    between atoms: N7_28  and  C16_29 
ROOT
HETATM    1  N1  UNL     1      -1.628  -2.001   0.134  1.00  0.00    -0.367 N 
ATOM      2  H1  UNL     1      -0.981  -2.780   0.260  1.00  0.00     0.161 HD
HETATM    3  C5  UNL     1      -1.050  -0.894   0.113  1.00  0.00     0.148 A 
HETATM    4  N2  UNL     1       0.297  -0.875   0.253  1.00  0.00    -0.174 N 
ATOM      5  H2  UNL     1       0.775  -1.769   0.369  1.00  0.00     0.186 HD
HETATM    6  C6  UNL     1       1.046   0.236   0.250  1.00  0.00     0.683 A 
HETATM    7  N5  UNL     1       0.402   1.399   0.096  1.00  0.00    -0.174 N 
ATOM      8  H5  UNL     1       0.938   2.267   0.088  1.00  0.00     0.186 HD
HETATM    9  C12 UNL     1      -0.937   1.453  -0.049  1.00  0.00     0.155 A 
HETATM   10  C13 UNL     1      -1.697   0.304  -0.044  1.00  0.00     0.123 A 
HETATM   11  N6  UNL     1      -2.974   0.689  -0.208  1.00  0.00    -0.340 N 
ATOM     12  H6  UNL     1      -3.771   0.054  -0.246  1.00  0.00     0.167 HD
HETATM   13  C14 UNL     1      -3.055   2.021  -0.315  1.00  0.00     0.081 A 
HETATM   14  C15 UNL     1      -4.324   2.800  -0.507  1.00  0.00     0.089 C 
HETATM   15  N7  UNL     1      -1.805   2.488  -0.218  1.00  0.00    -0.321 N 
ENDROOT
BRANCH   1  16
HETATM   16  C3  UNL     1      -2.964  -2.419   0.024  1.00  0.00     0.106 C 
BRANCH  16  17
HETATM   17  C2  UNL     1      -3.111  -3.787  -0.635  1.00  0.00     0.023 C 
HETATM   18  C1  UNL     1      -2.474  -4.884   0.149  1.00  0.00     0.007 C 
ENDBRANCH  16  17
BRANCH  16  19
HETATM   19  C4  UNL     1      -3.621  -2.463   1.390  1.00  0.00     0.189 C 
BRANCH  19  20
HETATM   20  O1  UNL     1      -2.954  -3.353   2.231  1.00  0.00    -0.399 OA
ATOM     21  H1  UNL     1      -3.366  -3.381   3.087  1.00  0.00     0.209 HD
ENDBRANCH  19  20
ENDBRANCH  16  19
ENDBRANCH   1  16
BRANCH   6  22
HETATM   22  N3  UNL     1       2.476   0.183   0.405  1.00  0.00    -0.214 N 
HETATM   23  C7  UNL     1       3.235   1.381   0.395  1.00  0.00     0.171 C 
HETATM   24  C8  UNL     1       4.699   1.236   0.268  1.00  0.00     0.292 C 
HETATM   25  N4  UNL     1       5.201  -0.104   0.352  1.00  0.00     0.087 N 
HETATM   26  C9  UNL     1       6.550  -0.214  -0.110  1.00  0.00     0.310 C 
HETATM   27  C10 UNL     1       4.357  -1.088  -0.276  1.00  0.00     0.292 C 
HETATM   28  C11 UNL     1       3.075  -1.122   0.567  1.00  0.00     0.171 C 
ENDBRANCH   6  22
BRANCH  15  29
HETATM   29  C16 UNL     1      -1.407   3.866  -0.278  1.00  0.00     0.127 C 
HETATM   30  C17 UNL     1      -1.098   4.335  -1.667  1.00  0.00     0.027 C 
ENDBRANCH  15  29
TORSDOF 6
