REMARK  5 active torsions:
REMARK  status: ('A' for Active; 'I' for Inactive)
REMARK    1  A    between atoms: N1_2  and  N2_3 
REMARK    2  A    between atoms: N2_3  and  C2_4 
REMARK    3  A    between atoms: C5_8  and  N3_9 
REMARK    4  A    between atoms: N3_9  and  C6_11 
REMARK    5  A    between atoms: C8_19  and  N7_20 
ROOT
HETATM    1  C6  UNL     1       1.229  -0.373  -0.553  1.00  0.00     0.682 A 
HETATM    2  N4  UNL     1       1.800  -0.325   0.674  1.00  0.00    -0.172 N 
ATOM      3  H4  UNL     1       1.285  -0.228   1.549  1.00  0.00     0.186 HD
HETATM    4  C7  UNL     1       3.136  -0.423   0.584  1.00  0.00     0.181 A 
HETATM    5  N5  UNL     1       4.173  -0.433   1.438  1.00  0.00    -0.268 N 
ATOM      6  H5  UNL     1       3.989  -0.349   2.438  1.00  0.00     0.189 HD
HETATM    7  N6  UNL     1       5.428  -0.548   1.025  1.00  0.00    -0.131 N 
ATOM      8  H6  UNL     1       6.188  -0.552   1.705  1.00  0.00     0.205 HD
HETATM    9  C8  UNL     1       5.703  -0.659  -0.283  1.00  0.00     0.692 A 
HETATM   10  N8  UNL     1       4.702  -0.655  -1.195  1.00  0.00    -0.171 N 
ATOM     11  H8  UNL     1       4.938  -0.741  -2.184  1.00  0.00     0.186 HD
HETATM   12  C9  UNL     1       3.404  -0.542  -0.844  1.00  0.00     0.182 A 
HETATM   13  N9  UNL     1       2.216  -0.505  -1.472  1.00  0.00    -0.172 N 
ATOM     14  H9  UNL     1       2.079  -0.567  -2.481  1.00  0.00     0.186 HD
ENDROOT
BRANCH   1  15
HETATM   15  N3  UNL     1      -0.169  -0.293  -0.775  1.00  0.00    -0.217 N 
ATOM     16  H3  UNL     1      -0.533  -0.335  -1.727  1.00  0.00     0.178 HD
BRANCH  15  17
HETATM   17  C5  UNL     1      -1.067  -0.155   0.317  1.00  0.00     0.146 C 
HETATM   18  C2  UNL     1      -2.519  -0.086  -0.108  1.00  0.00     0.144 C 
HETATM   19  C3  UNL     1      -3.202  -0.569   1.151  1.00  0.00     0.192 C 
HETATM   20  O1  UNL     1      -2.349  -1.413   1.806  1.00  0.00    -0.387 OA
HETATM   21  C4  UNL     1      -1.120  -1.396   1.203  1.00  0.00     0.195 C 
BRANCH  18  22
HETATM   22  N2  UNL     1      -2.926   1.262  -0.453  1.00  0.00    -0.140 NA
BRANCH  22  23
HETATM   23  N1  UNL     1      -4.320   1.226  -0.649  1.00  0.00    -0.153 NA
HETATM   24  C1  UNL     1      -4.840   2.580  -0.857  1.00  0.00     0.154 C 
ENDBRANCH  22  23
ENDBRANCH  18  22
ENDBRANCH  15  17
ENDBRANCH   1  15
BRANCH   9  25
HETATM   25  N7  UNL     1       6.926  -0.768  -0.651  1.00  0.00    -0.233 N 
ATOM     26  H72 UNL     1       7.680  -0.771   0.036  1.00  0.00     0.174 HD
ATOM     27  H71 UNL     1       7.135  -0.852  -1.646  1.00  0.00     0.174 HD
ENDBRANCH   9  25
TORSDOF 5
