REMARK  6 active torsions:
REMARK  status: ('A' for Active; 'I' for Inactive)
REMARK    1  A    between atoms: N1_2  and  N2_3 
REMARK       I    between atoms: N2_3  and  C2_5 
REMARK    2  A    between atoms: C2_5  and  C3_7 
REMARK    3  A    between atoms: N3_11  and  S1_12 
REMARK    4  A    between atoms: S1_12  and  N4_15 
REMARK    5  A    between atoms: N4_15  and  C6_17 
REMARK    6  A    between atoms: C6_17  and  C7_18 
ROOT
HETATM    1  C3  UNL     1       2.690  -0.382   0.770  1.00  0.00     0.237 C 
HETATM    2  O2  UNL     1       2.390   0.164   1.984  1.00  0.00    -0.373 OA
HETATM    3  C4  UNL     1       1.899   1.428   1.883  1.00  0.00     0.189 C 
HETATM    4  C5  UNL     1       0.826   1.508   0.819  1.00  0.00     0.163 C 
HETATM    5  N3  UNL     1       0.443   0.239   0.291  1.00  0.00    -0.285 N 
HETATM    6  C11 UNL     1       1.530  -0.494  -0.192  1.00  0.00     0.131 C 
HETATM    7  C12 UNL     1       1.250  -1.969  -0.412  1.00  0.00     0.036 C 
ENDROOT
BRANCH   5   8
HETATM    8  S1  UNL     1      -0.804  -0.504   1.119  1.00  0.00     0.317 S 
HETATM    9  O3  UNL     1      -0.431  -0.557   2.598  1.00  0.00    -0.183 OA
HETATM   10  O4  UNL     1      -1.153  -1.885   0.735  1.00  0.00    -0.183 OA
BRANCH   8  11
HETATM   11  N4  UNL     1      -2.282   0.440   1.080  1.00  0.00    -0.300 N 
ATOM     12  H4  UNL     1      -2.614   1.100   1.783  1.00  0.00     0.173 HD
BRANCH  11  13
HETATM   13  C6  UNL     1      -2.935   0.079  -0.174  1.00  0.00     0.165 C 
BRANCH  13  14
HETATM   14  C7  UNL     1      -4.233   0.791  -0.396  1.00  0.00     0.140 C 
HETATM   15  C8  UNL     1      -5.281   0.441   0.619  1.00  0.00     0.035 C 
HETATM   16  C9  UNL     1      -6.079  -0.662   0.008  1.00  0.00     0.029 C 
HETATM   17  C10 UNL     1      -5.597  -0.675  -1.415  1.00  0.00     0.168 C 
HETATM   18  O5  UNL     1      -4.756   0.394  -1.603  1.00  0.00    -0.384 OA
ENDBRANCH  13  14
ENDBRANCH  11  13
ENDBRANCH   8  11
ENDBRANCH   5   8
BRANCH   1  19
HETATM   19  C2  UNL     1       3.891   0.206   0.124  1.00  0.00     0.264 C 
HETATM   20  N2  UNL     1       4.360  -0.186  -1.156  1.00  0.00    -0.272 N 
ATOM     21  H2  UNL     1       3.849  -0.909  -1.662  1.00  0.00     0.185 HD
HETATM   22  O1  UNL     1       4.536   1.094   0.727  1.00  0.00    -0.269 OA
BRANCH  20  23
HETATM   23  N1  UNL     1       5.481   0.370  -1.749  1.00  0.00    -0.143 NA
HETATM   24  C1  UNL     1       6.692   0.143  -1.026  1.00  0.00     0.159 C 
ENDBRANCH  20  23
ENDBRANCH   1  19
TORSDOF 6
