REMARK  11 active torsions:
REMARK  status: ('A' for Active; 'I' for Inactive)
REMARK    1  A    between atoms: N1_1  and  C1_5 
REMARK    2  A    between atoms: C3_7  and  C4_8 
REMARK    3  A    between atoms: C4_8  and  S1_9 
REMARK    4  A    between atoms: S1_9  and  N2_10 
REMARK    5  A    between atoms: C5_15  and  C6_16 
REMARK    6  A    between atoms: C7_17  and  C8_18 
REMARK    7  A    between atoms: C8_18  and  S2_19 
REMARK    8  A    between atoms: S2_19  and  C9_21 
REMARK    9  A    between atoms: C9_21  and  C10_22 
REMARK   10  A    between atoms: C11_23  and  C12_24 
REMARK   11  A    between atoms: C12_24  and  O4_25 
ROOT
HETATM    1  C1  UNL     1      -1.256  -1.221   1.301  1.00  0.00     0.319 C 
HETATM    2  C2  UNL     1      -2.511  -0.390   1.113  1.00  0.00     0.069 C 
HETATM    3  C3  UNL     1      -2.240   0.303  -0.177  1.00  0.00     0.038 C 
HETATM    4  C5  UNL     1      -1.166  -0.572  -0.786  1.00  0.00     0.152 C 
HETATM    5  O5  UNL     1      -0.370  -0.877   0.291  1.00  0.00    -0.349 OA
ENDROOT
BRANCH   4   6
HETATM    6  C6  UNL     1      -0.460   0.038  -1.913  1.00  0.00     0.002 C 
HETATM    7  C7  UNL     1       0.435   0.998  -1.819  1.00  0.00    -0.016 C 
BRANCH   7   8
HETATM    8  C8  UNL     1       0.926   1.666  -0.617  1.00  0.00     0.136 C 
BRANCH   8   9
HETATM    9  S2  UNL     1       2.695   1.484  -0.422  1.00  0.00     0.029 S 
HETATM   10  O3  UNL     1       3.507   2.147  -1.734  1.00  0.00    -0.257 OA
BRANCH   9  11
HETATM   11  C9  UNL     1       3.159  -0.213  -0.180  1.00  0.00     0.202 C 
BRANCH  11  12
HETATM   12  C10 UNL     1       4.606  -0.332  -0.024  1.00  0.00    -0.092 C 
HETATM   13  C11 UNL     1       5.801  -0.437   0.092  1.00  0.00    -0.080 C 
BRANCH  13  14
HETATM   14  C12 UNL     1       7.270  -0.576   0.243  1.00  0.00     0.257 C 
BRANCH  14  15
HETATM   15  O4  UNL     1       7.521  -1.638   1.078  1.00  0.00    -0.389 OA
ATOM     16  H4  UNL     1       8.462  -1.727   1.175  1.00  0.00     0.210 HD
ENDBRANCH  14  15
ENDBRANCH  13  14
ENDBRANCH  11  12
ENDBRANCH   9  11
ENDBRANCH   8   9
ENDBRANCH   7   8
ENDBRANCH   4   6
BRANCH   3  17
HETATM   17  C4  UNL     1      -3.386   0.389  -1.123  1.00  0.00     0.170 C 
BRANCH  17  18
HETATM   18  S1  UNL     1      -4.785   1.254  -0.496  1.00  0.00     0.224 S 
HETATM   19  O1  UNL     1      -4.369   2.661  -0.165  1.00  0.00    -0.206 OA
HETATM   20  O2  UNL     1      -5.901   1.297  -1.502  1.00  0.00    -0.206 OA
BRANCH  18  21
HETATM   21  N2  UNL     1      -5.424   0.517   0.927  1.00  0.00    -0.328 N 
ATOM     22  H22 UNL     1      -5.025  -0.324   1.345  1.00  0.00     0.168 HD
ATOM     23  H21 UNL     1      -6.235   1.018   1.290  1.00  0.00     0.168 HD
ENDBRANCH  18  21
ENDBRANCH  17  18
ENDBRANCH   3  17
BRANCH   1  24
HETATM   24  N1  UNL     1      -1.602  -2.607   1.112  1.00  0.00    -0.053 N 
ATOM     25  H13 UNL     1      -2.367  -2.907   1.716  1.00  0.00     0.277 HD
ATOM     26  H12 UNL     1      -2.058  -2.780   0.216  1.00  0.00     0.277 HD
ATOM     27  H11 UNL     1      -0.758  -3.166   1.238  1.00  0.00     0.277 HD
ENDBRANCH   1  24
TORSDOF 11
