REMARK  12 active torsions:
REMARK  status: ('A' for Active; 'I' for Inactive)
REMARK    1  A    between atoms: C1_2  and  C2_3 
REMARK       I    between atoms: C1_2  and  N2_15 
REMARK    2  A    between atoms: C2_3  and  C3_4 
REMARK    3  A    between atoms: C3_4  and  C4_5 
REMARK       I    between atoms: C4_5  and  N1_7 
REMARK    4  A    between atoms: N1_7  and  C5_9 
REMARK    5  A    between atoms: N2_15  and  C11_17 
REMARK    6  A    between atoms: C12_22  and  C13_23 
REMARK    7  A    between atoms: C13_23  and  C14_24 
REMARK    8  A    between atoms: C14_24  and  S1_25 
REMARK    9  A    between atoms: S1_25  and  C15_26 
REMARK   10  A    between atoms: C15_26  and  C16_27 
REMARK   11  A    between atoms: C16_27  and  C17_28 
REMARK       I    between atoms: N7_34  and  C19_36 
REMARK   12  A    between atoms: C19_36  and  C20_38 
ROOT
HETATM    1  C11 UNL     1      -1.383   0.752  -0.317  1.00  0.00     0.167 A 
HETATM    2  N3  UNL     1      -1.263  -0.557  -0.544  1.00  0.00    -0.279 N 
ATOM      3  H3  UNL     1      -2.077  -1.113  -0.806  1.00  0.00     0.189 HD
HETATM    4  N4  UNL     1      -0.123  -1.100  -0.429  1.00  0.00    -0.296 N 
ATOM      5  H4  UNL     1      -0.019  -2.100  -0.599  1.00  0.00     0.187 HD
HETATM    6  C12 UNL     1       0.933  -0.378  -0.090  1.00  0.00     0.070 A 
HETATM    7  S3  UNL     1       0.239   1.176   0.074  1.00  0.00    -0.038 SA
ENDROOT
BRANCH   6   8
HETATM    8  C13 UNL     1       2.342  -0.863   0.087  1.00  0.00     0.076 C 
BRANCH   8   9
HETATM    9  C14 UNL     1       2.551  -1.283   1.526  1.00  0.00     0.080 C 
BRANCH   9  10
HETATM   10  S1  UNL     1       4.250  -1.869   1.767  1.00  0.00    -0.168 SA
BRANCH  10  11
HETATM   11  C15 UNL     1       4.551  -3.402   0.845  1.00  0.00     0.080 C 
BRANCH  11  12
HETATM   12  C16 UNL     1       6.017  -3.773   1.113  1.00  0.00     0.076 C 
BRANCH  12  13
HETATM   13  C17 UNL     1       6.818  -2.604   0.594  1.00  0.00     0.070 A 
HETATM   14  N5  UNL     1       7.187  -1.526   1.267  1.00  0.00    -0.296 N 
HETATM   15  N6  UNL     1       7.862  -0.616   0.694  1.00  0.00    -0.279 N 
ATOM     16  H5  UNL     1       6.928  -1.426   2.249  1.00  0.00     0.187 HD
HETATM   17  C18 UNL     1       8.189  -0.770  -0.592  1.00  0.00     0.167 A 
ATOM     18  H6  UNL     1       8.149   0.218   1.206  1.00  0.00     0.189 HD
HETATM   19  N7  UNL     1       8.872   0.043  -1.359  1.00  0.00    -0.306 N 
HETATM   20  S2  UNL     1       7.481  -2.285  -0.947  1.00  0.00    -0.038 SA
HETATM   21  C19 UNL     1       9.381   1.271  -0.882  1.00  0.00     0.227 C 
ATOM     22  H7  UNL     1       9.041  -0.219  -2.330  1.00  0.00     0.171 HD
HETATM   23  O3  UNL     1       8.665   2.126  -0.301  1.00  0.00    -0.273 OA
BRANCH  21  24
HETATM   24  C20 UNL     1      10.834   1.532  -1.091  1.00  0.00     0.078 C 
HETATM   25  C21 UNL     1      11.758   0.516  -0.455  1.00  0.00     0.014 C 
HETATM   26  C22 UNL     1      11.795   1.383   0.783  1.00  0.00     0.002 C 
HETATM   27  C23 UNL     1      11.365   2.550  -0.086  1.00  0.00     0.014 C 
ENDBRANCH  21  24
ENDBRANCH  12  13
ENDBRANCH  11  12
ENDBRANCH  10  11
ENDBRANCH   9  10
ENDBRANCH   8   9
ENDBRANCH   6   8
BRANCH   1  28
HETATM   28  N2  UNL     1      -2.447   1.513  -0.377  1.00  0.00    -0.306 N 
HETATM   29  C1  UNL     1      -3.665   0.889  -0.731  1.00  0.00     0.224 C 
HETATM   30  O1  UNL     1      -4.131   0.021   0.056  1.00  0.00    -0.273 OA
ATOM     31  H2  UNL     1      -2.399   2.512  -0.177  1.00  0.00     0.171 HD
BRANCH  29  32
HETATM   32  C2  UNL     1      -4.406   1.207  -1.969  1.00  0.00     0.112 C 
BRANCH  32  33
HETATM   33  C3  UNL     1      -5.732   0.545  -2.097  1.00  0.00     0.112 C 
BRANCH  33  34
HETATM   34  C4  UNL     1      -6.669   0.927  -1.020  1.00  0.00     0.218 C 
HETATM   35  O2  UNL     1      -6.373   1.757  -0.134  1.00  0.00    -0.274 OA
HETATM   36  N1  UNL     1      -7.958   0.334  -0.983  1.00  0.00    -0.356 N 
ATOM     37  H1  UNL     1      -8.216  -0.345  -1.699  1.00  0.00     0.162 HD
BRANCH  36  38
HETATM   38  C5  UNL     1      -8.920   0.675   0.057  1.00  0.00     0.084 C 
HETATM   39  C6  UNL     1     -10.103   1.286  -0.630  1.00  0.00     0.025 C 
HETATM   40  C7  UNL     1     -11.180   1.745   0.306  1.00  0.00     0.002 C 
HETATM   41  C8  UNL     1     -11.362   0.705   1.381  1.00  0.00     0.000 C 
HETATM   42  C9  UNL     1     -10.824  -0.610   0.868  1.00  0.00     0.002 C 
HETATM   43  C10 UNL     1      -9.317  -0.552   0.819  1.00  0.00     0.025 C 
ENDBRANCH  36  38
ENDBRANCH  33  34
ENDBRANCH  32  33
ENDBRANCH  29  32
ENDBRANCH   1  28
TORSDOF 12
