REMARK  13 active torsions:
REMARK  status: ('A' for Active; 'I' for Inactive)
REMARK    1  A    between atoms: C2_2  and  C3_3 
REMARK    2  A    between atoms: C4_4  and  C5_5 
REMARK    3  A    between atoms: C5_5  and  C6_6 
REMARK       I    between atoms: C6_6  and  N1_8 
REMARK    4  A    between atoms: N1_8  and  C7_10 
REMARK    5  A    between atoms: C7_10  and  C8_11 
REMARK    6  A    between atoms: C7_10  and  C10_13 
REMARK       I    between atoms: C10_13  and  N2_15 
REMARK    7  A    between atoms: N2_15  and  C11_17 
REMARK    8  A    between atoms: C11_17  and  C12_18 
REMARK    9  A    between atoms: C12_18  and  O3_21 
REMARK   10  A    between atoms: N4_27  and  C17_28 
REMARK   11  A    between atoms: N5_33  and  C21_34 
REMARK   12  A    between atoms: C21_34  and  C22_35 
REMARK   13  A    between atoms: C26_39  and  O5_40 
ROOT
HETATM    1  C3  UNL     1      -0.945  -0.061  -0.054  1.00  0.00     0.027 A 
HETATM    2  C4  UNL     1      -0.412  -1.219   0.532  1.00  0.00    -0.012 A 
HETATM    3  C15 UNL     1      -1.074  -1.808   1.605  1.00  0.00     0.023 A 
HETATM    4  C16 UNL     1      -0.801  -2.924   2.365  1.00  0.00     0.121 A 
HETATM    5  N3  UNL     1      -1.779  -3.024   3.271  1.00  0.00    -0.308 N 
ATOM      6  H3  UNL     1      -1.850  -3.756   3.978  1.00  0.00     0.186 HD
HETATM    7  N4  UNL     1      -2.654  -2.019   3.112  1.00  0.00    -0.287 N 
HETATM    8  C19 UNL     1      -2.225  -1.259   2.080  1.00  0.00     0.131 A 
HETATM    9  C20 UNL     1      -2.679  -0.130   1.456  1.00  0.00     0.281 A 
HETATM   10  O4  UNL     1      -3.720   0.364   1.890  1.00  0.00    -0.265 OA
HETATM   11  N5  UNL     1      -2.078   0.495   0.396  1.00  0.00    -0.290 N 
ENDROOT
BRANCH   2  12
HETATM   12  C5  UNL     1       0.885  -1.835   0.155  1.00  0.00     0.144 C 
BRANCH  12  13
HETATM   13  C6  UNL     1       2.051  -1.202   0.817  1.00  0.00     0.222 C 
HETATM   14  O1  UNL     1       1.870  -0.284   1.630  1.00  0.00    -0.273 OA
HETATM   15  N1  UNL     1       3.357  -1.644   0.524  1.00  0.00    -0.348 N 
ATOM     16  H1  UNL     1       3.498  -2.404  -0.142  1.00  0.00     0.163 HD
BRANCH  15  17
HETATM   17  C7  UNL     1       4.499  -1.027   1.162  1.00  0.00     0.176 C 
BRANCH  17  18
HETATM   18  C8  UNL     1       5.093  -2.063   2.096  1.00  0.00     0.030 C 
HETATM   19  C9  UNL     1       5.498  -3.249   1.290  1.00  0.00     0.007 C 
ENDBRANCH  17  18
BRANCH  17  20
HETATM   20  C10 UNL     1       5.508  -0.574   0.160  1.00  0.00     0.244 C 
HETATM   21  O2  UNL     1       5.234  -0.822  -1.021  1.00  0.00    -0.271 OA
HETATM   22  N2  UNL     1       6.692   0.087   0.510  1.00  0.00    -0.336 N 
ATOM     23  H2  UNL     1       6.806   0.230   1.513  1.00  0.00     0.168 HD
BRANCH  22  24
HETATM   24  C11 UNL     1       7.754   0.591  -0.265  1.00  0.00     0.100 C 
BRANCH  24  25
HETATM   25  C12 UNL     1       7.567   1.670  -1.243  1.00  0.00     0.082 C 
HETATM   26  C13 UNL     1       7.137   2.987  -0.634  1.00  0.00     0.051 C 
HETATM   27  C14 UNL     1       6.788   1.355  -2.495  1.00  0.00     0.051 C 
BRANCH  25  28
HETATM   28  O3  UNL     1       8.898   1.915  -1.754  1.00  0.00    -0.385 OA
ATOM     29  H3  UNL     1       8.777   2.613  -2.387  1.00  0.00     0.211 HD
ENDBRANCH  25  28
ENDBRANCH  24  25
ENDBRANCH  22  24
ENDBRANCH  17  20
ENDBRANCH  15  17
ENDBRANCH  12  13
ENDBRANCH   2  12
BRANCH   1  30
HETATM   30  C2  UNL     1      -0.152   0.584  -1.089  1.00  0.00     0.054 C 
HETATM   31  C1  UNL     1      -0.140  -0.175  -2.385  1.00  0.00     0.011 C 
ENDBRANCH   1  30
BRANCH  11  32
HETATM   32  C21 UNL     1      -2.743   1.601  -0.183  1.00  0.00     0.112 C 
BRANCH  32  33
HETATM   33  C22 UNL     1      -4.122   1.569  -0.656  1.00  0.00    -0.013 A 
HETATM   34  C23 UNL     1      -5.091   2.313   0.073  1.00  0.00     0.023 A 
HETATM   35  C24 UNL     1      -6.391   2.406  -0.282  1.00  0.00    -0.028 A 
HETATM   36  C25 UNL     1      -7.397   3.188   0.493  1.00  0.00     0.051 C 
HETATM   37  C26 UNL     1      -6.811   1.745  -1.415  1.00  0.00     0.074 A 
HETATM   38  C28 UNL     1      -5.888   1.016  -2.139  1.00  0.00     0.044 A 
HETATM   39  C29 UNL     1      -4.537   0.926  -1.760  1.00  0.00    -0.048 A 
HETATM   40  C30 UNL     1      -3.722   0.102  -2.659  1.00  0.00     0.049 C 
BRANCH  37  41
HETATM   41  O5  UNL     1      -8.141   1.822  -1.809  1.00  0.00    -0.355 OA
HETATM   42  C27 UNL     1      -8.538   1.136  -2.971  1.00  0.00     0.210 C 
ENDBRANCH  37  41
ENDBRANCH  32  33
ENDBRANCH  11  32
BRANCH   7  43
HETATM   43  C17 UNL     1      -3.844  -1.783   3.898  1.00  0.00     0.145 C 
HETATM   44  C18 UNL     1      -5.007  -2.520   3.225  1.00  0.00     0.028 C 
ENDBRANCH   7  43
TORSDOF 13
