REMARK  11 active torsions:
REMARK  status: ('A' for Active; 'I' for Inactive)
REMARK    1  A    between atoms: N1_9  and  C8_10 
REMARK    2  A    between atoms: C8_10  and  C9_11 
REMARK    3  A    between atoms: C9_11  and  C10_12 
REMARK    4  A    between atoms: C10_12  and  C11_13 
REMARK       I    between atoms: C11_13  and  N2_15 
REMARK    5  A    between atoms: N2_15  and  C12_17 
REMARK    6  A    between atoms: C12_17  and  C13_18 
REMARK    7  A    between atoms: C13_18  and  C14_19 
REMARK    8  A    between atoms: C14_19  and  C15_20 
REMARK    9  A    between atoms: C15_20  and  C16_21 
REMARK   10  A    between atoms: C16_21  and  C17_22 
REMARK       I    between atoms: C17_22  and  N3_24 
REMARK   11  A    between atoms: N3_24  and  C18_26 
ROOT
HETATM    1  C11 UNL     1      -0.639  -2.961   0.201  1.00  0.00     0.217 C 
HETATM    2  O2  UNL     1      -0.573  -3.470  -0.943  1.00  0.00    -0.274 OA
HETATM    3  N2  UNL     1       0.508  -2.573   0.884  1.00  0.00    -0.361 N 
ATOM      4  H2  UNL     1       0.391  -2.179   1.818  1.00  0.00     0.162 HD
ENDROOT
BRANCH   3   5
HETATM    5  C12 UNL     1       1.850  -2.686   0.371  1.00  0.00     0.122 C 
BRANCH   5   6
HETATM    6  C13 UNL     1       2.049  -1.810  -0.875  1.00  0.00     0.020 C 
BRANCH   6   7
HETATM    7  C14 UNL     1       1.773  -0.398  -0.393  1.00  0.00     0.002 C 
BRANCH   7   8
HETATM    8  C15 UNL     1       1.900   0.651  -1.435  1.00  0.00     0.009 C 
BRANCH   8   9
HETATM    9  C16 UNL     1       3.215   0.776  -2.108  1.00  0.00     0.103 C 
BRANCH   9  10
HETATM   10  C17 UNL     1       4.327   1.127  -1.167  1.00  0.00     0.222 C 
HETATM   11  O3  UNL     1       3.991   1.353   0.007  1.00  0.00    -0.273 OA
HETATM   12  N3  UNL     1       5.656   1.193  -1.587  1.00  0.00    -0.327 N 
ATOM     13  H3  UNL     1       5.808   0.994  -2.576  1.00  0.00     0.169 HD
BRANCH  12  14
HETATM   14  C18 UNL     1       6.818   1.493  -0.851  1.00  0.00     0.035 A 
HETATM   15  C19 UNL     1       6.856   1.644   0.502  1.00  0.00     0.030 A 
HETATM   16  C20 UNL     1       8.028   1.933   1.185  1.00  0.00     0.020 A 
HETATM   17  C21 UNL     1       9.220   2.084   0.513  1.00  0.00     0.048 A 
HETATM   18  C22 UNL     1       9.208   1.941  -0.839  1.00  0.00     0.050 A 
HETATM   19  C25 UNL     1      10.557   2.388   0.995  1.00  0.00     0.259 A 
HETATM   20  C23 UNL     1       8.040   1.652  -1.520  1.00  0.00     0.047 A 
HETATM   21  C24 UNL     1      10.574   2.154  -1.277  1.00  0.00     0.259 A 
HETATM   22  O4  UNL     1      10.981   2.106  -2.462  1.00  0.00    -0.267 OA
HETATM   23  N4  UNL     1      11.392   2.425  -0.165  1.00  0.00    -0.289 N 
ATOM     24  H4  UNL     1      12.394   2.613  -0.183  1.00  0.00     0.172 HD
HETATM   25  O5  UNL     1      10.912   2.580   2.188  1.00  0.00    -0.267 OA
ENDBRANCH  12  14
ENDBRANCH   9  10
ENDBRANCH   8   9
ENDBRANCH   7   8
ENDBRANCH   6   7
ENDBRANCH   5   6
ENDBRANCH   3   5
BRANCH   1  26
HETATM   26  C10 UNL     1      -2.000  -2.794   0.788  1.00  0.00     0.104 C 
BRANCH  26  27
HETATM   27  C9  UNL     1      -2.999  -3.636   0.030  1.00  0.00     0.029 C 
BRANCH  27  28
HETATM   28  C8  UNL     1      -4.393  -3.537   0.514  1.00  0.00     0.137 C 
BRANCH  28  29
HETATM   29  N1  UNL     1      -4.996  -2.225   0.440  1.00  0.00    -0.265 N 
HETATM   30  C7  UNL     1      -5.015  -1.306   1.412  1.00  0.00     0.264 A 
HETATM   31  C6  UNL     1      -5.603  -0.064   1.264  1.00  0.00     0.065 A 
HETATM   32  O1  UNL     1      -4.478  -1.597   2.492  1.00  0.00    -0.267 OA
HETATM   33  C4  UNL     1      -5.589   0.850   2.324  1.00  0.00    -0.043 A 
HETATM   34  C28 UNL     1      -6.193   0.245   0.071  1.00  0.00     0.055 A 
HETATM   35  C3  UNL     1      -6.220   2.072   2.048  1.00  0.00     0.014 A 
HETATM   36  C5  UNL     1      -4.970   0.563   3.617  1.00  0.00     0.049 C 
HETATM   37  C2  UNL     1      -6.807   2.392   0.874  1.00  0.00    -0.059 A 
HETATM   38  C1  UNL     1      -7.448   3.742   0.692  1.00  0.00     0.048 C 
HETATM   39  C29 UNL     1      -6.802   1.469  -0.147  1.00  0.00     0.037 A 
HETATM   40  N5  UNL     1      -6.177  -0.683  -0.917  1.00  0.00    -0.303 N 
HETATM   41  C26 UNL     1      -5.600  -1.877  -0.741  1.00  0.00     0.331 A 
HETATM   42  C27 UNL     1      -6.814  -0.302  -2.174  1.00  0.00     0.161 C 
HETATM   43  O6  UNL     1      -5.609  -2.714  -1.700  1.00  0.00    -0.246 OA
ENDBRANCH  28  29
ENDBRANCH  27  28
ENDBRANCH  26  27
ENDBRANCH   1  26
TORSDOF 11
