REMARK  13 active torsions:
REMARK  status: ('A' for Active; 'I' for Inactive)
REMARK       I    between atoms: C2_2  and  N1_4 
REMARK    1  A    between atoms: N1_4  and  C3_6 
REMARK    2  A    between atoms: C3_6  and  C4_7 
REMARK    3  A    between atoms: C3_6  and  C14_30 
REMARK    4  A    between atoms: C7_10  and  N2_11 
REMARK    5  A    between atoms: N2_11  and  C8_13 
REMARK    6  A    between atoms: C8_13  and  C9_14 
REMARK    7  A    between atoms: C8_13  and  C11_18 
REMARK    8  A    between atoms: C9_14  and  C10_15 
REMARK    9  A    between atoms: C11_18  and  N3_19 
REMARK   10  A    between atoms: C11_18  and  N4_23 
REMARK   11  A    between atoms: N4_23  and  N5_25 
REMARK   12  A    between atoms: C14_30  and  N6_31 
REMARK   13  A    between atoms: C14_30  and  O4_35 
ROOT
HETATM    1  C4  UNL     1       2.132   0.006  -0.580  1.00  0.00    -0.031 A 
HETATM    2  C5  UNL     1       1.365  -0.090   0.560  1.00  0.00     0.011 A 
HETATM    3  C6  UNL     1      -0.024   0.097   0.547  1.00  0.00     0.030 A 
HETATM    4  C7  UNL     1      -0.681   0.386  -0.627  1.00  0.00     0.028 A 
HETATM    5  C12 UNL     1       0.100   0.480  -1.768  1.00  0.00     0.030 A 
HETATM    6  C13 UNL     1       1.468   0.297  -1.755  1.00  0.00     0.011 A 
ENDROOT
BRANCH   4   7
HETATM    7  N2  UNL     1      -2.098   0.570  -0.696  1.00  0.00    -0.381 N 
ATOM      8  H2  UNL     1      -2.490   0.953  -1.556  1.00  0.00     0.160 HD
BRANCH   7   9
HETATM    9  C8  UNL     1      -3.012   0.245   0.385  1.00  0.00     0.143 C 
BRANCH   9  10
HETATM   10  C9  UNL     1      -3.134  -1.202   0.627  1.00  0.00     0.142 C 
BRANCH  10  11
HETATM   11  C10 UNL     1      -4.027  -1.555   1.728  1.00  0.00     0.174 C 
HETATM   12  O2  UNL     1      -4.559  -0.710   2.457  1.00  0.00    -0.648 OA
HETATM   13  O3  UNL     1      -4.308  -2.894   1.990  1.00  0.00    -0.648 OA
ENDBRANCH  10  11
ENDBRANCH   9  10
BRANCH   9  14
HETATM   14  C11 UNL     1      -4.265   1.026   0.130  1.00  0.00     0.319 C 
BRANCH  14  15
HETATM   15  N3  UNL     1      -3.891   2.467   0.137  1.00  0.00    -0.055 N 
ATOM     16  H33 UNL     1      -3.409   2.751   0.990  1.00  0.00     0.276 HD
ATOM     17  H32 UNL     1      -3.141   2.689  -0.517  1.00  0.00     0.276 HD
ATOM     18  H31 UNL     1      -4.744   2.999  -0.037  1.00  0.00     0.276 HD
ENDBRANCH  14  15
BRANCH  14  19
HETATM   19  N4  UNL     1      -4.796   0.789  -1.165  1.00  0.00    -0.311 N 
ATOM     20  H4  UNL     1      -4.837   1.536  -1.859  1.00  0.00     0.182 HD
BRANCH  19  21
HETATM   21  N5  UNL     1      -5.249  -0.459  -1.457  1.00  0.00    -0.347 N 
ATOM     22  H52 UNL     1      -5.201  -1.195  -0.752  1.00  0.00     0.176 HD
ATOM     23  H51 UNL     1      -5.631  -0.629  -2.387  1.00  0.00     0.176 HD
ENDBRANCH  19  21
ENDBRANCH  14  19
ENDBRANCH   9  14
ENDBRANCH   7   9
ENDBRANCH   4   7
BRANCH   1  24
HETATM   24  C3  UNL     1       3.598  -0.202  -0.504  1.00  0.00     0.173 C 
BRANCH  24  25
HETATM   25  N1  UNL     1       4.190   0.485   0.626  1.00  0.00    -0.348 N 
HETATM   26  C2  UNL     1       5.163   1.493   0.517  1.00  0.00     0.214 C 
HETATM   27  C1  UNL     1       5.738   2.164   1.698  1.00  0.00     0.117 C 
HETATM   28  O1  UNL     1       5.567   1.843  -0.613  1.00  0.00    -0.274 OA
ATOM     29  H1  UNL     1       3.880   0.220   1.561  1.00  0.00     0.163 HD
ENDBRANCH  24  25
BRANCH  24  30
HETATM   30  C14 UNL     1       3.965  -1.684  -0.512  1.00  0.00     0.343 C 
BRANCH  30  31
HETATM   31  N6  UNL     1       3.527  -2.356   0.670  1.00  0.00    -0.051 N 
ATOM     32  H63 UNL     1       3.878  -1.894   1.509  1.00  0.00     0.277 HD
ATOM     33  H62 UNL     1       2.527  -2.225   0.819  1.00  0.00     0.277 HD
ATOM     34  H61 UNL     1       3.772  -3.346   0.665  1.00  0.00     0.277 HD
ENDBRANCH  30  31
BRANCH  30  35
HETATM   35  O4  UNL     1       3.326  -2.219  -1.653  1.00  0.00    -0.368 OA
ATOM     36  H4  UNL     1       3.554  -3.141  -1.658  1.00  0.00     0.212 HD
ENDBRANCH  30  35
ENDBRANCH  24  30
ENDBRANCH   1  24
TORSDOF 13
