REMARK  11 active torsions:
REMARK  status: ('A' for Active; 'I' for Inactive)
REMARK       I    between atoms: C1_4  and  N3_6 
REMARK    1  A    between atoms: N3_6  and  C2_8 
REMARK    2  A    between atoms: C2_8  and  C3_9 
REMARK    3  A    between atoms: C2_8  and  C5_17 
REMARK    4  A    between atoms: C3_9  and  N4_10 
REMARK    5  A    between atoms: C3_9  and  C4_14 
REMARK    6  A    between atoms: C5_17  and  O3_18 
REMARK    7  A    between atoms: C5_17  and  C6_20 
REMARK    8  A    between atoms: N5_24  and  C10_25 
REMARK    9  A    between atoms: C10_25  and  C11_26 
REMARK   10  A    between atoms: C11_26  and  N6_27 
REMARK   11  A    between atoms: C11_26  and  C12_31 
ROOT
HETATM    1  C5  UNL     1      -0.826   0.654   0.964  1.00  0.00     0.189 C 
ENDROOT
BRANCH   1   2
HETATM    2  C2  UNL     1      -1.349  -0.756   0.774  1.00  0.00     0.061 C 
BRANCH   2   3
HETATM    3  N3  UNL     1      -1.425  -1.220  -0.564  1.00  0.00    -0.333 N 
HETATM    4  C1  UNL     1      -2.425  -0.867  -1.529  1.00  0.00     0.186 C 
HETATM    5  N1  UNL     1      -2.549   0.360  -1.859  1.00  0.00    -0.374 N 
HETATM    6  N2  UNL     1      -3.281  -1.822  -2.137  1.00  0.00    -0.064 NA
ATOM      7  H12 UNL     1      -3.260   0.611  -2.545  1.00  0.00     0.158 HD
ATOM      8  H11 UNL     1      -1.934   1.046  -1.422  1.00  0.00     0.158 HD
ATOM      9  H3  UNL     1      -0.698  -1.867  -0.869  1.00  0.00     0.168 HD
ENDBRANCH   2   3
BRANCH   2  10
HETATM   10  C3  UNL     1      -2.540  -1.043   1.647  1.00  0.00     0.331 C 
BRANCH  10  11
HETATM   11  N4  UNL     1      -2.748  -2.458   1.722  1.00  0.00    -0.060 N 
ATOM     12  H43 UNL     1      -2.835  -2.884   0.799  1.00  0.00     0.275 HD
ATOM     13  H42 UNL     1      -1.913  -2.954   2.034  1.00  0.00     0.275 HD
ATOM     14  H41 UNL     1      -3.556  -2.653   2.314  1.00  0.00     0.275 HD
ENDBRANCH  10  11
BRANCH  10  15
HETATM   15  C4  UNL     1      -3.752  -0.293   1.381  1.00  0.00     0.210 C 
HETATM   16  O1  UNL     1      -4.823  -0.967   1.181  1.00  0.00    -0.646 OA
HETATM   17  O2  UNL     1      -3.895   1.069   1.317  1.00  0.00    -0.646 OA
ENDBRANCH  10  15
ENDBRANCH   2  10
ENDBRANCH   1   2
BRANCH   1  18
HETATM   18  O3  UNL     1      -0.891   0.915   2.381  1.00  0.00    -0.388 OA
ATOM     19  H3  UNL     1      -0.563   1.799   2.500  1.00  0.00     0.210 HD
ENDBRANCH   1  18
BRANCH   1  20
HETATM   20  C6  UNL     1       0.659   0.758   0.698  1.00  0.00     0.118 C 
HETATM   21  C7  UNL     1       1.139   2.145   1.061  1.00  0.00     0.030 C 
HETATM   22  C8  UNL     1       1.051   2.888  -0.249  1.00  0.00     0.022 C 
HETATM   23  C9  UNL     1       1.008   1.818  -1.323  1.00  0.00     0.122 C 
HETATM   24  N5  UNL     1       0.973   0.563  -0.667  1.00  0.00    -0.383 N 
BRANCH  24  25
HETATM   25  C10 UNL     1       1.963  -0.392  -0.955  1.00  0.00     0.102 C 
BRANCH  25  26
HETATM   26  C11 UNL     1       3.362  -0.117  -0.526  1.00  0.00     0.321 C 
BRANCH  26  27
HETATM   27  N6  UNL     1       3.944   1.081  -1.097  1.00  0.00    -0.061 N 
ATOM     28  H63 UNL     1       3.884   1.054  -2.115  1.00  0.00     0.275 HD
ATOM     29  H62 UNL     1       3.350   1.888  -0.908  1.00  0.00     0.275 HD
ATOM     30  H61 UNL     1       4.902   1.269  -0.803  1.00  0.00     0.275 HD
ENDBRANCH  26  27
BRANCH  26  31
HETATM   31  C12 UNL     1       4.248  -1.256  -0.871  1.00  0.00     0.209 C 
HETATM   32  O4  UNL     1       5.281  -1.049  -1.544  1.00  0.00    -0.646 OA
HETATM   33  O5  UNL     1       3.970  -2.550  -0.472  1.00  0.00    -0.646 OA
ENDBRANCH  26  31
ENDBRANCH  25  26
ENDBRANCH  24  25
ENDBRANCH   1  20
TORSDOF 11
