REMARK  15 active torsions:
REMARK  status: ('A' for Active; 'I' for Inactive)
REMARK    1  A    between atoms: C2_2  and  C3_3 
REMARK    2  A    between atoms: C3_3  and  C4_4 
REMARK    3  A    between atoms: C4_4  and  C5_5 
REMARK    4  A    between atoms: C5_5  and  C6_6 
REMARK    5  A    between atoms: C6_6  and  C7_7 
REMARK    6  A    between atoms: C7_7  and  C8_8 
REMARK    7  A    between atoms: C8_8  and  C9_9 
REMARK    8  A    between atoms: N3_22  and  C15_23 
REMARK    9  A    between atoms: C15_23  and  C16_24 
REMARK   10  A    between atoms: C16_24  and  C17_25 
REMARK   11  A    between atoms: C17_25  and  C18_26 
REMARK   12  A    between atoms: C18_26  and  C19_27 
REMARK   13  A    between atoms: C19_27  and  C20_28 
REMARK   14  A    between atoms: C23_31  and  S1_32 
REMARK   15  A    between atoms: S1_32  and  N4_33 
ROOT
HETATM    1  C1  UNL     1      -1.668  -1.691  -1.633  1.00  0.00     0.046 C 
HETATM    2  C2  UNL     1      -2.030  -0.482  -0.852  1.00  0.00    -0.054 C 
HETATM    3  C10 UNL     1      -1.428  -0.050   0.242  1.00  0.00     0.069 A 
HETATM    4  C11 UNL     1      -1.876   1.173   0.971  1.00  0.00     0.096 A 
HETATM    5  N1  UNL     1      -2.752   2.179   1.052  1.00  0.00    -0.294 N 
ATOM      6  H1  UNL     1      -3.516   2.327   0.392  1.00  0.00     0.187 HD
HETATM    7  N2  UNL     1      -2.506   2.970   2.105  1.00  0.00    -0.265 N 
ATOM      8  H2  UNL     1      -3.030   3.800   2.381  1.00  0.00     0.190 HD
HETATM    9  C12 UNL     1      -1.446   2.460   2.718  1.00  0.00     0.278 A 
HETATM   10  O1  UNL     1      -0.909   2.918   3.746  1.00  0.00    -0.266 OA
HETATM   11  C13 UNL     1      -1.022   1.326   2.033  1.00  0.00     0.132 A 
HETATM   12  C14 UNL     1      -0.039   0.253   2.024  1.00  0.00     0.266 A 
HETATM   13  O2  UNL     1       0.866   0.138   2.885  1.00  0.00    -0.267 OA
HETATM   14  N3  UNL     1      -0.283  -0.609   0.908  1.00  0.00    -0.311 N 
ENDROOT
BRANCH  14  15
HETATM   15  C15 UNL     1       0.487  -1.781   0.554  1.00  0.00     0.133 C 
BRANCH  15  16
HETATM   16  C16 UNL     1       1.664  -1.536  -0.340  1.00  0.00     0.020 C 
BRANCH  16  17
HETATM   17  C17 UNL     1       2.801  -0.748   0.209  1.00  0.00     0.002 C 
BRANCH  17  18
HETATM   18  C18 UNL     1       3.539  -1.411   1.342  1.00  0.00     0.005 C 
BRANCH  18  19
HETATM   19  C19 UNL     1       4.670  -0.547   1.855  1.00  0.00     0.038 C 
BRANCH  19  20
HETATM   20  C20 UNL     1       5.688  -0.237   0.828  1.00  0.00    -0.058 A 
HETATM   21  C21 UNL     1       5.631   0.875   0.017  1.00  0.00     0.009 A 
HETATM   22  C22 UNL     1       6.591   1.151  -0.939  1.00  0.00     0.026 A 
HETATM   23  C23 UNL     1       7.654   0.280  -1.091  1.00  0.00     0.079 A 
HETATM   24  C24 UNL     1       7.737  -0.828  -0.303  1.00  0.00     0.026 A 
HETATM   25  C25 UNL     1       6.772  -1.089   0.645  1.00  0.00     0.009 A 
BRANCH  23  26
HETATM   26  S1  UNL     1       8.849   0.668  -2.315  1.00  0.00     0.256 S 
HETATM   27  O3  UNL     1       8.155   1.376  -3.429  1.00  0.00    -0.201 OA
HETATM   28  O4  UNL     1       9.511  -0.577  -2.832  1.00  0.00    -0.201 OA
BRANCH  26  29
HETATM   29  N4  UNL     1      10.060   1.638  -1.562  1.00  0.00    -0.324 N 
ATOM     30  H42 UNL     1      10.066   1.925  -0.583  1.00  0.00     0.169 HD
ATOM     31  H41 UNL     1      10.755   1.864  -2.274  1.00  0.00     0.169 HD
ENDBRANCH  26  29
ENDBRANCH  23  26
ENDBRANCH  19  20
ENDBRANCH  18  19
ENDBRANCH  17  18
ENDBRANCH  16  17
ENDBRANCH  15  16
ENDBRANCH  14  15
BRANCH   2  32
HETATM   32  C3  UNL     1      -3.151   0.303  -1.477  1.00  0.00     0.036 C 
BRANCH  32  33
HETATM   33  C4  UNL     1      -4.471  -0.370  -1.410  1.00  0.00     0.004 C 
BRANCH  33  34
HETATM   34  C5  UNL     1      -4.976  -0.677  -0.028  1.00  0.00     0.000 C 
BRANCH  34  35
HETATM   35  C6  UNL     1      -6.316  -1.355  -0.117  1.00  0.00     0.000 C 
BRANCH  35  36
HETATM   36  C7  UNL     1      -7.352  -0.528  -0.800  1.00  0.00     0.001 C 
BRANCH  36  37
HETATM   37  C8  UNL     1      -7.613   0.792  -0.101  1.00  0.00     0.011 C 
BRANCH  37  38
HETATM   38  C9  UNL     1      -8.681   1.509  -0.904  1.00  0.00     0.085 C 
HETATM   39 BR1  UNL     1      -9.074   3.203  -0.084  1.00  0.00    -0.097 Br
ENDBRANCH  37  38
ENDBRANCH  36  37
ENDBRANCH  35  36
ENDBRANCH  34  35
ENDBRANCH  33  34
ENDBRANCH  32  33
ENDBRANCH   2  32
TORSDOF 15
