REMARK  18 active torsions:
REMARK  status: ('A' for Active; 'I' for Inactive)
REMARK    1  A    between atoms: N1_2  and  N2_5 
REMARK    2  A    between atoms: N2_5  and  C4_6 
REMARK    3  A    between atoms: N2_5  and  C11_17 
REMARK    4  A    between atoms: N2_5  and  C20_34 
REMARK    5  A    between atoms: C4_6  and  C5_7 
REMARK    6  A    between atoms: C5_7  and  C6_8 
REMARK    7  A    between atoms: C6_8  and  C7_9 
REMARK    8  A    between atoms: C7_9  and  C8_10 
REMARK    9  A    between atoms: C8_10  and  C9_11 
REMARK   10  A    between atoms: C9_11  and  C10_12 
REMARK   11  A    between atoms: C10_12  and  O1_13 
REMARK   12  A    between atoms: O1_13  and  N3_14 
REMARK   13  A    between atoms: C11_17  and  C12_18 
REMARK   14  A    between atoms: C12_18  and  C13_19 
REMARK   15  A    between atoms: C13_19  and  N4_20 
REMARK   16  A    between atoms: N4_20  and  C14_22 
REMARK   17  A    between atoms: C14_22  and  N5_24 
REMARK   18  A    between atoms: N5_24  and  C15_26 
ROOT
HETATM    1  N2  UNL     1       0.078  -1.551  -0.157  1.00  0.00     0.133 N 
ENDROOT
BRANCH   1   2
HETATM    2  N1  UNL     1       0.687  -2.158  -1.258  1.00  0.00     0.082 N 
HETATM    3  C1  UNL     1      -0.162  -2.856  -2.178  1.00  0.00     0.309 C 
HETATM    4  C2  UNL     1       1.445  -1.245  -2.088  1.00  0.00     0.309 C 
HETATM    5  C3  UNL     1       1.653  -3.172  -0.811  1.00  0.00     0.309 C 
ENDBRANCH   1   2
BRANCH   1   6
HETATM    6  C4  UNL     1      -1.227  -0.967  -0.528  1.00  0.00     0.281 C 
BRANCH   6   7
HETATM    7  C5  UNL     1      -2.408  -1.766  -0.194  1.00  0.00     0.031 C 
BRANCH   7   8
HETATM    8  C6  UNL     1      -3.641  -1.013  -0.649  1.00  0.00     0.002 C 
BRANCH   8   9
HETATM    9  C7  UNL     1      -3.841   0.319  -0.035  1.00  0.00     0.000 C 
BRANCH   9  10
HETATM   10  C8  UNL     1      -5.143   0.897  -0.615  1.00  0.00     0.002 C 
BRANCH  10  11
HETATM   11  C9  UNL     1      -5.417   2.260  -0.029  1.00  0.00     0.029 C 
BRANCH  11  12
HETATM   12  C10 UNL     1      -6.706   2.771  -0.634  1.00  0.00     0.208 C 
BRANCH  12  13
HETATM   13  O1  UNL     1      -6.985   4.053  -0.098  1.00  0.00    -0.221 OA
BRANCH  13  14
HETATM   14  N3  UNL     1      -8.101   4.761  -0.472  1.00  0.00     0.004 N 
HETATM   15  O2  UNL     1      -9.049   4.116  -0.952  1.00  0.00    -0.511 OA
HETATM   16  O3  UNL     1      -8.212   6.119  -0.341  1.00  0.00    -0.511 OA
ENDBRANCH  13  14
ENDBRANCH  12  13
ENDBRANCH  11  12
ENDBRANCH  10  11
ENDBRANCH   9  10
ENDBRANCH   8   9
ENDBRANCH   7   8
ENDBRANCH   6   7
ENDBRANCH   1   6
BRANCH   1  17
HETATM   17  C11 UNL     1       0.784  -0.392   0.338  1.00  0.00     0.282 C 
BRANCH  17  18
HETATM   18  C12 UNL     1       2.172  -0.393   0.707  1.00  0.00     0.050 C 
BRANCH  18  19
HETATM   19  C13 UNL     1       2.485   1.048   1.185  1.00  0.00     0.123 C 
BRANCH  19  20
HETATM   20  N4  UNL     1       2.280   2.042   0.203  1.00  0.00    -0.367 N 
ATOM     21  H4  UNL     1       1.491   2.679   0.312  1.00  0.00     0.161 HD
BRANCH  20  22
HETATM   22  C14 UNL     1       3.112   2.193  -0.915  1.00  0.00     0.173 C 
HETATM   23  S1  UNL     1       2.799   3.348  -2.012  1.00  0.00    -0.041 SA
BRANCH  22  24
HETATM   24  N5  UNL     1       4.229   1.349  -1.109  1.00  0.00    -0.320 N 
ATOM     25  H5  UNL     1       4.078   0.398  -1.446  1.00  0.00     0.169 HD
BRANCH  24  26
HETATM   26  C15 UNL     1       5.442   1.747  -0.871  1.00  0.00     0.107 A 
HETATM   27  C16 UNL     1       5.719   3.017  -0.416  1.00  0.00     0.050 A 
HETATM   28  C17 UNL     1       7.004   3.435  -0.164  1.00  0.00     0.024 A 
HETATM   29  C18 UNL     1       8.003   2.508  -0.394  1.00  0.00     0.026 A 
HETATM   30 BR1  UNL     1       9.840   2.969  -0.079  1.00  0.00    -0.050 Br
HETATM   31  C19 UNL     1       7.723   1.247  -0.847  1.00  0.00     0.108 A 
HETATM   32  N6  UNL     1       6.433   0.870  -1.085  1.00  0.00    -0.351 N 
ATOM     33  H6  UNL     1       6.225  -0.070  -1.422  1.00  0.00     0.166 HD
ENDBRANCH  24  26
ENDBRANCH  22  24
ENDBRANCH  20  22
ENDBRANCH  19  20
ENDBRANCH  18  19
ENDBRANCH  17  18
ENDBRANCH   1  17
BRANCH   1  34
HETATM   34  C20 UNL     1      -0.112  -2.434   0.965  1.00  0.00     0.239 A 
HETATM   35  C21 UNL     1      -0.579  -3.746   0.955  1.00  0.00     0.060 A 
HETATM   36  C22 UNL     1      -0.626  -4.260   2.230  1.00  0.00     0.021 A 
HETATM   37  C23 UNL     1      -0.190  -3.265   3.038  1.00  0.00     0.090 A 
HETATM   38  N7  UNL     1       0.105  -2.206   2.272  1.00  0.00    -0.344 N 
ATOM     39  H7  UNL     1       0.456  -1.322   2.641  1.00  0.00     0.166 HD
ENDBRANCH   1  34
TORSDOF 18
