REMARK  4 active torsions:
REMARK  status: ('A' for Active; 'I' for Inactive)
REMARK    1  A    between atoms: N1_1  and  S1_4 
REMARK    2  A    between atoms: S1_4  and  C1_5 
REMARK    3  A    between atoms: C1_5  and  N2_7 
REMARK    4  A    between atoms: N2_7  and  C2_9 
ROOT
HETATM    1  N2  UNL     1       1.112   0.855  -0.141  1.00  0.00    -0.370 N 
ATOM      2  H2  UNL     1       1.098   1.723  -0.677  1.00  0.00     0.161 HD
ENDROOT
BRANCH   1   3
HETATM    3  C1  UNL     1       2.358   0.189   0.067  1.00  0.00     0.154 C 
HETATM    4  S2  UNL     1       2.379  -1.186   0.923  1.00  0.00    -0.051 SA
BRANCH   3   5
HETATM    5  S1  UNL     1       3.831   0.898  -0.617  1.00  0.00     0.008 SA
BRANCH   5   6
HETATM    6  N1  UNL     1       5.230  -0.087  -0.236  1.00  0.00    -0.368 N 
ATOM      7  H12 UNL     1       5.186  -0.949   0.307  1.00  0.00     0.164 HD
ATOM      8  H11 UNL     1       6.078   0.321  -0.630  1.00  0.00     0.164 HD
ENDBRANCH   5   6
ENDBRANCH   3   5
ENDBRANCH   1   3
BRANCH   1   9
HETATM    9  C2  UNL     1      -0.135   0.335   0.387  1.00  0.00     0.083 C 
HETATM   10  C3  UNL     1      -1.235   1.275   0.026  1.00  0.00     0.025 C 
HETATM   11  C4  UNL     1      -2.602   0.761   0.405  1.00  0.00     0.002 C 
HETATM   12  C5  UNL     1      -2.803  -0.676   0.000  1.00  0.00     0.000 C 
HETATM   13  C6  UNL     1      -1.678  -1.186  -0.873  1.00  0.00     0.002 C 
HETATM   14  C7  UNL     1      -0.330  -1.046  -0.196  1.00  0.00     0.025 C 
ENDBRANCH   1   9
TORSDOF 4
