REMARK  2 active torsions:
REMARK  status: ('A' for Active; 'I' for Inactive)
REMARK       I    between atoms: N1_2  and  C2_4 
REMARK       I    between atoms: C2_4  and  N3_8 
REMARK    1  A    between atoms: N4_10  and  N5_12 
REMARK    2  A    between atoms: N5_12  and  O1_14 
ROOT
HETATM    1  C1  UNL     1      -3.015  -0.709  -0.508  1.00  0.00     0.165 C 
HETATM    2  N1  UNL     1      -1.762  -0.438   0.165  1.00  0.00    -0.230 N 
ATOM      3  H1  UNL     1      -1.505  -1.039   0.948  1.00  0.00     0.177 HD
HETATM    4  C2  UNL     1      -0.874   0.596  -0.186  1.00  0.00     0.687 C 
HETATM    5  N2  UNL     1      -1.295   1.795  -0.288  1.00  0.00    -0.234 N 
ATOM      6  H21 UNL     1      -0.651   2.544  -0.542  1.00  0.00     0.174 HD
ATOM      7  H22 UNL     1      -2.276   2.016  -0.117  1.00  0.00     0.174 HD
HETATM    8  N3  UNL     1       0.479   0.291  -0.422  1.00  0.00    -0.117 N 
ATOM      9  H3  UNL     1       0.938   0.550  -1.295  1.00  0.00     0.207 HD
HETATM   10  N4  UNL     1       1.109  -0.324   0.504  1.00  0.00    -0.207 N 
ATOM     11  H4  UNL     1       0.643  -0.580   1.375  1.00  0.00     0.211 HD
ENDROOT
BRANCH  10  12
HETATM   12  N5  UNL     1       2.440  -0.633   0.292  1.00  0.00    -0.191 N 
HETATM   13  C3  UNL     1       3.328   0.384  -0.192  1.00  0.00     0.209 C 
BRANCH  12  14
HETATM   14  O1  UNL     1       2.859  -1.768   0.516  1.00  0.00    -0.272 OA
ATOM     15  H1  UNL     1       3.773  -1.980   0.370  1.00  0.00     0.246 HD
ENDBRANCH  12  14
ENDBRANCH  10  12
TORSDOF 2
