REMARK  4 active torsions:
REMARK  status: ('A' for Active; 'I' for Inactive)
REMARK    1  A    between atoms: O1_2  and  C2_3 
REMARK    2  A    between atoms: C2_3  and  C3_5 
REMARK    3  A    between atoms: C4_8  and  C5_9 
REMARK    4  A    between atoms: C7_15  and  N4_16 
ROOT
HETATM    1  C3  UNL     1       1.594   0.153  -0.893  1.00  0.00     0.198 A 
HETATM    2  N1  UNL     1       0.413   0.044  -0.281  1.00  0.00    -0.321 N 
ATOM      3  H1  UNL     1       0.393  -0.130   0.724  1.00  0.00     0.169 HD
HETATM    4  C4  UNL     1      -0.745   0.155  -0.941  1.00  0.00     0.151 A 
HETATM    5  N6  UNL     1      -0.676   0.388  -2.292  1.00  0.00    -0.174 N 
ATOM      6  H6  UNL     1      -1.540   0.478  -2.826  1.00  0.00     0.186 HD
HETATM    7  C9  UNL     1       0.498   0.500  -2.925  1.00  0.00     0.679 A 
HETATM    8  N7  UNL     1       0.560   0.723  -4.215  1.00  0.00    -0.234 N 
ATOM      9  H71 UNL     1       1.455   0.808  -4.697  1.00  0.00     0.174 HD
ATOM     10  H72 UNL     1      -0.301   0.813  -4.754  1.00  0.00     0.174 HD
HETATM   11  N8  UNL     1       1.633   0.381  -2.215  1.00  0.00    -0.171 N 
ATOM     12  H8  UNL     1       2.534   0.465  -2.686  1.00  0.00     0.186 HD
ENDROOT
BRANCH   4  13
HETATM   13  C5  UNL     1      -2.072   0.052  -0.361  1.00  0.00     0.112 A 
HETATM   14  C6  UNL     1      -3.157   0.193  -1.233  1.00  0.00     0.141 A 
HETATM   15  N2  UNL     1      -4.387   0.099  -0.714  1.00  0.00    -0.295 N 
HETATM   16  N3  UNL     1      -4.591  -0.117   0.556  1.00  0.00    -0.133 N 
ATOM     17  H2  UNL     1      -5.192   0.200  -1.332  1.00  0.00     0.186 HD
HETATM   18  C7  UNL     1      -3.569  -0.264   1.459  1.00  0.00     0.693 A 
ATOM     19  H3  UNL     1      -5.552  -0.179   0.892  1.00  0.00     0.205 HD
HETATM   20  N5  UNL     1      -2.316  -0.169   0.942  1.00  0.00    -0.182 N 
HETATM   21  C8  UNL     1      -1.197  -0.316   1.864  1.00  0.00     0.176 C 
BRANCH  18  22
HETATM   22  N4  UNL     1      -3.859  -0.473   2.683  1.00  0.00    -0.233 N 
ATOM     23  H42 UNL     1      -4.800  -0.544   3.071  1.00  0.00     0.174 HD
ATOM     24  H41 UNL     1      -3.099  -0.582   3.354  1.00  0.00     0.174 HD
ENDBRANCH  18  22
ENDBRANCH   4  13
BRANCH   1  25
HETATM   25  C2  UNL     1       2.864   0.035  -0.190  1.00  0.00     0.327 C 
HETATM   26  O2  UNL     1       3.952   0.143  -0.802  1.00  0.00    -0.256 OA
BRANCH  25  27
HETATM   27  O1  UNL     1       2.843  -0.201   1.176  1.00  0.00    -0.320 OA
HETATM   28  C1  UNL     1       4.056  -0.328   1.930  1.00  0.00     0.213 C 
ENDBRANCH  25  27
ENDBRANCH   1  25
TORSDOF 4
