REMARK  5 active torsions:
REMARK  status: ('A' for Active; 'I' for Inactive)
REMARK       I    between atoms: N1_1  and  C1_5 
REMARK       I    between atoms: C1_5  and  N2_6 
REMARK       I    between atoms: C1_5  and  N3_10 
REMARK    1  A    between atoms: N3_10  and  N4_11 
REMARK    2  A    between atoms: N4_11  and  N5_12 
REMARK    3  A    between atoms: N4_11  and  C2_15 
REMARK    4  A    between atoms: N6_16  and  C3_18 
REMARK    5  A    between atoms: C3_18  and  C4_19 
ROOT
HETATM    1  N4  UNL     1      -0.919   0.091  -0.020  1.00  0.00    -0.200 N 
ENDROOT
BRANCH   1   2
HETATM    2  N3  UNL     1      -1.855   0.577   0.930  1.00  0.00    -0.057 NA
HETATM    3  C1  UNL     1      -3.155  -0.004   0.564  1.00  0.00     0.492 C 
HETATM    4  N1  UNL     1      -4.107   0.502   1.545  1.00  0.00    -0.034 N 
HETATM    5  N2  UNL     1      -3.527   0.489  -0.727  1.00  0.00    -0.034 N 
ATOM      6  H13 UNL     1      -4.189   1.518   1.523  1.00  0.00     0.278 HD
ATOM      7  H12 UNL     1      -5.073   0.279   1.304  1.00  0.00     0.278 HD
ATOM      8  H11 UNL     1      -3.842   0.151   2.465  1.00  0.00     0.278 HD
ATOM      9  H23 UNL     1      -4.493   0.266  -0.968  1.00  0.00     0.278 HD
ATOM     10  H22 UNL     1      -3.609   1.505  -0.749  1.00  0.00     0.278 HD
ATOM     11  H21 UNL     1      -2.861   0.135  -1.413  1.00  0.00     0.278 HD
ENDBRANCH   1   2
BRANCH   1  12
HETATM   12  N5  UNL     1      -0.883  -1.274  -0.214  1.00  0.00    -0.326 N 
ATOM     13  H52 UNL     1      -1.475  -1.947   0.273  1.00  0.00     0.178 HD
ATOM     14  H51 UNL     1      -0.210  -1.623  -0.897  1.00  0.00     0.178 HD
ENDBRANCH   1  12
BRANCH   1  15
HETATM   15  C2  UNL     1      -0.094   1.029  -0.698  1.00  0.00     0.218 C 
HETATM   16  N6  UNL     1       1.184   0.897  -0.821  1.00  0.00    -0.379 N 
ATOM     17  H6  UNL     1       1.736   1.597  -1.317  1.00  0.00     0.160 HD
BRANCH  16  18
HETATM   18  C3  UNL     1       1.810  -0.256  -0.244  1.00  0.00     0.159 C 
BRANCH  18  19
HETATM   19  C4  UNL     1       3.303  -0.078  -0.271  1.00  0.00    -0.041 A 
HETATM   20  C5  UNL     1       4.151   0.850  -0.684  1.00  0.00     0.009 A 
HETATM   21  C6  UNL     1       5.291   0.051  -0.256  1.00  0.00     0.001 A 
HETATM   22  C7  UNL     1       4.445  -0.880   0.157  1.00  0.00     0.009 A 
ENDBRANCH  18  19
ENDBRANCH  16  18
ENDBRANCH   1  15
TORSDOF 5
