REMARK  9 active torsions:
REMARK  status: ('A' for Active; 'I' for Inactive)
REMARK    1  A    between atoms: C3_3  and  C4_4 
REMARK    2  A    between atoms: N5_14  and  O1_15 
REMARK    3  A    between atoms: N7_18  and  N8_19 
REMARK    4  A    between atoms: C9_22  and  C10_23 
REMARK    5  A    between atoms: C10_23  and  N10_25 
REMARK    6  A    between atoms: N10_25  and  O2_27 
REMARK    7  A    between atoms: N11_29  and  C11_30 
REMARK    8  A    between atoms: C11_30  and  C12_31 
REMARK    9  A    between atoms: C12_31  and  O3_32 
ROOT
HETATM    1  O1  UNL     1       2.260  -0.549   1.825  1.00  0.00    -0.151 OA
HETATM    2  C8  UNL     1       3.038  -1.653   2.054  1.00  0.00     0.253 C 
HETATM    3  N6  UNL     1       3.690  -2.590   2.258  1.00  0.00    -0.162 NA
ENDROOT
BRANCH   1   4
HETATM    4  N5  UNL     1       2.455   0.301   0.769  1.00  0.00    -0.176 N 
HETATM    5  C4  UNL     1       1.698   0.129  -0.480  1.00  0.00     0.180 C 
HETATM    6  C5  UNL     1       2.427  -1.005  -1.230  1.00  0.00     0.073 C 
HETATM    7  N1  UNL     1       1.887   1.282  -1.336  1.00  0.00    -0.331 N 
HETATM    8  C6  UNL     1       2.698   2.239  -1.160  1.00  0.00     0.193 C 
ATOM      9  H1  UNL     1       1.304   1.328  -2.171  1.00  0.00     0.165 HD
HETATM   10  N2  UNL     1       2.791   3.334  -2.103  1.00  0.00    -0.063 NA
HETATM   11  N3  UNL     1       3.492   2.267   0.019  1.00  0.00    -0.303 N 
HETATM   12  C7  UNL     1       3.405   1.347   0.920  1.00  0.00     0.221 C 
ATOM     13  H3  UNL     1       4.149   3.035   0.157  1.00  0.00     0.171 HD
HETATM   14  N4  UNL     1       4.200   1.369   2.095  1.00  0.00    -0.061 NA
BRANCH   5  15
HETATM   15  C3  UNL     1       0.275  -0.203  -0.227  1.00  0.00     0.108 A 
HETATM   16  C2  UNL     1      -0.598   0.693   0.377  1.00  0.00     0.038 A 
HETATM   17  C1  UNL     1      -0.305   2.069   0.843  1.00  0.00     0.070 C 
HETATM   18  N11 UNL     1      -1.801   0.038   0.445  1.00  0.00    -0.329 N 
HETATM   19  C9  UNL     1      -1.680  -1.187  -0.081  1.00  0.00     0.173 A 
HETATM   20  N7  UNL     1      -0.374  -1.340  -0.506  1.00  0.00    -0.241 N 
BRANCH  18  21
HETATM   21  C11 UNL     1      -2.957   0.652   1.038  1.00  0.00     0.156 C 
BRANCH  21  22
HETATM   22  C12 UNL     1      -3.698   1.574   0.104  1.00  0.00     0.184 C 
BRANCH  22  23
HETATM   23  O3  UNL     1      -4.125   0.905  -1.018  1.00  0.00    -0.399 OA
ATOM     24  H3  UNL     1      -4.592   1.486  -1.607  1.00  0.00     0.209 HD
ENDBRANCH  22  23
ENDBRANCH  21  22
ENDBRANCH  18  21
BRANCH  19  25
HETATM   25  C10 UNL     1      -2.630  -2.269  -0.232  1.00  0.00     0.182 C 
HETATM   26  N9  UNL     1      -3.938  -2.225   0.273  1.00  0.00    -0.077 NA
BRANCH  25  27
HETATM   27  N10 UNL     1      -2.279  -3.351  -0.828  1.00  0.00    -0.252 N 
ATOM     28  H10 UNL     1      -1.327  -3.426  -1.187  1.00  0.00     0.195 HD
BRANCH  27  29
HETATM   29  O2  UNL     1      -3.132  -4.407  -1.000  1.00  0.00    -0.288 OA
ATOM     30  H2  UNL     1      -2.872  -5.207  -1.441  1.00  0.00     0.244 HD
ENDBRANCH  27  29
ENDBRANCH  25  27
ENDBRANCH  19  25
BRANCH  20  31
HETATM   31  N8  UNL     1       0.150  -2.484  -1.112  1.00  0.00    -0.337 N 
ATOM     32  H82 UNL     1       1.114  -2.597  -1.426  1.00  0.00     0.177 HD
ATOM     33  H81 UNL     1      -0.345  -3.350  -1.325  1.00  0.00     0.177 HD
ENDBRANCH  20  31
ENDBRANCH   5  15
ENDBRANCH   1   4
TORSDOF 9
