REMARK  6 active torsions:
REMARK  status: ('A' for Active; 'I' for Inactive)
REMARK    1  A    between atoms: O1_2  and  N1_3 
REMARK    2  A    between atoms: C2_4  and  N2_5 
REMARK    3  A    between atoms: N5_14  and  N6_15 
REMARK    4  A    between atoms: N6_15  and  S1_17 
REMARK    5  A    between atoms: S1_17  and  C7_20 
REMARK    6  A    between atoms: C9_25  and  O4_26 
ROOT
HETATM    1  N2  UNL     1      -4.492  -1.238   0.514  1.00  0.00    -0.123 N 
ATOM      2  H2  UNL     1      -5.258  -0.634   0.812  1.00  0.00     0.197 HD
HETATM    3  C3  UNL     1      -4.689  -2.624   0.482  1.00  0.00     0.196 C 
HETATM    4  N3  UNL     1      -4.872  -3.770   0.460  1.00  0.00    -0.171 NA
ENDROOT
BRANCH   1   5
HETATM    5  C2  UNL     1      -3.235  -0.642   0.137  1.00  0.00     0.728 C 
HETATM    6  N1  UNL     1      -2.552   0.395   0.832  1.00  0.00     0.018 N 
HETATM    7  N5  UNL     1      -1.198   0.392   0.433  1.00  0.00    -0.058 NA
HETATM    8  C4  UNL     1      -1.324  -0.124  -0.926  1.00  0.00     0.137 C 
HETATM    9  N4  UNL     1      -2.530  -0.960  -0.897  1.00  0.00    -0.197 N 
HETATM   10  C5  UNL     1      -0.179  -1.003  -1.321  1.00  0.00     0.060 C 
HETATM   11  C6  UNL     1      -1.483   0.980  -1.937  1.00  0.00     0.060 C 
ATOM     12  H4  UNL     1      -2.772  -1.676  -1.582  1.00  0.00     0.180 HD
BRANCH   6  13
HETATM   13  O1  UNL     1      -3.144   1.232   1.726  1.00  0.00    -0.252 OA
HETATM   14  C1  UNL     1      -4.263   1.856   1.214  1.00  0.00     0.240 C 
ENDBRANCH   6  13
BRANCH   7  15
HETATM   15  N6  UNL     1      -0.446  -0.468   1.243  1.00  0.00    -0.217 N 
ATOM     16  H6  UNL     1      -0.655  -1.459   1.363  1.00  0.00     0.196 HD
BRANCH  15  17
HETATM   17  S1  UNL     1       0.865   0.329   2.011  1.00  0.00     0.307 S 
HETATM   18  O2  UNL     1       1.067  -0.319   3.357  1.00  0.00    -0.196 OA
HETATM   19  O3  UNL     1       0.423   1.754   2.301  1.00  0.00    -0.196 OA
BRANCH  17  20
HETATM   20  C7  UNL     1       2.320   0.291   1.066  1.00  0.00     0.241 A 
HETATM   21  N7  UNL     1       3.158  -0.678   1.201  1.00  0.00    -0.315 N 
HETATM   22  C8  UNL     1       4.369  -0.769   0.455  1.00  0.00     0.171 A 
ATOM     23  H7  UNL     1       2.945  -1.415   1.873  1.00  0.00     0.169 HD
HETATM   24  N8  UNL     1       5.268  -1.853   0.634  1.00  0.00    -0.078 NA
HETATM   25  C9  UNL     1       4.733   0.146  -0.445  1.00  0.00     0.197 A 
HETATM   26  N9  UNL     1       3.840   1.241  -0.635  1.00  0.00    -0.275 N 
HETATM   27  N10 UNL     1       2.654   1.297   0.119  1.00  0.00    -0.272 N 
ATOM     28  H9  UNL     1       4.058   1.975  -1.309  1.00  0.00     0.189 HD
ATOM     29  H10 UNL     1       2.016   2.081  -0.018  1.00  0.00     0.189 HD
BRANCH  25  30
HETATM   30  O4  UNL     1       5.925   0.018  -1.152  1.00  0.00    -0.343 OA
ATOM     31  H4  UNL     1       6.184   0.670  -1.793  1.00  0.00     0.219 HD
ENDBRANCH  25  30
ENDBRANCH  17  20
ENDBRANCH  15  17
ENDBRANCH   7  15
ENDBRANCH   1   5
TORSDOF 6
