REMARK  9 active torsions:
REMARK  status: ('A' for Active; 'I' for Inactive)
REMARK    1  A    between atoms: C2_2  and  C4_4 
REMARK    2  A    between atoms: C8_17  and  N5_18 
REMARK    3  A    between atoms: C9_20  and  C10_21 
REMARK    4  A    between atoms: C10_21  and  C11_22 
REMARK    5  A    between atoms: C11_22  and  C12_23 
REMARK    6  A    between atoms: C12_23  and  N6_24 
REMARK    7  A    between atoms: N6_24  and  C13_26 
REMARK    8  A    between atoms: C14_27  and  O1_28 
REMARK    9  A    between atoms: N9_34  and  O2_35 
ROOT
HETATM    1  C4  UNL     1      -3.830   0.758   0.061  1.00  0.00     0.087 A 
HETATM    2  N1  UNL     1      -4.374  -0.418  -0.280  1.00  0.00    -0.329 N 
ATOM      3  H1  UNL     1      -5.387  -0.524  -0.228  1.00  0.00     0.168 HD
HETATM    4  C5  UNL     1      -3.630  -1.469  -0.690  1.00  0.00     0.153 A 
HETATM    5  N2  UNL     1      -3.931  -2.725  -1.078  1.00  0.00    -0.174 N 
ATOM      6  H2  UNL     1      -4.878  -3.101  -1.121  1.00  0.00     0.186 HD
HETATM    7  C6  UNL     1      -2.835  -3.413  -1.398  1.00  0.00     0.678 A 
HETATM    8  N3  UNL     1      -2.699  -4.638  -1.814  1.00  0.00    -0.234 N 
ATOM      9  H31 UNL     1      -1.860  -5.164  -2.059  1.00  0.00     0.174 HD
ATOM     10  H32 UNL     1      -3.472  -5.287  -1.962  1.00  0.00     0.174 HD
HETATM   11  N4  UNL     1      -1.799  -2.543  -1.200  1.00  0.00    -0.184 N 
ATOM     12  H4  UNL     1      -0.816  -2.764  -1.357  1.00  0.00     0.184 HD
HETATM   13  C7  UNL     1      -2.260  -1.354  -0.769  1.00  0.00     0.137 A 
HETATM   14  C8  UNL     1      -1.669  -0.140  -0.419  1.00  0.00     0.138 A 
HETATM   15  N10 UNL     1      -2.513   0.862  -0.017  1.00  0.00    -0.330 N 
ATOM     16  H10 UNL     1      -2.095   1.756   0.242  1.00  0.00     0.168 HD
ENDROOT
BRANCH  14  17
HETATM   17  N5  UNL     1      -0.447   0.034  -0.465  1.00  0.00    -0.354 N 
HETATM   18  C9  UNL     1       0.750  -0.547  -0.759  1.00  0.00     0.062 C 
ATOM     19  H5  UNL     1      -0.260   0.990  -0.164  1.00  0.00     0.166 HD
BRANCH  18  20
HETATM   20  C10 UNL     1       1.361  -1.424   0.317  1.00  0.00     0.046 C 
BRANCH  20  21
HETATM   21  C11 UNL     1       2.673  -2.025  -0.116  1.00  0.00     0.025 C 
BRANCH  21  22
HETATM   22  C12 UNL     1       3.693  -0.989  -0.442  1.00  0.00     0.121 C 
BRANCH  22  23
HETATM   23  N6  UNL     1       3.939  -0.159   0.720  1.00  0.00    -0.369 N 
ATOM     24  H6  UNL     1       3.354  -0.294   1.545  1.00  0.00     0.161 HD
BRANCH  23  25
HETATM   25  C13 UNL     1       4.848   0.730   0.763  1.00  0.00     0.202 A 
HETATM   26  C14 UNL     1       5.103   1.531   1.851  1.00  0.00     0.205 A 
HETATM   27  N7  UNL     1       6.127   2.326   1.496  1.00  0.00    -0.260 N 
HETATM   28  N8  UNL     1       6.496   2.046   0.265  1.00  0.00    -0.212 N 
ATOM     29  H7  UNL     1       6.553   3.037   2.090  1.00  0.00     0.191 HD
HETATM   30  N9  UNL     1       5.722   1.072  -0.195  1.00  0.00    -0.127 N 
ATOM     31  H8  UNL     1       7.250   2.501  -0.249  1.00  0.00     0.211 HD
BRANCH  26  32
HETATM   32  O1  UNL     1       4.466   1.557   3.084  1.00  0.00    -0.342 OA
ATOM     33  H1  UNL     1       4.642   2.110   3.836  1.00  0.00     0.219 HD
ENDBRANCH  26  32
BRANCH  30  34
HETATM   34  O2  UNL     1       5.845   0.546  -1.449  1.00  0.00    -0.265 OA
ATOM     35  H2  UNL     1       6.464   0.788  -2.128  1.00  0.00     0.247 HD
ENDBRANCH  30  34
ENDBRANCH  23  25
ENDBRANCH  22  23
ENDBRANCH  21  22
ENDBRANCH  20  21
ENDBRANCH  18  20
ENDBRANCH  14  17
BRANCH   1  36
HETATM   36  C2  UNL     1      -4.683   1.913   0.515  1.00  0.00     0.045 C 
HETATM   37  C1  UNL     1      -4.359   2.259   1.962  1.00  0.00     0.017 C 
HETATM   38  C3  UNL     1      -4.524   3.108  -0.378  1.00  0.00     0.017 C 
ENDBRANCH   1  36
TORSDOF 9
