REMARK  8 active torsions:
REMARK  status: ('A' for Active; 'I' for Inactive)
REMARK    1  A    between atoms: C2_2  and  C3_3 
REMARK    2  A    between atoms: C4_4  and  N1_5 
REMARK    3  A    between atoms: N1_5  and  C5_7 
REMARK    4  A    between atoms: C5_7  and  C6_8 
REMARK    5  A    between atoms: C6_8  and  C8_10 
REMARK    6  A    between atoms: C12_18  and  N4_19 
REMARK    7  A    between atoms: N4_19  and  C13_21 
REMARK    8  A    between atoms: C13_21  and  C14_22 
ROOT
HETATM    1  C3  UNL     1      -0.332  -0.294   0.465  1.00  0.00     0.029 A 
HETATM    2  C4  UNL     1      -1.452   0.385  -0.021  1.00  0.00     0.112 A 
HETATM    3  N2  UNL     1      -1.372   1.742  -0.162  1.00  0.00    -0.332 N 
ATOM      4  H2  UNL     1      -2.190   2.238  -0.516  1.00  0.00     0.168 HD
HETATM    5  C10 UNL     1      -0.281   2.456   0.138  1.00  0.00     0.080 A 
HETATM    6  C11 UNL     1      -0.257   3.938  -0.040  1.00  0.00     0.089 C 
HETATM    7  N3  UNL     1       0.775   1.772   0.602  1.00  0.00    -0.332 N 
ATOM      8  H3  UNL     1       1.619   2.293   0.839  1.00  0.00     0.168 HD
HETATM    9  C12 UNL     1       0.783   0.430   0.773  1.00  0.00     0.112 A 
ENDROOT
BRANCH   9  10
HETATM   10  N4  UNL     1       1.964  -0.163   1.290  1.00  0.00    -0.371 N 
ATOM     11  H4  UNL     1       1.962  -1.172   1.441  1.00  0.00     0.161 HD
BRANCH  10  12
HETATM   12  C13 UNL     1       3.170   0.563   1.617  1.00  0.00     0.185 C 
BRANCH  12  13
HETATM   13  C14 UNL     1       3.864   1.214   0.491  1.00  0.00     0.379 C 
HETATM   14  O1  UNL     1       5.000   1.859   0.977  1.00  0.00    -0.352 OA
HETATM   15  C15 UNL     1       6.099   1.088   0.613  1.00  0.00     0.236 C 
HETATM   16  C16 UNL     1       5.689   0.751  -0.830  1.00  0.00     0.446 C 
HETATM   17  N5  UNL     1       6.340  -0.410  -1.337  1.00  0.00    -0.040 N 
HETATM   18  N6  UNL     1       4.303   0.398  -0.576  1.00  0.00     0.153 N 
HETATM   19  C17 UNL     1       5.493  -1.549  -1.052  1.00  0.00     0.265 C 
ATOM     20  H52 UNL     1       6.579  -0.331  -2.326  1.00  0.00     0.279 HD
ATOM     21  H51 UNL     1       7.288  -0.521  -0.978  1.00  0.00     0.279 HD
HETATM   22  C18 UNL     1       4.234  -1.004  -0.405  1.00  0.00     0.306 C 
ENDBRANCH  12  13
ENDBRANCH  10  12
ENDBRANCH   9  10
BRANCH   1  23
HETATM   23  C2  UNL     1      -0.384  -1.753   0.622  1.00  0.00     0.042 C 
HETATM   24  C1  UNL     1      -1.166  -2.203   1.839  1.00  0.00     0.010 C 
ENDBRANCH   1  23
BRANCH   2  25
HETATM   25  N1  UNL     1      -2.649  -0.285  -0.357  1.00  0.00    -0.375 N 
ATOM     26  H1  UNL     1      -2.723  -1.296  -0.248  1.00  0.00     0.161 HD
BRANCH  25  27
HETATM   27  C5  UNL     1      -3.761   0.475  -0.854  1.00  0.00     0.125 C 
BRANCH  27  28
HETATM   28  C6  UNL     1      -4.972  -0.339  -1.172  1.00  0.00    -0.001 C 
HETATM   29  C7  UNL     1      -6.038   0.627  -1.682  1.00  0.00     0.011 C 
BRANCH  28  30
HETATM   30  C8  UNL     1      -5.438  -1.081   0.049  1.00  0.00     0.001 C 
HETATM   31  C9  UNL     1      -6.653  -1.922  -0.194  1.00  0.00     0.005 C 
ENDBRANCH  28  30
ENDBRANCH  27  28
ENDBRANCH  25  27
ENDBRANCH   2  25
TORSDOF 8
