REMARK  7 active torsions:
REMARK  status: ('A' for Active; 'I' for Inactive)
REMARK    1  A    between atoms: N2_4  and  O1_5 
REMARK    2  A    between atoms: N2_4  and  N3_7 
REMARK       I    between atoms: N3_7  and  C1_9 
REMARK       I    between atoms: C1_9  and  N8_23 
REMARK    3  A    between atoms: N4_10  and  C2_12 
REMARK    4  A    between atoms: C2_12  and  C3_13 
REMARK    5  A    between atoms: C3_13  and  C4_14 
REMARK    6  A    between atoms: C4_14  and  N5_15 
REMARK       I    between atoms: N5_15  and  C5_17 
REMARK    7  A    between atoms: N7_19  and  O2_21 
ROOT
HETATM    1  N3  UNL     1      -1.912   1.654  -0.249  1.00  0.00    -0.091 N 
ATOM      2  H3  UNL     1      -1.181   2.275   0.099  1.00  0.00     0.210 HD
HETATM    3  C1  UNL     1      -1.837   0.288   0.101  1.00  0.00     0.695 C 
HETATM    4  N4  UNL     1      -0.864  -0.444  -0.337  1.00  0.00    -0.225 N 
ATOM      5  H4  UNL     1      -0.856  -1.424  -0.054  1.00  0.00     0.177 HD
HETATM    6  N8  UNL     1      -2.818  -0.325   0.940  1.00  0.00    -0.190 N 
HETATM    7  C6  UNL     1      -4.215  -0.179   1.301  1.00  0.00     0.284 C 
HETATM    8  S1  UNL     1      -4.349  -1.951   1.209  1.00  0.00     0.178 S 
HETATM    9  O3  UNL     1      -4.336  -2.442  -0.197  1.00  0.00    -0.225 OA
HETATM   10  O4  UNL     1      -5.302  -2.581   2.141  1.00  0.00    -0.225 OA
HETATM   11  C7  UNL     1      -2.783  -1.471   1.863  1.00  0.00     0.284 C 
ENDROOT
BRANCH   1  12
HETATM   12  N2  UNL     1      -2.910   2.208  -1.032  1.00  0.00    -0.087 N 
HETATM   13  N1  UNL     1      -3.789   2.935  -0.505  1.00  0.00    -0.303 N 
ATOM     14  H12 UNL     1      -4.524   3.343  -1.082  1.00  0.00     0.181 HD
ATOM     15  H11 UNL     1      -3.758   3.109   0.499  1.00  0.00     0.181 HD
BRANCH  12  16
HETATM   16  O1  UNL     1      -2.952   1.975  -2.374  1.00  0.00    -0.253 OA
ATOM     17  H1  UNL     1      -2.287   1.425  -2.772  1.00  0.00     0.248 HD
ENDBRANCH  12  16
ENDBRANCH   1  12
BRANCH   4  18
HETATM   18  C2  UNL     1       0.200  -0.002  -1.181  1.00  0.00     0.139 C 
BRANCH  18  19
HETATM   19  C3  UNL     1       1.543  -0.613  -0.780  1.00  0.00     0.040 C 
BRANCH  19  20
HETATM   20  C4  UNL     1       2.598  -0.096  -1.724  1.00  0.00     0.124 C 
BRANCH  20  21
HETATM   21  N5  UNL     1       3.907  -0.610  -1.433  1.00  0.00    -0.363 N 
HETATM   22  C5  UNL     1       4.637  -0.268  -0.260  1.00  0.00     0.208 C 
HETATM   23  N6  UNL     1       5.777   0.566  -0.262  1.00  0.00    -0.062 NA
HETATM   24  N7  UNL     1       4.223  -0.754   0.859  1.00  0.00    -0.241 N 
ATOM     25  H7  UNL     1       3.399  -1.355   0.849  1.00  0.00     0.197 HD
ATOM     26  H5  UNL     1       4.335  -1.252  -2.100  1.00  0.00     0.162 HD
BRANCH  24  27
HETATM   27  O2  UNL     1       4.830  -0.507   2.060  1.00  0.00    -0.287 OA
ATOM     28  H2  UNL     1       4.525  -0.865   2.885  1.00  0.00     0.244 HD
ENDBRANCH  24  27
ENDBRANCH  20  21
ENDBRANCH  19  20
ENDBRANCH  18  19
ENDBRANCH   4  18
TORSDOF 7
