REMARK  5 active torsions:
REMARK  status: ('A' for Active; 'I' for Inactive)
REMARK    1  A    between atoms: C2_2  and  N1_3 
REMARK    2  A    between atoms: C3_10  and  C4_11 
REMARK    3  A    between atoms: C4_11  and  C5_12 
REMARK    4  A    between atoms: C5_12  and  N5_13 
REMARK    5  A    between atoms: N5_13  and  C6_15 
REMARK       I    between atoms: N7_19  and  C8_20 
ROOT
HETATM    1  C4  UNL     1      -0.199  -0.046  -0.073  1.00  0.00     0.217 C 
HETATM    2  C7  UNL     1       0.541  -1.306   0.202  1.00  0.00     0.174 C 
HETATM    3  N7  UNL     1       2.003  -1.056   0.254  1.00  0.00    -0.348 N 
HETATM    4  C8  UNL     1       2.942  -1.810  -0.471  1.00  0.00     0.215 C 
HETATM    5  C9  UNL     1       4.382  -1.548  -0.444  1.00  0.00     0.117 C 
HETATM    6  O1  UNL     1       2.559  -2.786  -1.206  1.00  0.00    -0.274 OA
HETATM    7  C10 UNL     1       2.417   0.036   1.096  1.00  0.00     0.153 C 
HETATM    8  C11 UNL     1       1.730   1.271   0.549  1.00  0.00     0.253 C 
HETATM    9  N8  UNL     1       0.834   0.942  -0.538  1.00  0.00    -0.054 N 
ATOM     10  H81 UNL     1       0.410   1.774  -0.948  1.00  0.00     0.278 HD
ATOM     11  H82 UNL     1       1.337   0.610  -1.361  1.00  0.00     0.278 HD
ENDROOT
BRANCH   1  12
HETATM   12  C3  UNL     1      -0.794   0.633   1.091  1.00  0.00     0.155 A 
HETATM   13  N1  UNL     1      -1.258   1.879   1.187  1.00  0.00    -0.261 N 
HETATM   14  N2  UNL     1      -1.655   2.008   2.473  1.00  0.00    -0.225 N 
HETATM   15  N3  UNL     1      -1.444   0.890   3.120  1.00  0.00    -0.227 N 
ATOM     16  H2  UNL     1      -2.059   2.852   2.879  1.00  0.00     0.210 HD
HETATM   17  N4  UNL     1      -0.925   0.040   2.312  1.00  0.00    -0.270 N 
ATOM     18  H3  UNL     1      -1.657   0.723   4.103  1.00  0.00     0.210 HD
ATOM     19  H4  UNL     1      -0.656  -0.916   2.543  1.00  0.00     0.190 HD
BRANCH  13  20
HETATM   20  C2  UNL     1      -1.407   2.951   0.233  1.00  0.00     0.148 C 
HETATM   21  C1  UNL     1      -2.829   2.989  -0.341  1.00  0.00     0.028 C 
ENDBRANCH  13  20
ENDBRANCH   1  12
BRANCH   1  22
HETATM   22  C5  UNL     1      -1.152  -0.225  -1.184  1.00  0.00     0.170 C 
BRANCH  22  23
HETATM   23  N5  UNL     1      -2.388  -0.900  -0.947  1.00  0.00    -0.367 N 
ATOM     24  H5  UNL     1      -3.187  -0.272  -1.040  1.00  0.00     0.161 HD
BRANCH  23  25
HETATM   25  C6  UNL     1      -2.776  -2.174  -0.627  1.00  0.00     0.181 C 
HETATM   26  N6  UNL     1      -1.974  -3.312  -0.402  1.00  0.00    -0.070 NA
HETATM   27  S1  UNL     1      -4.413  -2.502  -0.473  1.00  0.00    -0.044 SA
ENDBRANCH  23  25
ENDBRANCH  22  23
ENDBRANCH   1  22
TORSDOF 5
