REMARK  1 active torsions:
REMARK  status: ('A' for Active; 'I' for Inactive)
REMARK    1  A    between atoms: N1_1  and  C1_4 
REMARK       I    between atoms: N3_9  and  C3_10 
REMARK       I    between atoms: C3_10  and  N4_11 
REMARK       I    between atoms: C3_10  and  N5_15 
ROOT
HETATM    1  C1  UNL     1       2.444   0.134  -0.019  1.00  0.00     0.683 A 
HETATM    2  N2  UNL     1       1.784  -0.991  -0.327  1.00  0.00    -0.141 N 
ATOM      3  H2  UNL     1       2.292  -1.789  -0.707  1.00  0.00     0.189 HD
HETATM    4  C2  UNL     1       0.437  -1.074  -0.135  1.00  0.00     0.347 A 
HETATM    5  O1  UNL     1      -0.171  -2.131  -0.427  1.00  0.00    -0.246 OA
HETATM    6  N3  UNL     1      -0.256  -0.040   0.363  1.00  0.00    -0.197 N 
HETATM    7  C3  UNL     1      -1.684  -0.111   0.573  1.00  0.00     0.494 C 
HETATM    8  N4  UNL     1      -2.288  -1.180  -0.201  1.00  0.00    -0.032 N 
ATOM      9  H41 UNL     1      -3.296  -1.230  -0.053  1.00  0.00     0.279 HD
ATOM     10  H42 UNL     1      -1.839  -2.076  -0.011  1.00  0.00     0.279 HD
ATOM     11  H43 UNL     1      -2.062  -1.095  -1.192  1.00  0.00     0.279 HD
HETATM   12  N5  UNL     1      -2.373   1.100   0.265  1.00  0.00    -0.032 N 
ATOM     13  H51 UNL     1      -3.381   1.050   0.413  1.00  0.00     0.279 HD
ATOM     14  H52 UNL     1      -2.165   1.399  -0.688  1.00  0.00     0.279 HD
ATOM     15  H53 UNL     1      -1.972   1.883   0.782  1.00  0.00     0.279 HD
HETATM   16  C4  UNL     1       0.397   1.077   0.669  1.00  0.00     0.347 A 
HETATM   17  O2  UNL     1      -0.196   2.072   1.136  1.00  0.00    -0.246 OA
HETATM   18  N6  UNL     1       1.746   1.172   0.481  1.00  0.00    -0.141 N 
ATOM     19  H6  UNL     1       2.230   2.037   0.721  1.00  0.00     0.189 HD
ENDROOT
BRANCH   1  20
HETATM   20  N1  UNL     1       3.708   0.226  -0.194  1.00  0.00    -0.234 N 
ATOM     21  H12 UNL     1       4.237  -0.560  -0.573  1.00  0.00     0.174 HD
ATOM     22  H11 UNL     1       4.210   1.082   0.040  1.00  0.00     0.174 HD
ENDBRANCH   1  20
TORSDOF 1
