REMARK  9 active torsions:
REMARK  status: ('A' for Active; 'I' for Inactive)
REMARK    1  A    between atoms: N1_1  and  C1_4 
REMARK    2  A    between atoms: N5_14  and  C5_16 
REMARK    3  A    between atoms: C5_16  and  C6_17 
REMARK    4  A    between atoms: C6_17  and  N6_18 
REMARK    5  A    between atoms: N6_18  and  C7_19 
REMARK    6  A    between atoms: N6_18  and  C8_22 
REMARK    7  A    between atoms: C7_19  and  O1_20 
REMARK    8  A    between atoms: C8_22  and  C9_23 
REMARK    9  A    between atoms: C9_23  and  O2_24 
ROOT
HETATM    1  C1  UNL     1       5.280  -0.199   0.346  1.00  0.00     0.678 A 
HETATM    2  N2  UNL     1       5.303   0.882  -0.434  1.00  0.00    -0.174 N 
ATOM      3  H2  UNL     1       6.143   1.375  -0.736  1.00  0.00     0.186 HD
HETATM    4  C2  UNL     1       4.024   1.223  -0.764  1.00  0.00     0.153 A 
HETATM    5  N3  UNL     1       3.486   2.200  -1.503  1.00  0.00    -0.336 N 
ATOM      6  H3  UNL     1       4.082   2.889  -1.961  1.00  0.00     0.168 HD
HETATM    7  C3  UNL     1       2.152   2.261  -1.634  1.00  0.00     0.183 A 
HETATM    8  N4  UNL     1       1.303   1.372  -1.049  1.00  0.00    -0.337 N 
ATOM      9  H4  UNL     1       0.296   1.466  -1.184  1.00  0.00     0.168 HD
HETATM   10  C4  UNL     1       1.783   0.379  -0.300  1.00  0.00     0.137 A 
HETATM   11  N5  UNL     1       1.119  -0.467   0.268  1.00  0.00    -0.349 N 
ATOM     12  H5  UNL     1       1.767  -1.086   0.755  1.00  0.00     0.167 HD
HETATM   13  C10 UNL     1       3.184   0.318  -0.165  1.00  0.00     0.137 A 
HETATM   14  N7  UNL     1       3.983  -0.537   0.505  1.00  0.00    -0.184 N 
ATOM     15  H7  UNL     1       3.653  -1.330   1.056  1.00  0.00     0.184 HD
ENDROOT
BRANCH  11  16
HETATM   16  C5  UNL     1      -0.153  -0.927   0.519  1.00  0.00     0.107 C 
BRANCH  16  17
HETATM   17  C6  UNL     1      -1.337  -0.131   0.047  1.00  0.00     0.114 C 
BRANCH  17  18
HETATM   18  N6  UNL     1      -2.530  -0.775   0.423  1.00  0.00    -0.324 N 
BRANCH  18  19
HETATM   19  C7  UNL     1      -2.841  -1.994  -0.213  1.00  0.00     0.229 C 
BRANCH  19  20
HETATM   20  O1  UNL     1      -4.059  -2.530   0.239  1.00  0.00    -0.356 OA
ATOM     21  H1  UNL     1      -4.269  -3.352  -0.190  1.00  0.00     0.218 HD
ENDBRANCH  19  20
ENDBRANCH  18  19
BRANCH  18  22
HETATM   22  C8  UNL     1      -3.469  -0.142   1.229  1.00  0.00     0.096 C 
BRANCH  22  23
HETATM   23  C9  UNL     1      -4.205   1.026   0.634  1.00  0.00     0.209 C 
BRANCH  23  24
HETATM   24  O2  UNL     1      -4.920   0.657  -0.504  1.00  0.00    -0.396 OA
ATOM     25  H2  UNL     1      -5.385   1.395  -0.880  1.00  0.00     0.209 HD
ENDBRANCH  23  24
ENDBRANCH  22  23
ENDBRANCH  18  22
ENDBRANCH  17  18
ENDBRANCH  16  17
ENDBRANCH  11  16
BRANCH   1  26
HETATM   26  N1  UNL     1       6.323  -0.779   0.833  1.00  0.00    -0.234 N 
ATOM     27  H12 UNL     1       7.303  -0.524   0.713  1.00  0.00     0.174 HD
ATOM     28  H11 UNL     1       6.305  -1.606   1.430  1.00  0.00     0.174 HD
ENDBRANCH   1  26
TORSDOF 9
