REMARK  10 active torsions:
REMARK  status: ('A' for Active; 'I' for Inactive)
REMARK    1  A    between atoms: C2_2  and  N1_3 
REMARK    2  A    between atoms: C2_2  and  C3_7 
REMARK    3  A    between atoms: C3_7  and  O1_8 
REMARK    4  A    between atoms: C3_7  and  N2_10 
REMARK    5  A    between atoms: N2_10  and  C4_12 
REMARK    6  A    between atoms: C7_15  and  N3_16 
REMARK    7  A    between atoms: N3_16  and  C8_18 
REMARK    8  A    between atoms: C8_18  and  C9_19 
REMARK    9  A    between atoms: N5_25  and  C13_26 
REMARK   10  A    between atoms: N6_33  and  N7_34 
ROOT
HETATM    1  C8  UNL     1       0.557  -1.770  -1.946  1.00  0.00     0.065 C 
ENDROOT
BRANCH   1   2
HETATM    2  N3  UNL     1      -0.656  -1.223  -2.354  1.00  0.00    -0.381 N 
ATOM      3  H3  UNL     1      -0.850  -1.160  -3.353  1.00  0.00     0.160 HD
BRANCH   2   4
HETATM    4  C7  UNL     1      -1.610  -0.762  -1.467  1.00  0.00     0.184 C 
HETATM    5  C6  UNL     1      -1.248   0.416  -0.558  1.00  0.00     0.084 C 
HETATM    6  C4  UNL     1      -2.775   0.707  -0.168  1.00  0.00     0.083 C 
HETATM    7  C5  UNL     1      -2.674   2.063   0.482  1.00  0.00     0.046 C 
HETATM    8  C19 UNL     1      -3.308   0.757  -1.543  1.00  0.00     0.118 C 
HETATM    9  N9  UNL     1      -2.654  -0.080  -2.283  1.00  0.00    -0.359 N 
HETATM   10  N10 UNL     1      -4.356   1.600  -2.089  1.00  0.00    -0.085 NA
ATOM     11  H9  UNL     1      -2.827  -0.247  -3.274  1.00  0.00     0.162 HD
BRANCH   6  12
HETATM   12  N2  UNL     1      -3.082  -0.357   0.641  1.00  0.00    -0.380 N 
ATOM     13  H2  UNL     1      -2.343  -1.060   0.654  1.00  0.00     0.157 HD
BRANCH  12  14
HETATM   14  C3  UNL     1      -4.136  -0.700   1.430  1.00  0.00     0.244 C 
BRANCH  14  15
HETATM   15  C2  UNL     1      -5.510  -0.954   0.913  1.00  0.00     0.227 C 
HETATM   16  C1  UNL     1      -6.278   0.349   0.696  1.00  0.00     0.044 C 
BRANCH  15  17
HETATM   17  N1  UNL     1      -6.319  -1.579   2.018  1.00  0.00    -0.071 N 
ATOM     18  H13 UNL     1      -6.448  -1.001   2.849  1.00  0.00     0.274 HD
ATOM     19  H12 UNL     1      -7.316  -1.683   1.828  1.00  0.00     0.274 HD
ATOM     20  H11 UNL     1      -5.806  -2.449   2.163  1.00  0.00     0.274 HD
ENDBRANCH  15  17
ENDBRANCH  14  15
BRANCH  14  21
HETATM   21  O1  UNL     1      -3.758  -2.048   1.907  1.00  0.00    -0.375 OA
ATOM     22  H1  UNL     1      -2.882  -1.886   2.237  1.00  0.00     0.212 HD
ENDBRANCH  14  21
ENDBRANCH  12  14
ENDBRANCH   6  12
ENDBRANCH   2   4
ENDBRANCH   1   2
BRANCH   1  23
HETATM   23  C9  UNL     1       1.593  -0.850  -1.353  1.00  0.00     0.059 C 
HETATM   24  C10 UNL     1       1.935   0.197  -2.383  1.00  0.00     0.133 C 
HETATM   25  N4  UNL     1       2.755   1.231  -1.814  1.00  0.00    -0.371 N 
HETATM   26  C11 UNL     1       3.664   1.199  -0.913  1.00  0.00     0.172 A 
ATOM     27  H4  UNL     1       2.581   2.160  -2.198  1.00  0.00     0.161 HD
HETATM   28  C12 UNL     1       4.163   0.150  -0.182  1.00  0.00     0.159 A 
HETATM   29  N6  UNL     1       4.362   2.296  -0.486  1.00  0.00    -0.191 N 
HETATM   30  N5  UNL     1       5.123   0.572   0.658  1.00  0.00    -0.244 N 
HETATM   31  N8  UNL     1       3.782  -1.076  -0.267  1.00  0.00    -0.372 N 
HETATM   32  C17 UNL     1       5.233   1.891   0.459  1.00  0.00     0.355 A 
HETATM   33  O2  UNL     1       6.035   2.663   1.062  1.00  0.00    -0.244 OA
HETATM   34  C18 UNL     1       2.796  -1.746  -1.071  1.00  0.00     0.133 C 
ATOM     35  H8  UNL     1       4.282  -1.701   0.366  1.00  0.00     0.161 HD
BRANCH  30  36
HETATM   36  C13 UNL     1       5.893  -0.230   1.604  1.00  0.00     0.052 A 
HETATM   37  C14 UNL     1       6.276  -1.495   1.346  1.00  0.00     0.038 A 
HETATM   38  C15 UNL     1       6.994  -2.137   2.322  1.00  0.00     0.052 A 
HETATM   39  S1  UNL     1       7.112  -0.968   3.557  1.00  0.00    -0.111 SA
HETATM   40  C16 UNL     1       6.255   0.300   2.814  1.00  0.00     0.079 A 
ENDBRANCH  30  36
BRANCH  29  41
HETATM   41  N7  UNL     1       4.145   3.579  -0.992  1.00  0.00    -0.333 N 
ATOM     42  H72 UNL     1       3.486   3.886  -1.707  1.00  0.00     0.177 HD
ATOM     43  H71 UNL     1       4.665   4.397  -0.674  1.00  0.00     0.177 HD
ENDBRANCH  29  41
ENDBRANCH   1  23
TORSDOF 10
