REMARK  6 active torsions:
REMARK  status: ('A' for Active; 'I' for Inactive)
REMARK    1  A    between atoms: C2_2  and  C3_3 
REMARK    2  A    between atoms: C3_3  and  C4_4 
REMARK    3  A    between atoms: C4_4  and  C5_5 
REMARK    4  A    between atoms: C5_5  and  C6_6 
REMARK    5  A    between atoms: C9_9  and  N1_10 
REMARK       I    between atoms: N1_10  and  C10_12 
REMARK    6  A    between atoms: C10_12  and  C11_14 
ROOT
HETATM    1  C6  UNL     1      -2.900   0.070   1.142  1.00  0.00    -0.057 A 
HETATM    2  C7  UNL     1      -2.145   1.162   1.482  1.00  0.00     0.009 A 
HETATM    3  C8  UNL     1      -0.754   1.162   1.255  1.00  0.00     0.031 A 
HETATM    4  C9  UNL     1      -0.165   0.058   0.690  1.00  0.00     0.046 A 
HETATM    5  C21 UNL     1      -0.926  -1.060   0.338  1.00  0.00     0.001 A 
HETATM    6  C22 UNL     1      -0.333  -2.208  -0.307  1.00  0.00    -0.024 A 
HETATM    7  C23 UNL     1      -0.508  -3.449   0.320  1.00  0.00     0.012 A 
HETATM    8  C24 UNL     1      -0.019  -4.612  -0.232  1.00  0.00     0.001 A 
HETATM    9  C25 UNL     1       0.660  -4.592  -1.421  1.00  0.00     0.000 A 
HETATM   10  C26 UNL     1       0.830  -3.359  -2.038  1.00  0.00     0.001 A 
HETATM   11  C27 UNL     1       0.351  -2.196  -1.503  1.00  0.00     0.012 A 
HETATM   12  C28 UNL     1      -2.280  -1.018   0.578  1.00  0.00     0.021 A 
ENDROOT
BRANCH   4  13
HETATM   13  N1  UNL     1       1.214  -0.052   0.496  1.00  0.00    -0.322 N 
HETATM   14  C10 UNL     1       2.137   0.993   0.590  1.00  0.00     0.256 C 
HETATM   15  O1  UNL     1       1.834   2.163   0.851  1.00  0.00    -0.267 OA
ATOM     16  H1  UNL     1       1.579  -0.976   0.266  1.00  0.00     0.169 HD
BRANCH  14  17
HETATM   17  C11 UNL     1       3.590   0.750   0.372  1.00  0.00     0.033 A 
HETATM   18  C12 UNL     1       4.144  -0.500   0.440  1.00  0.00     0.018 A 
HETATM   19  C13 UNL     1       5.520  -0.659   0.215  1.00  0.00     0.013 A 
HETATM   20  C14 UNL     1       6.337   0.411  -0.074  1.00  0.00    -0.026 A 
HETATM   21  C15 UNL     1       7.696   0.271  -0.299  1.00  0.00     0.012 A 
HETATM   22  C19 UNL     1       5.769   1.664  -0.140  1.00  0.00    -0.025 A 
HETATM   23  C16 UNL     1       8.516   1.349  -0.590  1.00  0.00     0.001 A 
HETATM   24  C17 UNL     1       7.936   2.607  -0.654  1.00  0.00     0.001 A 
HETATM   25  C18 UNL     1       6.581   2.741  -0.430  1.00  0.00     0.012 A 
HETATM   26  C20 UNL     1       4.410   1.797   0.085  1.00  0.00     0.029 A 
ENDBRANCH  14  17
ENDBRANCH   4  13
BRANCH   1  27
HETATM   27  C5  UNL     1      -4.350   0.072   1.381  1.00  0.00     0.038 C 
BRANCH  27  28
HETATM   28  C4  UNL     1      -5.127   0.618   0.191  1.00  0.00     0.005 C 
BRANCH  28  29
HETATM   29  C3  UNL     1      -6.587   0.566   0.563  1.00  0.00    -0.000 C 
BRANCH  29  30
HETATM   30  C2  UNL     1      -7.488   1.079  -0.523  1.00  0.00    -0.005 C 
HETATM   31  C1  UNL     1      -7.234   2.502  -0.905  1.00  0.00     0.005 C 
ENDBRANCH  29  30
ENDBRANCH  28  29
ENDBRANCH  27  28
ENDBRANCH   1  27
TORSDOF 6
