REMARK  4 active torsions:
REMARK  status: ('A' for Active; 'I' for Inactive)
REMARK    1  A    between atoms: O1_2  and  C2_3 
REMARK    2  A    between atoms: C2_3  and  C3_4 
REMARK    3  A    between atoms: C8_10  and  C9_11 
REMARK    4  A    between atoms: C9_11  and  N1_12 
ROOT
HETATM    1  C3  UNL     1      -0.085  -0.057  -0.175  1.00  0.00     0.044 C 
HETATM    2  C4  UNL     1      -0.215  -1.521  -0.410  1.00  0.00    -0.008 C 
HETATM    3  C5  UNL     1      -0.657  -1.742  -1.863  1.00  0.00     0.010 C 
HETATM    4  C6  UNL     1       0.964  -2.355  -0.120  1.00  0.00     0.031 C 
HETATM    5  C7  UNL     1       1.900  -1.761   0.910  1.00  0.00     0.168 C 
HETATM    6  O2  UNL     1       2.097  -0.445   0.572  1.00  0.00    -0.384 OA
HETATM    7  C8  UNL     1       0.947   0.335   0.813  1.00  0.00     0.153 C 
ENDROOT
BRANCH   7   8
HETATM    8  C9  UNL     1       1.446   1.748   0.668  1.00  0.00     0.261 C 
BRANCH   8   9
HETATM    9  N1  UNL     1       1.984   2.006  -0.646  1.00  0.00    -0.077 N 
ATOM     10  H13 UNL     1       2.711   1.332  -0.885  1.00  0.00     0.274 HD
ATOM     11  H12 UNL     1       1.306   1.778  -1.373  1.00  0.00     0.274 HD
ATOM     12  H11 UNL     1       2.322   2.963  -0.744  1.00  0.00     0.274 HD
ENDBRANCH   8   9
ENDBRANCH   7   8
BRANCH   1  13
HETATM   13  C2  UNL     1      -1.469   0.464   0.123  1.00  0.00     0.174 C 
BRANCH  13  14
HETATM   14  O1  UNL     1      -1.530   1.806   0.365  1.00  0.00    -0.395 OA
HETATM   15  C1  UNL     1      -2.859   2.138   0.622  1.00  0.00     0.201 C 
ENDBRANCH  13  14
ENDBRANCH   1  13
TORSDOF 4
