REMARK  5 active torsions:
REMARK  status: ('A' for Active; 'I' for Inactive)
REMARK    1  A    between atoms: C2_2  and  N1_3 
REMARK    2  A    between atoms: N1_3  and  C3_6 
REMARK    3  A    between atoms: C3_6  and  C5_8 
REMARK    4  A    between atoms: C5_8  and  N2_9 
REMARK    5  A    between atoms: N2_9  and  C6_11 
ROOT
HETATM    1  N2  UNL     1      -0.700   0.132  -0.446  1.00  0.00    -0.360 N 
ATOM      2  H2  UNL     1      -0.074   0.780  -0.925  1.00  0.00     0.162 HD
ENDROOT
BRANCH   1   3
HETATM    3  C5  UNL     1      -0.139  -1.018   0.248  1.00  0.00     0.155 C 
BRANCH   3   4
HETATM    4  C3  UNL     1       1.371  -1.044   0.131  1.00  0.00     0.199 C 
HETATM    5  C4  UNL     1       1.708  -1.173  -1.322  1.00  0.00     0.041 C 
BRANCH   4   6
HETATM    6  N1  UNL     1       1.917   0.147   0.705  1.00  0.00    -0.070 N 
ATOM      7  H12 UNL     1       1.565   0.279   1.653  1.00  0.00     0.277 HD
ATOM      8  H11 UNL     1       1.521   0.973   0.256  1.00  0.00     0.277 HD
BRANCH   6   9
HETATM    9  C2  UNL     1       3.356   0.208   0.690  1.00  0.00     0.228 C 
HETATM   10  C1  UNL     1       3.739   1.533   1.348  1.00  0.00     0.034 C 
ENDBRANCH   6   9
ENDBRANCH   4   6
ENDBRANCH   3   4
ENDBRANCH   1   3
BRANCH   1  11
HETATM   11  C6  UNL     1      -2.118   0.375  -0.471  1.00  0.00     0.171 C 
HETATM   12  N3  UNL     1      -2.723   1.461  -0.095  1.00  0.00    -0.361 N 
HETATM   13  C7  UNL     1      -4.167   1.311  -0.277  1.00  0.00     0.142 C 
ATOM     14  H3  UNL     1      -2.261   2.293   0.272  1.00  0.00     0.162 HD
HETATM   15  C8  UNL     1      -4.328  -0.193  -0.296  1.00  0.00     0.142 C 
HETATM   16  N4  UNL     1      -3.080  -0.568  -0.931  1.00  0.00    -0.361 N 
ATOM     17  H4  UNL     1      -2.924  -1.345  -1.573  1.00  0.00     0.162 HD
ENDBRANCH   1  11
TORSDOF 5
