REMARK  10 active torsions:
REMARK  status: ('A' for Active; 'I' for Inactive)
REMARK    1  A    between atoms: N1_2  and  C2_5 
REMARK    2  A    between atoms: C2_5  and  C3_6 
REMARK    3  A    between atoms: C3_6  and  N2_7 
REMARK    4  A    between atoms: N2_7  and  C4_10 
REMARK    5  A    between atoms: C4_10  and  C5_11 
REMARK    6  A    between atoms: C5_11  and  N3_12 
REMARK    7  A    between atoms: N3_12  and  C6_14 
REMARK    8  A    between atoms: C6_14  and  C7_15 
REMARK    9  A    between atoms: C7_15  and  N4_17 
REMARK   10  A    between atoms: N4_17  and  C9_19 
ROOT
HETATM    1  N4  UNL     1      -1.842  -0.014   1.759  1.00  0.00    -0.217 N 
ATOM      2  H4  UNL     1      -2.072  -0.370   2.687  1.00  0.00     0.178 HD
ENDROOT
BRANCH   1   3
HETATM    3  C7  UNL     1      -0.468   0.409   1.509  1.00  0.00     0.133 C 
HETATM    4  C8  UNL     1       0.141   0.768   2.833  1.00  0.00     0.038 C 
BRANCH   3   5
HETATM    5  C6  UNL     1       0.177  -0.759   0.834  1.00  0.00     0.080 C 
BRANCH   5   6
HETATM    6  N3  UNL     1       1.524  -0.695   0.484  1.00  0.00    -0.399 N 
ATOM      7  H3  UNL     1       1.779  -0.634  -0.502  1.00  0.00     0.158 HD
BRANCH   6   8
HETATM    8  C5  UNL     1       2.545  -0.713   1.458  1.00  0.00     0.146 C 
BRANCH   8   9
HETATM    9  C4  UNL     1       3.863  -0.763   0.639  1.00  0.00     0.251 C 
BRANCH   9  10
HETATM   10  N2  UNL     1       3.947   0.422  -0.165  1.00  0.00    -0.072 N 
ATOM     11  H22 UNL     1       4.065   1.247   0.423  1.00  0.00     0.277 HD
ATOM     12  H21 UNL     1       3.042   0.637  -0.583  1.00  0.00     0.277 HD
BRANCH  10  13
HETATM   13  C3  UNL     1       4.964   0.368  -1.167  1.00  0.00     0.259 C 
BRANCH  13  14
HETATM   14  C2  UNL     1       6.394   0.341  -0.659  1.00  0.00     0.259 C 
BRANCH  14  15
HETATM   15  N1  UNL     1       7.242   0.286  -1.849  1.00  0.00    -0.077 N 
HETATM   16  C1  UNL     1       8.643   0.207  -1.576  1.00  0.00     0.267 C 
ATOM     17  H12 UNL     1       7.044   1.076  -2.463  1.00  0.00     0.276 HD
ATOM     18  H11 UNL     1       6.954  -0.483  -2.455  1.00  0.00     0.276 HD
ENDBRANCH  14  15
ENDBRANCH  13  14
ENDBRANCH  10  13
ENDBRANCH   9  10
ENDBRANCH   8   9
ENDBRANCH   6   8
ENDBRANCH   5   6
ENDBRANCH   3   5
ENDBRANCH   1   3
BRANCH   1  19
HETATM   19  C9  UNL     1      -2.788   0.035   0.875  1.00  0.00     0.683 A 
HETATM   20  N5  UNL     1      -2.623   0.487  -0.380  1.00  0.00    -0.154 N 
HETATM   21  C10 UNL     1      -3.633   0.452  -1.295  1.00  0.00     0.290 A 
ATOM     22  H5  UNL     1      -1.717   0.867  -0.655  1.00  0.00     0.187 HD
HETATM   23  O1  UNL     1      -3.448   0.879  -2.455  1.00  0.00    -0.265 OA
HETATM   24  C11 UNL     1      -4.872  -0.051  -0.967  1.00  0.00     0.152 A 
HETATM   25  C12 UNL     1      -5.039  -0.514   0.330  1.00  0.00     0.159 A 
HETATM   26  N8  UNL     1      -6.008  -0.203  -1.667  1.00  0.00    -0.296 N 
HETATM   27  N6  UNL     1      -4.003  -0.456   1.202  1.00  0.00    -0.174 N 
HETATM   28  N7  UNL     1      -6.301  -0.944   0.386  1.00  0.00    -0.287 N 
ATOM     29  H6  UNL     1      -4.148  -0.800   2.151  1.00  0.00     0.186 HD
HETATM   30  C13 UNL     1      -6.926  -1.518   1.547  1.00  0.00     0.163 C 
HETATM   31  C14 UNL     1      -6.896  -0.765  -0.802  1.00  0.00     0.330 A 
HETATM   32  O2  UNL     1      -8.080  -1.068  -1.074  1.00  0.00    -0.246 OA
HETATM   33  C15 UNL     1      -6.302   0.129  -3.049  1.00  0.00     0.161 C 
ENDBRANCH   1  19
TORSDOF 10
