REMARK  7 active torsions:
REMARK  status: ('A' for Active; 'I' for Inactive)
REMARK    1  A    between atoms: N1_5  and  C5_6 
REMARK    2  A    between atoms: C5_6  and  C6_7 
REMARK    3  A    between atoms: C7_9  and  N2_10 
REMARK    4  A    between atoms: N2_10  and  C8_11 
REMARK    5  A    between atoms: N2_10  and  C10_14 
REMARK    6  A    between atoms: C10_14  and  N3_16 
REMARK    7  A    between atoms: N3_16  and  C12_19 
ROOT
HETATM    1  N2  UNL     1      -0.209   0.688  -1.231  1.00  0.00    -0.158 N 
ENDROOT
BRANCH   1   2
HETATM    2  C7  UNL     1       0.827   0.396  -0.327  1.00  0.00     0.678 C 
HETATM    3  N1  UNL     1       1.642  -0.754  -0.313  1.00  0.00    -0.217 N 
HETATM    4  C4  UNL     1       3.050  -0.701   0.113  1.00  0.00     0.143 C 
HETATM    5  C3  UNL     1       3.366   0.620   0.770  1.00  0.00     0.045 C 
HETATM    6  C2  UNL     1       2.144   1.022   1.556  1.00  0.00     0.096 C 
HETATM    7  C1  UNL     1       2.381   2.214   2.435  1.00  0.00     0.032 C 
HETATM    8  N4  UNL     1       1.070   1.290   0.604  1.00  0.00    -0.222 N 
ATOM      9  H4  UNL     1       0.523   2.149   0.660  1.00  0.00     0.178 HD
BRANCH   3  10
HETATM   10  C5  UNL     1       1.146  -2.040  -0.711  1.00  0.00     0.156 C 
BRANCH  10  11
HETATM   11  C6  UNL     1       1.056  -3.006   0.461  1.00  0.00     0.135 C 
HETATM   12 CL1  UNL     1       0.435  -4.585  -0.078  1.00  0.00    -0.129 Cl
ENDBRANCH  10  11
ENDBRANCH   3  10
ENDBRANCH   1   2
BRANCH   1  13
HETATM   13  C8  UNL     1       0.103   1.064  -2.584  1.00  0.00     0.286 C 
HETATM   14  C9  UNL     1       0.942   0.097  -3.358  1.00  0.00     0.069 C 
HETATM   15  F1  UNL     1       0.839   2.249  -2.514  1.00  0.00    -0.227 F 
ENDBRANCH   1  13
BRANCH   1  16
HETATM   16  C10 UNL     1      -1.590   0.674  -0.808  1.00  0.00     0.301 C 
HETATM   17  C11 UNL     1      -2.563   0.858  -1.922  1.00  0.00     0.064 C 
BRANCH  16  18
HETATM   18  N3  UNL     1      -1.876  -0.357   0.118  1.00  0.00    -0.050 N 
ATOM     19  H32 UNL     1      -1.863  -1.265  -0.347  1.00  0.00     0.280 HD
ATOM     20  H31 UNL     1      -1.097  -0.479   0.765  1.00  0.00     0.280 HD
BRANCH  18  21
HETATM   21  C12 UNL     1      -3.111  -0.184   0.847  1.00  0.00     0.180 C 
HETATM   22  C13 UNL     1      -3.106   1.065   1.705  1.00  0.00     0.039 C 
HETATM   23  C14 UNL     1      -3.210  -1.380   1.805  1.00  0.00     0.039 C 
ENDBRANCH  18  21
ENDBRANCH  16  18
ENDBRANCH   1  16
TORSDOF 7
