REMARK  17 active torsions:
REMARK  status: ('A' for Active; 'I' for Inactive)
REMARK    1  A    between atoms: C5_6  and  C6_7 
REMARK    2  A    between atoms: C7_8  and  C8_9 
REMARK    3  A    between atoms: C8_9  and  N2_10 
REMARK       I    between atoms: N2_10  and  C9_12 
REMARK       I    between atoms: C9_12  and  N3_14 
REMARK    4  A    between atoms: N3_14  and  C10_16 
REMARK    5  A    between atoms: C10_16  and  C11_17 
REMARK    6  A    between atoms: C12_18  and  C13_19 
REMARK    7  A    between atoms: C13_19  and  C14_20 
REMARK    8  A    between atoms: C14_20  and  C15_21 
REMARK    9  A    between atoms: C16_22  and  C17_23 
REMARK   10  A    between atoms: C21_27  and  C22_28 
REMARK   11  A    between atoms: C25_35  and  C26_36 
REMARK   12  A    between atoms: N5_39  and  C29_40 
REMARK   13  A    between atoms: C29_40  and  C30_41 
REMARK   14  A    between atoms: C31_42  and  C32_43 
REMARK   15  A    between atoms: C32_43  and  N6_44 
REMARK   16  A    between atoms: C35_47  and  S1_48 
REMARK   17  A    between atoms: S1_48  and  N7_49 
ROOT
HETATM    1  C17 UNL     1       1.534   1.900  -0.044  1.00  0.00    -0.023 A 
HETATM    2  C18 UNL     1       1.253   1.773  -1.416  1.00  0.00     0.026 A 
HETATM    3  C19 UNL     1       2.085   1.117  -2.275  1.00  0.00    -0.006 A 
HETATM    4  C20 UNL     1       2.005   0.928  -3.645  1.00  0.00     0.050 A 
HETATM    5  C21 UNL     1       3.134   0.237  -4.019  1.00  0.00     0.111 A 
HETATM    6  N4  UNL     1       3.875   0.011  -2.897  1.00  0.00    -0.350 N 
ATOM      7  H4  UNL     1       4.766  -0.484  -2.871  1.00  0.00     0.166 HD
HETATM    8  C23 UNL     1       3.247   0.544  -1.821  1.00  0.00     0.044 A 
HETATM    9  C24 UNL     1       3.553   0.639  -0.504  1.00  0.00     0.045 A 
HETATM   10  C25 UNL     1       2.715   1.314   0.412  1.00  0.00     0.004 A 
ENDROOT
BRANCH   1  11
HETATM   11  C16 UNL     1       0.705   2.636   0.867  1.00  0.00     0.008 C 
HETATM   12  C15 UNL     1      -0.283   3.431   0.732  1.00  0.00    -0.026 C 
BRANCH  12  13
HETATM   13  C14 UNL     1      -1.002   3.930  -0.416  1.00  0.00     0.031 C 
BRANCH  13  14
HETATM   14  C13 UNL     1      -2.460   3.468  -0.345  1.00  0.00     0.030 C 
BRANCH  14  15
HETATM   15  C12 UNL     1      -2.450   1.944  -0.307  1.00  0.00    -0.029 C 
HETATM   16  C11 UNL     1      -3.149   1.294  -1.197  1.00  0.00    -0.011 C 
BRANCH  16  17
HETATM   17  C10 UNL     1      -3.323  -0.152  -1.409  1.00  0.00     0.151 C 
BRANCH  17  18
HETATM   18  N3  UNL     1      -4.656  -0.562  -1.092  1.00  0.00    -0.340 N 
HETATM   19  C9  UNL     1      -5.823  -0.058  -1.661  1.00  0.00     0.317 C 
HETATM   20  N2  UNL     1      -7.099  -0.503  -1.224  1.00  0.00    -0.333 N 
HETATM   21  O1  UNL     1      -5.812   0.804  -2.563  1.00  0.00    -0.247 OA
ATOM     22  H2  UNL     1      -7.134  -1.218  -0.497  1.00  0.00     0.165 HD
ATOM     23  H3  UNL     1      -4.762  -1.290  -0.385  1.00  0.00     0.164 HD
BRANCH  20  24
HETATM   24  C8  UNL     1      -8.361   0.000  -1.751  1.00  0.00     0.219 C 
BRANCH  24  25
HETATM   25  C7  UNL     1      -9.504  -0.643  -1.088  1.00  0.00    -0.081 C 
HETATM   26  C6  UNL     1     -10.436  -1.171  -0.523  1.00  0.00    -0.064 C 
BRANCH  26  27
HETATM   27  C5  UNL     1     -11.534  -1.819   0.167  1.00  0.00     0.033 A 
HETATM   28  C4  UNL     1     -11.615  -3.177   0.337  1.00  0.00     0.023 A 
HETATM   29  C3  UNL     1     -12.675  -3.780   1.004  1.00  0.00     0.019 A 
HETATM   30  C2  UNL     1     -13.651  -2.943   1.490  1.00  0.00     0.090 A 
HETATM   31  N1  UNL     1     -13.569  -1.617   1.322  1.00  0.00    -0.369 N 
HETATM   32  C1  UNL     1     -14.663  -0.837   1.876  1.00  0.00     0.154 C 
HETATM   33  C38 UNL     1     -12.548  -1.028   0.679  1.00  0.00     0.110 A 
ENDBRANCH  26  27
ENDBRANCH  24  25
ENDBRANCH  20  24
ENDBRANCH  17  18
ENDBRANCH  16  17
ENDBRANCH  14  15
ENDBRANCH  13  14
ENDBRANCH  12  13
ENDBRANCH   1  11
BRANCH  10  34
HETATM   34  C26 UNL     1       3.163   1.297   1.807  1.00  0.00     0.060 A 
HETATM   35  C27 UNL     1       3.188   2.182   2.827  1.00  0.00     0.050 A 
HETATM   36  C28 UNL     1       3.877   1.582   3.879  1.00  0.00     0.113 A 
HETATM   37  N5  UNL     1       4.264   0.363   3.513  1.00  0.00    -0.292 N 
HETATM   38  N8  UNL     1       3.848   0.192   2.302  1.00  0.00    -0.297 N 
ATOM     39  H8  UNL     1       4.005  -0.662   1.766  1.00  0.00     0.187 HD
BRANCH  37  40
HETATM   40  C29 UNL     1       5.030  -0.643   4.281  1.00  0.00     0.241 C 
BRANCH  40  41
HETATM   41  C30 UNL     1       6.469  -0.483   4.044  1.00  0.00    -0.083 C 
HETATM   42  C31 UNL     1       7.655  -0.357   3.875  1.00  0.00    -0.085 C 
BRANCH  42  43
HETATM   43  C32 UNL     1       9.092  -0.231   3.715  1.00  0.00     0.221 C 
BRANCH  43  44
HETATM   44  N6  UNL     1       9.545  -0.648   2.386  1.00  0.00    -0.355 N 
HETATM   45  C33 UNL     1       9.860  -1.930   2.154  1.00  0.00     0.093 A 
HETATM   46  C34 UNL     1      10.344  -2.331   0.895  1.00  0.00     0.042 A 
HETATM   47  C35 UNL     1      10.506  -1.427  -0.120  1.00  0.00     0.082 A 
HETATM   48  C36 UNL     1      10.171  -0.094   0.140  1.00  0.00     0.042 A 
HETATM   49  C37 UNL     1       9.693   0.255   1.409  1.00  0.00     0.093 A 
BRANCH  47  50
HETATM   50  S1  UNL     1      11.142  -1.881  -1.700  1.00  0.00     0.256 S 
HETATM   51  O4  UNL     1      12.188  -2.956  -1.530  1.00  0.00    -0.201 OA
HETATM   52  O5  UNL     1      11.834  -0.701  -2.337  1.00  0.00    -0.201 OA
BRANCH  50  53
HETATM   53  N7  UNL     1       9.872  -2.454  -2.694  1.00  0.00    -0.324 N 
ATOM     54  H72 UNL     1       8.897  -2.517  -2.401  1.00  0.00     0.169 HD
ATOM     55  H71 UNL     1      10.240  -2.717  -3.608  1.00  0.00     0.169 HD
ENDBRANCH  50  53
ENDBRANCH  47  50
ENDBRANCH  43  44
ENDBRANCH  42  43
ENDBRANCH  40  41
ENDBRANCH  37  40
ENDBRANCH  10  34
BRANCH   5  56
HETATM   56  C22 UNL     1       3.463  -0.094  -5.383  1.00  0.00     0.226 C 
HETATM   57  O2  UNL     1       2.735   0.105  -6.350  1.00  0.00    -0.643 OA
HETATM   58  O3  UNL     1       4.731  -0.689  -5.580  1.00  0.00    -0.643 OA
ENDBRANCH   5  56
TORSDOF 17
