REMARK  10 active torsions:
REMARK  status: ('A' for Active; 'I' for Inactive)
REMARK    1  A    between atoms: O1_2  and  C2_3 
REMARK    2  A    between atoms: C2_3  and  C3_5 
REMARK    3  A    between atoms: C4_6  and  N1_7 
REMARK       I    between atoms: N1_7  and  C5_9 
REMARK    4  A    between atoms: N4_17  and  N5_18 
REMARK    5  A    between atoms: N6_20  and  C8_22 
REMARK    6  A    between atoms: N9_29  and  C10_30 
REMARK    7  A    between atoms: C10_30  and  O4_31 
REMARK    8  A    between atoms: C11_33  and  O5_34 
REMARK    9  A    between atoms: C13_37  and  C14_38 
REMARK   10  A    between atoms: C14_38  and  O6_39 
ROOT
HETATM    1  C3  UNL     1      -3.110  -0.625   0.320  1.00  0.00     0.134 C 
HETATM    2  C4  UNL     1      -2.908   0.243  -0.690  1.00  0.00     0.098 C 
HETATM    3  C7  UNL     1      -1.525   0.652  -1.022  1.00  0.00     0.107 A 
HETATM    4  N2  UNL     1      -0.978   1.421  -1.989  1.00  0.00    -0.280 N 
ATOM      5  H2  UNL     1      -1.514   1.929  -2.692  1.00  0.00     0.188 HD
HETATM    6  N3  UNL     1       0.333   1.430  -1.907  1.00  0.00    -0.219 N 
ATOM      7  H3  UNL     1       0.956   1.941  -2.532  1.00  0.00     0.210 HD
HETATM    8  N4  UNL     1       0.723   0.679  -0.894  1.00  0.00    -0.167 N 
HETATM    9  C12 UNL     1      -0.435   0.188  -0.332  1.00  0.00     0.110 A 
HETATM   10  C13 UNL     1      -0.614  -0.659   0.849  1.00  0.00     0.162 C 
HETATM   11  N10 UNL     1      -1.920  -1.203   0.896  1.00  0.00    -0.371 N 
ATOM     12  H10 UNL     1      -2.031  -2.091   1.385  1.00  0.00     0.160 HD
ENDROOT
BRANCH   8  13
HETATM   13  N5  UNL     1       2.034   0.425  -0.481  1.00  0.00    -0.218 N 
HETATM   14  N6  UNL     1       2.636  -0.669  -0.761  1.00  0.00    -0.265 N 
ATOM     15  H6  UNL     1       2.185  -1.408  -1.300  1.00  0.00     0.190 HD
ATOM     16  H5  UNL     1       2.527   1.135   0.061  1.00  0.00     0.210 HD
BRANCH  14  17
HETATM   17  C8  UNL     1       3.974  -0.800  -0.278  1.00  0.00     0.188 A 
HETATM   18  N7  UNL     1       4.472  -1.786   0.504  1.00  0.00    -0.171 N 
HETATM   19  C9  UNL     1       5.773  -1.533   0.729  1.00  0.00     0.683 A 
ATOM     20  H7  UNL     1       3.949  -2.585   0.862  1.00  0.00     0.186 HD
HETATM   21  N8  UNL     1       6.570  -2.261   1.434  1.00  0.00    -0.234 N 
HETATM   22  N9  UNL     1       6.092  -0.389   0.089  1.00  0.00    -0.137 N 
ATOM     23  H82 UNL     1       6.329  -3.126   1.918  1.00  0.00     0.174 HD
ATOM     24  H81 UNL     1       7.557  -2.069   1.605  1.00  0.00     0.174 HD
HETATM   25  C11 UNL     1       4.992   0.076  -0.537  1.00  0.00     0.206 A 
BRANCH  22  26
HETATM   26  C10 UNL     1       7.370   0.272   0.045  1.00  0.00     0.316 C 
BRANCH  26  27
HETATM   27  O4  UNL     1       7.446   1.173   1.113  1.00  0.00    -0.381 OA
ATOM     28  H4  UNL     1       8.289   1.609   1.084  1.00  0.00     0.211 HD
ENDBRANCH  26  27
ENDBRANCH  22  26
BRANCH  25  29
HETATM   29  O5  UNL     1       4.903   1.244  -1.313  1.00  0.00    -0.343 OA
ATOM     30  H5  UNL     1       5.610   1.852  -1.493  1.00  0.00     0.219 HD
ENDBRANCH  25  29
ENDBRANCH  14  17
ENDBRANCH   8  13
BRANCH  10  31
HETATM   31  C14 UNL     1      -0.416   0.174   2.122  1.00  0.00     0.195 C 
BRANCH  31  32
HETATM   32  O6  UNL     1       0.817   0.761   2.211  1.00  0.00    -0.398 OA
ATOM     33  H6  UNL     1       0.940   1.277   2.999  1.00  0.00     0.209 HD
ENDBRANCH  31  32
ENDBRANCH  10  31
BRANCH   2  34
HETATM   34  N1  UNL     1      -4.015   0.776  -1.340  1.00  0.00    -0.323 N 
HETATM   35  C5  UNL     1      -4.109   1.686  -2.405  1.00  0.00     0.218 C 
HETATM   36  C6  UNL     1      -5.534   2.054  -2.870  1.00  0.00     0.117 C 
HETATM   37  O3  UNL     1      -3.215   2.249  -3.043  1.00  0.00    -0.274 OA
ATOM     38  H1  UNL     1      -4.913   0.450  -0.982  1.00  0.00     0.169 HD
ENDBRANCH   2  34
BRANCH   1  39
HETATM   39  C2  UNL     1      -4.376  -1.074   0.827  1.00  0.00     0.311 C 
HETATM   40  O2  UNL     1      -4.348  -1.914   1.808  1.00  0.00    -0.258 OA
BRANCH  39  41
HETATM   41  O1  UNL     1      -5.659  -0.776   0.460  1.00  0.00    -0.321 OA
HETATM   42  C1  UNL     1      -6.823  -1.306   1.063  1.00  0.00     0.213 C 
ENDBRANCH  39  41
ENDBRANCH   1  39
TORSDOF 10
