REMARK  9 active torsions:
REMARK  status: ('A' for Active; 'I' for Inactive)
REMARK    1  A    between atoms: C1_2  and  C2_3 
REMARK    2  A    between atoms: C3_4  and  C4_5 
REMARK    3  A    between atoms: C5_6  and  C6_7 
REMARK    4  A    between atoms: C7_8  and  N1_9 
REMARK    5  A    between atoms: C11_15  and  O2_16 
REMARK    6  A    between atoms: O2_16  and  C12_17 
REMARK    7  A    between atoms: C12_17  and  C13_18 
REMARK    8  A    between atoms: C13_18  and  C14_19 
REMARK    9  A    between atoms: C14_19  and  S1_20 
ROOT
HETATM    1  N1  UNL     1      -0.093  -0.694  -0.199  1.00  0.00    -0.299 N 
HETATM    2  C8  UNL     1       0.347  -1.659   0.604  1.00  0.00     0.101 A 
HETATM    3  C9  UNL     1      -0.489  -2.641   1.137  1.00  0.00     0.035 A 
HETATM    4  C10 UNL     1      -1.818  -2.610   0.818  1.00  0.00     0.093 A 
HETATM    5  N2  UNL     1      -2.258  -1.643   0.013  1.00  0.00    -0.332 N 
ATOM      6  H2  UNL     1      -3.250  -1.620  -0.225  1.00  0.00     0.168 HD
HETATM    7  C11 UNL     1      -1.455  -0.702  -0.496  1.00  0.00     0.229 A 
ENDROOT
BRANCH   1   8
HETATM    8  C7  UNL     1       0.659   0.337  -0.784  1.00  0.00     0.100 C 
HETATM    9  C6  UNL     1       1.887   0.667  -0.751  1.00  0.00     0.018 C 
BRANCH   9  10
HETATM   10  C5  UNL     1       3.024   0.143  -0.113  1.00  0.00     0.001 C 
HETATM   11  C4  UNL     1       4.229   0.767  -0.299  1.00  0.00     0.000 C 
BRANCH  11  12
HETATM   12  C3  UNL     1       5.439   0.282   0.326  1.00  0.00     0.003 C 
HETATM   13  C2  UNL     1       6.574   0.911   0.120  1.00  0.00     0.041 C 
BRANCH  13  14
HETATM   14  C1  UNL     1       7.776   0.411   0.755  1.00  0.00     0.258 C 
HETATM   15  O1  UNL     1       8.882   0.991   0.578  1.00  0.00    -0.302 OA
ENDBRANCH  13  14
ENDBRANCH  11  12
ENDBRANCH   9  10
ENDBRANCH   1   8
BRANCH   7  16
HETATM   16  O2  UNL     1      -1.952   0.273  -1.319  1.00  0.00    -0.322 OA
BRANCH  16  17
HETATM   17  C12 UNL     1      -3.270   0.414  -1.702  1.00  0.00     0.180 C 
BRANCH  17  18
HETATM   18  C13 UNL     1      -4.176   0.688  -0.540  1.00  0.00     0.043 C 
BRANCH  18  19
HETATM   19  C14 UNL     1      -5.599   0.837  -1.114  1.00  0.00     0.159 C 
BRANCH  19  20
HETATM   20  S1  UNL     1      -6.683   1.162   0.248  1.00  0.00     0.250 S 
HETATM   21  O3  UNL     1      -6.576  -0.151   1.304  1.00  0.00    -0.212 OA
HETATM   22  O4  UNL     1      -6.086   2.526   1.053  1.00  0.00    -0.212 OA
ENDBRANCH  19  20
ENDBRANCH  18  19
ENDBRANCH  17  18
ENDBRANCH  16  17
ENDBRANCH   7  16
TORSDOF 9
