REMARK  5 active torsions:
REMARK  status: ('A' for Active; 'I' for Inactive)
REMARK    1  A    between atoms: C2_2  and  N1_3 
REMARK    2  A    between atoms: C2_2  and  C7_10 
REMARK    3  A    between atoms: N1_3  and  C3_5 
REMARK    4  A    between atoms: C7_10  and  O2_11 
REMARK    5  A    between atoms: C7_10  and  C9_15 
ROOT
HETATM    1  C7  UNL     1      -1.218  -0.252  -1.360  1.00  0.00     0.194 C 
HETATM    2  C8  UNL     1      -1.311  -1.666  -1.706  1.00  0.00     0.105 C 
HETATM    3  N2  UNL     1      -1.391  -2.796  -1.962  1.00  0.00    -0.194 NA
ENDROOT
BRANCH   1   4
HETATM    4  C2  UNL     1       0.207   0.255  -1.528  1.00  0.00     0.127 C 
HETATM    5  C1  UNL     1       0.473   0.062  -3.047  1.00  0.00     0.036 C 
BRANCH   4   6
HETATM    6  N1  UNL     1       1.228  -0.380  -0.876  1.00  0.00    -0.407 N 
ATOM      7  H1  UNL     1       1.906  -0.838  -1.485  1.00  0.00     0.154 HD
BRANCH   6   8
HETATM    8  C3  UNL     1       1.485  -0.499   0.466  1.00  0.00     0.103 C 
HETATM    9  C4  UNL     1       1.750   0.702   1.307  1.00  0.00     0.053 C 
HETATM   10  C5  UNL     1       3.218   0.989   1.077  1.00  0.00     0.169 C 
HETATM   11  O1  UNL     1       3.762  -0.107   0.456  1.00  0.00    -0.389 OA
HETATM   12  C6  UNL     1       2.888  -1.172   0.584  1.00  0.00     0.192 C 
ENDBRANCH   6   8
ENDBRANCH   4   6
ENDBRANCH   1   4
BRANCH   1  13
HETATM   13  O2  UNL     1      -2.070   0.542  -2.207  1.00  0.00    -0.370 OA
ATOM     14  H2  UNL     1      -2.960   0.226  -2.102  1.00  0.00     0.212 HD
ENDBRANCH   1  13
BRANCH   1  15
HETATM   15  C9  UNL     1      -1.793  -0.007  -0.022  1.00  0.00    -0.006 A 
HETATM   16  C10 UNL     1      -2.180  -1.063   0.757  1.00  0.00     0.011 A 
HETATM   17  C11 UNL     1      -2.749  -0.862   2.022  1.00  0.00     0.002 A 
HETATM   18  C12 UNL     1      -2.919   0.414   2.484  1.00  0.00     0.024 A 
HETATM   19  C13 UNL     1      -2.532   1.497   1.706  1.00  0.00     0.034 A 
HETATM   20 CL1  UNL     1      -2.767   3.119   2.329  1.00  0.00    -0.084 Cl
HETATM   21  C14 UNL     1      -1.970   1.267   0.456  1.00  0.00     0.035 A 
ENDBRANCH   1  15
TORSDOF 5
