REMARK  3 active torsions:
REMARK  status: ('A' for Active; 'I' for Inactive)
REMARK    1  A    between atoms: N1_3  and  O1_5 
REMARK    2  A    between atoms: O1_5  and  C3_6 
REMARK    3  A    between atoms: C7_10  and  N2_11 
ROOT
HETATM    1  C3  UNL     1       0.328  -0.269  -0.230  1.00  0.00     0.154 C 
HETATM    2  C4  UNL     1      -0.051   1.122   0.163  1.00  0.00     0.034 C 
HETATM    3  C5  UNL     1      -1.350   1.253   0.857  1.00  0.00     0.005 C 
HETATM    4  C6  UNL     1      -2.464   0.427   0.341  1.00  0.00     0.033 C 
HETATM    5  C7  UNL     1      -2.038  -0.833  -0.361  1.00  0.00     0.186 C 
HETATM    6  C8  UNL     1      -0.701  -1.304   0.155  1.00  0.00     0.067 C 
ENDROOT
BRANCH   1   7
HETATM    7  O1  UNL     1       1.553  -0.663   0.346  1.00  0.00    -0.276 OA
BRANCH   7   8
HETATM    8  N1  UNL     1       2.604  -1.010  -0.431  1.00  0.00    -0.282 N 
HETATM    9  C2  UNL     1       3.685  -0.340  -0.433  1.00  0.00     0.082 C 
HETATM   10  C1  UNL     1       3.809   0.858   0.437  1.00  0.00     0.057 C 
ATOM     11  H1  UNL     1       2.528  -1.831  -1.031  1.00  0.00     0.193 HD
ENDBRANCH   7   8
ENDBRANCH   1   7
BRANCH   5  12
HETATM   12  N2  UNL     1      -3.057  -1.845  -0.228  1.00  0.00    -0.075 N 
ATOM     13  H23 UNL     1      -3.300  -2.016   0.748  1.00  0.00     0.274 HD
ATOM     14  H22 UNL     1      -3.966  -1.516  -0.553  1.00  0.00     0.274 HD
ATOM     15  H21 UNL     1      -2.768  -2.700  -0.704  1.00  0.00     0.274 HD
ENDBRANCH   5  12
TORSDOF 3
