REMARK  1 active torsions:
REMARK  status: ('A' for Active; 'I' for Inactive)
REMARK    1  A    between atoms: C2_2  and  C3_3 
ROOT
HETATM    1  C3  UNL     1       1.149   0.067   0.001  1.00  0.00     0.138 A 
HETATM    2  C4  UNL     1       1.661  -1.131   0.813  1.00  0.00     0.057 C 
HETATM    3  O1  UNL     1       0.529  -0.205  -1.219  1.00  0.00    -0.329 OA
HETATM    4  C5  UNL     1      -0.128   0.430  -0.049  1.00  0.00     0.245 A 
HETATM    5  O2  UNL     1      -0.595   1.714  -0.304  1.00  0.00    -0.240 OA
HETATM    6  N1  UNL     1      -1.621   1.390   0.554  1.00  0.00    -0.082 NA
HETATM    7  C6  UNL     1      -1.505   0.041   0.023  1.00  0.00     0.111 C 
HETATM    8  C7  UNL     1      -2.325  -0.008  -1.268  1.00  0.00     0.042 C 
HETATM    9  C8  UNL     1      -1.952  -1.045   0.952  1.00  0.00     0.042 C 
ENDROOT
BRANCH   1  10
HETATM   10  C2  UNL     1       2.247   1.070  -0.179  1.00  0.00     0.006 C 
HETATM   11  C1  UNL     1       3.504   0.708  -0.390  1.00  0.00     0.010 C 
ENDBRANCH   1  10
TORSDOF 1
