REMARK  2 active torsions:
REMARK  status: ('A' for Active; 'I' for Inactive)
REMARK       I    between atoms: C1_2  and  N1_3 
REMARK    1  A    between atoms: C1_2  and  C5_8 
REMARK    2  A    between atoms: N1_3  and  C2_5 
ROOT
HETATM    1  O1  UNL     1       1.056  -1.577   0.927  1.00  0.00    -0.273 OA
HETATM    2  C1  UNL     1       0.828  -0.759   0.024  1.00  0.00     0.227 C 
HETATM    3  N1  UNL     1      -0.377  -0.073  -0.220  1.00  0.00    -0.356 N 
ATOM      4  H1  UNL     1      -0.425   0.577  -1.005  1.00  0.00     0.162 HD
ENDROOT
BRANCH   2   5
HETATM    5  C5  UNL     1       1.990  -0.464  -0.938  1.00  0.00     0.045 A 
HETATM    6  C6  UNL     1       3.107  -0.889  -0.645  1.00  0.00     0.025 A 
HETATM    7  C7  UNL     1       3.457  -0.736  -0.178  1.00  0.00     0.006 A 
HETATM    8  C8  UNL     1       3.216   0.095   0.722  1.00  0.00     0.025 A 
ENDBRANCH   2   5
BRANCH   3   9
HETATM    9  C2  UNL     1      -1.556  -0.262   0.612  1.00  0.00     0.084 A 
HETATM   10  C3  UNL     1      -2.377   0.978   0.849  1.00  0.00     0.027 A 
HETATM   11  C4  UNL     1      -2.888  -0.117  -0.022  1.00  0.00     0.027 A 
ENDBRANCH   3   9
TORSDOF 2
