REMARK  12 active torsions:
REMARK  status: ('A' for Active; 'I' for Inactive)
REMARK    1  A    between atoms: C2_2  and  C3_4 
REMARK    2  A    between atoms: C6_15  and  C7_16 
REMARK    3  A    between atoms: C7_16  and  O3_17 
REMARK    4  A    between atoms: C7_16  and  N7_34 
REMARK    5  A    between atoms: O3_17  and  C8_18 
REMARK    6  A    between atoms: C8_18  and  C9_20 
REMARK    7  A    between atoms: C10_24  and  C11_25 
REMARK    8  A    between atoms: C11_25  and  N5_26 
REMARK    9  A    between atoms: C11_25  and  O6_30 
REMARK   10  A    between atoms: C12_37  and  O7_38 
REMARK   11  A    between atoms: C13_40  and  O8_41 
REMARK   12  A    between atoms: C14_43  and  O9_44 
ROOT
HETATM    1  C7  UNL     1      -1.097  -0.430  -0.703  1.00  0.00     0.309 C 
ENDROOT
BRANCH   1   2
HETATM    2  C6  UNL     1      -1.892   0.541   0.034  1.00  0.00     0.094 A 
HETATM    3  C3  UNL     1      -1.561   1.009   1.309  1.00  0.00     0.107 A 
HETATM    4  N1  UNL     1      -2.362   1.922   1.946  1.00  0.00    -0.334 N 
HETATM    5  C4  UNL     1      -3.462   2.354   1.323  1.00  0.00     0.169 A 
ATOM      6  H1  UNL     1      -2.123   2.264   2.877  1.00  0.00     0.168 HD
HETATM    7  N2  UNL     1      -4.216   3.225   1.944  1.00  0.00    -0.381 N 
HETATM    8  C5  UNL     1      -3.785   1.891   0.067  1.00  0.00     0.289 A 
ATOM      9  H22 UNL     1      -3.977   3.568   2.874  1.00  0.00     0.157 HD
ATOM     10  H21 UNL     1      -5.056   3.555   1.468  1.00  0.00     0.157 HD
HETATM   11  O2  UNL     1      -4.835   2.315  -0.507  1.00  0.00    -0.264 OA
HETATM   12  N3  UNL     1      -3.016   1.001  -0.567  1.00  0.00    -0.318 N 
ATOM     13  H3  UNL     1      -3.273   0.670  -1.497  1.00  0.00     0.169 HD
BRANCH   3  14
HETATM   14  C2  UNL     1      -0.396   0.606   2.038  1.00  0.00     0.174 C 
HETATM   15  C1  UNL     1      -0.149   1.180   3.397  1.00  0.00     0.098 C 
HETATM   16  O1  UNL     1       0.453  -0.193   1.648  1.00  0.00    -0.291 OA
ENDBRANCH   3  14
ENDBRANCH   1   2
BRANCH   1  17
HETATM   17  O3  UNL     1       0.232  -0.111  -0.960  1.00  0.00    -0.281 OA
BRANCH  17  18
HETATM   18  C8  UNL     1       0.686   0.013  -2.260  1.00  0.00     0.331 C 
HETATM   19  O4  UNL     1      -0.133  -0.169  -3.227  1.00  0.00    -0.256 OA
BRANCH  18  20
HETATM   20  C9  UNL     1       2.058   0.342  -2.594  1.00  0.00     0.204 A 
HETATM   21  N4  UNL     1       2.617   0.490  -3.799  1.00  0.00    -0.238 N 
HETATM   22  O5  UNL     1       3.887   0.788  -3.666  1.00  0.00    -0.218 OA
ATOM     23  H4  UNL     1       2.129   0.387  -4.689  1.00  0.00     0.197 HD
HETATM   24  C10 UNL     1       4.161   0.836  -2.372  1.00  0.00     0.205 A 
HETATM   25  N6  UNL     1       3.024   0.559  -1.694  1.00  0.00    -0.315 N 
ATOM     26  H6  UNL     1       2.921   0.522  -0.680  1.00  0.00     0.169 HD
BRANCH  24  27
HETATM   27  C11 UNL     1       5.453   1.133  -1.721  1.00  0.00     0.394 C 
BRANCH  27  28
HETATM   28  N5  UNL     1       6.109   2.275  -2.336  1.00  0.00    -0.045 N 
ATOM     29  H53 UNL     1       6.219   2.145  -3.342  1.00  0.00     0.277 HD
ATOM     30  H52 UNL     1       5.500   3.093  -2.348  1.00  0.00     0.277 HD
ATOM     31  H51 UNL     1       7.001   2.480  -1.886  1.00  0.00     0.277 HD
ENDBRANCH  27  28
BRANCH  27  32
HETATM   32  O6  UNL     1       6.268   0.009  -1.878  1.00  0.00    -0.364 OA
ATOM     33  H6  UNL     1       7.099   0.200  -1.459  1.00  0.00     0.212 HD
ENDBRANCH  27  32
ENDBRANCH  24  27
ENDBRANCH  18  20
ENDBRANCH  17  18
ENDBRANCH   1  17
BRANCH   1  34
HETATM   34  N7  UNL     1      -1.263  -1.791  -0.170  1.00  0.00    -0.230 N 
HETATM   35  N8  UNL     1      -0.442  -2.822  -0.414  1.00  0.00    -0.271 N 
HETATM   36  C12 UNL     1      -0.864  -3.937   0.190  1.00  0.00     0.193 A 
ATOM     37  H8  UNL     1       0.399  -2.763  -0.988  1.00  0.00     0.189 HD
HETATM   38  C13 UNL     1      -2.020  -3.608   0.862  1.00  0.00     0.171 A 
HETATM   39  C14 UNL     1      -2.242  -2.264   0.618  1.00  0.00     0.198 A 
BRANCH  36  40
HETATM   40  O7  UNL     1      -0.251  -5.210   0.154  1.00  0.00    -0.343 OA
ATOM     41  H7  UNL     1      -0.551  -6.003   0.583  1.00  0.00     0.219 HD
ENDBRANCH  36  40
BRANCH  38  42
HETATM   42  O8  UNL     1      -2.804  -4.459   1.630  1.00  0.00    -0.353 OA
ATOM     43  H8  UNL     1      -3.602  -4.232   2.094  1.00  0.00     0.218 HD
ENDBRANCH  38  42
BRANCH  39  44
HETATM   44  O9  UNL     1      -3.319  -1.536   1.120  1.00  0.00    -0.343 OA
ATOM     45  H9  UNL     1      -4.012  -1.871   1.677  1.00  0.00     0.219 HD
ENDBRANCH  39  44
ENDBRANCH   1  34
TORSDOF 12
