REMARK  2 active torsions:
REMARK  status: ('A' for Active; 'I' for Inactive)
REMARK    1  A    between atoms: N1_2  and  C3_4 
REMARK    2  A    between atoms: C4_5  and  O1_6 
ROOT
HETATM    1  C3  UNL     1      -0.738   0.060   0.418  1.00  0.00     0.344 C 
HETATM    2  C4  UNL     1       0.203  -1.013   0.819  1.00  0.00     0.206 C 
HETATM    3  C5  UNL     1       1.274  -0.892  -0.271  1.00  0.00     0.220 C 
HETATM    4  N2  UNL     1       0.420  -0.674  -1.429  1.00  0.00    -0.135 NA
HETATM    5  N3  UNL     1      -0.417   0.348  -0.972  1.00  0.00    -0.196 NA
HETATM    6  C6  UNL     1       0.324   1.580  -1.136  1.00  0.00     0.131 C 
HETATM    7  C7  UNL     1       1.807   1.383  -0.880  1.00  0.00     0.134 C 
HETATM    8  N4  UNL     1       1.979   0.319   0.043  1.00  0.00    -0.395 N 
HETATM    9  C8  UNL     1       3.305   0.126   0.532  1.00  0.00     0.144 C 
ENDROOT
BRANCH   1  10
HETATM   10  N1  UNL     1      -2.117  -0.192   0.636  1.00  0.00     0.102 N 
HETATM   11  C1  UNL     1      -2.728  -1.199  -0.157  1.00  0.00     0.311 C 
HETATM   12  C2  UNL     1      -2.902   1.010   0.651  1.00  0.00     0.311 C 
ENDBRANCH   1  10
BRANCH   2  13
HETATM   13  O1  UNL     1      -0.274  -2.285   0.805  1.00  0.00    -0.389 OA
ATOM     14  H1  UNL     1       0.329  -2.973   1.062  1.00  0.00     0.210 HD
ENDBRANCH   2  13
TORSDOF 2
