REMARK  3 active torsions:
REMARK  status: ('A' for Active; 'I' for Inactive)
REMARK    1  A    between atoms: C5_7  and  O1_8 
REMARK    2  A    between atoms: C6_10  and  C7_11 
REMARK    3  A    between atoms: C7_11  and  O2_12 
ROOT
HETATM    1  C1  UNL     1      -2.981  -0.292  -0.176  1.00  0.00     0.315 C 
HETATM    2  N1  UNL     1      -1.691  -0.574   0.365  1.00  0.00     0.146 N 
HETATM    3  C2  UNL     1      -1.237  -1.926   0.341  1.00  0.00     0.547 A 
HETATM    4  N2  UNL     1      -0.107  -1.493  -0.494  1.00  0.00     0.151 N 
HETATM    5  C3  UNL     1       1.169  -1.837  -0.060  1.00  0.00     0.280 C 
HETATM    6  C4  UNL     1       2.096  -0.767   0.363  1.00  0.00     0.062 C 
HETATM    7  C5  UNL     1       1.716   0.612  -0.167  1.00  0.00     0.130 C 
HETATM    8  C6  UNL     1       0.294   0.811   0.274  1.00  0.00     0.102 C 
HETATM    9  C8  UNL     1      -0.559  -0.176  -0.438  1.00  0.00     0.468 A 
ENDROOT
BRANCH   8  10
HETATM   10  C7  UNL     1      -0.196   2.218   0.067  1.00  0.00     0.175 C 
BRANCH  10  11
HETATM   11  O2  UNL     1      -0.150   2.603  -1.270  1.00  0.00    -0.400 OA
ATOM     12  H2  UNL     1      -0.459   3.492  -1.401  1.00  0.00     0.209 HD
ENDBRANCH  10  11
ENDBRANCH   8  10
BRANCH   7  13
HETATM   13  O1  UNL     1       2.580   1.564   0.312  1.00  0.00    -0.395 OA
ATOM     14  H1  UNL     1       2.343   2.423  -0.018  1.00  0.00     0.210 HD
ENDBRANCH   7  13
TORSDOF 3
