REMARK  16 active torsions:
REMARK  status: ('A' for Active; 'I' for Inactive)
REMARK    1  A    between atoms: O1_2  and  C2_3 
REMARK    2  A    between atoms: C6_7  and  N1_8 
REMARK    3  A    between atoms: N1_8  and  C7_10 
REMARK    4  A    between atoms: C8_13  and  N3_14 
REMARK    5  A    between atoms: N3_14  and  C9_16 
REMARK    6  A    between atoms: C9_16  and  C10_17 
REMARK    7  A    between atoms: C10_17  and  C11_18 
REMARK    8  A    between atoms: C11_18  and  C12_19 
REMARK    9  A    between atoms: C12_19  and  C13_20 
REMARK   10  A    between atoms: C15_25  and  N6_26 
REMARK   11  A    between atoms: N6_26  and  C16_28 
REMARK   12  A    between atoms: C16_28  and  C17_29 
REMARK   13  A    between atoms: C17_29  and  C18_30 
REMARK   14  A    between atoms: C18_30  and  N7_31 
REMARK       I    between atoms: N8_34  and  C21_35 
REMARK   15  A    between atoms: C21_35  and  O3_37 
REMARK   16  A    between atoms: O3_37  and  C22_38 
ROOT
HETATM    1  C13 UNL     1      -7.708  -4.884   2.832  1.00  0.00     0.124 C 
HETATM    2  C14 UNL     1      -7.112  -4.530   4.130  1.00  0.00     0.059 C 
HETATM    3  N4  UNL     1      -6.641  -4.238   5.147  1.00  0.00    -0.197 NA
ENDROOT
BRANCH   1   4
HETATM    4  C12 UNL     1      -7.953  -3.605   2.073  1.00  0.00     0.014 C 
BRANCH   4   5
HETATM    5  C11 UNL     1      -6.671  -2.860   1.851  1.00  0.00     0.002 C 
BRANCH   5   6
HETATM    6  C10 UNL     1      -5.669  -3.669   1.058  1.00  0.00     0.020 C 
BRANCH   6   7
HETATM    7  C9  UNL     1      -4.419  -2.823   0.892  1.00  0.00     0.138 C 
BRANCH   7   8
HETATM    8  N3  UNL     1      -4.707  -1.591   0.191  1.00  0.00    -0.225 N 
ATOM      9  H3  UNL     1      -5.669  -1.274   0.072  1.00  0.00     0.177 HD
BRANCH   8  10
HETATM   10  C8  UNL     1      -3.728  -0.902  -0.279  1.00  0.00     0.707 A 
HETATM   11  N2  UNL     1      -4.022   0.249  -0.933  1.00  0.00    -0.021 N 
HETATM   12  C7  UNL     1      -3.028   0.986  -1.434  1.00  0.00     0.711 A 
ATOM     13  H2  UNL     1      -4.991   0.548  -1.041  1.00  0.00     0.203 HD
HETATM   14  N9  UNL     1      -1.741   0.632  -1.316  1.00  0.00    -0.021 N 
HETATM   15  C15 UNL     1      -1.460  -0.504  -0.670  1.00  0.00     0.707 A 
ATOM     16  H9  UNL     1      -0.998   1.212  -1.707  1.00  0.00     0.203 HD
HETATM   17  N5  UNL     1      -2.445  -1.268  -0.153  1.00  0.00    -0.022 N 
ATOM     18  H5  UNL     1      -2.211  -2.131   0.338  1.00  0.00     0.203 HD
BRANCH  12  19
HETATM   19  N1  UNL     1      -3.286   2.082  -2.058  1.00  0.00    -0.191 N 
ATOM     20  H1  UNL     1      -2.501   2.619  -2.427  1.00  0.00     0.184 HD
BRANCH  19  21
HETATM   21  C6  UNL     1      -4.593   2.588  -2.264  1.00  0.00     0.051 A 
HETATM   22  C5  UNL     1      -5.341   2.046  -3.301  1.00  0.00     0.030 A 
HETATM   23  C4  UNL     1      -6.633   2.500  -3.557  1.00  0.00     0.005 A 
HETATM   24  C3  UNL     1      -7.151   3.495  -2.759  1.00  0.00     0.037 A 
HETATM   25  C2  UNL     1      -6.437   4.057  -1.719  1.00  0.00     0.070 A 
HETATM   26  C28 UNL     1      -5.149   3.573  -1.500  1.00  0.00     0.066 A 
BRANCH  25  27
HETATM   27  O1  UNL     1      -7.004   5.056  -0.945  1.00  0.00    -0.356 OA
HETATM   28  C1  UNL     1      -6.211   5.596   0.118  1.00  0.00     0.210 C 
ENDBRANCH  25  27
ENDBRANCH  19  21
ENDBRANCH  12  19
BRANCH  15  29
HETATM   29  N6  UNL     1      -0.248  -0.882  -0.534  1.00  0.00    -0.225 N 
ATOM     30  H6  UNL     1      -0.068  -1.754  -0.036  1.00  0.00     0.177 HD
BRANCH  29  31
HETATM   31  C16 UNL     1       0.880  -0.145  -1.045  1.00  0.00     0.140 C 
BRANCH  31  32
HETATM   32  C17 UNL     1       1.315   0.903  -0.032  1.00  0.00     0.050 C 
BRANCH  32  33
HETATM   33  C18 UNL     1       2.480   1.643  -0.627  1.00  0.00     0.274 C 
BRANCH  33  34
HETATM   34  N7  UNL     1       3.553   0.726  -0.911  1.00  0.00     0.091 N 
HETATM   35  C19 UNL     1       4.117   0.240   0.301  1.00  0.00     0.292 C 
HETATM   36  C20 UNL     1       5.275  -0.731   0.020  1.00  0.00     0.158 C 
HETATM   37  N8  UNL     1       6.227  -0.009  -0.787  1.00  0.00    -0.325 N 
HETATM   38  C21 UNL     1       7.574   0.052  -0.353  1.00  0.00     0.363 C 
HETATM   39  C26 UNL     1       5.772   0.617  -1.995  1.00  0.00     0.158 C 
HETATM   40  O2  UNL     1       8.409   0.682  -1.051  1.00  0.00    -0.238 OA
HETATM   41  C27 UNL     1       4.483   1.371  -1.809  1.00  0.00     0.292 C 
BRANCH  38  42
HETATM   42  O3  UNL     1       8.038  -0.537   0.795  1.00  0.00    -0.294 OA
BRANCH  42  43
HETATM   43  C22 UNL     1       9.351  -0.502   1.259  1.00  0.00     0.061 C 
HETATM   44  C23 UNL     1       9.421  -1.281   2.556  1.00  0.00     0.046 C 
HETATM   45  C24 UNL     1      10.369  -1.080   0.325  1.00  0.00     0.046 C 
HETATM   46  C25 UNL     1       9.736   0.939   1.519  1.00  0.00     0.046 C 
ENDBRANCH  42  43
ENDBRANCH  38  42
ENDBRANCH  33  34
ENDBRANCH  32  33
ENDBRANCH  31  32
ENDBRANCH  29  31
ENDBRANCH  15  29
ENDBRANCH   8  10
ENDBRANCH   7   8
ENDBRANCH   6   7
ENDBRANCH   5   6
ENDBRANCH   4   5
ENDBRANCH   1   4
TORSDOF 16
