REMARK  7 active torsions:
REMARK  status: ('A' for Active; 'I' for Inactive)
REMARK    1  A    between atoms: C2_2  and  C3_3 
REMARK       I    between atoms: C3_3  and  N1_5 
REMARK    2  A    between atoms: N1_5  and  C4_7 
REMARK    3  A    between atoms: C13_18  and  O2_19 
REMARK    4  A    between atoms: N3_23  and  C16_24 
REMARK    5  A    between atoms: C16_24  and  C17_25 
REMARK    6  A    between atoms: C17_25  and  C18_26 
REMARK    7  A    between atoms: C18_26  and  N4_27 
ROOT
HETATM    1  C4  UNL     1       2.192  -0.346  -0.305  1.00  0.00     0.098 A 
HETATM    2  S1  UNL     1       2.459   1.340  -0.353  1.00  0.00    -0.075 SA
HETATM    3  C5  UNL     1       4.158   1.342  -0.355  1.00  0.00    -0.007 A 
HETATM    4  C6  UNL     1       4.476   0.019  -0.318  1.00  0.00    -0.021 A 
HETATM    5  C7  UNL     1       3.451  -0.872  -0.291  1.00  0.00     0.085 A 
HETATM    6  C8  UNL     1       3.637  -2.344  -0.249  1.00  0.00     0.103 C 
HETATM    7  N2  UNL     1       3.800  -3.492  -0.228  1.00  0.00    -0.191 NA
HETATM    8  C9  UNL     1       5.980  -0.239  -0.312  1.00  0.00     0.041 C 
HETATM    9  C10 UNL     1       6.510   0.591   0.836  1.00  0.00     0.005 C 
HETATM   10  C11 UNL     1       6.317   2.068   0.598  1.00  0.00     0.005 C 
HETATM   11  C12 UNL     1       5.250   2.389  -0.386  1.00  0.00     0.047 C 
ENDROOT
BRANCH   1  12
HETATM   12  N1  UNL     1       0.936  -1.066  -0.283  1.00  0.00    -0.318 N 
HETATM   13  C3  UNL     1      -0.293  -0.354  -0.301  1.00  0.00     0.262 C 
HETATM   14  O1  UNL     1      -0.202   0.901  -0.337  1.00  0.00    -0.270 OA
ATOM     15  H1  UNL     1       0.934  -2.086  -0.255  1.00  0.00     0.169 HD
BRANCH  13  16
HETATM   16  C2  UNL     1      -1.575  -1.093  -0.278  1.00  0.00     0.236 C 
HETATM   17  C1  UNL     1      -1.674  -2.132  -1.335  1.00  0.00     0.061 C 
HETATM   18  C13 UNL     1      -1.763  -1.665   1.123  1.00  0.00     0.103 C 
HETATM   19  C14 UNL     1      -3.149  -2.215   0.981  1.00  0.00     0.069 C 
HETATM   20  C20 UNL     1      -1.792  -0.398   1.906  1.00  0.00     0.069 C 
HETATM   21  C15 UNL     1      -3.785  -1.195   0.023  1.00  0.00     0.242 C 
HETATM   22  N3  UNL     1      -2.735  -0.214  -0.261  1.00  0.00    -0.046 N 
HETATM   23  C19 UNL     1      -2.579   0.518   0.956  1.00  0.00     0.242 C 
BRANCH  18  24
HETATM   24  O2  UNL     1      -0.812  -2.564   1.480  1.00  0.00    -0.387 OA
ATOM     25  H2  UNL     1      -0.929  -2.920   2.353  1.00  0.00     0.210 HD
ENDBRANCH  18  24
BRANCH  22  26
HETATM   26  C16 UNL     1      -2.935   0.485  -1.454  1.00  0.00     0.241 C 
BRANCH  26  27
HETATM   27  C17 UNL     1      -4.298   0.948  -1.783  1.00  0.00     0.055 C 
BRANCH  27  28
HETATM   28  C18 UNL     1      -4.938   1.928  -0.845  1.00  0.00     0.231 C 
BRANCH  28  29
HETATM   29  N4  UNL     1      -4.180   3.165  -0.717  1.00  0.00    -0.079 N 
ATOM     30  H43 UNL     1      -3.215   2.976  -0.445  1.00  0.00     0.274 HD
ATOM     31  H42 UNL     1      -4.015   3.588  -1.630  1.00  0.00     0.274 HD
ATOM     32  H41 UNL     1      -4.615   3.831  -0.079  1.00  0.00     0.274 HD
ENDBRANCH  28  29
ENDBRANCH  27  28
ENDBRANCH  26  27
ENDBRANCH  22  26
ENDBRANCH  13  16
ENDBRANCH   1  12
TORSDOF 7
