REMARK  12 active torsions:
REMARK  status: ('A' for Active; 'I' for Inactive)
REMARK    1  A    between atoms: C3_7  and  N3_8 
REMARK    2  A    between atoms: N3_8  and  N4_10 
REMARK    3  A    between atoms: C5_14  and  N5_15 
REMARK    4  A    between atoms: N5_15  and  C6_17 
REMARK    5  A    between atoms: C6_17  and  O2_18 
REMARK    6  A    between atoms: C6_17  and  C7_20 
REMARK    7  A    between atoms: C7_20  and  O3_21 
REMARK    8  A    between atoms: C7_20  and  C8_23 
REMARK    9  A    between atoms: C8_23  and  O4_24 
REMARK   10  A    between atoms: C8_23  and  C9_26 
REMARK   11  A    between atoms: C9_26  and  O5_27 
REMARK   12  A    between atoms: C9_26  and  O6_29 
ROOT
HETATM    1  C1  UNL     1       5.093   2.101   0.385  1.00  0.00     0.163 C 
HETATM    2  N1  UNL     1       4.135   1.009   0.169  1.00  0.00    -0.289 N 
HETATM    3  C2  UNL     1       4.611  -0.173  -0.261  1.00  0.00     0.329 A 
HETATM    4  O1  UNL     1       5.832  -0.370  -0.480  1.00  0.00    -0.246 OA
HETATM    5  N2  UNL     1       3.771  -1.201  -0.473  1.00  0.00    -0.292 N 
ATOM      6  H2  UNL     1       4.126  -2.100  -0.798  1.00  0.00     0.172 HD
HETATM    7  C3  UNL     1       2.470  -1.030  -0.253  1.00  0.00     0.141 A 
HETATM    8  C4  UNL     1       1.945   0.168   0.188  1.00  0.00     0.098 A 
HETATM    9  C5  UNL     1       0.593   0.372   0.426  1.00  0.00     0.122 A 
HETATM   10  N6  UNL     1       0.138   1.565   0.856  1.00  0.00    -0.338 N 
ATOM     11  H6  UNL     1      -0.858   1.705   1.027  1.00  0.00     0.168 HD
HETATM   12  C10 UNL     1       1.005   2.563   1.056  1.00  0.00     0.183 A 
HETATM   13  N7  UNL     1       2.331   2.383   0.829  1.00  0.00    -0.337 N 
ATOM     14  H7  UNL     1       2.972   3.160   0.989  1.00  0.00     0.168 HD
HETATM   15  C11 UNL     1       2.823   1.208   0.399  1.00  0.00     0.130 A 
ENDROOT
BRANCH   9  16
HETATM   16  N5  UNL     1      -0.175  -0.628   0.213  1.00  0.00    -0.347 N 
ATOM     17  H5  UNL     1       0.246  -1.498  -0.113  1.00  0.00     0.163 HD
BRANCH  16  18
HETATM   18  C6  UNL     1      -1.623  -0.594   0.410  1.00  0.00     0.250 C 
BRANCH  18  19
HETATM   19  O2  UNL     1      -1.955  -1.970   0.557  1.00  0.00    -0.374 OA
ATOM     20  H2  UNL     1      -2.896  -1.948   0.685  1.00  0.00     0.212 HD
ENDBRANCH  18  19
BRANCH  18  21
HETATM   21  C7  UNL     1      -2.327  -0.093  -0.806  1.00  0.00     0.200 C 
BRANCH  21  22
HETATM   22  O3  UNL     1      -2.186  -0.853  -1.938  1.00  0.00    -0.388 OA
ATOM     23  H3  UNL     1      -2.634  -0.534  -2.712  1.00  0.00     0.210 HD
ENDBRANCH  21  22
BRANCH  21  24
HETATM   24  C8  UNL     1      -3.687   0.429  -0.509  1.00  0.00     0.206 C 
BRANCH  24  25
HETATM   25  O4  UNL     1      -4.017   1.276  -1.632  1.00  0.00    -0.388 OA
ATOM     26  H4  UNL     1      -4.886   1.610  -1.442  1.00  0.00     0.210 HD
ENDBRANCH  24  25
BRANCH  24  27
HETATM   27  C9  UNL     1      -4.784  -0.573  -0.384  1.00  0.00     0.285 C 
BRANCH  27  28
HETATM   28  O5  UNL     1      -4.656  -1.437   0.674  1.00  0.00    -0.369 OA
ATOM     29  H5  UNL     1      -5.355  -2.075   0.754  1.00  0.00     0.212 HD
ENDBRANCH  27  28
BRANCH  27  30
HETATM   30  O6  UNL     1      -6.001   0.124  -0.190  1.00  0.00    -0.369 OA
ATOM     31  H6  UNL     1      -6.700  -0.514  -0.110  1.00  0.00     0.212 HD
ENDBRANCH  27  30
ENDBRANCH  24  27
ENDBRANCH  21  24
ENDBRANCH  18  21
ENDBRANCH  16  18
ENDBRANCH   9  16
BRANCH   7  32
HETATM   32  N3  UNL     1       1.638  -1.996  -0.446  1.00  0.00    -0.291 N 
ATOM     33  H3  UNL     1       0.646  -1.838  -0.268  1.00  0.00     0.188 HD
BRANCH  32  34
HETATM   34  N4  UNL     1       2.055  -3.252  -0.892  1.00  0.00    -0.344 N 
ATOM     35  H42 UNL     1       3.050  -3.393  -1.065  1.00  0.00     0.176 HD
ATOM     36  H41 UNL     1       1.397  -4.016  -1.045  1.00  0.00     0.176 HD
ENDBRANCH  32  34
ENDBRANCH   7  32
TORSDOF 12
