REMARK  3 active torsions:
REMARK  status: ('A' for Active; 'I' for Inactive)
REMARK    1  A    between atoms: N1_1  and  C1_5 
REMARK    2  A    between atoms: C1_5  and  C2_6 
REMARK    3  A    between atoms: C2_6  and  N2_7 
ROOT
HETATM    1  C1  UNL     1       1.463  -0.351   0.367  1.00  0.00     0.259 C 
ENDROOT
BRANCH   1   2
HETATM    2  N1  UNL     1       2.647  -0.295  -0.486  1.00  0.00    -0.078 N 
ATOM      3  H13 UNL     1       2.482  -0.718  -1.399  1.00  0.00     0.274 HD
ATOM      4  H12 UNL     1       2.850   0.655  -0.798  1.00  0.00     0.274 HD
ATOM      5  H11 UNL     1       3.441  -0.718  -0.006  1.00  0.00     0.274 HD
ENDBRANCH   1   2
BRANCH   1   6
HETATM    6  C2  UNL     1       0.274   0.283  -0.352  1.00  0.00     0.299 C 
BRANCH   6   7
HETATM    7  N2  UNL     1      -0.852   0.193   0.543  1.00  0.00     0.093 N 
HETATM    8  C3  UNL     1      -2.112   0.745   0.056  1.00  0.00     0.302 A 
HETATM    9  C4  UNL     1      -1.948  -0.695   0.241  1.00  0.00     0.302 A 
ENDBRANCH   6   7
ENDBRANCH   1   6
TORSDOF 3
