REMARK  10 active torsions:
REMARK  status: ('A' for Active; 'I' for Inactive)
REMARK    1  A    between atoms: N1_2  and  S1_4 
REMARK    2  A    between atoms: S1_4  and  O3_7 
REMARK    3  A    between atoms: O3_7  and  N2_8 
REMARK    4  A    between atoms: C2_9  and  N3_10 
REMARK    5  A    between atoms: N4_12  and  C3_14 
REMARK    6  A    between atoms: N5_18  and  O4_19 
REMARK    7  A    between atoms: C12_32  and  N9_33 
REMARK    8  A    between atoms: N10_35  and  C13_37 
REMARK    9  A    between atoms: C14_40  and  N12_41 
REMARK   10  A    between atoms: C15_46  and  N14_47 
ROOT
HETATM    1  N2  UNL     1      -1.060  -1.238   0.449  1.00  0.00     0.011 N 
HETATM    2  C2  UNL     1      -1.972  -0.873  -0.466  1.00  0.00     0.728 C 
HETATM    3  N6  UNL     1      -1.786   0.023  -1.478  1.00  0.00    -0.184 N 
ATOM      4  H6  UNL     1      -2.629   0.254  -2.004  1.00  0.00     0.184 HD
HETATM    5  C8  UNL     1      -0.675   0.649  -1.894  1.00  0.00     0.104 A 
HETATM    6  C9  UNL     1      -0.559   1.422  -3.031  1.00  0.00     0.091 A 
HETATM    7  N7  UNL     1      -1.598   1.701  -3.979  1.00  0.00    -0.099 NA
HETATM    8  C10 UNL     1       0.749   1.854  -3.050  1.00  0.00     0.117 A 
HETATM    9  N8  UNL     1       1.429   1.385  -1.988  1.00  0.00    -0.360 N 
ATOM     10  H8  UNL     1       2.412   1.576  -1.795  1.00  0.00     0.165 HD
HETATM   11  C11 UNL     1       0.627   0.629  -1.217  1.00  0.00     0.095 A 
HETATM   12  C12 UNL     1       0.970  -0.018  -0.046  1.00  0.00     0.148 C 
HETATM   13  C17 UNL     1       0.166  -0.794   0.759  1.00  0.00     0.320 C 
HETATM   14  O6  UNL     1       0.615  -1.125   1.896  1.00  0.00    -0.262 OA
ENDROOT
BRANCH  12  15
HETATM   15  N9  UNL     1       2.304   0.140   0.367  1.00  0.00    -0.292 N 
HETATM   16  N10 UNL     1       3.212   0.598  -0.386  1.00  0.00    -0.283 N 
ATOM     17  H10 UNL     1       3.000   0.875  -1.344  1.00  0.00     0.188 HD
ATOM     18  H9  UNL     1       2.552  -0.127   1.320  1.00  0.00     0.187 HD
BRANCH  16  19
HETATM   19  C13 UNL     1       4.537   0.720   0.128  1.00  0.00     0.157 A 
HETATM   20  N11 UNL     1       5.283   1.825  -0.127  1.00  0.00    -0.174 N 
HETATM   21  C14 UNL     1       6.526   1.976   0.336  1.00  0.00     0.679 A 
ATOM     22  H11 UNL     1       4.878   2.569  -0.695  1.00  0.00     0.186 HD
HETATM   23  N13 UNL     1       7.077   1.017   1.081  1.00  0.00    -0.176 N 
HETATM   24  C15 UNL     1       6.383  -0.101   1.365  1.00  0.00     0.136 A 
ATOM     25  H13 UNL     1       8.026   1.131   1.436  1.00  0.00     0.186 HD
HETATM   26  C16 UNL     1       5.115  -0.269   0.900  1.00  0.00     0.101 A 
HETATM   27  S2  UNL     1       4.211  -1.766   1.291  1.00  0.00    -0.044 SA
BRANCH  21  28
HETATM   28  N12 UNL     1       7.238   3.036   0.090  1.00  0.00    -0.234 N 
ATOM     29 2H12 UNL     1       6.817   3.770  -0.480  1.00  0.00     0.174 HD
ATOM     30 1H12 UNL     1       8.188   3.151   0.444  1.00  0.00     0.174 HD
ENDBRANCH  21  28
BRANCH  24  31
HETATM   31  N14 UNL     1       6.977  -1.003   2.098  1.00  0.00    -0.384 N 
ATOM     32 2H14 UNL     1       7.927  -0.877   2.446  1.00  0.00     0.157 HD
ATOM     33 1H14 UNL     1       6.451  -1.850   2.313  1.00  0.00     0.157 HD
ENDBRANCH  24  31
ENDBRANCH  16  19
ENDBRANCH  12  15
BRANCH   1  34
HETATM   34  O3  UNL     1      -1.466  -2.296   1.244  1.00  0.00    -0.109 OA
BRANCH  34  35
HETATM   35  S1  UNL     1      -1.157  -3.878   0.735  1.00  0.00     0.379 S 
HETATM   36  O1  UNL     1      -2.042  -4.265  -0.417  1.00  0.00    -0.174 OA
HETATM   37  O2  UNL     1       0.272  -4.030   0.239  1.00  0.00    -0.174 OA
BRANCH  35  38
HETATM   38  N1  UNL     1      -1.424  -4.937   2.092  1.00  0.00    -0.300 N 
HETATM   39  C1  UNL     1      -2.815  -5.363   2.093  1.00  0.00     0.161 C 
ATOM     40  H1  UNL     1      -0.719  -5.214   2.775  1.00  0.00     0.173 HD
ENDBRANCH  35  38
ENDBRANCH  34  35
ENDBRANCH   1  34
BRANCH   2  41
HETATM   41  N3  UNL     1      -3.228  -1.490  -0.344  1.00  0.00    -0.129 N 
HETATM   42  N4  UNL     1      -4.278  -0.820  -0.174  1.00  0.00    -0.281 N 
ATOM     43  H4  UNL     1      -5.157  -1.331  -0.093  1.00  0.00     0.187 HD
ATOM     44  H3  UNL     1      -3.290  -2.507  -0.395  1.00  0.00     0.205 HD
BRANCH  42  45
HETATM   45  C3  UNL     1      -4.328   0.597  -0.087  1.00  0.00     0.118 A 
HETATM   46  C4  UNL     1      -4.738   1.303  -1.189  1.00  0.00     0.038 A 
HETATM   47  C5  UNL     1      -4.794   2.674  -1.129  1.00  0.00     0.022 A 
HETATM   48  C6  UNL     1      -4.443   3.334   0.028  1.00  0.00     0.127 A 
HETATM   49  N5  UNL     1      -4.044   2.652   1.106  1.00  0.00    -0.197 N 
HETATM   50  C7  UNL     1      -3.986   1.296   1.050  1.00  0.00     0.299 A 
HETATM   51  O5  UNL     1      -3.614   0.637   2.050  1.00  0.00    -0.263 OA
BRANCH  49  52
HETATM   52  O4  UNL     1      -3.688   3.292   2.274  1.00  0.00    -0.280 OA
ATOM     53  H4  UNL     1      -3.404   2.807   3.040  1.00  0.00     0.245 HD
ENDBRANCH  49  52
ENDBRANCH  42  45
ENDBRANCH   2  41
TORSDOF 10
