REMARK  15 active torsions:
REMARK  status: ('A' for Active; 'I' for Inactive)
REMARK    1  A    between atoms: C2_2  and  O1_3 
REMARK    2  A    between atoms: O1_3  and  C3_4 
REMARK    3  A    between atoms: C3_4  and  C4_5 
REMARK    4  A    between atoms: C4_5  and  C5_6 
REMARK    5  A    between atoms: C5_6  and  C6_7 
REMARK    6  A    between atoms: C6_7  and  C7_8 
REMARK    7  A    between atoms: C9_10  and  C10_11 
REMARK    8  A    between atoms: C10_11  and  C11_12 
REMARK    9  A    between atoms: C11_12  and  C12_13 
REMARK   10  A    between atoms: C15_17  and  C16_18 
REMARK   11  A    between atoms: C16_18  and  C17_19 
REMARK   12  A    between atoms: C16_18  and  C20_24 
REMARK   13  A    between atoms: C18_20  and  C19_21 
REMARK   14  A    between atoms: C19_21  and  O3_22 
REMARK   15  A    between atoms: C21_25  and  C22_26 
ROOT
HETATM    1  C12 UNL     1       0.553  -0.149  -0.995  1.00  0.00     0.066 C 
HETATM    2  C13 UNL     1       0.178   1.071  -0.194  1.00  0.00     0.028 C 
HETATM    3  C14 UNL     1      -0.009  -0.041  -2.410  1.00  0.00     0.190 C 
HETATM    4  O2  UNL     1      -1.381   0.158  -2.283  1.00  0.00    -0.359 OA
HETATM    5  C15 UNL     1      -2.030  -0.986  -1.853  1.00  0.00     0.280 C 
HETATM    6  O4  UNL     1      -1.533  -1.392  -0.595  1.00  0.00    -0.288 OA
HETATM    7  C28 UNL     1      -0.180  -1.290  -0.363  1.00  0.00     0.271 C 
HETATM    8  O5  UNL     1       0.403  -2.134   0.355  1.00  0.00    -0.264 OA
ENDROOT
BRANCH   5   9
HETATM    9  C16 UNL     1      -3.539  -0.721  -1.651  1.00  0.00     0.086 C 
BRANCH   9  10
HETATM   10  C17 UNL     1      -4.215  -1.914  -1.203  1.00  0.00    -0.015 C 
HETATM   11  C18 UNL     1      -5.085  -2.611  -1.943  1.00  0.00    -0.004 C 
BRANCH  11  12
HETATM   12  C19 UNL     1      -5.766  -3.823  -1.477  1.00  0.00     0.191 C 
BRANCH  12  13
HETATM   13  O3  UNL     1      -5.407  -4.873  -2.348  1.00  0.00    -0.397 OA
ATOM     14  H3  UNL     1      -5.848  -5.658  -2.046  1.00  0.00     0.209 HD
ENDBRANCH  12  13
ENDBRANCH  11  12
ENDBRANCH   9  10
BRANCH   9  15
HETATM   15  C20 UNL     1      -3.762   0.493  -0.912  1.00  0.00    -0.013 C 
HETATM   16  C21 UNL     1      -4.383   1.012   0.059  1.00  0.00     0.003 C 
BRANCH  16  17
HETATM   17  C22 UNL     1      -5.301   0.762   1.106  1.00  0.00    -0.062 C 
HETATM   18  C23 UNL     1      -5.643   1.789   1.952  1.00  0.00    -0.020 C 
HETATM   19  C24 UNL     1      -6.605   1.464   3.025  1.00  0.00     0.027 C 
HETATM   20  C25 UNL     1      -7.879   0.873   2.470  1.00  0.00     0.004 C 
HETATM   21  C26 UNL     1      -7.538  -0.215   1.495  1.00  0.00     0.005 C 
HETATM   22  C27 UNL     1      -6.013  -0.468   1.455  1.00  0.00     0.038 C 
ENDBRANCH  16  17
ENDBRANCH   9  15
ENDBRANCH   5   9
BRANCH   1  23
HETATM   23  C11 UNL     1       1.982  -0.515  -0.991  1.00  0.00     0.025 C 
BRANCH  23  24
HETATM   24  C10 UNL     1       2.981   0.454  -1.533  1.00  0.00     0.029 C 
BRANCH  24  25
HETATM   25  C9  UNL     1       3.097   1.741  -0.916  1.00  0.00    -0.020 C 
HETATM   26  C7  UNL     1       4.057   2.265  -0.227  1.00  0.00    -0.070 C 
HETATM   27  C8  UNL     1       3.792   3.733   0.283  1.00  0.00     0.047 C 
BRANCH  26  28
HETATM   28  C6  UNL     1       5.364   1.800   0.198  1.00  0.00    -0.020 C 
BRANCH  28  29
HETATM   29  C5  UNL     1       5.882   0.480  -0.153  1.00  0.00     0.030 C 
BRANCH  29  30
HETATM   30  C4  UNL     1       7.282   0.350   0.520  1.00  0.00     0.030 C 
BRANCH  30  31
HETATM   31  C3  UNL     1       7.764  -1.042   0.113  1.00  0.00     0.174 C 
BRANCH  31  32
HETATM   32  O1  UNL     1       9.023  -1.348   0.631  1.00  0.00    -0.364 OA
BRANCH  32  33
HETATM   33  C2  UNL     1       9.187  -1.356   2.006  1.00  0.00     0.124 C 
HETATM   34  C1  UNL     1       9.803  -0.406   2.652  1.00  0.00     0.037 C 
ENDBRANCH  32  33
ENDBRANCH  31  32
ENDBRANCH  30  31
ENDBRANCH  29  30
ENDBRANCH  28  29
ENDBRANCH  26  28
ENDBRANCH  24  25
ENDBRANCH  23  24
ENDBRANCH   1  23
TORSDOF 15
