REMARK  18 active torsions:
REMARK  status: ('A' for Active; 'I' for Inactive)
REMARK    1  A    between atoms: C2_2  and  C3_3 
REMARK    2  A    between atoms: C3_3  and  C4_4 
REMARK    3  A    between atoms: C3_3  and  N3_24 
REMARK    4  A    between atoms: C4_4  and  N1_5 
REMARK    5  A    between atoms: N1_5  and  C5_6 
REMARK       I    between atoms: N1_5  and  C7_8 
REMARK    6  A    between atoms: C7_8  and  C8_10 
REMARK    7  A    between atoms: C8_10  and  C9_11 
REMARK    8  A    between atoms: C9_11  and  C10_12 
REMARK    9  A    between atoms: C10_12  and  C11_13 
REMARK   10  A    between atoms: C11_13  and  C12_14 
REMARK   11  A    between atoms: C12_14  and  N2_15 
REMARK       I    between atoms: N2_15  and  C13_17 
REMARK   12  A    between atoms: C13_17  and  O3_19 
REMARK   13  A    between atoms: O3_19  and  C14_20 
REMARK       I    between atoms: N3_24  and  C18_26 
REMARK   14  A    between atoms: C18_26  and  C19_28 
REMARK   15  A    between atoms: C19_28  and  O5_29 
REMARK   16  A    between atoms: C19_28  and  N4_31 
REMARK       I    between atoms: N5_34  and  C22_35 
REMARK   17  A    between atoms: C22_35  and  O7_37 
REMARK   18  A    between atoms: O7_37  and  C23_38 
ROOT
HETATM    1  C3  UNL     1      -0.528   3.162   0.789  1.00  0.00     0.102 C 
ENDROOT
BRANCH   1   2
HETATM    2  C2  UNL     1       0.438   3.674   1.800  1.00  0.00     0.022 C 
HETATM    3  C1  UNL     1      -0.159   4.787   2.651  1.00  0.00     0.007 C 
ENDBRANCH   1   2
BRANCH   1   4
HETATM    4  C4  UNL     1       0.059   2.065  -0.063  1.00  0.00     0.150 C 
BRANCH   4   5
HETATM    5  N1  UNL     1       1.202   2.376  -0.831  1.00  0.00    -0.351 N 
HETATM    6  C7  UNL     1       2.504   2.106  -0.355  1.00  0.00     0.219 C 
HETATM    7  O1  UNL     1       2.647   1.555   0.756  1.00  0.00    -0.273 OA
BRANCH   5   8
HETATM    8  C5  UNL     1       1.142   2.984  -2.161  1.00  0.00     0.121 C 
HETATM    9  C6  UNL     1       1.073   1.830  -3.143  1.00  0.00     0.026 C 
ENDBRANCH   5   8
BRANCH   6  10
HETATM   10  C8  UNL     1       3.757   2.441  -1.100  1.00  0.00     0.103 C 
BRANCH  10  11
HETATM   11  C9  UNL     1       4.849   1.427  -0.778  1.00  0.00     0.009 C 
BRANCH  11  12
HETATM   12  C10 UNL     1       4.409   0.042  -1.206  1.00  0.00     0.002 C 
BRANCH  12  13
HETATM   13  C11 UNL     1       5.456  -0.997  -0.910  1.00  0.00     0.020 C 
BRANCH  13  14
HETATM   14  C12 UNL     1       6.773  -0.753  -1.584  1.00  0.00     0.125 C 
BRANCH  14  15
HETATM   15  N2  UNL     1       7.719  -1.815  -1.284  1.00  0.00    -0.337 N 
HETATM   16  C13 UNL     1       8.165  -2.154   0.015  1.00  0.00     0.361 C 
HETATM   17  O2  UNL     1       7.789  -1.564   1.052  1.00  0.00    -0.238 OA
ATOM     18  H2  UNL     1       8.088  -2.355  -2.067  1.00  0.00     0.164 HD
BRANCH  16  19
HETATM   19  O3  UNL     1       9.060  -3.185   0.175  1.00  0.00    -0.294 OA
BRANCH  19  20
HETATM   20  C14 UNL     1       9.604  -3.661   1.363  1.00  0.00     0.061 C 
HETATM   21  C15 UNL     1      10.553  -4.810   1.005  1.00  0.00     0.046 C 
HETATM   22  C16 UNL     1       8.581  -4.236   2.328  1.00  0.00     0.046 C 
HETATM   23  C17 UNL     1      10.436  -2.648   2.116  1.00  0.00     0.046 C 
ENDBRANCH  19  20
ENDBRANCH  16  19
ENDBRANCH  14  15
ENDBRANCH  13  14
ENDBRANCH  12  13
ENDBRANCH  11  12
ENDBRANCH  10  11
ENDBRANCH   6  10
ENDBRANCH   4   5
ENDBRANCH   1   4
BRANCH   1  24
HETATM   24  N3  UNL     1      -1.657   2.544   1.502  1.00  0.00    -0.348 N 
HETATM   25  C18 UNL     1      -2.978   2.496   0.943  1.00  0.00     0.292 C 
HETATM   26  O4  UNL     1      -3.093   3.010  -0.188  1.00  0.00    -0.264 OA
ATOM     27  H3  UNL     1      -1.496   2.137   2.423  1.00  0.00     0.163 HD
BRANCH  25  28
HETATM   28  C19 UNL     1      -4.080   1.900   1.628  1.00  0.00     0.208 C 
BRANCH  28  29
HETATM   29  O5  UNL     1      -3.797   1.531   2.851  1.00  0.00    -0.342 OA
ATOM     30  H5  UNL     1      -4.530   1.134   3.307  1.00  0.00     0.219 HD
ENDBRANCH  28  29
BRANCH  28  31
HETATM   31  N4  UNL     1      -5.370   1.671   1.170  1.00  0.00    -0.354 N 
HETATM   32  C20 UNL     1      -6.356   1.093   2.122  1.00  0.00     0.145 C 
HETATM   33  C21 UNL     1      -7.691   0.869   1.468  1.00  0.00     0.148 C 
HETATM   34  N5  UNL     1      -7.526   0.209   0.174  1.00  0.00    -0.325 N 
HETATM   35  C22 UNL     1      -8.462  -0.756  -0.246  1.00  0.00     0.363 C 
HETATM   36  C27 UNL     1      -6.404   0.547  -0.659  1.00  0.00     0.148 C 
HETATM   37  O6  UNL     1      -9.449  -1.085   0.423  1.00  0.00    -0.238 OA
HETATM   38  C28 UNL     1      -5.852   1.900  -0.148  1.00  0.00     0.145 C 
BRANCH  35  39
HETATM   39  O7  UNL     1      -8.282  -1.380  -1.471  1.00  0.00    -0.294 OA
BRANCH  39  40
HETATM   40  C23 UNL     1      -9.169  -2.347  -1.955  1.00  0.00     0.061 C 
HETATM   41  C24 UNL     1      -8.598  -2.770  -3.320  1.00  0.00     0.046 C 
HETATM   42  C25 UNL     1     -10.553  -1.832  -2.254  1.00  0.00     0.046 C 
HETATM   43  C26 UNL     1      -9.233  -3.561  -1.094  1.00  0.00     0.046 C 
ENDBRANCH  39  40
ENDBRANCH  35  39
ENDBRANCH  28  31
ENDBRANCH  25  28
ENDBRANCH   1  24
TORSDOF 18
