REMARK  3 active torsions:
REMARK  status: ('A' for Active; 'I' for Inactive)
REMARK    1  A    between atoms: C2_2  and  C3_3 
REMARK    2  A    between atoms: C3_3  and  C4_4 
REMARK    3  A    between atoms: C4_4  and  C5_5 
ROOT
HETATM    1  C5  UNL     1       0.802  -0.666   0.897  1.00  0.00     0.129 C 
HETATM    2  N1  UNL     1       1.477   0.348   1.741  1.00  0.00    -0.348 N 
ATOM      3  H1  UNL     1       1.493   0.300   2.760  1.00  0.00     0.163 HD
HETATM    4  C6  UNL     1       2.100   1.392   1.007  1.00  0.00     0.265 C 
HETATM    5  O1  UNL     1       2.212   2.538   1.523  1.00  0.00    -0.267 OA
HETATM    6  C7  UNL     1       2.610   1.113  -0.352  1.00  0.00     0.122 C 
HETATM    7 CL1  UNL     1       3.379   2.376  -1.283  1.00  0.00    -0.077 Cl
HETATM    8  C8  UNL     1       2.475  -0.089  -0.841  1.00  0.00     0.079 C 
HETATM    9 CL2  UNL     1       3.057  -0.446  -2.428  1.00  0.00    -0.084 Cl
HETATM   10  C9  UNL     1       1.855  -1.154  -0.035  1.00  0.00     0.172 C 
HETATM   11 CL3  UNL     1       1.396  -2.496  -1.063  1.00  0.00    -0.093 Cl
HETATM   12 CL4  UNL     1       3.223  -1.717   1.039  1.00  0.00    -0.093 Cl
ENDROOT
BRANCH   1  13
HETATM   13  C4  UNL     1      -0.383   0.004   0.313  1.00  0.00     0.029 C 
BRANCH  13  14
HETATM   14  C3  UNL     1      -1.249  -0.805  -0.590  1.00  0.00     0.002 C 
BRANCH  14  15
HETATM   15  C2  UNL     1      -2.449  -0.013  -1.091  1.00  0.00    -0.004 C 
HETATM   16  C1  UNL     1      -3.321   0.464   0.021  1.00  0.00     0.005 C 
ENDBRANCH  14  15
ENDBRANCH  13  14
ENDBRANCH   1  13
TORSDOF 3
