REMARK  7 active torsions:
REMARK  status: ('A' for Active; 'I' for Inactive)
REMARK    1  A    between atoms: C2_2  and  O1_3 
REMARK    2  A    between atoms: O1_3  and  C3_4 
REMARK    3  A    between atoms: C3_4  and  C4_6 
REMARK    4  A    between atoms: C5_7  and  N1_8 
REMARK    5  A    between atoms: N1_8  and  C6_10 
REMARK    6  A    between atoms: C9_13  and  O3_14 
REMARK    7  A    between atoms: C13_19  and  N2_20 
ROOT
HETATM    1  C4  UNL     1      -1.978   0.438   0.149  1.00  0.00     0.089 A 
HETATM    2  C5  UNL     1      -0.883  -0.330   0.414  1.00  0.00     0.048 A 
HETATM    3  C12 UNL     1      -1.002  -1.737   0.433  1.00  0.00     0.061 A 
HETATM    4  C13 UNL     1      -2.198  -2.341   0.189  1.00  0.00     0.053 A 
HETATM    5  C15 UNL     1      -3.331  -1.583  -0.083  1.00  0.00     0.083 A 
HETATM    6 CL1  UNL     1      -4.850  -2.394  -0.390  1.00  0.00    -0.080 Cl
HETATM    7  C16 UNL     1      -3.200  -0.216  -0.097  1.00  0.00     0.076 A 
HETATM    8 CL2  UNL     1      -4.605   0.760  -0.435  1.00  0.00    -0.081 Cl
ENDROOT
BRANCH   2   9
HETATM    9  N1  UNL     1       0.381   0.219   0.729  1.00  0.00    -0.384 N 
ATOM     10  H1  UNL     1       0.450   1.223   0.895  1.00  0.00     0.160 HD
BRANCH   9  11
HETATM   11  C6  UNL     1       1.598  -0.596   0.827  1.00  0.00     0.082 C 
HETATM   12  C7  UNL     1       2.730   0.226   1.423  1.00  0.00     0.027 C 
HETATM   13  C8  UNL     1       3.413   1.109   0.428  1.00  0.00     0.034 C 
HETATM   14  C9  UNL     1       4.105   0.142  -0.548  1.00  0.00     0.118 C 
HETATM   15  C10 UNL     1       3.004  -0.539  -1.285  1.00  0.00     0.034 C 
HETATM   16  C11 UNL     1       1.986  -1.234  -0.464  1.00  0.00     0.027 C 
BRANCH  14  17
HETATM   17  O3  UNL     1       4.875  -0.783   0.171  1.00  0.00    -0.396 OA
ATOM     18  H3  UNL     1       5.302  -1.380  -0.432  1.00  0.00     0.210 HD
ENDBRANCH  14  17
ENDBRANCH   9  11
ENDBRANCH   2   9
BRANCH   1  19
HETATM   19  C3  UNL     1      -1.960   1.877   0.076  1.00  0.00     0.297 C 
HETATM   20  O2  UNL     1      -0.969   2.602   0.233  1.00  0.00    -0.259 OA
BRANCH  19  21
HETATM   21  O1  UNL     1      -3.128   2.610  -0.194  1.00  0.00    -0.318 OA
BRANCH  21  22
HETATM   22  C2  UNL     1      -3.152   4.016  -0.274  1.00  0.00     0.174 C 
HETATM   23  C1  UNL     1      -2.268   4.582  -1.331  1.00  0.00     0.034 C 
ENDBRANCH  21  22
ENDBRANCH  19  21
ENDBRANCH   1  19
BRANCH   4  24
HETATM   24  N2  UNL     1      -2.334  -3.759   0.204  1.00  0.00    -0.393 N 
HETATM   25  C14 UNL     1      -1.163  -4.551   0.485  1.00  0.00     0.146 C 
ATOM     26  H2  UNL     1      -3.235  -4.201   0.021  1.00  0.00     0.159 HD
ENDBRANCH   4  24
TORSDOF 7
