REMARK  12 active torsions:
REMARK  status: ('A' for Active; 'I' for Inactive)
REMARK    1  A    between atoms: O1_2  and  C2_3 
REMARK    2  A    between atoms: C2_3  and  C3_5 
REMARK    3  A    between atoms: C3_5  and  C4_6 
REMARK    4  A    between atoms: C3_5  and  N1_13 
REMARK    5  A    between atoms: C4_6  and  C5_7 
REMARK       I    between atoms: N1_13  and  C11_15 
REMARK    6  A    between atoms: C11_15  and  C12_17 
REMARK    7  A    between atoms: C12_17  and  C13_21 
REMARK    8  A    between atoms: C13_21  and  C14_22 
REMARK    9  A    between atoms: C14_22  and  C15_24 
REMARK   10  A    between atoms: C16_25  and  N3_26 
REMARK   11  A    between atoms: C17_30  and  O5_31 
REMARK   12  A    between atoms: C18_33  and  N4_34 
ROOT
HETATM    1  C13 UNL     1       1.291  -0.794  -0.058  1.00  0.00     0.142 C 
ENDROOT
BRANCH   1   2
HETATM    2  C12 UNL     1       0.461  -0.502   1.133  1.00  0.00     0.078 C 
HETATM    3  N2  UNL     1       0.822  -0.803   2.318  1.00  0.00    -0.398 N 
ATOM      4  H22 UNL     1       0.250  -0.602   3.138  1.00  0.00     0.156 HD
ATOM      5  H21 UNL     1       1.712  -1.283   2.451  1.00  0.00     0.156 HD
BRANCH   2   6
HETATM    6  C11 UNL     1      -0.826   0.192   0.941  1.00  0.00     0.264 C 
HETATM    7  N1  UNL     1      -1.282   0.532  -0.349  1.00  0.00    -0.342 N 
ATOM      8  H1  UNL     1      -0.671   0.272  -1.124  1.00  0.00     0.163 HD
HETATM    9  O3  UNL     1      -1.489   0.464   1.984  1.00  0.00    -0.266 OA
BRANCH   7  10
HETATM   10  C3  UNL     1      -2.502   1.200  -0.704  1.00  0.00     0.185 C 
BRANCH  10  11
HETATM   11  C2  UNL     1      -2.358   2.673  -0.596  1.00  0.00     0.281 C 
HETATM   12  O2  UNL     1      -1.282   3.149  -0.231  1.00  0.00    -0.263 OA
BRANCH  11  13
HETATM   13  O1  UNL     1      -3.417   3.509  -0.902  1.00  0.00    -0.325 OA
HETATM   14  C1  UNL     1      -3.178   4.920  -0.765  1.00  0.00     0.213 C 
ENDBRANCH  11  13
ENDBRANCH  10  11
BRANCH  10  15
HETATM   15  C4  UNL     1      -3.708   0.724   0.079  1.00  0.00     0.040 C 
BRANCH  15  16
HETATM   16  C5  UNL     1      -3.958  -0.742   0.035  1.00  0.00    -0.012 C 
HETATM   17  C6  UNL     1      -4.218  -1.335  -1.299  1.00  0.00     0.005 C 
HETATM   18  C7  UNL     1      -5.660  -1.357  -1.738  1.00  0.00     0.000 C 
HETATM   19  C8  UNL     1      -6.630  -1.601  -0.607  1.00  0.00     0.000 C 
HETATM   20  C9  UNL     1      -6.343  -0.700   0.575  1.00  0.00     0.000 C 
HETATM   21  C10 UNL     1      -4.991  -1.056   1.094  1.00  0.00     0.005 C 
ENDBRANCH  15  16
ENDBRANCH  10  15
ENDBRANCH   7  10
ENDBRANCH   2   6
ENDBRANCH   1   2
BRANCH   1  22
HETATM   22  C14 UNL     1       2.535  -1.506   0.232  1.00  0.00     0.153 C 
HETATM   23  O4  UNL     1       2.656  -2.709  -0.027  1.00  0.00    -0.296 OA
BRANCH  22  24
HETATM   24  C15 UNL     1       3.722  -0.844   0.853  1.00  0.00     0.211 C 
HETATM   25  C16 UNL     1       4.220   0.343   0.101  1.00  0.00     0.239 C 
HETATM   26  C17 UNL     1       5.364   0.123  -0.814  1.00  0.00     0.181 C 
HETATM   27  C18 UNL     1       6.585  -0.393  -0.099  1.00  0.00     0.228 C 
HETATM   28  C19 UNL     1       6.354  -1.897   0.090  1.00  0.00     0.176 C 
HETATM   29  S1  UNL     1       4.996  -2.014   1.237  1.00  0.00     0.159 S 
HETATM   30  O6  UNL     1       5.583  -1.759   2.608  1.00  0.00    -0.227 OA
HETATM   31  O7  UNL     1       4.517  -3.435   1.232  1.00  0.00    -0.227 OA
BRANCH  25  32
HETATM   32  N3  UNL     1       4.552   1.446   1.020  1.00  0.00    -0.071 N 
ATOM     33  H33 UNL     1       3.764   1.685   1.622  1.00  0.00     0.274 HD
ATOM     34  H32 UNL     1       5.212   1.151   1.739  1.00  0.00     0.274 HD
ATOM     35  H31 UNL     1       4.893   2.258   0.505  1.00  0.00     0.274 HD
ENDBRANCH  25  32
BRANCH  26  36
HETATM   36  O5  UNL     1       5.698   1.378  -1.364  1.00  0.00    -0.391 OA
ATOM     37  H5  UNL     1       6.432   1.237  -1.951  1.00  0.00     0.210 HD
ENDBRANCH  26  36
BRANCH  27  38
HETATM   38  N4  UNL     1       7.809  -0.100  -0.769  1.00  0.00    -0.072 N 
ATOM     39  H43 UNL     1       7.784  -0.441  -1.730  1.00  0.00     0.274 HD
ATOM     40  H42 UNL     1       7.892   0.901  -0.945  1.00  0.00     0.274 HD
ATOM     41  H41 UNL     1       8.636  -0.449  -0.285  1.00  0.00     0.274 HD
ENDBRANCH  27  38
ENDBRANCH  22  24
ENDBRANCH   1  22
TORSDOF 12
