REMARK  4 active torsions:
REMARK  status: ('A' for Active; 'I' for Inactive)
REMARK    1  A    between atoms: N1_1  and  C1_5 
REMARK    2  A    between atoms: C1_5  and  C2_6 
REMARK    3  A    between atoms: C2_6  and  C3_7 
REMARK    4  A    between atoms: C3_7  and  C4_8 
ROOT
HETATM    1  C4  UNL     1      -0.017   0.057  -0.100  1.00  0.00     0.124 C 
HETATM    2  C5  UNL     1      -0.578  -1.278   0.197  1.00  0.00     0.103 C 
HETATM    3  N2  UNL     1      -1.949  -1.421   0.423  1.00  0.00    -0.297 N 
ATOM      4  H2  UNL     1      -2.478  -2.149  -0.057  1.00  0.00     0.183 HD
HETATM    5  N3  UNL     1      -2.577  -0.569   1.300  1.00  0.00    -0.021 NA
HETATM    6  N4  UNL     1      -2.866   0.648   0.687  1.00  0.00    -0.258 N 
ATOM      7  H4  UNL     1      -3.700   1.133   1.018  1.00  0.00     0.187 HD
HETATM    8  C6  UNL     1      -2.137   1.289  -0.341  1.00  0.00     0.202 C 
HETATM    9  N5  UNL     1      -2.753   2.306  -1.099  1.00  0.00    -0.062 NA
HETATM   10  N6  UNL     1      -0.906   1.020  -0.667  1.00  0.00    -0.354 N 
ATOM     11  H6  UNL     1      -0.523   1.574  -1.433  1.00  0.00     0.163 HD
ENDROOT
BRANCH   1  12
HETATM   12  C3  UNL     1       1.125  -0.121  -1.109  1.00  0.00     0.032 C 
BRANCH  12  13
HETATM   13  C2  UNL     1       2.205  -1.009  -0.542  1.00  0.00     0.029 C 
BRANCH  13  14
HETATM   14  C1  UNL     1       2.792  -0.422   0.726  1.00  0.00     0.230 C 
BRANCH  14  15
HETATM   15  N1  UNL     1       3.384   0.881   0.497  1.00  0.00    -0.079 N 
ATOM     16  H13 UNL     1       4.077   0.847  -0.251  1.00  0.00     0.274 HD
ATOM     17  H12 UNL     1       2.716   1.521   0.067  1.00  0.00     0.274 HD
ATOM     18  H11 UNL     1       3.779   1.276   1.350  1.00  0.00     0.274 HD
ENDBRANCH  14  15
ENDBRANCH  13  14
ENDBRANCH  12  13
ENDBRANCH   1  12
TORSDOF 4
