REMARK  4 active torsions:
REMARK  status: ('A' for Active; 'I' for Inactive)
REMARK    1  A    between atoms: C2_2  and  C3_3 
REMARK    2  A    between atoms: C3_3  and  C4_4 
REMARK    3  A    between atoms: C5_5  and  C6_6 
REMARK    4  A    between atoms: N5_24  and  C14_25 
ROOT
HETATM    1  C6  UNL     1       0.016   0.947  -0.923  1.00  0.00     0.065 A 
HETATM    2  C7  UNL     1       0.435   1.961  -1.791  1.00  0.00     0.061 A 
HETATM    3  C8  UNL     1       1.436   1.981  -2.711  1.00  0.00     0.160 A 
HETATM    4 CL1  UNL     1       2.558   0.702  -3.115  1.00  0.00    -0.055 Cl
HETATM    5  O1  UNL     1       1.424   3.188  -3.280  1.00  0.00    -0.284 OA
HETATM    6  C9  UNL     1       0.478   3.925  -2.775  1.00  0.00     0.184 A 
HETATM    7  C10 UNL     1       0.136   5.282  -3.118  1.00  0.00     0.128 C 
HETATM    8  N1  UNL     1      -0.146   6.369  -3.406  1.00  0.00    -0.189 NA
HETATM    9  C11 UNL     1      -0.182   3.188  -1.820  1.00  0.00     0.094 A 
HETATM   10  N2  UNL     1      -1.191   3.377  -0.995  1.00  0.00    -0.336 N 
ATOM     11  H2  UNL     1      -1.655   4.285  -1.011  1.00  0.00     0.167 HD
HETATM   12  C12 UNL     1      -1.648   2.457  -0.136  1.00  0.00     0.150 A 
HETATM   13  N3  UNL     1      -2.634   2.475   0.751  1.00  0.00    -0.174 N 
ATOM     14  H3  UNL     1      -3.261   3.256   0.944  1.00  0.00     0.186 HD
HETATM   15  C13 UNL     1      -2.653   1.276   1.346  1.00  0.00     0.681 A 
HETATM   16  N4  UNL     1      -3.496   0.957   2.267  1.00  0.00    -0.234 N 
ATOM     17  H41 UNL     1      -3.510   0.043   2.720  1.00  0.00     0.174 HD
ATOM     18  H42 UNL     1      -4.222   1.574   2.631  1.00  0.00     0.174 HD
HETATM   19  N5  UNL     1      -1.675   0.444   0.856  1.00  0.00    -0.170 N 
HETATM   20  C18 UNL     1      -1.038   1.190  -0.081  1.00  0.00     0.117 A 
ENDROOT
BRANCH   1  21
HETATM   21  C5  UNL     1       0.728  -0.310  -0.960  1.00  0.00    -0.063 C 
HETATM   22  C4  UNL     1       1.375  -1.354  -1.042  1.00  0.00    -0.101 C 
BRANCH  22  23
HETATM   23  C3  UNL     1       2.128  -2.610  -1.118  1.00  0.00     0.094 C 
BRANCH  23  24
HETATM   24  C2  UNL     1       3.586  -2.338  -0.835  1.00  0.00     0.007 C 
HETATM   25  C1  UNL     1       3.799  -1.747   0.531  1.00  0.00     0.006 C 
ENDBRANCH  23  24
ENDBRANCH  22  23
ENDBRANCH   1  21
BRANCH  19  26
HETATM   26  C14 UNL     1      -1.413  -0.897   1.262  1.00  0.00     0.044 C 
HETATM   27  C15 UNL     1      -0.181  -1.122   2.101  1.00  0.00     0.039 C 
HETATM   28  C16 UNL     1      -1.783  -2.000   0.299  1.00  0.00     0.039 C 
HETATM   29  C17 UNL     1      -2.486  -1.214   2.368  1.00  0.00     0.039 C 
ENDBRANCH  19  26
TORSDOF 4
