REMARK  6 active torsions:
REMARK  status: ('A' for Active; 'I' for Inactive)
REMARK    1  A    between atoms: C2_2  and  C3_3 
REMARK    2  A    between atoms: C3_3  and  S1_5 
REMARK    3  A    between atoms: S1_5  and  N1_8 
REMARK    4  A    between atoms: N1_8  and  C5_10 
REMARK    5  A    between atoms: C6_13  and  N3_14 
REMARK    6  A    between atoms: C9_23  and  C10_24 
ROOT
HETATM    1  C5  UNL     1       0.144  -1.232   0.924  1.00  0.00     0.145 A 
HETATM    2  N2  UNL     1       1.219  -1.797   1.497  1.00  0.00    -0.175 N 
ATOM      3  H2  UNL     1       1.975  -1.194   1.822  1.00  0.00     0.186 HD
HETATM    4  C6  UNL     1       1.337  -3.126   1.658  1.00  0.00     0.679 A 
HETATM    5  N4  UNL     1       0.344  -3.917   1.231  1.00  0.00    -0.176 N 
ATOM      6  H4  UNL     1       0.438  -4.925   1.354  1.00  0.00     0.186 HD
HETATM    7  C7  UNL     1      -0.773  -3.442   0.646  1.00  0.00     0.136 A 
HETATM    8  N5  UNL     1      -1.880  -4.030   0.147  1.00  0.00    -0.350 N 
ATOM      9  H5  UNL     1      -2.061  -5.034   0.136  1.00  0.00     0.166 HD
HETATM   10  C8  UNL     1      -2.697  -3.096  -0.327  1.00  0.00     0.106 A 
HETATM   11  C9  UNL     1      -2.085  -1.840  -0.124  1.00  0.00     0.050 A 
HETATM   12  C13 UNL     1      -0.867  -2.054   0.491  1.00  0.00     0.070 A 
ENDROOT
BRANCH  11  13
HETATM   13  C10 UNL     1      -2.714  -0.598  -0.529  1.00  0.00     0.178 A 
HETATM   14  N6  UNL     1      -3.925  -0.461  -1.135  1.00  0.00    -0.276 N 
HETATM   15  N7  UNL     1      -4.197   0.806  -1.366  1.00  0.00    -0.263 N 
ATOM     16  H6  UNL     1      -4.540  -1.237  -1.378  1.00  0.00     0.189 HD
HETATM   17  C11 UNL     1      -3.128   1.483  -0.893  1.00  0.00     0.240 A 
ATOM     18  H7  UNL     1      -5.032   1.192  -1.806  1.00  0.00     0.190 HD
HETATM   19  N8  UNL     1      -2.946   2.761  -0.902  1.00  0.00    -0.359 N 
HETATM   20  O3  UNL     1      -2.286   0.610  -0.412  1.00  0.00    -0.259 OA
HETATM   21  C12 UNL     1      -3.935   3.662  -1.458  1.00  0.00     0.150 C 
ATOM     22  H8  UNL     1      -2.087   3.145  -0.509  1.00  0.00     0.162 HD
ENDBRANCH  11  13
BRANCH   1  23
HETATM   23  N1  UNL     1       0.086   0.036   0.798  1.00  0.00    -0.268 N 
ATOM     24  H1  UNL     1      -0.755   0.408   0.357  1.00  0.00     0.180 HD
BRANCH  23  25
HETATM   25  S1  UNL     1       1.248   1.176   1.280  1.00  0.00     0.235 S 
HETATM   26  O1  UNL     1       1.616   1.020   2.727  1.00  0.00    -0.205 OA
HETATM   27  O2  UNL     1       0.609   2.552   1.127  1.00  0.00    -0.205 OA
BRANCH  25  28
HETATM   28  C3  UNL     1       2.699   1.158   0.226  1.00  0.00     0.125 C 
HETATM   29  C4  UNL     1       3.656   2.228   0.689  1.00  0.00     0.028 C 
BRANCH  28  30
HETATM   30  C2  UNL     1       2.211   1.415  -1.185  1.00  0.00     0.017 C 
HETATM   31  C1  UNL     1       3.343   1.450  -2.170  1.00  0.00     0.006 C 
ENDBRANCH  28  30
ENDBRANCH  25  28
ENDBRANCH  23  25
ENDBRANCH   1  23
BRANCH   4  32
HETATM   32  N3  UNL     1       2.402  -3.638   2.221  1.00  0.00    -0.234 N 
ATOM     33  H32 UNL     1       3.158  -3.036   2.546  1.00  0.00     0.174 HD
ATOM     34  H31 UNL     1       2.492  -4.647   2.343  1.00  0.00     0.174 HD
ENDBRANCH   4  32
TORSDOF 6
