REMARK  10 active torsions:
REMARK  status: ('A' for Active; 'I' for Inactive)
REMARK    1  A    between atoms: C1_2  and  C2_3 
REMARK    2  A    between atoms: C1_2  and  C4_11 
REMARK    3  A    between atoms: C2_3  and  O2_4 
REMARK    4  A    between atoms: N1_6  and  C3_8 
REMARK    5  A    between atoms: N2_14  and  C7_15 
REMARK    6  A    between atoms: C7_15  and  C8_16 
REMARK    7  A    between atoms: C8_16  and  C9_17 
REMARK    8  A    between atoms: C8_16  and  N4_24 
REMARK    9  A    between atoms: C9_17  and  O3_18 
REMARK   10  A    between atoms: N3_20  and  O4_22 
ROOT
HETATM    1  C4  UNL     1       2.132   0.281  -0.871  1.00  0.00     0.070 C 
HETATM    2  C5  UNL     1       1.718  -0.876  -0.059  1.00  0.00     0.057 C 
HETATM    3  C6  UNL     1       0.266  -0.978   0.307  1.00  0.00     0.064 C 
HETATM    4  N2  UNL     1      -0.598  -0.110  -0.367  1.00  0.00    -0.371 N 
HETATM    5  C13 UNL     1      -0.101   1.202  -0.630  1.00  0.00     0.128 C 
HETATM    6  C14 UNL     1       1.079   1.089  -1.533  1.00  0.00     0.033 C 
ENDROOT
BRANCH   4   7
HETATM    7  C7  UNL     1      -1.708  -0.557  -1.082  1.00  0.00     0.107 C 
BRANCH   7   8
HETATM    8  C8  UNL     1      -2.897  -1.078  -0.401  1.00  0.00     0.336 C 
BRANCH   8   9
HETATM    9  C9  UNL     1      -2.670  -2.249   0.456  1.00  0.00     0.174 C 
HETATM   10  N3  UNL     1      -2.771  -3.465   0.020  1.00  0.00    -0.249 N 
ATOM     11  H3  UNL     1      -2.608  -4.261   0.636  1.00  0.00     0.196 HD
BRANCH   9  12
HETATM   12  O3  UNL     1      -2.334  -2.056   1.785  1.00  0.00    -0.346 OA
ATOM     13  H3  UNL     1      -2.187  -2.813   2.339  1.00  0.00     0.219 HD
ENDBRANCH   9  12
BRANCH  10  14
HETATM   14  O4  UNL     1      -3.101  -3.644  -1.282  1.00  0.00    -0.288 OA
ATOM     15  H4  UNL     1      -3.175  -4.536  -1.602  1.00  0.00     0.244 HD
ENDBRANCH  10  14
ENDBRANCH   8   9
BRANCH   8  16
HETATM   16  N4  UNL     1      -3.662  -0.147   0.361  1.00  0.00     0.106 N 
HETATM   17  C10 UNL     1      -4.276   0.958  -0.288  1.00  0.00     0.275 A 
HETATM   18  C11 UNL     1      -3.677   1.844   0.812  1.00  0.00     0.060 A 
HETATM   19  C12 UNL     1      -3.147   0.564   1.442  1.00  0.00     0.275 A 
ENDBRANCH   8  16
ENDBRANCH   7   8
ENDBRANCH   4   7
BRANCH   1  20
HETATM   20  C1  UNL     1       3.013   1.206  -0.089  1.00  0.00     0.204 C 
HETATM   21  O1  UNL     1       2.694   2.376   0.154  1.00  0.00    -0.288 OA
BRANCH  20  22
HETATM   22  C2  UNL     1       4.283   0.681   0.389  1.00  0.00     0.189 C 
HETATM   23  N1  UNL     1       5.111   1.406   1.075  1.00  0.00    -0.319 N 
ATOM     24  H1  UNL     1       4.876   2.374   1.293  1.00  0.00     0.169 HD
BRANCH  22  25
HETATM   25  O2  UNL     1       4.645  -0.636   0.115  1.00  0.00    -0.343 OA
ATOM     26  H2  UNL     1       5.474  -0.979   0.427  1.00  0.00     0.219 HD
ENDBRANCH  22  25
BRANCH  23  27
HETATM   27  C3  UNL     1       6.336   0.864   1.523  1.00  0.00     0.151 C 
HETATM   28  S1  UNL     1       6.334  -0.500   2.405  1.00  0.00    -0.052 SA
HETATM   29  S2  UNL     1       7.858   1.660   1.131  1.00  0.00    -0.020 SA
ENDBRANCH  23  27
ENDBRANCH  20  22
ENDBRANCH   1  20
TORSDOF 10
