REMARK  1 active torsions:
REMARK  status: ('A' for Active; 'I' for Inactive)
REMARK       I    between atoms: C1_4  and  N3_6 
REMARK    1  A    between atoms: N3_6  and  N4_8 
ROOT
HETATM    1  N4  UNL     1       0.269  -0.825  -0.431  1.00  0.00    -0.278 N 
ATOM      2  H4  UNL     1       0.454  -1.826  -0.373  1.00  0.00     0.189 HD
HETATM    3  C2  UNL     1      -0.909  -0.376  -0.239  1.00  0.00     0.193 A 
HETATM    4  N5  UNL     1      -1.362   0.967  -0.276  1.00  0.00    -0.289 N 
ATOM      5  H5  UNL     1      -0.783   1.784  -0.468  1.00  0.00     0.172 HD
HETATM    6  C3  UNL     1      -2.739   0.986  -0.004  1.00  0.00     0.328 A 
HETATM    7  O1  UNL     1      -3.482   2.029   0.046  1.00  0.00    -0.247 OA
HETATM    8  N6  UNL     1      -3.195  -0.322   0.211  1.00  0.00    -0.272 N 
ATOM      9  H6  UNL     1      -4.152  -0.600   0.428  1.00  0.00     0.174 HD
HETATM   10  C4  UNL     1      -2.077  -1.190   0.071  1.00  0.00     0.295 A 
HETATM   11  O2  UNL     1      -2.120  -2.461   0.200  1.00  0.00    -0.264 OA
ENDROOT
BRANCH   1  12
HETATM   12  N3  UNL     1       1.304   0.069  -0.722  1.00  0.00    -0.272 N 
HETATM   13  C1  UNL     1       2.448   0.078   0.100  1.00  0.00     0.200 C 
HETATM   14  N1  UNL     1       2.704   0.979   0.984  1.00  0.00    -0.372 N 
HETATM   15  N2  UNL     1       3.388  -0.980  -0.056  1.00  0.00    -0.062 NA
ATOM     16  H12 UNL     1       3.532   0.986   1.579  1.00  0.00     0.158 HD
ATOM     17  H11 UNL     1       2.031   1.737   1.096  1.00  0.00     0.158 HD
ATOM     18  H3  UNL     1       1.232   0.704  -1.517  1.00  0.00     0.189 HD
ENDBRANCH   1  12
TORSDOF 1
