REMARK  3 active torsions:
REMARK  status: ('A' for Active; 'I' for Inactive)
REMARK    1  A    between atoms: C2_3  and  N2_4 
REMARK    2  A    between atoms: N2_4  and  N3_6 
REMARK    3  A    between atoms: C4_16  and  N7_17 
ROOT
HETATM    1  C1  UNL     1       0.544  -2.154   1.042  1.00  0.00     0.199 C 
HETATM    2  N1  UNL     1       0.587  -0.836   0.426  1.00  0.00    -0.102 N 
HETATM    3  C2  UNL     1       1.705  -0.142   0.155  1.00  0.00     0.728 A 
HETATM    4  N4  UNL     1       1.343   1.019  -0.407  1.00  0.00    -0.016 N 
ATOM      5  H4  UNL     1       1.984   1.749  -0.718  1.00  0.00     0.203 HD
HETATM    6  C3  UNL     1      -0.018   1.072  -0.498  1.00  0.00     0.736 A 
HETATM    7  N5  UNL     1      -0.890   1.975  -0.963  1.00  0.00    -0.128 N 
ATOM      8  H5  UNL     1      -0.536   2.848  -1.354  1.00  0.00     0.205 HD
HETATM    9  N6  UNL     1      -2.192   1.772  -0.931  1.00  0.00    -0.267 N 
ATOM     10  H6  UNL     1      -2.838   2.474  -1.292  1.00  0.00     0.189 HD
HETATM   11  C4  UNL     1      -2.647   0.626  -0.415  1.00  0.00     0.186 A 
HETATM   12  C5  UNL     1      -1.756  -0.310   0.067  1.00  0.00     0.327 A 
HETATM   13  O1  UNL     1      -2.147  -1.412   0.565  1.00  0.00    -0.261 OA
HETATM   14  N8  UNL     1      -0.443  -0.092   0.028  1.00  0.00    -0.026 N 
ENDROOT
BRANCH   3  15
HETATM   15  N2  UNL     1       2.904  -0.530   0.394  1.00  0.00    -0.137 N 
ATOM     16  H2  UNL     1       3.031  -1.444   0.828  1.00  0.00     0.205 HD
BRANCH  15  17
HETATM   17  N3  UNL     1       4.038   0.210   0.102  1.00  0.00    -0.331 N 
ATOM     18  H32 UNL     1       3.892   1.122  -0.332  1.00  0.00     0.177 HD
ATOM     19  H31 UNL     1       4.991  -0.099   0.292  1.00  0.00     0.177 HD
ENDBRANCH  15  17
ENDBRANCH   3  15
BRANCH  11  20
HETATM   20  N7  UNL     1      -3.904   0.404  -0.372  1.00  0.00    -0.380 N 
ATOM     21  H72 UNL     1      -4.563   1.096  -0.728  1.00  0.00     0.158 HD
ATOM     22  H71 UNL     1      -4.251  -0.471   0.022  1.00  0.00     0.158 HD
ENDBRANCH  11  20
TORSDOF 3
