REMARK  3 active torsions:
REMARK  status: ('A' for Active; 'I' for Inactive)
REMARK    1  A    between atoms: N1_2  and  C3_4 
REMARK    2  A    between atoms: C4_7  and  N3_8 
REMARK       I    between atoms: N3_8  and  C5_9 
REMARK       I    between atoms: C5_9  and  N4_10 
REMARK       I    between atoms: C5_9  and  N5_14 
REMARK    3  A    between atoms: C7_21  and  N7_22 
ROOT
HETATM    1  C3  UNL     1      -1.833  -0.337   0.022  1.00  0.00     0.683 A 
HETATM    2  N2  UNL     1      -0.688  -0.962   0.225  1.00  0.00    -0.162 N 
ATOM      3  H2  UNL     1      -0.731  -1.955   0.453  1.00  0.00     0.187 HD
HETATM    4  C4  UNL     1       0.553  -0.386   0.154  1.00  0.00     0.222 A 
HETATM    5  C6  UNL     1       0.576   0.958  -0.158  1.00  0.00     0.138 A 
HETATM    6  N6  UNL     1       1.719   1.659  -0.265  1.00  0.00    -0.335 N 
ATOM      7  H6  UNL     1       2.603   1.175  -0.109  1.00  0.00     0.168 HD
HETATM    8  C7  UNL     1       1.750   2.980  -0.571  1.00  0.00     0.115 A 
HETATM    9  C8  UNL     1       0.590   3.660  -0.787  1.00  0.00     0.137 A 
HETATM   10  N8  UNL     1      -0.572   2.984  -0.687  1.00  0.00    -0.346 N 
ATOM     11  H8  UNL     1      -1.451   3.477  -0.845  1.00  0.00     0.167 HD
HETATM   12  C9  UNL     1      -0.599   1.655  -0.379  1.00  0.00     0.153 A 
HETATM   13  N9  UNL     1      -1.761   0.991  -0.284  1.00  0.00    -0.174 N 
ATOM     14  H9  UNL     1      -2.629   1.501  -0.448  1.00  0.00     0.186 HD
ENDROOT
BRANCH   4  15
HETATM   15  N3  UNL     1       1.538  -1.055   0.363  1.00  0.00    -0.369 NA
HETATM   16  C5  UNL     1       2.832  -1.387   0.509  1.00  0.00     0.556 C 
HETATM   17  N4  UNL     1       3.551  -1.793  -0.698  1.00  0.00    -0.021 N 
HETATM   18  N5  UNL     1       2.928  -2.577   1.400  1.00  0.00    -0.021 N 
ATOM     19  H43 UNL     1       3.052  -2.559  -1.151  1.00  0.00     0.280 HD
ATOM     20  H42 UNL     1       3.464  -1.066  -1.408  1.00  0.00     0.280 HD
ATOM     21  H41 UNL     1       4.533  -2.045  -0.587  1.00  0.00     0.280 HD
ATOM     22  H53 UNL     1       2.461  -2.432   2.295  1.00  0.00     0.280 HD
ATOM     23  H52 UNL     1       2.361  -3.358   1.069  1.00  0.00     0.280 HD
ATOM     24  H51 UNL     1       3.910  -2.829   1.511  1.00  0.00     0.280 HD
ENDBRANCH   4  15
BRANCH   1  25
HETATM   25  N1  UNL     1      -3.105  -0.958   0.101  1.00  0.00    -0.226 N 
HETATM   26  C1  UNL     1      -3.866  -0.880   1.309  1.00  0.00     0.168 C 
HETATM   27  C2  UNL     1      -3.616  -1.664  -1.033  1.00  0.00     0.168 C 
ENDBRANCH   1  25
BRANCH   8  28
HETATM   28  N7  UNL     1       2.907   3.582  -0.660  1.00  0.00    -0.384 N 
ATOM     29  H72 UNL     1       3.776   3.073  -0.498  1.00  0.00     0.157 HD
ATOM     30  H71 UNL     1       2.930   4.575  -0.890  1.00  0.00     0.157 HD
ENDBRANCH   8  28
TORSDOF 3
