REMARK  4 active torsions:
REMARK  status: ('A' for Active; 'I' for Inactive)
REMARK    1  A    between atoms: C2_2  and  N1_3 
REMARK    2  A    between atoms: C2_2  and  C3_7 
REMARK    3  A    between atoms: C3_7  and  N2_8 
REMARK    4  A    between atoms: N2_8  and  C4_10 
ROOT
HETATM    1  C4  UNL     1      -0.520  -0.199   0.286  1.00  0.00     0.083 A 
HETATM    2  C5  UNL     1      -1.164  -1.396  -0.056  1.00  0.00     0.146 A 
HETATM    3  C6  UNL     1      -0.344  -2.574  -0.202  1.00  0.00     0.120 C 
HETATM    4  N3  UNL     1       0.307  -3.530  -0.304  1.00  0.00    -0.190 NA
HETATM    5  N4  UNL     1      -2.497  -1.430  -0.238  1.00  0.00    -0.306 N 
HETATM    6  C7  UNL     1      -3.122  -2.689  -0.591  1.00  0.00     0.160 C 
HETATM    7  C8  UNL     1      -3.286  -0.361  -0.112  1.00  0.00     0.277 A 
HETATM    8  O1  UNL     1      -4.540  -0.423  -0.290  1.00  0.00    -0.265 OA
HETATM    9  C9  UNL     1      -2.680   0.840   0.227  1.00  0.00     0.133 A 
HETATM   10  N5  UNL     1      -3.216   2.057   0.424  1.00  0.00    -0.293 N 
ATOM     11  H5  UNL     1      -4.203   2.302   0.348  1.00  0.00     0.187 HD
HETATM   12  N6  UNL     1      -2.238   2.867   0.731  1.00  0.00    -0.284 N 
ATOM     13  H6  UNL     1      -2.362   3.859   0.933  1.00  0.00     0.188 HD
HETATM   14  C10 UNL     1      -1.038   2.234   0.750  1.00  0.00     0.128 A 
HETATM   15  N7  UNL     1       0.088   2.781   1.029  1.00  0.00    -0.384 N 
ATOM     16  H71 UNL     1       0.990   2.305   1.043  1.00  0.00     0.157 HD
ATOM     17  H72 UNL     1       0.278   3.754   1.269  1.00  0.00     0.157 HD
HETATM   18  C11 UNL     1      -1.294   0.925   0.427  1.00  0.00     0.072 A 
ENDROOT
BRANCH   1  19
HETATM   19  N2  UNL     1       0.879  -0.205   0.466  1.00  0.00    -0.385 N 
ATOM     20  H2  UNL     1       1.256  -0.325   1.406  1.00  0.00     0.159 HD
BRANCH  19  21
HETATM   21  C3  UNL     1       1.798  -0.045  -0.647  1.00  0.00     0.152 C 
BRANCH  21  22
HETATM   22  C2  UNL     1       3.210  -0.231  -0.210  1.00  0.00     0.197 C 
HETATM   23  C1  UNL     1       3.640   0.741   0.838  1.00  0.00     0.041 C 
BRANCH  22  24
HETATM   24  N1  UNL     1       4.125  -0.213  -1.333  1.00  0.00    -0.074 N 
ATOM     25  H13 UNL     1       4.238   0.727  -1.713  1.00  0.00     0.274 HD
ATOM     26  H12 UNL     1       5.088  -0.376  -1.038  1.00  0.00     0.274 HD
ATOM     27  H11 UNL     1       3.831  -0.877  -2.049  1.00  0.00     0.274 HD
ENDBRANCH  22  24
ENDBRANCH  21  22
ENDBRANCH  19  21
ENDBRANCH   1  19
TORSDOF 4
