REMARK  8 active torsions:
REMARK  status: ('A' for Active; 'I' for Inactive)
REMARK    1  A    between atoms: C1_2  and  C2_3 
REMARK    2  A    between atoms: C1_2  and  O4_20 
REMARK    3  A    between atoms: C2_3  and  C3_4 
REMARK    4  A    between atoms: C7_8  and  O2_9 
REMARK    5  A    between atoms: O2_9  and  C8_10 
REMARK    6  A    between atoms: C8_10  and  C9_12 
REMARK    7  A    between atoms: O4_20  and  C14_21 
REMARK    8  A    between atoms: C21_30  and  N3_31 
ROOT
HETATM    1  C2  UNL     1       0.033   0.496  -1.320  1.00  0.00     0.149 C 
ENDROOT
BRANCH   1   2
HETATM    2  C1  UNL     1       0.766   0.816  -0.073  1.00  0.00     0.265 C 
HETATM    3  O1  UNL     1       0.163   1.521   0.806  1.00  0.00    -0.265 OA
BRANCH   2   4
HETATM    4  O4  UNL     1       2.037   0.417   0.218  1.00  0.00    -0.286 OA
BRANCH   4   5
HETATM    5  C14 UNL     1       2.762   0.724   1.401  1.00  0.00     0.311 C 
HETATM    6  O5  UNL     1       2.890  -0.397   2.223  1.00  0.00    -0.312 OA
HETATM    7  C15 UNL     1       3.784  -1.318   1.781  1.00  0.00     0.236 C 
HETATM    8  N2  UNL     1       5.088  -0.810   1.434  1.00  0.00    -0.314 N 
HETATM    9  C16 UNL     1       6.190  -1.593   1.450  1.00  0.00     0.098 A 
HETATM   10  C20 UNL     1       5.212   0.469   1.083  1.00  0.00     0.051 A 
HETATM   11  C17 UNL     1       7.430  -1.140   1.124  1.00  0.00     0.018 A 
HETATM   12  C18 UNL     1       7.550   0.187   0.761  1.00  0.00     0.003 A 
HETATM   13  C19 UNL     1       6.449   0.995   0.739  1.00  0.00     0.028 A 
HETATM   14  C21 UNL     1       4.050   1.357   1.054  1.00  0.00     0.261 C 
BRANCH  14  15
HETATM   15  N3  UNL     1       3.983   1.927  -0.300  1.00  0.00    -0.140 N 
HETATM   16  O6  UNL     1       4.718   1.562  -1.230  1.00  0.00    -0.536 OA
HETATM   17  O7  UNL     1       3.041   2.910  -0.501  1.00  0.00    -0.536 OA
ENDBRANCH  14  15
ENDBRANCH   4   5
ENDBRANCH   2   4
ENDBRANCH   1   2
BRANCH   1  18
HETATM   18  C3  UNL     1      -1.104  -0.415  -1.159  1.00  0.00    -0.046 A 
HETATM   19  C4  UNL     1      -0.882  -1.768  -1.413  1.00  0.00     0.008 A 
HETATM   20  C5  UNL     1      -1.867  -2.714  -1.308  1.00  0.00     0.003 A 
HETATM   21  C6  UNL     1      -3.126  -2.339  -0.941  1.00  0.00     0.037 A 
HETATM   22  C7  UNL     1      -3.374  -1.000  -0.681  1.00  0.00     0.080 A 
HETATM   23  C13 UNL     1      -2.385  -0.053  -0.787  1.00  0.00     0.045 A 
BRANCH  22  24
HETATM   24  O2  UNL     1      -4.664  -0.682  -0.313  1.00  0.00    -0.275 OA
BRANCH  24  25
HETATM   25  C8  UNL     1      -5.547  -0.025  -1.194  1.00  0.00     0.301 C 
HETATM   26  O3  UNL     1      -5.121   0.272  -2.332  1.00  0.00    -0.259 OA
BRANCH  25  27
HETATM   27  C9  UNL     1      -6.898   0.278  -0.757  1.00  0.00     0.073 A 
HETATM   28  C10 UNL     1      -7.428  -0.165   0.451  1.00  0.00     0.106 A 
HETATM   29  N1  UNL     1      -8.687   0.274   0.518  1.00  0.00    -0.373 N 
HETATM   30  C11 UNL     1      -8.998   0.980  -0.589  1.00  0.00     0.107 A 
ATOM     31  H1  UNL     1      -9.324   0.100   1.296  1.00  0.00     0.164 HD
HETATM   32  C12 UNL     1      -7.895   1.003  -1.414  1.00  0.00     0.043 A 
HETATM   33 BR1  UNL     1      -7.631   1.805  -3.101  1.00  0.00    -0.049 Br
ENDBRANCH  25  27
ENDBRANCH  24  25
ENDBRANCH  22  24
ENDBRANCH   1  18
TORSDOF 8
