REMARK  3 active torsions:
REMARK  status: ('A' for Active; 'I' for Inactive)
REMARK       I    between atoms: C1_4  and  N3_6 
REMARK    1  A    between atoms: N3_6  and  N4_8 
REMARK    2  A    between atoms: C8_24  and  N8_25 
REMARK       I    between atoms: N8_25  and  C9_27 
REMARK       I    between atoms: C9_27  and  N9_28 
REMARK       I    between atoms: C9_27  and  N10_32 
REMARK    3  A    between atoms: C10_37  and  C11_38 
ROOT
HETATM    1  N4  UNL     1       3.185  -0.026   0.860  1.00  0.00    -0.284 N 
ATOM      2  H4  UNL     1       3.925   0.641   1.079  1.00  0.00     0.188 HD
HETATM    3  C2  UNL     1       2.163   0.460   0.248  1.00  0.00     0.129 C 
HETATM    4  N5  UNL     1       2.105   1.842  -0.082  1.00  0.00    -0.367 N 
ATOM      5  H5  UNL     1       2.931   2.234  -0.534  1.00  0.00     0.161 HD
HETATM    6  C3  UNL     1       1.022   2.742   0.148  1.00  0.00     0.223 C 
HETATM    7  C4  UNL     1       0.190   3.028  -1.039  1.00  0.00     0.235 C 
HETATM    8  O1  UNL     1       0.715   2.922  -2.184  1.00  0.00    -0.272 OA
HETATM    9  N6  UNL     1      -1.161   3.410  -0.856  1.00  0.00    -0.358 N 
ATOM     10  H6  UNL     1      -1.729   3.591  -1.684  1.00  0.00     0.162 HD
HETATM   11  C5  UNL     1      -1.776   3.557   0.444  1.00  0.00     0.142 C 
HETATM   12  C6  UNL     1      -2.515   2.314   0.896  1.00  0.00     0.142 C 
HETATM   13  N7  UNL     1      -2.901   1.543  -0.254  1.00  0.00    -0.356 N 
ATOM     14  H7  UNL     1      -3.750   1.829  -0.741  1.00  0.00     0.162 HD
HETATM   15  C7  UNL     1      -2.214   0.433  -0.766  1.00  0.00     0.266 C 
HETATM   16  O2  UNL     1      -2.358   0.127  -2.003  1.00  0.00    -0.269 OA
HETATM   17  C8  UNL     1      -1.329  -0.379   0.105  1.00  0.00     0.314 C 
HETATM   18  O3  UNL     1      -0.110   0.217   0.184  1.00  0.00    -0.338 OA
HETATM   19  C10 UNL     1       1.013  -0.461  -0.128  1.00  0.00     0.254 C 
ENDROOT
BRANCH  17  20
HETATM   20  N8  UNL     1      -1.367  -1.781  -0.095  1.00  0.00    -0.341 N 
HETATM   21  C9  UNL     1      -2.611  -2.426   0.234  1.00  0.00     0.478 C 
HETATM   22  N9  UNL     1      -2.533  -3.866   0.010  1.00  0.00    -0.033 N 
HETATM   23  N10 UNL     1      -3.744  -1.956  -0.518  1.00  0.00    -0.033 N 
ATOM     24  H93 UNL     1      -2.239  -4.082  -0.942  1.00  0.00     0.278 HD
ATOM     25  H92 UNL     1      -1.750  -4.282   0.514  1.00  0.00     0.278 HD
ATOM     26  H91 UNL     1      -3.415  -4.323   0.243  1.00  0.00     0.278 HD
ATOM     27 3H10 UNL     1      -3.834  -0.944  -0.429  1.00  0.00     0.278 HD
ATOM     28 2H10 UNL     1      -3.561  -2.028  -1.519  1.00  0.00     0.278 HD
ATOM     29 1H10 UNL     1      -4.626  -2.413  -0.285  1.00  0.00     0.278 HD
ATOM     30  H8  UNL     1      -0.564  -2.300  -0.450  1.00  0.00     0.160 HD
ENDBRANCH  17  20
BRANCH  19  31
HETATM   31  C11 UNL     1       1.152  -0.874  -1.538  1.00  0.00     0.270 C 
HETATM   32  O4  UNL     1       2.135  -1.491  -1.885  1.00  0.00    -0.304 OA
ENDBRANCH  19  31
BRANCH   1  33
HETATM   33  N3  UNL     1       3.413  -1.310   1.255  1.00  0.00    -0.272 N 
HETATM   34  C1  UNL     1       4.708  -1.875   1.162  1.00  0.00     0.200 C 
HETATM   35  N1  UNL     1       5.536  -1.841   2.136  1.00  0.00    -0.372 N 
HETATM   36  N2  UNL     1       5.088  -2.494  -0.051  1.00  0.00    -0.062 NA
ATOM     37  H12 UNL     1       6.469  -2.248   2.069  1.00  0.00     0.158 HD
ATOM     38  H11 UNL     1       5.262  -1.394   3.011  1.00  0.00     0.158 HD
ATOM     39  H3  UNL     1       2.643  -1.870   1.621  1.00  0.00     0.189 HD
ENDBRANCH   1  33
TORSDOF 3
