REMARK  6 active torsions:
REMARK  status: ('A' for Active; 'I' for Inactive)
REMARK    1  A    between atoms: C5_5  and  C6_6 
REMARK    2  A    between atoms: C7_8  and  C8_9 
REMARK    3  A    between atoms: C8_9  and  O3_11 
REMARK    4  A    between atoms: O3_11  and  C9_12 
REMARK    5  A    between atoms: C13_16  and  C15_19 
REMARK    6  A    between atoms: C16_20  and  C17_21 
ROOT
HETATM    1  C1  UNL     1      -0.761  -3.122   3.303  1.00  0.00     0.014 C 
HETATM    2  C2  UNL     1      -1.164  -1.897   2.944  1.00  0.00    -0.089 C 
HETATM    3  C3  UNL     1      -2.603  -1.860   2.766  1.00  0.00     0.034 C 
HETATM    4  C4  UNL     1      -3.178  -0.697   2.013  1.00  0.00     0.017 C 
HETATM    5  C5  UNL     1      -2.813  -0.607   0.575  1.00  0.00     0.069 C 
HETATM    6  C7  UNL     1      -1.520   0.059   0.252  1.00  0.00     0.091 C 
HETATM    7  C11 UNL     1      -1.236   1.296   1.055  1.00  0.00     0.026 C 
HETATM    8  C12 UNL     1       0.206   1.710   1.006  1.00  0.00     0.030 C 
HETATM    9  C13 UNL     1       1.174   0.635   1.363  1.00  0.00     0.074 C 
HETATM   10  C14 UNL     1       1.823   0.880   2.674  1.00  0.00     0.073 C 
HETATM   11  N1  UNL     1       2.342   1.085   3.688  1.00  0.00    -0.196 NA
HETATM   12  C21 UNL     1       0.518  -0.730   1.476  1.00  0.00     0.054 C 
HETATM   13  C22 UNL     1       0.004  -0.993   2.863  1.00  0.00     0.043 C 
HETATM   14  C23 UNL     1      -0.434  -0.998   0.354  1.00  0.00     0.105 A 
HETATM   15  C24 UNL     1      -0.020  -1.856  -0.715  1.00  0.00     0.209 A 
HETATM   16  O4  UNL     1      -0.848  -2.357   0.346  1.00  0.00    -0.373 OA
ENDROOT
BRANCH   9  17
HETATM   17  C15 UNL     1       2.261   0.563   0.358  1.00  0.00     0.001 C 
HETATM   18  C16 UNL     1       3.251  -0.289   0.464  1.00  0.00     0.035 C 
BRANCH  18  19
HETATM   19  C17 UNL     1       4.282  -0.273  -0.599  1.00  0.00     0.073 A 
HETATM   20  N2  UNL     1       4.345   0.503  -1.668  1.00  0.00    -0.354 N 
HETATM   21  C18 UNL     1       5.334   0.379  -2.507  1.00  0.00     0.012 A 
ATOM     22  H2  UNL     1       3.619   1.199  -1.836  1.00  0.00     0.166 HD
HETATM   23  C19 UNL     1       5.470   1.233  -3.758  1.00  0.00     0.068 C 
HETATM   24  C20 UNL     1       6.279  -0.574  -2.227  1.00  0.00     0.076 A 
HETATM   25  S1  UNL     1       5.685  -1.236  -0.769  1.00  0.00    -0.082 SA
ENDBRANCH  18  19
ENDBRANCH   9  17
BRANCH   6  26
HETATM   26  C8  UNL     1      -1.546   0.537  -1.148  1.00  0.00     0.271 C 
HETATM   27  O2  UNL     1      -0.650   0.231  -1.960  1.00  0.00    -0.264 OA
BRANCH  26  28
HETATM   28  O3  UNL     1      -2.544   1.352  -1.668  1.00  0.00    -0.321 OA
BRANCH  28  29
HETATM   29  C9  UNL     1      -2.532   1.792  -3.014  1.00  0.00     0.174 C 
HETATM   30  C10 UNL     1      -3.726   2.661  -3.319  1.00  0.00     0.034 C 
ENDBRANCH  28  29
ENDBRANCH  26  28
ENDBRANCH   6  26
BRANCH   5  31
HETATM   31  C6  UNL     1      -3.990  -0.044  -0.160  1.00  0.00     0.237 C 
HETATM   32  O1  UNL     1      -4.613  -0.647  -1.016  1.00  0.00    -0.306 OA
ENDBRANCH   5  31
TORSDOF 6
