REMARK  8 active torsions:
REMARK  status: ('A' for Active; 'I' for Inactive)
REMARK    1  A    between atoms: O1_2  and  C2_3 
REMARK    2  A    between atoms: C5_6  and  N1_7 
REMARK    3  A    between atoms: N1_7  and  C6_8 
REMARK    4  A    between atoms: N1_7  and  N2_12 
REMARK    5  A    between atoms: C6_8  and  C7_9 
REMARK       I    between atoms: N2_12  and  C10_14 
REMARK    6  A    between atoms: C10_14  and  C11_16 
REMARK    7  A    between atoms: N3_18  and  O3_19 
REMARK    8  A    between atoms: N5_28  and  O4_29 
ROOT
HETATM    1  N2  UNL     1       0.328  -0.788  -0.342  1.00  0.00    -0.262 N 
ATOM      2  H2  UNL     1       0.677  -1.228  -1.193  1.00  0.00     0.190 HD
HETATM    3  C10 UNL     1       1.234  -0.015   0.369  1.00  0.00     0.290 C 
HETATM    4  O2  UNL     1       0.928   0.581   1.438  1.00  0.00    -0.264 OA
ENDROOT
BRANCH   3   5
HETATM    5  C11 UNL     1       2.610   0.131  -0.126  1.00  0.00     0.151 A 
HETATM    6  C12 UNL     1       3.095  -0.490  -1.245  1.00  0.00     0.161 A 
HETATM    7  N3  UNL     1       4.378  -0.315  -1.676  1.00  0.00    -0.230 N 
HETATM    8  C13 UNL     1       5.198   0.491  -0.985  1.00  0.00     0.108 A 
HETATM    9  C14 UNL     1       6.512   0.678  -1.423  1.00  0.00     0.037 A 
HETATM   10  C17 UNL     1       4.749   1.130   0.142  1.00  0.00     0.163 A 
HETATM   11  C15 UNL     1       7.333   1.508  -0.705  1.00  0.00     0.019 A 
HETATM   12  C16 UNL     1       6.867   2.144   0.427  1.00  0.00     0.090 A 
HETATM   13  N4  UNL     1       5.598   1.935   0.810  1.00  0.00    -0.349 N 
ATOM     14  H4  UNL     1       5.260   2.409   1.648  1.00  0.00     0.167 HD
HETATM   15  N5  UNL     1       3.481   0.932   0.533  1.00  0.00    -0.199 N 
BRANCH   7  16
HETATM   16  O3  UNL     1       4.838  -0.952  -2.805  1.00  0.00    -0.283 OA
ATOM     17  H3  UNL     1       5.731  -0.830  -3.105  1.00  0.00     0.245 HD
ENDBRANCH   7  16
BRANCH  15  18
HETATM   18  O4  UNL     1       3.056   1.591   1.676  1.00  0.00    -0.281 OA
ATOM     19  H4  UNL     1       3.667   2.153   2.138  1.00  0.00     0.245 HD
ENDBRANCH  15  18
ENDBRANCH   3   5
BRANCH   1  20
HETATM   20  N1  UNL     1      -1.024  -1.033  -0.018  1.00  0.00    -0.289 N 
BRANCH  20  21
HETATM   21  C5  UNL     1      -1.895   0.060   0.042  1.00  0.00     0.052 A 
HETATM   22  C4  UNL     1      -2.515   0.455  -1.159  1.00  0.00     0.034 A 
HETATM   23  C3  UNL     1      -3.369   1.523  -1.242  1.00  0.00     0.040 A 
HETATM   24  C2  UNL     1      -3.618   2.228  -0.086  1.00  0.00     0.085 A 
HETATM   25  C19 UNL     1      -3.038   1.884   1.122  1.00  0.00     0.046 A 
HETATM   26  C18 UNL     1      -2.195   0.810   1.148  1.00  0.00     0.053 A 
HETATM   27 BR1  UNL     1      -3.422   2.902   2.713  1.00  0.00    -0.048 Br
BRANCH  24  28
HETATM   28  O1  UNL     1      -4.463   3.306  -0.108  1.00  0.00    -0.355 OA
HETATM   29  C1  UNL     1      -5.118   3.763  -1.265  1.00  0.00     0.210 C 
ENDBRANCH  24  28
ENDBRANCH  20  21
BRANCH  20  30
HETATM   30  C6  UNL     1      -1.402  -2.385   0.161  1.00  0.00     0.153 C 
BRANCH  30  31
HETATM   31  C7  UNL     1      -2.064  -2.827   1.413  1.00  0.00    -0.003 C 
HETATM   32  C8  UNL     1      -3.395  -2.217   1.733  1.00  0.00     0.011 C 
HETATM   33  C9  UNL     1      -2.298  -4.349   1.272  1.00  0.00     0.011 C 
ENDBRANCH  30  31
ENDBRANCH  20  30
ENDBRANCH   1  20
TORSDOF 8
