REMARK  10 active torsions:
REMARK  status: ('A' for Active; 'I' for Inactive)
REMARK    1  A    between atoms: C2_2  and  O1_3 
REMARK    2  A    between atoms: O1_3  and  C3_4 
REMARK    3  A    between atoms: C3_4  and  C4_6 
REMARK    4  A    between atoms: C4_6  and  C5_7 
REMARK    5  A    between atoms: C5_7  and  C6_8 
REMARK    6  A    between atoms: C9_11  and  C10_12 
REMARK    7  A    between atoms: N1_14  and  O3_16 
REMARK    8  A    between atoms: O3_16  and  C12_17 
REMARK    9  A    between atoms: C12_17  and  C13_18 
REMARK   10  A    between atoms: C14_21  and  C15_22 
ROOT
HETATM    1  C10 UNL     1      -1.194   0.865  -1.238  1.00  0.00     0.072 C 
HETATM    2  C11 UNL     1      -2.300  -0.058  -0.899  1.00  0.00     0.077 C 
HETATM    3  N1  UNL     1      -2.632  -0.516   0.219  1.00  0.00    -0.267 N 
ATOM      4  H1  UNL     1      -3.436  -1.141   0.167  1.00  0.00     0.194 HD
HETATM    5  C14 UNL     1      -3.098  -0.188  -2.197  1.00  0.00     0.165 C 
HETATM    6  C21 UNL     1      -3.156   1.321  -2.444  1.00  0.00     0.238 C 
HETATM    7  O5  UNL     1      -4.139   1.954  -2.746  1.00  0.00    -0.272 OA
HETATM    8  N3  UNL     1      -1.778   1.747  -2.224  1.00  0.00    -0.319 N 
HETATM    9  C22 UNL     1      -1.194   2.856  -2.920  1.00  0.00     0.159 C 
ENDROOT
BRANCH   1  10
HETATM   10  C9  UNL     1       0.066   0.771  -0.877  1.00  0.00    -0.007 A 
HETATM   11  C8  UNL     1       0.496  -0.315  -0.103  1.00  0.00     0.014 A 
HETATM   12  C7  UNL     1       1.766  -0.428   0.414  1.00  0.00     0.012 A 
HETATM   13  C6  UNL     1       2.719   0.536   0.197  1.00  0.00    -0.040 A 
HETATM   14  C24 UNL     1       2.337   1.614  -0.559  1.00  0.00     0.012 A 
HETATM   15  C23 UNL     1       1.038   1.722  -1.081  1.00  0.00     0.014 A 
BRANCH  13  16
HETATM   16  C5  UNL     1       3.949   0.436   0.674  1.00  0.00    -0.006 C 
BRANCH  16  17
HETATM   17  C4  UNL     1       4.407  -0.722   1.478  1.00  0.00     0.139 C 
BRANCH  17  18
HETATM   18  C3  UNL     1       5.874  -0.751   1.622  1.00  0.00     0.262 C 
HETATM   19  O2  UNL     1       6.444   0.269   2.141  1.00  0.00    -0.265 OA
BRANCH  18  20
HETATM   20  O1  UNL     1       6.678  -1.813   1.229  1.00  0.00    -0.322 OA
BRANCH  20  21
HETATM   21  C2  UNL     1       8.081  -1.778   1.394  1.00  0.00     0.174 C 
HETATM   22  C1  UNL     1       8.679  -0.600   0.648  1.00  0.00     0.034 C 
ENDBRANCH  20  21
ENDBRANCH  18  20
ENDBRANCH  17  18
ENDBRANCH  16  17
ENDBRANCH  13  16
ENDBRANCH   1  10
BRANCH   3  23
HETATM   23  O3  UNL     1      -2.168  -0.369   1.469  1.00  0.00    -0.271 OA
BRANCH  23  24
HETATM   24  C12 UNL     1      -2.896   0.171   2.549  1.00  0.00     0.300 C 
BRANCH  24  25
HETATM   25  C13 UNL     1      -2.115   0.214   3.806  1.00  0.00     0.257 C 
HETATM   26  N2  UNL     1      -2.767   0.740   4.957  1.00  0.00    -0.060 NA
HETATM   27  O4  UNL     1      -0.942  -0.201   3.813  1.00  0.00    -0.274 OA
ENDBRANCH  24  25
ENDBRANCH  23  24
ENDBRANCH   3  23
BRANCH   5  28
HETATM   28  C15 UNL     1      -4.426  -0.740  -1.980  1.00  0.00    -0.039 A 
HETATM   29  C16 UNL     1      -5.288  -0.210  -1.027  1.00  0.00     0.011 A 
HETATM   30  C17 UNL     1      -6.535  -0.758  -0.843  1.00  0.00     0.043 A 
HETATM   31  C18 UNL     1      -6.936  -1.833  -1.602  1.00  0.00     0.116 A 
HETATM   32  F1  UNL     1      -8.186  -2.343  -1.380  1.00  0.00    -0.206 F 
HETATM   33  C19 UNL     1      -6.085  -2.347  -2.535  1.00  0.00     0.043 A 
HETATM   34  C20 UNL     1      -4.837  -1.817  -2.736  1.00  0.00     0.011 A 
ENDBRANCH   5  28
TORSDOF 10
