REMARK  7 active torsions:
REMARK  status: ('A' for Active; 'I' for Inactive)
REMARK    1  A    between atoms: N1_1  and  C1_4 
REMARK    2  A    between atoms: C2_9  and  C3_10 
REMARK    3  A    between atoms: C3_10  and  N4_11 
REMARK    4  A    between atoms: C6_18  and  C7_19 
REMARK    5  A    between atoms: C8_20  and  C9_21 
REMARK    6  A    between atoms: C9_21  and  N7_22 
REMARK    7  A    between atoms: C9_21  and  O1_26 
ROOT
HETATM    1  C1  UNL     1       1.208  -2.420  -0.629  1.00  0.00     0.134 A 
HETATM    2  N2  UNL     1       0.211  -3.308  -0.688  1.00  0.00    -0.284 N 
ATOM      3  H2  UNL     1       0.298  -4.249  -1.071  1.00  0.00     0.188 HD
HETATM    4  N3  UNL     1      -0.901  -2.806  -0.186  1.00  0.00    -0.300 N 
ATOM      5  H3  UNL     1      -1.792  -3.298  -0.123  1.00  0.00     0.186 HD
HETATM    6  C2  UNL     1      -0.676  -1.520   0.239  1.00  0.00     0.068 A 
HETATM    7  C6  UNL     1       0.647  -1.281  -0.040  1.00  0.00     0.088 A 
ENDROOT
BRANCH   7   8
HETATM    8  C7  UNL     1       1.357  -0.050   0.241  1.00  0.00    -0.057 C 
HETATM    9  C8  UNL     1       1.976   0.973   0.482  1.00  0.00    -0.041 C 
BRANCH   9  10
HETATM   10  C9  UNL     1       2.727   2.204   0.751  1.00  0.00     0.398 C 
BRANCH  10  11
HETATM   11  N7  UNL     1       3.456   2.105   1.980  1.00  0.00    -0.042 N 
ATOM     12  H73 UNL     1       2.846   1.859   2.760  1.00  0.00     0.278 HD
ATOM     13  H72 UNL     1       4.062   1.285   1.992  1.00  0.00     0.278 HD
ATOM     14  H71 UNL     1       3.978   2.961   2.167  1.00  0.00     0.278 HD
ENDBRANCH  10  11
BRANCH  10  15
HETATM   15  O1  UNL     1       1.768   3.241   0.776  1.00  0.00    -0.361 OA
ATOM     16  H1  UNL     1       2.254   4.038   0.950  1.00  0.00     0.213 HD
ENDBRANCH  10  15
ENDBRANCH   9  10
ENDBRANCH   7   8
BRANCH   1  17
HETATM   17  N1  UNL     1       2.440  -2.490  -1.002  1.00  0.00    -0.383 N 
ATOM     18  H12 UNL     1       2.849  -3.320  -1.431  1.00  0.00     0.157 HD
ATOM     19  H11 UNL     1       3.201  -1.812  -0.957  1.00  0.00     0.157 HD
ENDBRANCH   1  17
BRANCH   6  20
HETATM   20  C3  UNL     1      -1.683  -0.622   0.848  1.00  0.00     0.210 C 
BRANCH  20  21
HETATM   21  N4  UNL     1      -2.234   0.356  -0.040  1.00  0.00    -0.282 N 
HETATM   22  C4  UNL     1      -1.769   1.591  -0.250  1.00  0.00     0.130 A 
HETATM   23  C5  UNL     1      -2.594   2.200  -1.184  1.00  0.00     0.127 A 
HETATM   24  N5  UNL     1      -3.540   1.286  -1.503  1.00  0.00    -0.296 N 
HETATM   25  N6  UNL     1      -3.291   0.191  -0.796  1.00  0.00    -0.241 N 
ATOM     26  H5  UNL     1      -4.305   1.415  -2.166  1.00  0.00     0.187 HD
ATOM     27  H6  UNL     1      -3.847  -0.663  -0.836  1.00  0.00     0.208 HD
ENDBRANCH  20  21
ENDBRANCH   6  20
TORSDOF 7
