REMARK  8 active torsions:
REMARK  status: ('A' for Active; 'I' for Inactive)
REMARK    1  A    between atoms: N2_5  and  S1_6 
REMARK    2  A    between atoms: S1_6  and  N3_9 
REMARK    3  A    between atoms: C7_13  and  C8_14 
REMARK    4  A    between atoms: C7_13  and  C9_16 
REMARK    5  A    between atoms: C9_16  and  N4_17 
REMARK    6  A    between atoms: C12_20  and  C13_21 
REMARK    7  A    between atoms: C13_21  and  O3_22 
REMARK    8  A    between atoms: C13_21  and  C14_24 
ROOT
HETATM    1  N3  UNL     1       2.848   0.679  -0.940  1.00  0.00    -0.192 NA
HETATM    2  C4  UNL     1       3.531  -0.062  -1.945  1.00  0.00     0.109 C 
HETATM    3  C5  UNL     1       2.550  -0.422  -3.027  1.00  0.00     0.016 C 
HETATM    4  C6  UNL     1       1.126  -0.593  -2.492  1.00  0.00     0.016 C 
HETATM    5  C7  UNL     1       0.596   0.689  -1.910  1.00  0.00     0.025 C 
HETATM    6  C20 UNL     1       1.879   1.520  -1.625  1.00  0.00     0.122 C 
ENDROOT
BRANCH   5   7
HETATM    7  C8  UNL     1      -0.132   1.552  -2.919  1.00  0.00     0.234 C 
HETATM    8  F1  UNL     1       0.725   1.907  -3.970  1.00  0.00    -0.255 F 
ENDBRANCH   5   7
BRANCH   5   9
HETATM    9  C9  UNL     1      -0.070   0.581  -0.618  1.00  0.00     0.285 C 
BRANCH   9  10
HETATM   10  N4  UNL     1      -1.206  -0.215  -0.407  1.00  0.00     0.089 N 
HETATM   11  C10 UNL     1      -1.531   0.000   1.001  1.00  0.00     0.273 C 
HETATM   12  C11 UNL     1      -2.736  -0.700   1.461  1.00  0.00     0.037 C 
HETATM   13  C12 UNL     1      -3.910  -0.233   0.526  1.00  0.00     0.018 C 
HETATM   14  C18 UNL     1      -3.543  -0.845  -0.752  1.00  0.00     0.037 C 
HETATM   15  C19 UNL     1      -2.308  -0.061  -1.279  1.00  0.00     0.273 C 
BRANCH  13  16
HETATM   16  C13 UNL     1      -5.188  -0.535   1.188  1.00  0.00     0.129 C 
BRANCH  16  17
HETATM   17  O3  UNL     1      -5.231   0.149   2.452  1.00  0.00    -0.394 OA
ATOM     18  H3  UNL     1      -6.057  -0.046   2.880  1.00  0.00     0.210 HD
ENDBRANCH  16  17
BRANCH  16  19
HETATM   19  C14 UNL     1      -6.439  -0.260   0.475  1.00  0.00    -0.025 C 
HETATM   20  C15 UNL     1      -6.733  -0.969  -0.797  1.00  0.00     0.017 C 
HETATM   21  C16 UNL     1      -7.608  -0.624   1.428  1.00  0.00     0.017 C 
HETATM   22  C17 UNL     1      -6.661   1.234   0.228  1.00  0.00     0.017 C 
ENDBRANCH  16  19
ENDBRANCH  13  16
ENDBRANCH   9  10
ENDBRANCH   5   9
BRANCH   1  23
HETATM   23  S1  UNL     1       3.796   1.671   0.057  1.00  0.00     0.301 S 
HETATM   24  O1  UNL     1       2.834   2.517   0.881  1.00  0.00    -0.188 OA
HETATM   25  O2  UNL     1       4.483   2.681  -0.859  1.00  0.00    -0.188 OA
BRANCH  23  26
HETATM   26  N2  UNL     1       4.965   0.917   1.001  1.00  0.00    -0.295 N 
HETATM   27  C3  UNL     1       5.983   0.220   0.314  1.00  0.00     0.166 C 
HETATM   28  C2  UNL     1       6.139  -1.220   0.751  1.00  0.00     0.292 C 
HETATM   29  N1  UNL     1       6.400  -1.239   2.155  1.00  0.00     0.087 N 
HETATM   30  C1  UNL     1       7.741  -0.910   2.527  1.00  0.00     0.310 C 
HETATM   31  C22 UNL     1       5.423  -0.541   2.918  1.00  0.00     0.292 C 
HETATM   32  C21 UNL     1       4.418   0.235   2.145  1.00  0.00     0.166 C 
ENDBRANCH  23  26
ENDBRANCH   1  23
TORSDOF 8
