REMARK  2 active torsions:
REMARK  status: ('A' for Active; 'I' for Inactive)
REMARK    1  A    between atoms: N1_2  and  C2_4 
REMARK    2  A    between atoms: C4_11  and  N4_12 
ROOT
HETATM    1  C2  UNL     1       1.195  -0.382  -0.011  1.00  0.00     0.161 C 
HETATM    2  N2  UNL     1       0.831   0.920  -0.073  1.00  0.00    -0.291 N 
ATOM      3  H2  UNL     1       1.625   1.546  -0.206  1.00  0.00     0.172 HD
HETATM    4  C3  UNL     1      -0.340   1.574   0.001  1.00  0.00     0.340 C 
HETATM    5  O1  UNL     1      -0.210   2.804   0.227  1.00  0.00    -0.246 OA
HETATM    6  N3  UNL     1      -1.662   1.253  -0.108  1.00  0.00    -0.141 N 
ATOM      7  H3  UNL     1      -2.281   2.064  -0.098  1.00  0.00     0.189 HD
HETATM    8  C4  UNL     1      -2.317   0.075  -0.227  1.00  0.00     0.682 C 
HETATM    9  N5  UNL     1      -1.968  -1.166  -0.600  1.00  0.00    -0.153 N 
ATOM     10  H5  UNL     1      -2.774  -1.740  -0.849  1.00  0.00     0.187 HD
HETATM   11  C5  UNL     1      -0.797  -1.836  -0.724  1.00  0.00     0.313 C 
HETATM   12  O2  UNL     1      -0.910  -2.980  -1.239  1.00  0.00    -0.263 OA
HETATM   13  C6  UNL     1       0.529  -1.525  -0.399  1.00  0.00     0.283 C 
HETATM   14  O3  UNL     1       1.280  -2.507  -0.478  1.00  0.00    -0.278 OA
ENDROOT
BRANCH   1  15
HETATM   15  N1  UNL     1       2.359  -0.577   0.497  1.00  0.00    -0.377 N 
HETATM   16  C1  UNL     1       3.128   0.567   0.932  1.00  0.00     0.148 C 
ATOM     17  H1  UNL     1       2.733  -1.521   0.592  1.00  0.00     0.160 HD
ENDBRANCH   1  15
BRANCH   8  18
HETATM   18  N4  UNL     1      -3.561   0.141   0.086  1.00  0.00    -0.234 N 
ATOM     19  H42 UNL     1      -3.826   1.084   0.369  1.00  0.00     0.174 HD
ATOM     20  H41 UNL     1      -4.055  -0.747  -0.004  1.00  0.00     0.174 HD
ENDBRANCH   8  18
TORSDOF 2
