REMARK  10 active torsions:
REMARK  status: ('A' for Active; 'I' for Inactive)
REMARK    1  A    between atoms: C2_2  and  C3_3 
REMARK    2  A    between atoms: C2_2  and  C19_37 
REMARK    3  A    between atoms: C3_3  and  N1_4 
REMARK    4  A    between atoms: N1_4  and  C4_6 
REMARK    5  A    between atoms: C5_9  and  N3_10 
REMARK    6  A    between atoms: N5_17  and  C8_18 
REMARK    7  A    between atoms: C11_22  and  C12_23 
REMARK    8  A    between atoms: C12_23  and  C13_24 
REMARK    9  A    between atoms: C13_24  and  C14_25 
REMARK   10  A    between atoms: C19_37  and  C20_38 
ROOT
HETATM    1  C4  UNL     1       0.768   1.154   0.252  1.00  0.00     0.681 A 
HETATM    2  N2  UNL     1       1.082   2.432   0.018  1.00  0.00    -0.175 N 
ATOM      3  H2  UNL     1       1.943   2.811   0.412  1.00  0.00     0.186 HD
HETATM    4  C5  UNL     1       0.295   3.233  -0.722  1.00  0.00     0.145 A 
HETATM    5  C6  UNL     1      -0.870   2.722  -1.255  1.00  0.00     0.123 A 
HETATM    6  N4  UNL     1      -1.852   3.230  -2.018  1.00  0.00    -0.346 N 
ATOM      7  H4  UNL     1      -1.920   4.183  -2.375  1.00  0.00     0.167 HD
HETATM    8  C7  UNL     1      -2.714   2.243  -2.214  1.00  0.00     0.186 A 
HETATM    9  N5  UNL     1      -2.331   1.107  -1.605  1.00  0.00    -0.313 N 
HETATM   10  C18 UNL     1      -1.163   1.401  -0.995  1.00  0.00     0.155 A 
HETATM   11  N8  UNL     1      -0.372   0.614  -0.257  1.00  0.00    -0.174 N 
ATOM     12  H8  UNL     1      -0.616  -0.361  -0.081  1.00  0.00     0.186 HD
ENDROOT
BRANCH   9  13
HETATM   13  C8  UNL     1      -3.034  -0.105  -1.643  1.00  0.00     0.186 C 
HETATM   14  C9  UNL     1      -2.399  -1.247  -2.363  1.00  0.00     0.201 C 
HETATM   15  O1  UNL     1      -3.400  -2.136  -2.751  1.00  0.00    -0.388 OA
HETATM   16  C10 UNL     1      -4.424  -2.240  -1.832  1.00  0.00     0.179 C 
HETATM   17  C11 UNL     1      -3.977  -2.065  -0.406  1.00  0.00     0.082 C 
HETATM   18  C17 UNL     1      -3.461  -0.646  -0.306  1.00  0.00     0.158 C 
HETATM   19  O2  UNL     1      -3.408  -0.043   0.725  1.00  0.00    -0.295 OA
BRANCH  17  20
HETATM   20  C12 UNL     1      -5.154  -2.266   0.499  1.00  0.00     0.020 C 
BRANCH  20  21
HETATM   21  C13 UNL     1      -6.290  -1.323   0.289  1.00  0.00     0.059 C 
BRANCH  21  22
HETATM   22  C14 UNL     1      -7.356  -1.675   1.268  1.00  0.00     0.025 A 
HETATM   23  C15 UNL     1      -8.392  -2.584   1.070  1.00  0.00     0.113 A 
HETATM   24  N6  UNL     1      -9.165  -2.638   2.190  1.00  0.00    -0.360 N 
HETATM   25  C16 UNL     1      -8.624  -1.783   3.068  1.00  0.00     0.180 A 
ATOM     26  H6  UNL     1      -9.993  -3.216   2.332  1.00  0.00     0.166 HD
HETATM   27  N7  UNL     1      -7.544  -1.209   2.516  1.00  0.00    -0.355 N 
ATOM     28  H7  UNL     1      -6.951  -0.519   2.976  1.00  0.00     0.166 HD
ENDBRANCH  21  22
ENDBRANCH  20  21
ENDBRANCH  17  20
ENDBRANCH   9  13
BRANCH   4  29
HETATM   29  N3  UNL     1       0.580   4.467  -0.957  1.00  0.00    -0.383 N 
ATOM     30  H32 UNL     1       1.442   4.845  -0.563  1.00  0.00     0.157 HD
ATOM     31  H31 UNL     1      -0.017   5.075  -1.518  1.00  0.00     0.157 HD
ENDBRANCH   4  29
BRANCH   1  32
HETATM   32  N1  UNL     1       1.492   0.381   0.946  1.00  0.00    -0.226 N 
ATOM     33  H1  UNL     1       1.182  -0.582   1.077  1.00  0.00     0.177 HD
BRANCH  32  34
HETATM   34  C3  UNL     1       2.709   0.782   1.550  1.00  0.00     0.142 C 
BRANCH  34  35
HETATM   35  C2  UNL     1       3.936   0.343   0.770  1.00  0.00     0.000 C 
HETATM   36  C1  UNL     1       3.992  -1.168   0.652  1.00  0.00     0.011 C 
BRANCH  35  37
HETATM   37  C19 UNL     1       5.153   0.860   1.510  1.00  0.00     0.010 C 
BRANCH  37  38
HETATM   38  C20 UNL     1       6.433   0.491   0.794  1.00  0.00    -0.014 C 
HETATM   39  C21 UNL     1       6.503   1.047  -0.603  1.00  0.00     0.005 C 
HETATM   40  C22 UNL     1       7.983   0.828  -0.922  1.00  0.00     0.000 C 
HETATM   41  C23 UNL     1       8.697   1.060   0.409  1.00  0.00     0.000 C 
HETATM   42  C24 UNL     1       7.601   1.202   1.449  1.00  0.00     0.005 C 
ENDBRANCH  37  38
ENDBRANCH  35  37
ENDBRANCH  34  35
ENDBRANCH  32  34
ENDBRANCH   1  32
TORSDOF 10
