REMARK  4 active torsions:
REMARK  status: ('A' for Active; 'I' for Inactive)
REMARK    1  A    between atoms: C2_2  and  N1_4 
REMARK    2  A    between atoms: C2_2  and  C4_8 
REMARK    3  A    between atoms: C4_8  and  N2_9 
REMARK    4  A    between atoms: C4_8  and  C7_17 
REMARK       I    between atoms: C5_11  and  N4_13 
REMARK       I    between atoms: C7_17  and  N6_19 
ROOT
HETATM    1  N2  UNL     1       1.211  -0.075  -0.725  1.00  0.00    -0.348 N 
ATOM      2  H2  UNL     1       1.331   0.447  -1.593  1.00  0.00     0.163 HD
HETATM    3  C5  UNL     1       2.048  -1.009  -0.436  1.00  0.00     0.198 C 
HETATM    4  N3  UNL     1       3.109  -1.274  -1.345  1.00  0.00    -0.063 NA
HETATM    5  N4  UNL     1       1.968  -1.791   0.741  1.00  0.00    -0.268 N 
ATOM      6  H4  UNL     1       1.485  -2.689   0.704  1.00  0.00     0.180 HD
HETATM    7  C6  UNL     1       2.529  -1.375   1.953  1.00  0.00     0.184 C 
HETATM    8  N5  UNL     1       2.993  -1.027   2.959  1.00  0.00    -0.172 NA
ENDROOT
BRANCH   1   9
HETATM    9  C4  UNL     1       0.090   0.259   0.159  1.00  0.00     0.212 C 
BRANCH   9  10
HETATM   10  C2  UNL     1      -1.144  -0.206  -0.550  1.00  0.00     0.145 C 
HETATM   11  C1  UNL     1      -1.333   0.464  -1.878  1.00  0.00     0.048 C 
HETATM   12  C3  UNL     1      -2.336  -0.200   0.338  1.00  0.00     0.048 C 
BRANCH  10  13
HETATM   13  N1  UNL     1      -0.889  -1.628  -0.869  1.00  0.00    -0.069 N 
ATOM     14  H13 UNL     1      -1.611  -2.057  -1.448  1.00  0.00     0.275 HD
ATOM     15  H12 UNL     1      -0.116  -1.773  -1.518  1.00  0.00     0.275 HD
ATOM     16  H11 UNL     1      -0.760  -2.084   0.034  1.00  0.00     0.275 HD
ENDBRANCH  10  13
ENDBRANCH   9  10
BRANCH   9  17
HETATM   17  C7  UNL     1       0.110   1.651   0.561  1.00  0.00     0.255 C 
HETATM   18  O1  UNL     1       1.054   2.352   0.051  1.00  0.00    -0.270 OA
HETATM   19  N6  UNL     1      -0.765   2.309   1.426  1.00  0.00    -0.262 N 
HETATM   20  C8  UNL     1      -0.627   3.674   1.730  1.00  0.00     0.184 C 
ATOM     21  H6  UNL     1      -1.529   1.783   1.851  1.00  0.00     0.181 HD
HETATM   22  N7  UNL     1      -0.505   4.816   1.964  1.00  0.00    -0.172 NA
ENDBRANCH   9  17
ENDBRANCH   1   9
TORSDOF 4
