REMARK  3 active torsions:
REMARK  status: ('A' for Active; 'I' for Inactive)
REMARK    1  A    between atoms: C2_3  and  C3_4 
REMARK    2  A    between atoms: N2_5  and  C4_7 
REMARK    3  A    between atoms: C7_10  and  C8_11 
ROOT
HETATM    1  N1  UNL     1       4.533   1.020   0.801  1.00  0.00    -0.197 NA
HETATM    2  C1  UNL     1       3.952   0.042   0.693  1.00  0.00     0.064 C 
HETATM    3  C2  UNL     1       3.221  -1.201   0.533  1.00  0.00     0.167 C 
ENDROOT
BRANCH   3   4
HETATM    4  C3  UNL     1       1.854  -1.005  -0.017  1.00  0.00     0.070 C 
HETATM    5  N2  UNL     1       1.439   0.115  -0.468  1.00  0.00    -0.397 N 
ATOM      6  H2  UNL     1       2.052   0.931  -0.463  1.00  0.00     0.159 HD
BRANCH   5   7
HETATM    7  C4  UNL     1       0.105   0.216  -0.981  1.00  0.00     0.081 C 
HETATM    8  C5  UNL     1      -0.471   1.605  -0.802  1.00  0.00     0.026 C 
HETATM    9  C6  UNL     1      -1.621   1.473   0.172  1.00  0.00     0.013 C 
HETATM   10  C7  UNL     1      -2.132   0.098  -0.115  1.00  0.00     0.049 C 
HETATM   11  C9  UNL     1      -0.845  -0.708  -0.235  1.00  0.00     0.036 C 
BRANCH  10  12
HETATM   12  C8  UNL     1      -3.008  -0.446   0.919  1.00  0.00     0.235 C 
HETATM   13  O1  UNL     1      -4.015  -1.041   0.614  1.00  0.00    -0.306 OA
ENDBRANCH  10  12
ENDBRANCH   5   7
ENDBRANCH   3   4
TORSDOF 3
