REMARK  3 active torsions:
REMARK  status: ('A' for Active; 'I' for Inactive)
REMARK    1  A    between atoms: C2_2  and  C3_3 
REMARK    2  A    between atoms: C6_7  and  C7_8 
REMARK    3  A    between atoms: C7_8  and  C8_9 
ROOT
HETATM    1  C8  UNL     1      -2.583   1.123   0.783  1.00  0.00     0.126 C 
HETATM    2  C9  UNL     1      -1.658   1.269   1.894  1.00  0.00     0.059 C 
HETATM    3  N1  UNL     1      -0.933   1.391   2.797  1.00  0.00    -0.197 NA
ENDROOT
BRANCH   1   4
HETATM    4  C7  UNL     1      -2.292  -0.097  -0.063  1.00  0.00     0.046 C 
BRANCH   4   5
HETATM    5  C6  UNL     1      -0.901  -0.062  -0.675  1.00  0.00     0.127 C 
HETATM    6  C5  UNL     1      -0.737  -1.322  -1.487  1.00  0.00     0.058 C 
HETATM    7  C4  UNL     1       0.354  -2.215  -0.995  1.00  0.00     0.173 C 
HETATM    8  O1  UNL     1       1.395  -1.596  -0.382  1.00  0.00    -0.361 OA
HETATM    9  C3  UNL     1       1.317  -0.231  -0.282  1.00  0.00     0.259 C 
HETATM   10  O2  UNL     1       0.080   0.102   0.272  1.00  0.00    -0.356 OA
BRANCH   9  11
HETATM   11  C2  UNL     1       2.458   0.199   0.626  1.00  0.00     0.056 C 
HETATM   12  C1  UNL     1       2.536   1.655   0.854  1.00  0.00     0.010 C 
ENDBRANCH   9  11
ENDBRANCH   4   5
ENDBRANCH   1   4
TORSDOF 3
