REMARK  4 active torsions:
REMARK  status: ('A' for Active; 'I' for Inactive)
REMARK    1  A    between atoms: S1_2  and  C2_3 
REMARK    2  A    between atoms: C2_3  and  C3_4 
REMARK    3  A    between atoms: N1_8  and  N2_9 
REMARK    4  A    between atoms: N2_9  and  O1_11 
ROOT
HETATM    1  C3  UNL     1      -0.328  -0.194   0.220  1.00  0.00     0.014 C 
HETATM    2  C4  UNL     1       0.436  -0.732  -0.942  1.00  0.00     0.009 C 
HETATM    3  C5  UNL     1       1.587   0.192  -1.260  1.00  0.00     0.022 C 
HETATM    4  C6  UNL     1       2.066   0.897  -0.038  1.00  0.00     0.144 C 
HETATM    5  N1  UNL     1       1.880   0.095   1.147  1.00  0.00    -0.308 N 
HETATM    6  C7  UNL     1       0.541  -0.343   1.464  1.00  0.00     0.149 C 
ENDROOT
BRANCH   5   7
HETATM    7  N2  UNL     1       2.906  -0.285   2.006  1.00  0.00    -0.212 N 
ATOM      8  H2  UNL     1       3.633  -0.901   1.642  1.00  0.00     0.215 HD
BRANCH   7   9
HETATM    9  O1  UNL     1       2.989   0.081   3.190  1.00  0.00    -0.275 OA
ATOM     10  H1  UNL     1       3.690  -0.179   3.777  1.00  0.00     0.246 HD
ENDBRANCH   7   9
ENDBRANCH   5   7
BRANCH   1  11
HETATM   11  C2  UNL     1      -1.589  -0.986   0.508  1.00  0.00     0.079 C 
BRANCH  11  12
HETATM   12  S1  UNL     1      -2.642  -0.911  -0.965  1.00  0.00    -0.173 SA
HETATM   13  C1  UNL     1      -3.239   0.761  -1.271  1.00  0.00     0.089 C 
ENDBRANCH  11  12
ENDBRANCH   1  11
TORSDOF 4
