REMARK  5 active torsions:
REMARK  status: ('A' for Active; 'I' for Inactive)
REMARK    1  A    between atoms: C6_7  and  O2_8 
REMARK    2  A    between atoms: C7_11  and  O4_12 
REMARK    3  A    between atoms: O4_12  and  C8_13 
REMARK    4  A    between atoms: C11_16  and  O5_17 
REMARK    5  A    between atoms: O5_17  and  C12_18 
ROOT
HETATM    1  O1  UNL     1      -6.811   0.335  -0.276  1.00  0.00    -0.298 OA
HETATM    2  C1  UNL     1      -5.683   0.618   0.076  1.00  0.00     0.127 C 
HETATM    3  C2  UNL     1      -5.443   1.969   0.644  1.00  0.00     0.082 C 
HETATM    4  C3  UNL     1      -4.293   2.559  -0.143  1.00  0.00     0.042 C 
HETATM    5  C4  UNL     1      -3.149   1.618  -0.009  1.00  0.00    -0.073 C 
HETATM    6  C5  UNL     1      -1.976   1.806   0.521  1.00  0.00     0.044 C 
HETATM    7  C6  UNL     1      -1.164   0.578   0.423  1.00  0.00     0.188 C 
HETATM    8  O3  UNL     1      -0.397   0.390   1.565  1.00  0.00    -0.321 OA
HETATM    9  C7  UNL     1       0.561  -0.605   1.363  1.00  0.00     0.270 C 
HETATM   10  C15 UNL     1      -0.129  -1.968   1.182  1.00  0.00     0.061 C 
HETATM   11  C16 UNL     1      -0.401  -2.238  -0.265  1.00  0.00     0.005 C 
HETATM   12  C17 UNL     1      -1.652  -1.591  -0.763  1.00  0.00     0.011 C 
HETATM   13  C18 UNL     1      -2.151  -0.517   0.192  1.00  0.00     0.061 C 
HETATM   14  C19 UNL     1      -3.278   0.252  -0.519  1.00  0.00     0.031 C 
HETATM   15  C20 UNL     1      -4.583  -0.337  -0.051  1.00  0.00     0.087 C 
ENDROOT
BRANCH   9  16
HETATM   16  O4  UNL     1       1.400  -0.378   0.312  1.00  0.00    -0.320 OA
BRANCH  16  17
HETATM   17  C8  UNL     1       2.763  -0.284   0.270  1.00  0.00     0.072 A 
HETATM   18  C9  UNL     1       3.517  -0.424   1.407  1.00  0.00     0.039 A 
HETATM   19  C10 UNL     1       4.905  -0.326   1.348  1.00  0.00     0.039 A 
HETATM   20  C11 UNL     1       5.547  -0.085   0.133  1.00  0.00     0.075 A 
HETATM   21  C13 UNL     1       4.782   0.053  -0.994  1.00  0.00     0.039 A 
HETATM   22  C14 UNL     1       3.432  -0.045  -0.923  1.00  0.00     0.039 A 
BRANCH  20  23
HETATM   23  O5  UNL     1       6.909   0.006   0.108  1.00  0.00    -0.290 OA
BRANCH  23  24
HETATM   24  C12 UNL     1       7.706   0.238  -0.992  1.00  0.00     0.505 C 
HETATM   25  F1  UNL     1       8.451   1.422  -0.844  1.00  0.00    -0.184 F 
HETATM   26  F2  UNL     1       8.643  -0.793  -1.046  1.00  0.00    -0.184 F 
ENDBRANCH  23  24
ENDBRANCH  20  23
ENDBRANCH  16  17
ENDBRANCH   9  16
BRANCH   7  27
HETATM   27  O2  UNL     1      -0.396   0.714  -0.736  1.00  0.00    -0.362 OA
ATOM     28  H2  UNL     1       0.127  -0.077  -0.799  1.00  0.00     0.213 HD
ENDBRANCH   7  27
TORSDOF 5
