REMARK  11 active torsions:
REMARK  status: ('A' for Active; 'I' for Inactive)
REMARK    1  A    between atoms: C2_2  and  C3_3 
REMARK    2  A    between atoms: C3_3  and  C4_4 
REMARK    3  A    between atoms: C3_3  and  C6_6 
REMARK    4  A    between atoms: C6_6  and  N1_7 
REMARK    5  A    between atoms: C6_6  and  O3_32 
REMARK    6  A    between atoms: N1_7  and  C7_9 
REMARK    7  A    between atoms: C11_13  and  C12_14 
REMARK    8  A    between atoms: C12_14  and  O1_15 
REMARK    9  A    between atoms: O1_15  and  C13_16 
REMARK   10  A    between atoms: C13_16  and  C14_18 
REMARK   11  A    between atoms: O3_32  and  C28_33 
ROOT
HETATM    1  C7  UNL     1      -1.685   0.672  -0.388  1.00  0.00    -0.007 C 
HETATM    2  C8  UNL     1      -1.481   0.372  -1.830  1.00  0.00     0.053 C 
HETATM    3  C9  UNL     1      -0.110  -0.228  -2.084  1.00  0.00     0.006 C 
HETATM    4  C10 UNL     1       0.862   0.858  -1.674  1.00  0.00     0.012 C 
HETATM    5  C11 UNL     1       0.822   1.061  -0.157  1.00  0.00    -0.009 C 
HETATM    6  C20 UNL     1       1.865   2.058   0.137  1.00  0.00     0.013 C 
HETATM    7  C21 UNL     1       1.649   3.451  -0.426  1.00  0.00     0.005 C 
HETATM    8  C22 UNL     1       0.951   4.390   0.516  1.00  0.00    -0.015 C 
HETATM    9  C23 UNL     1       1.886   4.950   1.577  1.00  0.00     0.010 C 
HETATM   10  C24 UNL     1      -0.316   3.838   1.082  1.00  0.00    -0.014 C 
HETATM   11  C25 UNL     1      -1.264   5.002   1.296  1.00  0.00     0.010 C 
HETATM   12  C26 UNL     1      -0.884   2.918   0.033  1.00  0.00     0.016 C 
HETATM   13  C27 UNL     1      -0.566   1.481   0.238  1.00  0.00     0.042 C 
ENDROOT
BRANCH   1  14
HETATM   14  N1  UNL     1      -2.176  -0.361   0.379  1.00  0.00    -0.347 N 
ATOM     15  H1  UNL     1      -1.529  -0.718   1.082  1.00  0.00     0.167 HD
BRANCH  14  16
HETATM   16  C6  UNL     1      -3.402  -0.989   0.349  1.00  0.00     0.131 C 
BRANCH  16  17
HETATM   17  C3  UNL     1      -3.856  -1.793  -0.823  1.00  0.00     0.060 C 
BRANCH  17  18
HETATM   18  C2  UNL     1      -5.262  -2.363  -0.501  1.00  0.00     0.008 C 
HETATM   19  C1  UNL     1      -5.772  -3.167  -1.658  1.00  0.00     0.006 C 
ENDBRANCH  17  18
BRANCH  17  20
HETATM   20  C4  UNL     1      -2.941  -2.964  -1.083  1.00  0.00     0.008 C 
HETATM   21  C5  UNL     1      -2.814  -3.908   0.090  1.00  0.00     0.006 C 
ENDBRANCH  17  20
ENDBRANCH  16  17
BRANCH  16  22
HETATM   22  O3  UNL     1      -4.473  -0.177   0.856  1.00  0.00    -0.265 OA
BRANCH  22  23
HETATM   23  C28 UNL     1      -5.143  -0.385   2.026  1.00  0.00     0.261 C 
HETATM   24  C29 UNL     1      -6.252   0.488   2.510  1.00  0.00     0.126 C 
HETATM   25  O4  UNL     1      -4.786  -1.375   2.718  1.00  0.00    -0.265 OA
ENDBRANCH  22  23
ENDBRANCH  16  22
ENDBRANCH  14  16
ENDBRANCH   1  14
BRANCH   5  26
HETATM   26  C12 UNL     1       1.100  -0.239   0.547  1.00  0.00     0.189 C 
BRANCH  26  27
HETATM   27  O1  UNL     1       2.265  -0.911   0.376  1.00  0.00    -0.320 OA
BRANCH  27  28
HETATM   28  C13 UNL     1       3.557  -0.801   0.742  1.00  0.00     0.263 C 
HETATM   29  O2  UNL     1       3.918   0.147   1.477  1.00  0.00    -0.265 OA
BRANCH  28  30
HETATM   30  C14 UNL     1       4.631  -1.750   0.332  1.00  0.00     0.085 C 
HETATM   31  C15 UNL     1       4.750  -1.733  -1.156  1.00  0.00     0.014 C 
HETATM   32  C16 UNL     1       5.583  -2.924  -1.579  1.00  0.00     0.001 C 
HETATM   33  C17 UNL     1       6.520  -3.315  -0.464  1.00  0.00     0.000 C 
HETATM   34  C18 UNL     1       7.053  -2.123   0.281  1.00  0.00     0.001 C 
HETATM   35  C19 UNL     1       5.933  -1.358   0.951  1.00  0.00     0.014 C 
ENDBRANCH  28  30
ENDBRANCH  27  28
ENDBRANCH  26  27
ENDBRANCH   5  26
TORSDOF 11
