REMARK  8 active torsions:
REMARK  status: ('A' for Active; 'I' for Inactive)
REMARK    1  A    between atoms: N1_2  and  C2_4 
REMARK    2  A    between atoms: C2_4  and  O1_5 
REMARK    3  A    between atoms: C2_4  and  C6_16 
REMARK    4  A    between atoms: O1_5  and  C3_6 
REMARK    5  A    between atoms: C5_11  and  O2_12 
REMARK    6  A    between atoms: C5_11  and  O3_14 
REMARK    7  A    between atoms: C7_19  and  N4_20 
REMARK    8  A    between atoms: C9_27  and  N6_28 
ROOT
HETATM    1  C6  UNL     1       1.263  -0.785  -0.174  1.00  0.00     0.104 A 
HETATM    2  N3  UNL     1       2.124  -1.721   0.243  1.00  0.00    -0.189 N 
ATOM      3  H3  UNL     1       1.757  -2.668   0.337  1.00  0.00     0.184 HD
HETATM    4  C7  UNL     1       3.411  -1.549   0.549  1.00  0.00     0.677 A 
HETATM    5  N5  UNL     1       3.902  -0.308   0.431  1.00  0.00    -0.183 N 
ATOM      6  H5  UNL     1       4.880  -0.126   0.655  1.00  0.00     0.185 HD
HETATM    7  C8  UNL     1       3.097   0.718   0.011  1.00  0.00     0.122 A 
HETATM    8  S1  UNL     1       3.305   2.386  -0.296  1.00  0.00    -0.027 SA
HETATM    9  C9  UNL     1       1.694   2.758  -0.811  1.00  0.00     0.218 A 
HETATM   10  N7  UNL     1       1.115   1.579  -0.708  1.00  0.00    -0.328 N 
ATOM     11  H7  UNL     1       0.129   1.483  -0.951  1.00  0.00     0.168 HD
HETATM   12  C10 UNL     1       1.777   0.537  -0.303  1.00  0.00     0.097 A 
ENDROOT
BRANCH   1  13
HETATM   13  C2  UNL     1      -0.143  -1.082  -0.380  1.00  0.00     0.273 C 
BRANCH  13  14
HETATM   14  N1  UNL     1      -0.427  -2.006  -1.388  1.00  0.00    -0.396 N 
HETATM   15  C1  UNL     1       0.213  -3.218  -1.582  1.00  0.00     0.143 C 
ATOM     16  H1  UNL     1      -1.174  -1.766  -2.040  1.00  0.00     0.155 HD
ENDBRANCH  13  14
BRANCH  13  17
HETATM   17  O1  UNL     1      -1.007   0.011  -0.494  1.00  0.00    -0.324 OA
BRANCH  17  18
HETATM   18  C3  UNL     1      -1.948   0.006   0.514  1.00  0.00     0.387 C 
HETATM   19  N2  UNL     1      -3.346   0.077   0.123  1.00  0.00    -0.038 N 
HETATM   20  C4  UNL     1      -3.551   0.732   1.437  1.00  0.00     0.308 C 
ATOM     21  H22 UNL     1      -3.643   0.510  -0.751  1.00  0.00     0.280 HD
ATOM     22  H21 UNL     1      -3.873  -0.749  -0.159  1.00  0.00     0.280 HD
HETATM   23  C5  UNL     1      -2.140   1.322   1.186  1.00  0.00     0.237 C 
BRANCH  23  24
HETATM   24  O2  UNL     1      -2.185   2.362   0.259  1.00  0.00    -0.361 OA
ATOM     25  H2  UNL     1      -2.307   3.201   0.687  1.00  0.00     0.213 HD
ENDBRANCH  23  24
BRANCH  23  26
HETATM   26  O3  UNL     1      -1.420   1.552   2.330  1.00  0.00    -0.361 OA
ATOM     27  H3  UNL     1      -1.542   2.391   2.758  1.00  0.00     0.213 HD
ENDBRANCH  23  26
ENDBRANCH  17  18
ENDBRANCH  13  17
ENDBRANCH   1  13
BRANCH   4  28
HETATM   28  N4  UNL     1       4.110  -2.549   0.935  1.00  0.00    -0.234 N 
ATOM     29  H42 UNL     1       3.736  -3.494   1.025  1.00  0.00     0.174 HD
ATOM     30  H41 UNL     1       5.094  -2.417   1.169  1.00  0.00     0.174 HD
ENDBRANCH   4  28
BRANCH   9  31
HETATM   31  N6  UNL     1       1.187   4.033  -1.235  1.00  0.00    -0.090 N 
HETATM   32  O4  UNL     1       1.989   4.983  -1.224  1.00  0.00    -0.530 OA
HETATM   33  O5  UNL     1      -0.091   4.155  -1.616  1.00  0.00    -0.530 OA
ENDBRANCH   9  31
TORSDOF 8
