REMARK  4 active torsions:
REMARK  status: ('A' for Active; 'I' for Inactive)
REMARK    1  A    between atoms: N1_1  and  N2_4 
REMARK       I    between atoms: N2_4  and  C1_6 
REMARK    2  A    between atoms: C1_6  and  O2_8 
REMARK    3  A    between atoms: O2_8  and  N3_9 
REMARK    4  A    between atoms: N3_9  and  C2_11 
ROOT
HETATM    1  N2  UNL     1       2.359  -0.772   0.382  1.00  0.00    -0.250 N 
ATOM      2  H2  UNL     1       2.283  -1.466   1.125  1.00  0.00     0.191 HD
HETATM    3  C1  UNL     1       1.216  -0.032  -0.026  1.00  0.00     0.401 C 
HETATM    4  O1  UNL     1       1.313   0.823  -0.941  1.00  0.00    -0.235 OA
ENDROOT
BRANCH   3   5
HETATM    5  O2  UNL     1      -0.018  -0.215   0.552  1.00  0.00    -0.178 OA
BRANCH   5   6
HETATM    6  N3  UNL     1      -1.152   0.475   0.194  1.00  0.00    -0.233 N 
ATOM      7  H3  UNL     1      -1.097   1.486   0.074  1.00  0.00     0.197 HD
BRANCH   6   8
HETATM    8  C2  UNL     1      -2.391  -0.171  -0.013  1.00  0.00     0.205 C 
HETATM    9  N4  UNL     1      -3.549   0.546  -0.380  1.00  0.00    -0.068 NA
HETATM   10  S1  UNL     1      -2.459  -1.782   0.182  1.00  0.00    -0.043 SA
ENDBRANCH   6   8
ENDBRANCH   5   6
ENDBRANCH   3   5
BRANCH   1  11
HETATM   11  N1  UNL     1       3.589  -0.541  -0.243  1.00  0.00    -0.341 N 
ATOM     12  H12 UNL     1       3.648   0.157  -0.984  1.00  0.00     0.177 HD
ATOM     13  H11 UNL     1       4.409  -1.072   0.050  1.00  0.00     0.177 HD
ENDBRANCH   1  11
TORSDOF 4
