REMARK  13 active torsions:
REMARK  status: ('A' for Active; 'I' for Inactive)
REMARK    1  A    between atoms: C2_2  and  C3_3 
REMARK    2  A    between atoms: C3_3  and  C5_5 
REMARK    3  A    between atoms: C5_5  and  O1_6 
REMARK    4  A    between atoms: C6_9  and  C7_10 
REMARK    5  A    between atoms: C7_10  and  O3_11 
REMARK    6  A    between atoms: C14_21  and  C15_22 
REMARK    7  A    between atoms: C15_22  and  C16_23 
REMARK    8  A    between atoms: C15_22  and  O5_26 
REMARK    9  A    between atoms: C16_23  and  C17_24 
REMARK   10  A    between atoms: O5_26  and  C19_27 
REMARK   11  A    between atoms: C22_31  and  O7_32 
REMARK   12  A    between atoms: C23_34  and  N1_35 
REMARK   13  A    between atoms: C33_45  and  O8_46 
ROOT
HETATM    1  C5  UNL     1      -4.237  -0.944  -0.731  1.00  0.00     0.220 C 
HETATM    2  O2  UNL     1      -3.203  -0.457  -0.126  1.00  0.00    -0.340 OA
HETATM    3  C6  UNL     1      -2.222   0.378  -0.335  1.00  0.00     0.172 C 
HETATM    4  C13 UNL     1      -0.805  -0.177  -0.104  1.00  0.00     0.043 C 
HETATM    5  C14 UNL     1      -0.389  -0.605   1.241  1.00  0.00     0.024 C 
HETATM    6  C28 UNL     1      -0.473  -2.148   1.453  1.00  0.00     0.010 C 
HETATM    7  C29 UNL     1       0.723  -2.926   1.051  1.00  0.00     0.015 C 
HETATM    8  C30 UNL     1      -1.554  -2.569   0.505  1.00  0.00    -0.022 C 
HETATM    9  C31 UNL     1      -2.683  -3.158   0.506  1.00  0.00    -0.001 C 
HETATM   10  C32 UNL     1      -3.587  -3.408  -0.676  1.00  0.00     0.038 C 
HETATM   11  C33 UNL     1      -4.259  -2.409  -1.213  1.00  0.00     0.108 C 
ENDROOT
BRANCH   5  12
HETATM   12  C15 UNL     1       1.018  -0.120   1.579  1.00  0.00     0.129 C 
BRANCH  12  13
HETATM   13  C16 UNL     1       1.279  -0.504   3.040  1.00  0.00     0.032 C 
BRANCH  13  14
HETATM   14  C17 UNL     1       2.575  -0.044   3.612  1.00  0.00    -0.002 C 
HETATM   15  C18 UNL     1       2.684  -0.502   5.073  1.00  0.00     0.005 C 
ENDBRANCH  13  14
ENDBRANCH  12  13
BRANCH  12  16
HETATM   16  O5  UNL     1       1.878  -0.645   0.678  1.00  0.00    -0.355 OA
BRANCH  16  17
HETATM   17  C19 UNL     1       2.782   0.017  -0.034  1.00  0.00     0.266 C 
HETATM   18  O6  UNL     1       2.175   0.102  -1.386  1.00  0.00    -0.353 OA
HETATM   19  C20 UNL     1       2.880   0.971  -2.163  1.00  0.00     0.151 C 
HETATM   20  C21 UNL     1       2.170   2.325  -2.288  1.00  0.00     0.042 C 
HETATM   21  C22 UNL     1       4.296   1.246  -1.722  1.00  0.00     0.169 C 
HETATM   22  C23 UNL     1       4.908  -0.068  -1.331  1.00  0.00     0.117 C 
HETATM   23  C26 UNL     1       3.993  -0.801  -0.373  1.00  0.00     0.062 C 
HETATM   24  C27 UNL     1       4.708  -1.461   0.740  1.00  0.00     0.017 C 
BRANCH  21  25
HETATM   25  O7  UNL     1       4.981   1.783  -2.821  1.00  0.00    -0.391 OA
ATOM     26  H7  UNL     1       5.873   1.956  -2.543  1.00  0.00     0.210 HD
ENDBRANCH  21  25
BRANCH  22  27
HETATM   27  N1  UNL     1       6.275  -0.027  -0.977  1.00  0.00    -0.413 N 
HETATM   28  C24 UNL     1       6.682   0.750   0.125  1.00  0.00     0.143 C 
HETATM   29  C25 UNL     1       7.148   0.044  -2.107  1.00  0.00     0.143 C 
ENDBRANCH  22  27
ENDBRANCH  16  17
ENDBRANCH  12  16
ENDBRANCH   5  12
BRANCH   3  30
HETATM   30  C7  UNL     1      -2.366   1.740   0.258  1.00  0.00     0.164 C 
HETATM   31  C8  UNL     1      -1.101   2.589   0.224  1.00  0.00     0.025 C 
HETATM   32  C9  UNL     1      -1.499   3.857   0.473  1.00  0.00    -0.059 C 
HETATM   33  C10 UNL     1      -0.667   5.075   0.558  1.00  0.00     0.045 C 
HETATM   34  C11 UNL     1      -3.007   3.885   0.617  1.00  0.00     0.183 C 
HETATM   35 CL1  UNL     1      -3.718   5.370   0.027  1.00  0.00    -0.112 Cl
HETATM   36  C12 UNL     1      -3.233   2.719  -0.352  1.00  0.00     0.190 C 
HETATM   37  O4  UNL     1      -3.943   2.812  -1.259  1.00  0.00    -0.292 OA
BRANCH  30  38
HETATM   38  O3  UNL     1      -2.607   1.681   1.649  1.00  0.00    -0.375 OA
ATOM     39  H3  UNL     1      -2.699   2.548   2.026  1.00  0.00     0.211 HD
ENDBRANCH  30  38
ENDBRANCH   3  30
BRANCH   1  40
HETATM   40  C3  UNL     1      -5.472  -0.947   0.242  1.00  0.00     0.073 C 
HETATM   41  C4  UNL     1      -6.607  -1.709  -0.396  1.00  0.00     0.020 C 
BRANCH  40  42
HETATM   42  C2  UNL     1      -5.907   0.385   0.598  1.00  0.00    -0.027 C 
HETATM   43  C1  UNL     1      -7.120   0.883   0.283  1.00  0.00     0.007 C 
ENDBRANCH  40  42
ENDBRANCH   1  40
BRANCH   1  44
HETATM   44  O1  UNL     1      -4.727  -0.185  -1.814  1.00  0.00    -0.359 OA
ATOM     45  H1  UNL     1      -3.981  -0.183  -2.402  1.00  0.00     0.213 HD
ENDBRANCH   1  44
BRANCH  11  46
HETATM   46  O8  UNL     1      -5.068  -2.635  -2.312  1.00  0.00    -0.355 OA
HETATM   47  C34 UNL     1      -4.819  -3.716  -3.190  1.00  0.00     0.209 C 
ENDBRANCH  11  46
TORSDOF 13
