REMARK  6 active torsions:
REMARK  status: ('A' for Active; 'I' for Inactive)
REMARK    1  A    between atoms: C3_3  and  O1_5 
REMARK    2  A    between atoms: C3_3  and  N1_7 
REMARK       I    between atoms: N1_7  and  C5_9 
REMARK    3  A    between atoms: C5_9  and  C6_11 
REMARK    4  A    between atoms: C15_23  and  C16_24 
REMARK    5  A    between atoms: C16_24  and  C18_26 
REMARK    6  A    between atoms: C18_26  and  N3_27 
ROOT
HETATM    1  C1  UNL     1       7.100  -0.056  -2.325  1.00  0.00     0.017 C 
HETATM    2  C2  UNL     1       6.705   0.804  -1.569  1.00  0.00    -0.057 C 
HETATM    3  C3  UNL     1       6.232   1.870  -0.665  1.00  0.00     0.196 C 
HETATM    4  C4  UNL     1       5.911   3.057  -1.548  1.00  0.00     0.086 C 
ENDROOT
BRANCH   3   5
HETATM    5  O1  UNL     1       7.241   2.185   0.228  1.00  0.00    -0.361 OA
ATOM      6  H1  UNL     1       6.936   2.871   0.810  1.00  0.00     0.213 HD
ENDBRANCH   3   5
BRANCH   3   7
HETATM    7  N1  UNL     1       5.087   1.439   0.090  1.00  0.00    -0.319 N 
HETATM    8  C5  UNL     1       5.172   0.325   0.946  1.00  0.00     0.226 C 
HETATM    9  O2  UNL     1       6.313  -0.262   1.002  1.00  0.00    -0.273 OA
ATOM     10  H1  UNL     1       4.205   1.945   0.005  1.00  0.00     0.166 HD
BRANCH   8  11
HETATM   11  C6  UNL     1       4.027  -0.186   1.764  1.00  0.00     0.093 C 
HETATM   12  C7  UNL     1       4.550  -1.406   2.517  1.00  0.00     0.042 C 
HETATM   13  C8  UNL     1       3.361  -2.302   2.568  1.00  0.00    -0.022 C 
HETATM   14  C9  UNL     1       2.461  -1.933   1.683  1.00  0.00    -0.069 C 
HETATM   15  C10 UNL     1       1.169  -2.684   1.543  1.00  0.00     0.087 C 
HETATM   16  C28 UNL     1       2.905  -0.738   0.913  1.00  0.00    -0.008 C 
HETATM   17  C11 UNL     1       0.109  -1.778   1.014  1.00  0.00    -0.002 C 
HETATM   18  N2  UNL     1      -0.860  -1.549   1.868  1.00  0.00    -0.333 N 
HETATM   19  C25 UNL     1       0.044  -1.131  -0.288  1.00  0.00     0.041 C 
HETATM   20  C12 UNL     1      -1.908  -0.669   1.377  1.00  0.00     0.231 C 
ATOM     21  H2  UNL     1      -0.877  -1.956   2.803  1.00  0.00     0.168 HD
HETATM   22  O3  UNL     1      -2.223   0.314   2.055  1.00  0.00    -0.272 OA
HETATM   23  C13 UNL     1      -2.460  -1.106   0.085  1.00  0.00     0.049 C 
HETATM   24  C14 UNL     1      -2.879  -2.551   0.221  1.00  0.00     0.027 C 
HETATM   25  C15 UNL     1      -3.494  -0.214  -0.529  1.00  0.00     0.009 C 
HETATM   26  C23 UNL     1      -1.315  -1.005  -0.910  1.00  0.00    -0.019 C 
HETATM   27  C21 UNL     1      -2.683   0.974  -0.934  1.00  0.00     0.007 C 
HETATM   28  C22 UNL     1      -1.512   0.266  -1.662  1.00  0.00     0.011 C 
HETATM   29  C24 UNL     1      -1.524  -2.148  -1.918  1.00  0.00     0.017 C 
HETATM   30  C26 UNL     1       0.798   0.176  -0.179  1.00  0.00     0.012 C 
HETATM   31  C27 UNL     1       1.778   0.250   0.932  1.00  0.00     0.015 C 
HETATM   32  C29 UNL     1       3.476  -1.054  -0.414  1.00  0.00     0.021 C 
BRANCH  25  33
HETATM   33  C16 UNL     1      -4.674   0.079   0.268  1.00  0.00     0.015 C 
HETATM   34  C17 UNL     1      -5.482  -1.151   0.673  1.00  0.00     0.012 C 
BRANCH  33  35
HETATM   35  C18 UNL     1      -5.657   0.962  -0.433  1.00  0.00     0.275 C 
BRANCH  35  36
HETATM   36  N3  UNL     1      -5.245   2.274  -0.787  1.00  0.00     0.080 N 
HETATM   37  C19 UNL     1      -6.358   2.860  -1.550  1.00  0.00     0.309 C 
HETATM   38  C20 UNL     1      -4.958   3.111   0.373  1.00  0.00     0.309 C 
ENDBRANCH  35  36
ENDBRANCH  33  35
ENDBRANCH  25  33
ENDBRANCH   8  11
ENDBRANCH   3   7
TORSDOF 6
