REMARK  5 active torsions:
REMARK  status: ('A' for Active; 'I' for Inactive)
REMARK    1  A    between atoms: C4_4  and  O1_5 
REMARK    2  A    between atoms: O1_5  and  C5_6 
REMARK       I    between atoms: C5_6  and  N1_8 
REMARK    3  A    between atoms: N1_8  and  N2_10 
REMARK    4  A    between atoms: C9_16  and  C11_18 
REMARK    5  A    between atoms: C11_18  and  N3_19 
REMARK       I    between atoms: N3_19  and  C12_21 
ROOT
HETATM    1  C1  UNL     1       0.153  -3.056  -1.532  1.00  0.00     0.010 C 
HETATM    2  C2  UNL     1       0.503  -2.336  -0.262  1.00  0.00    -0.011 C 
HETATM    3  C3  UNL     1       1.686  -1.437  -0.442  1.00  0.00     0.037 C 
HETATM    4  C4  UNL     1       1.934  -0.485   0.676  1.00  0.00     0.138 C 
HETATM    5  C6  UNL     1       0.756  -0.232   1.554  1.00  0.00     0.016 C 
HETATM    6  C7  UNL     1      -0.038  -1.475   1.895  1.00  0.00     0.013 C 
HETATM    7  C8  UNL     1      -0.620  -1.773   0.497  1.00  0.00    -0.001 C 
HETATM    8  C9  UNL     1      -1.195  -0.454   0.172  1.00  0.00    -0.024 C 
HETATM    9  C10 UNL     1      -2.506  -0.390   0.964  1.00  0.00     0.017 C 
HETATM   10  C13 UNL     1      -0.242   0.565   0.741  1.00  0.00     0.018 C 
ENDROOT
BRANCH   8  11
HETATM   11  C11 UNL     1      -1.462  -0.140  -1.231  1.00  0.00     0.132 C 
BRANCH  11  12
HETATM   12  N3  UNL     1      -1.986   1.177  -1.440  1.00  0.00    -0.364 N 
HETATM   13  C12 UNL     1      -3.251   1.702  -1.108  1.00  0.00     0.181 C 
HETATM   14  N4  UNL     1      -3.491   2.579  -0.197  1.00  0.00    -0.374 N 
HETATM   15  N5  UNL     1      -4.412   1.265  -1.841  1.00  0.00    -0.064 NA
ATOM     16  H42 UNL     1      -2.669   2.888   0.322  1.00  0.00     0.158 HD
ATOM     17  H41 UNL     1      -4.407   2.959   0.043  1.00  0.00     0.158 HD
ATOM     18  H3  UNL     1      -1.350   1.831  -1.896  1.00  0.00     0.162 HD
ENDBRANCH  11  12
ENDBRANCH   8  11
BRANCH   4  19
HETATM   19  O1  UNL     1       2.284   0.766   0.082  1.00  0.00    -0.297 OA
BRANCH  19  20
HETATM   20  C5  UNL     1       3.482   1.419   0.340  1.00  0.00     0.379 C 
HETATM   21  O2  UNL     1       4.293   0.883   1.133  1.00  0.00    -0.237 OA
HETATM   22  N1  UNL     1       3.800   2.660  -0.264  1.00  0.00    -0.252 N 
ATOM     23  H1  UNL     1       3.139   3.094  -0.908  1.00  0.00     0.191 HD
BRANCH  22  24
HETATM   24  N2  UNL     1       5.000   3.286   0.014  1.00  0.00    -0.341 N 
ATOM     25  H22 UNL     1       5.650   2.838   0.660  1.00  0.00     0.177 HD
ATOM     26  H21 UNL     1       5.229   4.180  -0.421  1.00  0.00     0.177 HD
ENDBRANCH  22  24
ENDBRANCH  19  20
ENDBRANCH   4  19
TORSDOF 5
