REMARK  12 active torsions:
REMARK  status: ('A' for Active; 'I' for Inactive)
REMARK    1  A    between atoms: O1_2  and  C2_3 
REMARK    2  A    between atoms: C4_5  and  N1_6 
REMARK    3  A    between atoms: N1_6  and  C5_8 
REMARK    4  A    between atoms: C5_8  and  C6_9 
REMARK    5  A    between atoms: C6_9  and  C7_10 
REMARK    6  A    between atoms: N2_13  and  C10_14 
REMARK    7  A    between atoms: C10_14  and  C11_15 
REMARK    8  A    between atoms: C21_28  and  O2_29 
REMARK    9  A    between atoms: O2_29  and  C22_30 
REMARK   10  A    between atoms: C22_30  and  C23_31 
REMARK   11  A    between atoms: C27_35  and  C28_36 
REMARK   12  A    between atoms: C28_36  and  O3_37 
ROOT
HETATM    1  C2  UNL     1      -1.497   1.781  -0.321  1.00  0.00     0.103 A 
HETATM    2  C3  UNL     1      -0.336   1.132  -0.650  1.00  0.00     0.072 A 
HETATM    3  C4  UNL     1      -0.313   0.014  -1.460  1.00  0.00     0.070 A 
HETATM    4  C19 UNL     1      -1.520  -0.443  -1.943  1.00  0.00     0.145 A 
HETATM    5  F1  UNL     1      -1.499  -1.537  -2.739  1.00  0.00    -0.204 F 
HETATM    6  C20 UNL     1      -2.708   0.212  -1.614  1.00  0.00     0.084 A 
HETATM    7  C21 UNL     1      -2.730   1.319  -0.810  1.00  0.00     0.105 A 
ENDROOT
BRANCH   3   8
HETATM    8  N1  UNL     1       0.906  -0.653  -1.776  1.00  0.00    -0.387 N 
ATOM      9  H1  UNL     1       0.904  -1.472  -2.384  1.00  0.00     0.159 HD
BRANCH   8  10
HETATM   10  C5  UNL     1       2.147  -0.154  -1.224  1.00  0.00     0.120 C 
BRANCH  10  11
HETATM   11  C6  UNL     1       3.318  -1.032  -1.598  1.00  0.00     0.024 C 
BRANCH  11  12
HETATM   12  C7  UNL     1       4.561  -0.429  -0.963  1.00  0.00    -0.010 C 
HETATM   13  C8  UNL     1       4.450  -0.352   0.522  1.00  0.00     0.024 C 
HETATM   14  C9  UNL     1       5.746  -0.497   1.215  1.00  0.00     0.117 C 
HETATM   15  N2  UNL     1       6.925  -0.110   0.520  1.00  0.00    -0.408 N 
HETATM   16  C17 UNL     1       6.977  -0.451  -0.853  1.00  0.00     0.117 C 
HETATM   17  C18 UNL     1       5.787  -1.280  -1.301  1.00  0.00     0.024 C 
BRANCH  15  18
HETATM   18  C10 UNL     1       8.123  -0.232   1.276  1.00  0.00     0.155 C 
BRANCH  18  19
HETATM   19  C11 UNL     1       9.288   0.153   0.439  1.00  0.00    -0.039 A 
HETATM   20  C12 UNL     1      10.247  -0.788   0.086  1.00  0.00     0.010 A 
HETATM   21  C13 UNL     1      11.320  -0.416  -0.692  1.00  0.00     0.026 A 
HETATM   22  C14 UNL     1      11.493   0.863  -1.145  1.00  0.00     0.055 A 
HETATM   23 CL1  UNL     1      12.845   1.323  -2.123  1.00  0.00    -0.083 Cl
HETATM   24  C15 UNL     1      10.549   1.821  -0.806  1.00  0.00     0.056 A 
HETATM   25 CL2  UNL     1      10.756   3.457  -1.376  1.00  0.00    -0.083 Cl
HETATM   26  C16 UNL     1       9.473   1.436  -0.023  1.00  0.00     0.034 A 
ENDBRANCH  18  19
ENDBRANCH  15  18
ENDBRANCH  11  12
ENDBRANCH  10  11
ENDBRANCH   8  10
ENDBRANCH   3   8
BRANCH   1  27
HETATM   27  O1  UNL     1      -1.475   2.902   0.497  1.00  0.00    -0.353 OA
HETATM   28  C1  UNL     1      -0.311   3.470   1.031  1.00  0.00     0.210 C 
ENDBRANCH   1  27
BRANCH   7  29
HETATM   29  O2  UNL     1      -3.819   2.003  -0.444  1.00  0.00    -0.346 OA
BRANCH  29  30
HETATM   30  C22 UNL     1      -5.155   1.893  -0.664  1.00  0.00     0.207 C 
BRANCH  30  31
HETATM   31  C23 UNL     1      -5.815   0.642  -0.109  1.00  0.00     0.146 C 
HETATM   32  C24 UNL     1      -5.644   0.730   1.400  1.00  0.00     0.034 C 
HETATM   33  C25 UNL     1      -5.452  -0.658   1.921  1.00  0.00     0.003 C 
HETATM   34  C26 UNL     1      -6.742  -1.445   1.959  1.00  0.00     0.010 C 
HETATM   35  C27 UNL     1      -7.471  -1.452   0.668  1.00  0.00     0.043 C 
HETATM   36  C29 UNL     1      -8.003  -0.172   0.157  1.00  0.00     0.060 C 
HETATM   37  C30 UNL     1      -8.857   0.576   1.161  1.00  0.00     0.046 C 
HETATM   38  C31 UNL     1      -9.005  -0.571  -0.956  1.00  0.00     0.046 C 
HETATM   39  O4  UNL     1      -7.145   0.702  -0.428  1.00  0.00    -0.373 OA
BRANCH  35  40
HETATM   40  C28 UNL     1      -8.628  -2.450   0.839  1.00  0.00     0.171 C 
BRANCH  40  41
HETATM   41  O3  UNL     1      -8.030  -3.682   1.129  1.00  0.00    -0.400 OA
ATOM     42  H3  UNL     1      -8.745  -4.299   1.235  1.00  0.00     0.209 HD
ENDBRANCH  40  41
ENDBRANCH  35  40
ENDBRANCH  30  31
ENDBRANCH  29  30
ENDBRANCH   7  29
TORSDOF 12
