REMARK  1 active torsions:
REMARK  status: ('A' for Active; 'I' for Inactive)
REMARK    1  A    between atoms: N1_1  and  C1_5 
ROOT
HETATM    1  C1  UNL     1       0.852   0.443  -0.724  1.00  0.00     0.405 C 
HETATM    2  C2  UNL     1      -0.155   1.375  -0.165  1.00  0.00     0.294 C 
HETATM    3  N2  UNL     1      -1.266   0.778   0.486  1.00  0.00    -0.070 N 
ATOM      4  H21 UNL     1      -2.017   1.459   0.602  1.00  0.00     0.277 HD
ATOM      5  H22 UNL     1      -1.046   0.592   1.464  1.00  0.00     0.277 HD
HETATM    6  C3  UNL     1      -1.766  -0.418  -0.153  1.00  0.00     0.260 C 
HETATM    7  C4  UNL     1      -0.573  -1.380  -0.209  1.00  0.00     0.262 C 
HETATM    8  N3  UNL     1       0.337  -0.811  -1.186  1.00  0.00    -0.043 N 
ATOM      9  H31 UNL     1       1.085  -1.460  -1.431  1.00  0.00     0.279 HD
ATOM     10  H32 UNL     1      -0.098  -0.726  -2.105  1.00  0.00     0.279 HD
ENDROOT
BRANCH   1  11
HETATM   11  N1  UNL     1       1.940   0.145   0.195  1.00  0.00    -0.049 N 
ATOM     12  H13 UNL     1       2.384   1.004   0.520  1.00  0.00     0.276 HD
ATOM     13  H12 UNL     1       1.578  -0.204   1.082  1.00  0.00     0.276 HD
ATOM     14  H11 UNL     1       2.633  -0.497  -0.190  1.00  0.00     0.276 HD
ENDBRANCH   1  11
TORSDOF 1
