REMARK  0 active torsions:
REMARK  status: ('A' for Active; 'I' for Inactive)
ROOT
HETATM    1  C1  UNL     1       5.424  -0.390   0.139  1.00  0.00     0.001 A 
HETATM    2  C2  UNL     1       4.799  -1.606   0.198  1.00  0.00     0.001 A 
HETATM    3  C3  UNL     1       3.409  -1.659   0.173  1.00  0.00     0.014 A 
HETATM    4  C4  UNL     1       2.684  -0.520   0.092  1.00  0.00     0.004 A 
HETATM    5  C5  UNL     1       3.338   0.686   0.035  1.00  0.00    -0.008 A 
HETATM    6  C6  UNL     1       4.727   0.792   0.057  1.00  0.00     0.014 A 
HETATM    7  C7  UNL     1       2.368   1.666  -0.041  1.00  0.00     0.110 A 
HETATM    8  N1  UNL     1       1.146   1.105  -0.033  1.00  0.00    -0.315 N 
HETATM    9  C8  UNL     1      -0.078   1.689  -0.091  1.00  0.00     0.196 A 
HETATM   10  N2  UNL     1      -1.183   0.925  -0.069  1.00  0.00    -0.305 N 
HETATM   11  C9  UNL     1      -2.522   1.131  -0.107  1.00  0.00     0.051 A 
HETATM   12  C10 UNL     1      -3.267   2.285  -0.189  1.00  0.00     0.031 A 
HETATM   13  C11 UNL     1      -4.640   2.164  -0.210  1.00  0.00     0.002 A 
HETATM   14  C12 UNL     1      -5.289   0.941  -0.152  1.00  0.00     0.001 A 
HETATM   15  C13 UNL     1      -4.527  -0.203  -0.070  1.00  0.00     0.014 A 
HETATM   16  C14 UNL     1      -3.176  -0.108  -0.049  1.00  0.00     0.005 A 
HETATM   17  C15 UNL     1      -2.171  -1.069   0.027  1.00  0.00     0.020 A 
HETATM   18  C16 UNL     1      -2.118  -2.456   0.109  1.00  0.00     0.102 A 
HETATM   19  N3  UNL     1      -0.934  -3.064   0.168  1.00  0.00    -0.373 N 
ATOM     20  H3  UNL     1      -0.924  -4.082   0.228  1.00  0.00     0.164 HD
HETATM   21  C17 UNL     1       0.267  -2.413   0.154  1.00  0.00     0.103 A 
HETATM   22  C18 UNL     1       0.220  -1.037   0.073  1.00  0.00     0.035 A 
HETATM   23  C19 UNL     1      -0.986  -0.389   0.011  1.00  0.00     0.067 A 
HETATM   24  C20 UNL     1       1.347  -0.238   0.049  1.00  0.00     0.064 A 
ENDROOT
TORSDOF 0
