REMARK  5 active torsions:
REMARK  status: ('A' for Active; 'I' for Inactive)
REMARK    1  A    between atoms: N1_9  and  C8_10 
REMARK    2  A    between atoms: C8_10  and  C9_11 
REMARK    3  A    between atoms: C15_19  and  S1_20 
REMARK    4  A    between atoms: S1_20  and  C16_21 
REMARK    5  A    between atoms: C22_27  and  C23_28 
ROOT
HETATM    1  C1  UNL     1      -4.663  -4.166  -0.698  1.00  0.00     0.099 C 
HETATM    2  C2  UNL     1      -3.624  -3.536  -0.523  1.00  0.00    -0.143 C 
HETATM    3  C3  UNL     1      -2.343  -2.792  -0.327  1.00  0.00     0.247 C 
HETATM    4  C4  UNL     1      -1.387  -3.484  -1.228  1.00  0.00     0.066 C 
HETATM    5  C5  UNL     1      -2.071  -2.831   1.140  1.00  0.00     0.268 C 
HETATM    6  O1  UNL     1      -2.788  -1.684   1.586  1.00  0.00    -0.337 OA
HETATM    7  C6  UNL     1      -3.594  -1.255   0.534  1.00  0.00     0.382 C 
HETATM    8  C7  UNL     1      -3.841   0.249   0.514  1.00  0.00     0.186 C 
HETATM    9  N1  UNL     1      -3.464   0.885  -0.714  1.00  0.00    -0.385 N 
HETATM   10  C12 UNL     1      -2.047   0.776  -1.051  1.00  0.00     0.181 C 
HETATM   11  C13 UNL     1      -1.637  -0.423  -0.265  1.00  0.00     0.370 C 
HETATM   12  N2  UNL     1      -0.255  -0.761  -0.261  1.00  0.00    -0.218 N 
HETATM   13  C14 UNL     1       0.832  -0.196  -0.958  1.00  0.00     0.257 C 
HETATM   14  O2  UNL     1       0.777   0.936  -1.499  1.00  0.00    -0.270 OA
HETATM   15  C15 UNL     1       1.910  -1.192  -0.878  1.00  0.00     0.176 C 
HETATM   16  C22 UNL     1       1.674  -1.849   0.466  1.00  0.00     0.235 C 
HETATM   17  N3  UNL     1       0.244  -1.818   0.568  1.00  0.00    -0.235 N 
HETATM   18  C24 UNL     1      -0.609  -2.661   1.387  1.00  0.00     0.272 C 
HETATM   19  O5  UNL     1      -0.043  -3.251   2.338  1.00  0.00    -0.269 OA
HETATM   20  N4  UNL     1      -2.592  -1.438  -0.548  1.00  0.00     0.168 N 
ENDROOT
BRANCH  16  21
HETATM   21  C23 UNL     1       2.236  -3.189   0.520  1.00  0.00     0.200 C 
HETATM   22  O3  UNL     1       1.661  -4.267   0.485  1.00  0.00    -0.646 OA
HETATM   23  O4  UNL     1       3.656  -3.252   0.628  1.00  0.00    -0.646 OA
ENDBRANCH  16  21
BRANCH   9  24
HETATM   24  C8  UNL     1      -4.060   2.109  -1.002  1.00  0.00     0.063 C 
BRANCH  24  25
HETATM   25  C9  UNL     1      -3.675   3.260  -0.120  1.00  0.00     0.024 A 
HETATM   26  C10 UNL     1      -4.363   4.593  -0.479  1.00  0.00     0.010 A 
HETATM   27  C11 UNL     1      -4.586   3.888   0.835  1.00  0.00     0.010 A 
ENDBRANCH  24  25
ENDBRANCH   9  24
BRANCH  15  28
HETATM   28  S1  UNL     1       3.507  -0.722  -1.287  1.00  0.00    -0.147 SA
BRANCH  28  29
HETATM   29  C16 UNL     1       4.425   0.457  -0.401  1.00  0.00     0.048 C 
HETATM   30  C17 UNL     1       3.864   1.890  -0.484  1.00  0.00     0.015 C 
HETATM   31  C18 UNL     1       4.976   2.820  -0.147  1.00  0.00     0.001 C 
HETATM   32  C19 UNL     1       6.203   2.172   0.401  1.00  0.00     0.000 C 
HETATM   33  C20 UNL     1       5.949   1.089   1.393  1.00  0.00     0.001 C 
HETATM   34  C21 UNL     1       4.733   0.224   1.036  1.00  0.00     0.015 C 
ENDBRANCH  28  29
ENDBRANCH  15  28
TORSDOF 5
