REMARK  5 active torsions:
REMARK  status: ('A' for Active; 'I' for Inactive)
REMARK    1  A    between atoms: C2_2  and  C3_3 
REMARK    2  A    between atoms: C3_3  and  N1_5 
REMARK    3  A    between atoms: C10_12  and  C11_13 
REMARK       I    between atoms: C11_13  and  N2_15 
REMARK    4  A    between atoms: C15_19  and  C16_20 
REMARK    5  A    between atoms: C18_27  and  C19_28 
ROOT
HETATM    1  N1  UNL     1      -2.064  -0.951   0.773  1.00  0.00     0.095 N 
HETATM    2  C5  UNL     1      -1.333  -0.596  -0.467  1.00  0.00     0.280 C 
HETATM    3  C6  UNL     1      -0.441   0.422   0.092  1.00  0.00     0.052 C 
HETATM    4  C7  UNL     1       0.640   1.088  -0.508  1.00  0.00     0.015 C 
HETATM    5  C8  UNL     1       0.617   1.404  -2.001  1.00  0.00     0.179 C 
HETATM    6  O1  UNL     1       1.825   2.093  -2.207  1.00  0.00    -0.389 OA
HETATM    7  C9  UNL     1       2.777   1.575  -1.362  1.00  0.00     0.182 C 
HETATM    8  C10 UNL     1       2.057   0.586  -0.407  1.00  0.00     0.114 C 
HETATM    9  C17 UNL     1       0.769   2.476   0.178  1.00  0.00     0.154 C 
HETATM   10  S1  UNL     1      -0.184   2.191   1.693  1.00  0.00     0.156 S 
HETATM   11  O5  UNL     1       0.562   1.264   2.568  1.00  0.00    -0.227 OA
HETATM   12  O6  UNL     1      -0.621   3.442   2.293  1.00  0.00    -0.227 OA
HETATM   13  C18 UNL     1      -1.467   1.318   0.759  1.00  0.00     0.102 C 
HETATM   14  C23 UNL     1      -2.167   0.277   1.536  1.00  0.00     0.299 C 
ENDROOT
BRANCH   8  15
HETATM   15  C11 UNL     1       2.422  -0.723  -0.837  1.00  0.00     0.227 C 
HETATM   16  O2  UNL     1       1.788  -1.547  -1.542  1.00  0.00    -0.273 OA
HETATM   17  N2  UNL     1       3.688  -1.227  -0.437  1.00  0.00    -0.337 N 
HETATM   18  C12 UNL     1       4.272  -2.526  -0.740  1.00  0.00     0.127 C 
HETATM   19  C15 UNL     1       4.684  -0.569   0.375  1.00  0.00     0.188 C 
HETATM   20  C13 UNL     1       5.008  -2.918   0.514  1.00  0.00     0.022 C 
HETATM   21  C14 UNL     1       5.052  -1.666   1.390  1.00  0.00     0.038 C 
BRANCH  19  22
HETATM   22  C16 UNL     1       5.879  -0.114  -0.346  1.00  0.00     0.196 C 
HETATM   23  O3  UNL     1       6.822   0.455   0.260  1.00  0.00    -0.646 OA
HETATM   24  O4  UNL     1       6.031  -0.284  -1.708  1.00  0.00    -0.646 OA
ENDBRANCH  19  22
ENDBRANCH   8  15
BRANCH  13  25
HETATM   25  C19 UNL     1      -2.204   2.307   0.067  1.00  0.00     0.037 C 
HETATM   26  C20 UNL     1      -3.092   2.060  -1.098  1.00  0.00     0.035 C 
HETATM   27  C21 UNL     1      -3.910   3.366  -1.090  1.00  0.00     0.168 C 
HETATM   28  O7  UNL     1      -3.791   3.878   0.211  1.00  0.00    -0.391 OA
HETATM   29  C22 UNL     1      -3.342   2.792   1.000  1.00  0.00     0.174 C 
ENDBRANCH  13  25
BRANCH   1  30
HETATM   30  C3  UNL     1      -3.304  -1.581   0.545  1.00  0.00     0.218 C 
HETATM   31  C4  UNL     1      -3.976  -1.855   1.855  1.00  0.00     0.043 C 
BRANCH  30  32
HETATM   32  C2  UNL     1      -3.158  -2.896  -0.175  1.00  0.00     0.031 C 
HETATM   33  C1  UNL     1      -4.533  -3.481  -0.392  1.00  0.00     0.007 C 
ENDBRANCH  30  32
ENDBRANCH   1  30
TORSDOF 5
