REMARK  6 active torsions:
REMARK  status: ('A' for Active; 'I' for Inactive)
REMARK    1  A    between atoms: C2_2  and  C3_3 
REMARK    2  A    between atoms: C3_3  and  N1_4 
REMARK       I    between atoms: N1_4  and  C4_6 
REMARK    3  A    between atoms: C4_6  and  C5_8 
REMARK    4  A    between atoms: C7_12  and  N3_13 
REMARK       I    between atoms: N3_13  and  C8_15 
REMARK    5  A    between atoms: C8_15  and  C9_17 
REMARK    6  A    between atoms: C9_17  and  C10_18 
ROOT
HETATM    1  C5  UNL     1      -3.094  -0.898  -0.205  1.00  0.00     0.199 C 
HETATM    2  N2  UNL     1      -2.018  -1.724   0.228  1.00  0.00    -0.313 N 
HETATM    3  C6  UNL     1      -1.223  -2.887   0.553  1.00  0.00     0.271 C 
HETATM    4  O2  UNL     1      -1.590  -4.093   0.714  1.00  0.00    -0.266 OA
HETATM    5  C7  UNL     1       0.003  -2.121   0.599  1.00  0.00     0.114 C 
HETATM    6  C18 UNL     1      -0.854  -0.953   0.672  1.00  0.00     0.207 C 
HETATM    7  S2  UNL     1      -0.790   0.180  -0.781  1.00  0.00    -0.125 SA
HETATM    8  C19 UNL     1      -2.616   0.246  -1.020  1.00  0.00     0.032 C 
HETATM    9  C20 UNL     1      -3.039   1.592  -0.477  1.00  0.00     0.029 C 
HETATM   10  C21 UNL     1      -2.967   0.153  -2.476  1.00  0.00     0.029 C 
ENDROOT
BRANCH   5  11
HETATM   11  N3  UNL     1       1.239  -2.393   0.581  1.00  0.00    -0.323 N 
HETATM   12  C8  UNL     1       2.182  -1.334   0.644  1.00  0.00     0.223 C 
HETATM   13  O3  UNL     1       2.078  -0.479   1.530  1.00  0.00    -0.273 OA
ATOM     14  H3  UNL     1       1.554  -3.361   0.522  1.00  0.00     0.169 HD
BRANCH  12  15
HETATM   15  C9  UNL     1       3.252  -1.309  -0.365  1.00  0.00     0.131 C 
BRANCH  15  16
HETATM   16  C10 UNL     1       4.305  -0.287  -0.173  1.00  0.00     0.193 C 
HETATM   17  C11 UNL     1       5.057  -0.473   1.085  1.00  0.00     0.281 C 
HETATM   18  O4  UNL     1       4.675  -1.292   1.937  1.00  0.00    -0.263 OA
HETATM   19  O5  UNL     1       6.212   0.254   1.358  1.00  0.00    -0.276 OA
HETATM   20  C12 UNL     1       7.100   0.731   0.436  1.00  0.00     0.098 A 
HETATM   21  C13 UNL     1       8.240   1.454   0.836  1.00  0.00     0.039 A 
HETATM   22  C17 UNL     1       6.899   0.514  -0.904  1.00  0.00     0.066 A 
HETATM   23  C14 UNL     1       9.128   1.929  -0.091  1.00  0.00     0.003 A 
HETATM   24  C15 UNL     1       8.911   1.701  -1.430  1.00  0.00     0.002 A 
HETATM   25  C16 UNL     1       7.798   0.995  -1.829  1.00  0.00     0.024 A 
HETATM   26  S1  UNL     1       5.511  -0.355  -1.519  1.00  0.00     0.067 S 
HETATM   27  O6  UNL     1       5.926  -1.944  -1.855  1.00  0.00    -0.252 OA
ENDBRANCH  15  16
ENDBRANCH  12  15
ENDBRANCH   5  11
BRANCH   1  28
HETATM   28  C4  UNL     1      -4.029  -0.541   0.894  1.00  0.00     0.242 C 
HETATM   29  N1  UNL     1      -5.280   0.085   0.685  1.00  0.00    -0.359 N 
ATOM     30  H1  UNL     1      -5.562   0.305  -0.270  1.00  0.00     0.162 HD
HETATM   31  O1  UNL     1      -3.718  -0.800   2.095  1.00  0.00    -0.271 OA
BRANCH  29  32
HETATM   32  C3  UNL     1      -6.174   0.426   1.765  1.00  0.00     0.122 C 
BRANCH  32  33
HETATM   33  C2  UNL     1      -7.444   1.086   1.240  1.00  0.00     0.015 C 
HETATM   34  C1  UNL     1      -8.179   0.145   0.293  1.00  0.00     0.006 C 
ENDBRANCH  32  33
ENDBRANCH  29  32
ENDBRANCH   1  28
TORSDOF 6
