REMARK  5 active torsions:
REMARK  status: ('A' for Active; 'I' for Inactive)
REMARK    1  A    between atoms: C2_2  and  O2_4 
REMARK    2  A    between atoms: O2_4  and  C3_5 
REMARK    3  A    between atoms: C6_8  and  O3_9 
REMARK    4  A    between atoms: N1_13  and  N2_15 
REMARK    5  A    between atoms: N2_15  and  C9_17 
ROOT
HETATM    1  C3  UNL     1       3.484   0.460  -0.195  1.00  0.00     0.133 C 
HETATM    2  C4  UNL     1       3.443  -0.911   0.401  1.00  0.00     0.035 C 
HETATM    3  C5  UNL     1       2.344  -1.783  -0.221  1.00  0.00     0.042 C 
HETATM    4  C6  UNL     1       1.067  -1.044  -0.007  1.00  0.00     0.074 C 
HETATM    5  C7  UNL     1      -0.163  -1.862  -0.237  1.00  0.00     0.097 C 
HETATM    6  C8  UNL     1      -1.332  -0.984   0.207  1.00  0.00     0.028 C 
HETATM    7  N1  UNL     1      -2.228  -1.486   0.922  1.00  0.00    -0.304 N 
ATOM      8  H1  UNL     1      -2.072  -2.471   1.134  1.00  0.00     0.186 HD
HETATM    9  C15 UNL     1      -1.307   0.397  -0.245  1.00  0.00     0.023 C 
HETATM   10  C16 UNL     1      -0.200   0.898  -0.754  1.00  0.00    -0.012 C 
HETATM   11  C17 UNL     1       1.075   0.178  -0.921  1.00  0.00     0.007 C 
HETATM   12  C18 UNL     1       1.298  -0.226  -2.361  1.00  0.00     0.023 C 
HETATM   13  C19 UNL     1       2.171   1.084  -0.491  1.00  0.00     0.049 C 
ENDROOT
BRANCH   7  14
HETATM   14  N2  UNL     1      -3.351  -0.996   1.467  1.00  0.00    -0.301 N 
ATOM     15  H2  UNL     1      -3.329  -0.831   2.473  1.00  0.00     0.187 HD
BRANCH  14  16
HETATM   16  C9  UNL     1      -4.590  -0.674   0.792  1.00  0.00     0.051 A 
HETATM   17  C10 UNL     1      -5.059   0.608   0.916  1.00  0.00     0.056 A 
HETATM   18  C11 UNL     1      -6.217   0.985   0.309  1.00  0.00     0.059 A 
HETATM   19 CL1  UNL     1      -6.777   2.654   0.502  1.00  0.00    -0.082 Cl
HETATM   20  C12 UNL     1      -6.939   0.092  -0.437  1.00  0.00     0.077 A 
HETATM   21 CL2  UNL     1      -8.445   0.560  -1.239  1.00  0.00    -0.081 Cl
HETATM   22  C13 UNL     1      -6.486  -1.210  -0.577  1.00  0.00     0.059 A 
HETATM   23 CL3  UNL     1      -7.391  -2.373  -1.517  1.00  0.00    -0.082 Cl
HETATM   24  C14 UNL     1      -5.295  -1.580   0.052  1.00  0.00     0.056 A 
ENDBRANCH  14  16
ENDBRANCH   7  14
BRANCH   4  25
HETATM   25  O3  UNL     1       1.037  -0.575   1.296  1.00  0.00    -0.388 OA
ATOM     26  H3  UNL     1       0.223  -0.104   1.432  1.00  0.00     0.210 HD
ENDBRANCH   4  25
BRANCH   1  27
HETATM   27  O2  UNL     1       4.094   1.310   0.794  1.00  0.00    -0.316 OA
BRANCH  27  28
HETATM   28  C2  UNL     1       5.287   1.953   0.520  1.00  0.00     0.255 C 
HETATM   29  C1  UNL     1       5.969   2.840   1.493  1.00  0.00     0.126 C 
HETATM   30  O1  UNL     1       5.783   1.741  -0.638  1.00  0.00    -0.266 OA
ENDBRANCH  27  28
ENDBRANCH   1  27
TORSDOF 5
