REMARK  6 active torsions:
REMARK  status: ('A' for Active; 'I' for Inactive)
REMARK    1  A    between atoms: C2_2  and  C3_3 
REMARK    2  A    between atoms: C3_3  and  C4_4 
REMARK    3  A    between atoms: C4_4  and  C5_5 
REMARK    4  A    between atoms: C5_5  and  C6_6 
REMARK    5  A    between atoms: C8_15  and  C9_16 
REMARK    6  A    between atoms: N5_22  and  C14_23 
ROOT
HETATM    1  C9  UNL     1      -2.200   1.893  -0.763  1.00  0.00     0.183 C 
HETATM    2  C10 UNL     1      -2.424   2.634  -2.046  1.00  0.00     0.065 C 
HETATM    3  N4  UNL     1      -2.616   3.226  -3.044  1.00  0.00    -0.197 NA
ENDROOT
BRANCH   1   4
HETATM    4  C8  UNL     1      -0.946   2.400  -0.142  1.00  0.00     0.063 A 
HETATM    5  C6  UNL     1       0.250   1.777   0.026  1.00  0.00     0.062 A 
HETATM    6  N1  UNL     1       1.117   2.776   0.432  1.00  0.00    -0.193 N 
HETATM    7  C7  UNL     1       0.465   3.942   0.509  1.00  0.00     0.676 A 
ATOM      8  H1  UNL     1       2.106   2.643   0.642  1.00  0.00     0.184 HD
HETATM    9  N2  UNL     1       0.930   5.094   0.841  1.00  0.00    -0.234 N 
HETATM   10  N3  UNL     1      -0.805   3.731   0.163  1.00  0.00    -0.193 N 
ATOM     11  H22 UNL     1       1.902   5.255   1.106  1.00  0.00     0.174 HD
ATOM     12  H21 UNL     1       0.433   5.983   0.900  1.00  0.00     0.174 HD
ATOM     13  H3  UNL     1      -1.542   4.435   0.131  1.00  0.00     0.184 HD
BRANCH   5  14
HETATM   14  C5  UNL     1       0.594   0.327   0.020  1.00  0.00     0.041 C 
HETATM   15  C11 UNL     1       2.140   0.186  -0.022  1.00  0.00     0.033 C 
HETATM   16  C12 UNL     1       2.009   0.480  -1.498  1.00  0.00     0.044 C 
HETATM   17  C16 UNL     1       2.312  -1.311  -0.115  1.00  0.00     0.279 C 
HETATM   18  C13 UNL     1       0.733  -0.300  -1.338  1.00  0.00     0.238 C 
HETATM   19  N5  UNL     1       1.190  -1.626  -0.988  1.00  0.00     0.094 N 
BRANCH  14  20
HETATM   20  C4  UNL     1       0.019  -0.540   1.086  1.00  0.00     0.018 C 
BRANCH  20  21
HETATM   21  C3  UNL     1      -1.422  -0.693   1.294  1.00  0.00     0.001 C 
BRANCH  21  22
HETATM   22  C2  UNL     1      -1.742  -1.670   2.443  1.00  0.00    -0.005 C 
HETATM   23  C1  UNL     1      -3.237  -1.737   2.563  1.00  0.00     0.005 C 
ENDBRANCH  21  22
ENDBRANCH  20  21
ENDBRANCH  14  20
BRANCH  19  24
HETATM   24  C14 UNL     1       1.537  -2.475  -2.075  1.00  0.00     0.268 C 
HETATM   25  C15 UNL     1       1.651  -3.913  -1.542  1.00  0.00     0.037 C 
ENDBRANCH  19  24
ENDBRANCH   5  14
ENDBRANCH   1   4
TORSDOF 6
