REMARK  6 active torsions:
REMARK  status: ('A' for Active; 'I' for Inactive)
REMARK    1  A    between atoms: C2_2  and  N1_3 
REMARK    2  A    between atoms: N1_3  and  C3_6 
REMARK    3  A    between atoms: C3_6  and  C4_7 
REMARK    4  A    between atoms: C3_6  and  C11_20 
REMARK       I    between atoms: C4_7  and  N2_9 
REMARK    5  A    between atoms: N2_9  and  C5_11 
REMARK    6  A    between atoms: C5_11  and  C6_12 
ROOT
HETATM    1  C4  UNL     1       0.349  -1.063  -0.636  1.00  0.00     0.248 C 
HETATM    2  O1  UNL     1       0.449  -1.287  -1.873  1.00  0.00    -0.271 OA
HETATM    3  N2  UNL     1      -0.913  -0.759  -0.082  1.00  0.00    -0.359 N 
ATOM      4  H2  UNL     1      -1.008  -0.581   0.918  1.00  0.00     0.162 HD
ENDROOT
BRANCH   1   5
HETATM    5  C3  UNL     1       1.589  -1.139   0.177  1.00  0.00     0.281 C 
BRANCH   5   6
HETATM    6  N1  UNL     1       2.576  -2.006  -0.436  1.00  0.00    -0.062 N 
ATOM      7  H12 UNL     1       3.467  -1.963   0.059  1.00  0.00     0.278 HD
ATOM      8  H11 UNL     1       2.878  -1.644  -1.340  1.00  0.00     0.278 HD
BRANCH   6   9
HETATM    9  C2  UNL     1       2.097  -3.377  -0.547  1.00  0.00     0.229 C 
HETATM   10  C1  UNL     1       3.254  -4.154  -1.193  1.00  0.00     0.034 C 
ENDBRANCH   6   9
ENDBRANCH   5   6
BRANCH   5  11
HETATM   11  C11 UNL     1       2.191   0.281   0.109  1.00  0.00     0.025 C 
HETATM   12  C12 UNL     1       1.221   1.203   0.744  1.00  0.00     0.007 C 
HETATM   13  C13 UNL     1       1.738   2.549   1.161  1.00  0.00     0.000 C 
HETATM   14  C14 UNL     1       3.191   2.556   1.520  1.00  0.00     0.000 C 
HETATM   15  C15 UNL     1       4.039   1.798   0.552  1.00  0.00     0.000 C 
HETATM   16  C16 UNL     1       3.593   0.325   0.656  1.00  0.00     0.007 C 
ENDBRANCH   5  11
ENDBRANCH   1   5
BRANCH   3  17
HETATM   17  C5  UNL     1      -2.068  -0.703  -0.945  1.00  0.00     0.127 C 
BRANCH  17  18
HETATM   18  C6  UNL     1      -3.280  -0.373  -0.125  1.00  0.00     0.006 C 
HETATM   19  C7  UNL     1      -3.035   0.971   0.529  1.00  0.00     0.034 C 
HETATM   20  C8  UNL     1      -4.311   1.695   0.811  1.00  0.00     0.232 C 
HETATM   21  N3  UNL     1      -4.982   1.991  -0.425  1.00  0.00    -0.075 N 
HETATM   22  C9  UNL     1      -4.603   1.126  -1.508  1.00  0.00     0.232 C 
ATOM     23  H32 UNL     1      -5.994   1.985  -0.296  1.00  0.00     0.277 HD
ATOM     24  H31 UNL     1      -4.849   2.969  -0.682  1.00  0.00     0.277 HD
HETATM   25  C10 UNL     1      -4.482  -0.314  -1.040  1.00  0.00     0.034 C 
ENDBRANCH  17  18
ENDBRANCH   3  17
TORSDOF 6
