REMARK  13 active torsions:
REMARK  status: ('A' for Active; 'I' for Inactive)
REMARK    1  A    between atoms: N1_1  and  C1_4 
REMARK    2  A    between atoms: C1_4  and  C2_5 
REMARK    3  A    between atoms: C2_5  and  N2_6 
REMARK    4  A    between atoms: N2_6  and  C3_8 
REMARK    5  A    between atoms: C6_11  and  N3_12 
REMARK    6  A    between atoms: N3_12  and  N4_14 
REMARK    7  A    between atoms: N4_14  and  C7_16 
REMARK    8  A    between atoms: C7_16  and  C8_17 
REMARK    9  A    between atoms: C8_17  and  N5_18 
REMARK   10  A    between atoms: C10_25  and  C11_26 
REMARK   11  A    between atoms: C11_26  and  N7_27 
REMARK   12  A    between atoms: N7_27  and  N8_28 
REMARK   13  A    between atoms: N10_33  and  O1_34 
ROOT
HETATM    1  C3  UNL     1      -1.956  -1.299  -0.468  1.00  0.00     0.062 A 
HETATM    2  C4  UNL     1      -0.897  -2.233  -0.557  1.00  0.00     0.034 A 
HETATM    3  C5  UNL     1       0.381  -1.863  -0.248  1.00  0.00     0.036 A 
HETATM    4  C6  UNL     1       0.710  -0.592   0.158  1.00  0.00     0.077 A 
HETATM    5  C9  UNL     1      -0.323   0.350   0.245  1.00  0.00     0.095 A 
HETATM    6  N6  UNL     1      -0.022   1.602   0.630  1.00  0.00    -0.340 N 
ATOM      7  H6  UNL     1       0.944   1.842   0.851  1.00  0.00     0.167 HD
HETATM    8  C10 UNL     1      -0.977   2.540   0.727  1.00  0.00     0.115 A 
HETATM    9  N9  UNL     1      -2.223   2.173   0.422  1.00  0.00    -0.261 N 
ATOM     10  H9  UNL     1      -2.961   2.874   0.488  1.00  0.00     0.191 HD
HETATM   11  N10 UNL     1      -2.557   0.944   0.036  1.00  0.00    -0.158 N 
HETATM   12  C12 UNL     1      -1.634  -0.019  -0.069  1.00  0.00     0.136 A 
ENDROOT
BRANCH   4  13
HETATM   13  N3  UNL     1       1.967  -0.223   0.645  1.00  0.00    -0.303 N 
ATOM     14  H3  UNL     1       1.946  -0.121   1.660  1.00  0.00     0.186 HD
BRANCH  13  15
HETATM   15  N4  UNL     1       3.178   0.033   0.172  1.00  0.00    -0.334 N 
ATOM     16  H4  UNL     1       3.676   0.862   0.497  1.00  0.00     0.180 HD
BRANCH  15  17
HETATM   17  C7  UNL     1       3.794  -0.817  -0.772  1.00  0.00     0.166 C 
BRANCH  17  18
HETATM   18  C8  UNL     1       4.943  -1.604  -0.089  1.00  0.00     0.250 C 
BRANCH  18  19
HETATM   19  N5  UNL     1       5.919  -0.830   0.571  1.00  0.00    -0.078 N 
ATOM     20  H53 UNL     1       6.307  -0.141  -0.073  1.00  0.00     0.274 HD
ATOM     21  H52 UNL     1       5.471  -0.215   1.250  1.00  0.00     0.274 HD
ATOM     22  H51 UNL     1       6.675  -1.348   1.020  1.00  0.00     0.274 HD
ENDBRANCH  18  19
ENDBRANCH  17  18
ENDBRANCH  15  17
ENDBRANCH  13  15
ENDBRANCH   4  13
BRANCH   1  23
HETATM   23  N2  UNL     1      -3.278  -1.783  -0.623  1.00  0.00    -0.383 N 
ATOM     24  H2  UNL     1      -4.068  -1.183  -0.384  1.00  0.00     0.160 HD
BRANCH  23  25
HETATM   25  C2  UNL     1      -3.520  -3.135  -1.123  1.00  0.00     0.163 C 
BRANCH  25  26
HETATM   26  C1  UNL     1      -4.944  -3.511  -0.847  1.00  0.00     0.072 C 
BRANCH  26  27
HETATM   27  N1  UNL     1      -5.469  -3.306   0.331  1.00  0.00    -0.410 N 
ATOM     28  H12 UNL     1      -4.891  -2.885   1.059  1.00  0.00     0.155 HD
ATOM     29  H11 UNL     1      -6.438  -3.562   0.519  1.00  0.00     0.155 HD
ENDBRANCH  26  27
ENDBRANCH  25  26
ENDBRANCH  23  25
ENDBRANCH   1  23
BRANCH   8  30
HETATM   30  C11 UNL     1      -0.635   3.940   1.152  1.00  0.00     0.212 C 
BRANCH  30  31
HETATM   31  N7  UNL     1      -0.572   4.755  -0.017  1.00  0.00    -0.141 NA
BRANCH  31  32
HETATM   32  N8  UNL     1      -0.250   6.086   0.297  1.00  0.00    -0.348 N 
ATOM     33  H82 UNL     1      -0.085   6.414   1.249  1.00  0.00     0.172 HD
ATOM     34  H81 UNL     1      -0.205   6.669  -0.539  1.00  0.00     0.172 HD
ENDBRANCH  31  32
ENDBRANCH  30  31
ENDBRANCH   8  30
BRANCH  11  35
HETATM   35  O1  UNL     1      -3.865   0.679  -0.275  1.00  0.00    -0.267 OA
ATOM     36  H1  UNL     1      -4.103  -0.198  -0.551  1.00  0.00     0.247 HD
ENDBRANCH  11  35
TORSDOF 13
