REMARK  4 active torsions:
REMARK  status: ('A' for Active; 'I' for Inactive)
REMARK    1  A    between atoms: N1_2  and  C2_5 
REMARK    2  A    between atoms: C2_5  and  C3_6 
REMARK    3  A    between atoms: C3_6  and  N2_8 
REMARK    4  A    between atoms: N2_8  and  C4_10 
ROOT
HETATM    1  C4  UNL     1       0.341  -0.037   0.375  1.00  0.00     0.031 C 
HETATM    2  C5  UNL     1       0.156   1.451   0.537  1.00  0.00     0.031 C 
HETATM    3  C6  UNL     1      -1.222   1.894   0.943  1.00  0.00     0.003 C 
HETATM    4  C7  UNL     1      -2.325   1.633   0.004  1.00  0.00     0.009 C 
HETATM    5  C8  UNL     1      -2.944   0.298  -0.025  1.00  0.00    -0.043 C 
HETATM    6  C9  UNL     1      -4.459   0.472  -0.236  1.00  0.00     0.015 C 
HETATM    7  C10 UNL     1      -2.522  -0.421  -1.278  1.00  0.00     0.014 C 
HETATM    8  C11 UNL     1      -1.287  -1.229  -1.152  1.00  0.00    -0.011 C 
HETATM    9  C12 UNL     1      -1.481  -2.240  -0.030  1.00  0.00     0.009 C 
HETATM   10  C13 UNL     1      -1.601  -1.413   1.218  1.00  0.00    -0.011 C 
HETATM   11  C14 UNL     1      -2.803  -0.537   1.202  1.00  0.00     0.014 C 
HETATM   12  C15 UNL     1      -0.302  -0.762   1.490  1.00  0.00     0.035 C 
HETATM   13  C16 UNL     1      -0.019  -0.457  -1.015  1.00  0.00     0.035 C 
ENDROOT
BRANCH   1  14
HETATM   14  N2  UNL     1       1.781  -0.229   0.486  1.00  0.00    -0.374 N 
ATOM     15  H2  UNL     1       2.110  -0.758   1.294  1.00  0.00     0.161 HD
BRANCH  14  16
HETATM   16  C3  UNL     1       2.754   0.233  -0.394  1.00  0.00     0.099 C 
HETATM   17  S1  UNL     1       2.495   1.061  -1.770  1.00  0.00    -0.064 SA
BRANCH  16  18
HETATM   18  C2  UNL     1       4.190  -0.057  -0.071  1.00  0.00     0.300 C 
BRANCH  18  19
HETATM   19  N1  UNL     1       5.078   0.395  -1.095  1.00  0.00    -0.073 N 
HETATM   20  C1  UNL     1       6.446   0.324  -0.537  1.00  0.00     0.267 C 
ATOM     21  H12 UNL     1       4.839   1.319  -1.456  1.00  0.00     0.277 HD
ATOM     22  H11 UNL     1       4.974  -0.117  -1.971  1.00  0.00     0.277 HD
ENDBRANCH  18  19
ENDBRANCH  16  18
ENDBRANCH  14  16
ENDBRANCH   1  14
TORSDOF 4
