REMARK  3 active torsions:
REMARK  status: ('A' for Active; 'I' for Inactive)
REMARK       I    between atoms: C2_5  and  N3_6 
REMARK       I    between atoms: C2_5  and  N4_13 
REMARK    1  A    between atoms: N3_6  and  C3_8 
REMARK    2  A    between atoms: C3_8  and  C4_9 
REMARK    3  A    between atoms: N4_13  and  C8_15 
ROOT
HETATM    1  N1  UNL     1       2.262   1.506   3.344  1.00  0.00    -0.171 NA
HETATM    2  C1  UNL     1       1.507   1.262   2.484  1.00  0.00     0.196 C 
HETATM    3  N2  UNL     1       0.612   0.991   1.456  1.00  0.00    -0.126 N 
ATOM      4  H2  UNL     1      -0.363   1.261   1.588  1.00  0.00     0.197 HD
HETATM    5  C2  UNL     1       0.936   0.421   0.348  1.00  0.00     0.683 C 
HETATM    6  N3  UNL     1       2.282   0.025   0.115  1.00  0.00    -0.225 N 
ATOM      7  H3  UNL     1       2.559  -0.948   0.247  1.00  0.00     0.177 HD
HETATM    8  N4  UNL     1      -0.096   0.211  -0.607  1.00  0.00    -0.216 N 
ATOM      9  H4  UNL     1       0.180   0.083  -1.581  1.00  0.00     0.178 HD
ENDROOT
BRANCH   6  10
HETATM   10  C3  UNL     1       3.242   0.989  -0.302  1.00  0.00     0.142 C 
BRANCH  10  11
HETATM   11  C4  UNL     1       4.618   0.442  -0.513  1.00  0.00     0.004 C 
HETATM   12  C5  UNL     1       5.248  -0.191   0.715  1.00  0.00     0.006 C 
HETATM   13  C6  UNL     1       5.873  -1.220  -0.236  1.00  0.00     0.001 C 
HETATM   14  C7  UNL     1       4.746  -0.866  -1.212  1.00  0.00     0.006 C 
ENDBRANCH  10  11
ENDBRANCH   6  10
BRANCH   8  15
HETATM   15  C8  UNL     1      -1.496   0.166  -0.301  1.00  0.00     0.048 C 
HETATM   16  C9  UNL     1      -1.776  -0.933   0.712  1.00  0.00     0.036 C 
HETATM   17  C10 UNL     1      -3.240  -1.082   0.971  1.00  0.00    -0.012 C 
HETATM   18  C11 UNL     1      -3.900  -1.582  -0.299  1.00  0.00     0.009 C 
HETATM   19  C15 UNL     1      -3.803   0.239   1.403  1.00  0.00     0.009 C 
HETATM   20  C12 UNL     1      -3.673  -0.528  -1.357  1.00  0.00    -0.012 C 
HETATM   21  C13 UNL     1      -4.304   0.791  -0.942  1.00  0.00     0.009 C 
HETATM   22  C17 UNL     1      -2.217  -0.279  -1.586  1.00  0.00     0.036 C 
HETATM   23  C14 UNL     1      -3.589   1.243   0.311  1.00  0.00    -0.012 C 
HETATM   24  C16 UNL     1      -2.110   1.481   0.064  1.00  0.00     0.036 C 
ENDBRANCH   8  15
TORSDOF 3
