REMARK  8 active torsions:
REMARK  status: ('A' for Active; 'I' for Inactive)
REMARK    1  A    between atoms: C2_2  and  C5_5 
REMARK    2  A    between atoms: C5_5  and  C6_6 
REMARK    3  A    between atoms: C6_6  and  C9_9 
REMARK    4  A    between atoms: C11_11  and  N1_12 
REMARK       I    between atoms: N1_12  and  C12_14 
REMARK       I    between atoms: C12_14  and  N3_18 
REMARK    5  A    between atoms: N3_18  and  C13_20 
REMARK    6  A    between atoms: C19_27  and  C20_28 
REMARK    7  A    between atoms: C20_28  and  O1_29 
REMARK    8  A    between atoms: C22_32  and  C23_33 
ROOT
HETATM    1  N1  UNL     1       0.589  -0.671   0.103  1.00  0.00    -0.192 N 
ATOM      2  H1  UNL     1       0.501  -1.683   0.013  1.00  0.00     0.184 HD
HETATM    3  C12 UNL     1       1.842  -0.075   0.528  1.00  0.00     0.672 C 
HETATM    4  N2  UNL     1       2.031  -0.137   1.769  1.00  0.00    -0.235 N 
ATOM      5  H21 UNL     1       2.912   0.282   2.068  1.00  0.00     0.174 HD
ATOM      6  H22 UNL     1       1.404  -0.564   2.451  1.00  0.00     0.174 HD
HETATM    7  N3  UNL     1       2.706   0.513  -0.411  1.00  0.00    -0.220 N 
ATOM      8  H3  UNL     1       2.237   1.062  -1.132  1.00  0.00     0.178 HD
ENDROOT
BRANCH   1   9
HETATM    9  C11 UNL     1      -0.506   0.172  -0.184  1.00  0.00     0.050 A 
HETATM   10  C10 UNL     1      -1.740  -0.331  -0.522  1.00  0.00     0.038 A 
HETATM   11  C9  UNL     1      -2.799   0.489  -0.793  1.00  0.00    -0.047 A 
HETATM   12  C24 UNL     1      -2.581   1.851  -0.716  1.00  0.00     0.024 A 
HETATM   13  C22 UNL     1      -1.378   2.421  -0.389  1.00  0.00     0.050 A 
HETATM   14  C21 UNL     1      -0.333   1.557  -0.119  1.00  0.00     0.046 A 
BRANCH  11  15
HETATM   15  C6  UNL     1      -4.182   0.030  -1.171  1.00  0.00    -0.020 C 
HETATM   16  C7  UNL     1      -4.616   1.136  -2.176  1.00  0.00     0.020 C 
HETATM   17  C8  UNL     1      -4.240  -1.224  -1.938  1.00  0.00     0.020 C 
BRANCH  15  18
HETATM   18  C5  UNL     1      -5.133   0.206  -0.048  1.00  0.00     0.022 C 
BRANCH  18  19
HETATM   19  C2  UNL     1      -5.150  -0.690   1.104  1.00  0.00    -0.050 C 
HETATM   20  C1  UNL     1      -6.232  -0.138   2.059  1.00  0.00     0.014 C 
HETATM   21  C3  UNL     1      -3.950  -0.971   1.898  1.00  0.00     0.014 C 
HETATM   22  C4  UNL     1      -5.764  -2.071   0.687  1.00  0.00     0.014 C 
ENDBRANCH  18  19
ENDBRANCH  15  18
ENDBRANCH  11  15
BRANCH  13  23
HETATM   23  C23 UNL     1      -1.156   3.902  -0.340  1.00  0.00     0.417 C 
HETATM   24  F1  UNL     1      -1.949   4.460  -1.323  1.00  0.00    -0.166 F 
HETATM   25  F2  UNL     1      -1.390   4.434   0.886  1.00  0.00    -0.166 F 
HETATM   26  F3  UNL     1       0.168   4.169  -0.735  1.00  0.00    -0.166 F 
ENDBRANCH  13  23
ENDBRANCH   1   9
BRANCH   7  27
HETATM   27  C13 UNL     1       4.111   0.474  -0.527  1.00  0.00     0.137 C 
HETATM   28  C14 UNL     1       4.959   0.943   0.590  1.00  0.00     0.063 C 
HETATM   29  C15 UNL     1       6.196   0.065   0.452  1.00  0.00     0.226 C 
HETATM   30  C16 UNL     1       6.677  -0.336   1.829  1.00  0.00     0.037 C 
HETATM   31  N4  UNL     1       5.792  -1.138  -0.222  1.00  0.00     0.102 N 
HETATM   32  C17 UNL     1       5.791  -1.527   2.109  1.00  0.00     0.032 C 
HETATM   33  C18 UNL     1       5.581  -2.155   0.767  1.00  0.00     0.273 C 
HETATM   34  C19 UNL     1       4.633  -0.857  -1.021  1.00  0.00     0.270 C 
BRANCH  34  35
HETATM   35  C20 UNL     1       5.087  -0.779  -2.479  1.00  0.00     0.202 C 
BRANCH  35  36
HETATM   36  O1  UNL     1       6.040   0.227  -2.637  1.00  0.00    -0.399 OA
ATOM     37  H1  UNL     1       6.322   0.275  -3.543  1.00  0.00     0.209 HD
ENDBRANCH  35  36
ENDBRANCH  34  35
ENDBRANCH   7  27
TORSDOF 8
