REMARK  5 active torsions:
REMARK  status: ('A' for Active; 'I' for Inactive)
REMARK       I    between atoms: C2_2  and  N1_4 
REMARK    1  A    between atoms: N1_4  and  N2_6 
REMARK       I    between atoms: N2_6  and  C3_8 
REMARK       I    between atoms: C3_8  and  N3_10 
REMARK    2  A    between atoms: N3_10  and  N4_12 
REMARK       I    between atoms: N4_12  and  C4_13 
REMARK    3  A    between atoms: C4_13  and  C5_15 
REMARK    4  A    between atoms: C9_19  and  N5_20 
REMARK    5  A    between atoms: C9_19  and  C10_24 
ROOT
HETATM    1  N4  UNL     1       0.508   0.923  -0.058  1.00  0.00    -0.282 NA
HETATM    2  C4  UNL     1      -0.876   0.624  -0.523  1.00  0.00     0.320 C 
HETATM    3  O3  UNL     1      -1.134   0.792  -1.666  1.00  0.00    -0.255 OA
ENDROOT
BRANCH   2   4
HETATM    4  C5  UNL     1      -1.774   0.152   0.578  1.00  0.00     0.151 A 
HETATM    5  C6  UNL     1      -3.110   0.761   0.723  1.00  0.00     0.011 A 
HETATM    6  C7  UNL     1      -3.676   1.045   2.117  1.00  0.00     0.019 C 
HETATM    7  C8  UNL     1      -3.838   1.509  -0.343  1.00  0.00     0.019 C 
HETATM    8  C9  UNL     1      -2.911  -0.744   0.386  1.00  0.00     0.222 A 
BRANCH   8   9
HETATM    9  N5  UNL     1      -3.292  -1.621   1.545  1.00  0.00    -0.060 N 
ATOM     10  H53 UNL     1      -2.480  -2.161   1.844  1.00  0.00     0.275 HD
ATOM     11  H52 UNL     1      -3.450  -1.044   2.371  1.00  0.00     0.275 HD
ATOM     12  H51 UNL     1      -4.086  -2.247   1.411  1.00  0.00     0.275 HD
ENDBRANCH   8   9
BRANCH   8  13
HETATM   13  C10 UNL     1      -3.518  -1.223  -0.842  1.00  0.00     0.269 C 
HETATM   14  N6  UNL     1      -4.386  -2.381  -0.796  1.00  0.00    -0.060 NA
HETATM   15  O4  UNL     1      -3.397  -0.751  -2.002  1.00  0.00    -0.274 OA
ENDBRANCH   8  13
ENDBRANCH   2   4
BRANCH   1  16
HETATM   16  N3  UNL     1       1.654   1.174   0.316  1.00  0.00    -0.180 N 
HETATM   17  C3  UNL     1       2.781   0.188   0.028  1.00  0.00     0.363 C 
HETATM   18  N2  UNL     1       4.082   0.506   0.385  1.00  0.00    -0.247 N 
HETATM   19  O2  UNL     1       2.355  -0.806  -0.524  1.00  0.00    -0.243 OA
ATOM     20  H2  UNL     1       4.279   1.373   0.885  1.00  0.00     0.192 HD
ATOM     21  H3  UNL     1       1.849   2.040   0.818  1.00  0.00     0.207 HD
BRANCH  18  22
HETATM   22  N1  UNL     1       5.151  -0.392   0.047  1.00  0.00    -0.266 N 
HETATM   23  C2  UNL     1       6.456   0.181  -0.117  1.00  0.00     0.232 C 
HETATM   24  C1  UNL     1       7.638  -0.589  -0.499  1.00  0.00     0.119 C 
HETATM   25  O1  UNL     1       6.523   1.447   0.089  1.00  0.00    -0.272 OA
ATOM     26  H1  UNL     1       4.990  -1.392  -0.071  1.00  0.00     0.190 HD
ENDBRANCH  18  22
ENDBRANCH   1  16
TORSDOF 5
