REMARK  5 active torsions:
REMARK  status: ('A' for Active; 'I' for Inactive)
REMARK       I    between atoms: C1_4  and  N3_6 
REMARK    1  A    between atoms: N3_6  and  N4_8 
REMARK    2  A    between atoms: N4_8  and  C2_10 
REMARK    3  A    between atoms: C2_10  and  N5_12 
REMARK    4  A    between atoms: N5_12  and  C3_14 
REMARK    5  A    between atoms: C5_17  and  C6_18 
ROOT
HETATM    1  C2  UNL     1      -1.326  -0.293   0.393  1.00  0.00     0.187 C 
HETATM    2  S1  UNL     1      -1.066   1.060   1.255  1.00  0.00    -0.040 SA
ENDROOT
BRANCH   1   3
HETATM    3  N4  UNL     1      -2.599  -0.883   0.353  1.00  0.00    -0.274 N 
ATOM      4  H4  UNL     1      -2.712  -1.732  -0.201  1.00  0.00     0.189 HD
BRANCH   3   5
HETATM    5  N3  UNL     1      -3.716  -0.391   1.016  1.00  0.00    -0.272 N 
HETATM    6  C1  UNL     1      -4.789   0.125   0.241  1.00  0.00     0.200 C 
HETATM    7  N1  UNL     1      -5.294  -0.499  -0.752  1.00  0.00    -0.372 N 
HETATM    8  N2  UNL     1      -5.293   1.411   0.637  1.00  0.00    -0.062 NA
ATOM      9  H12 UNL     1      -6.064  -0.129  -1.308  1.00  0.00     0.158 HD
ATOM     10  H11 UNL     1      -4.936  -1.412  -1.033  1.00  0.00     0.158 HD
ATOM     11  H3  UNL     1      -3.765  -0.400   2.035  1.00  0.00     0.189 HD
ENDBRANCH   3   5
ENDBRANCH   1   3
BRANCH   1  12
HETATM   12  N5  UNL     1      -0.240  -0.865  -0.318  1.00  0.00    -0.357 N 
ATOM     13  H5  UNL     1      -0.397  -1.714  -0.861  1.00  0.00     0.162 HD
BRANCH  12  14
HETATM   14  C3  UNL     1       1.081  -0.281  -0.296  1.00  0.00     0.131 C 
HETATM   15  C4  UNL     1       1.999  -1.105  -1.133  1.00  0.00     0.198 C 
HETATM   16  O1  UNL     1       3.305  -0.687  -1.031  1.00  0.00    -0.351 OA
HETATM   17  C5  UNL     1       3.771  -0.531   0.245  1.00  0.00     0.350 C 
HETATM   18  O3  UNL     1       2.849  -0.875   1.225  1.00  0.00    -0.351 OA
HETATM   19  C7  UNL     1       1.645  -0.217   1.108  1.00  0.00     0.198 C 
BRANCH  17  20
HETATM   20  C6  UNL     1       4.290   0.834   0.402  1.00  0.00     0.286 C 
HETATM   21  N6  UNL     1       4.250   1.733  -0.676  1.00  0.00    -0.058 NA
HETATM   22  O2  UNL     1       4.767   1.197   1.491  1.00  0.00    -0.271 OA
ENDBRANCH  17  20
ENDBRANCH  12  14
ENDBRANCH   1  12
TORSDOF 5
