REMARK  5 active torsions:
REMARK  status: ('A' for Active; 'I' for Inactive)
REMARK    1  A    between atoms: N2_3  and  C2_5 
REMARK    2  A    between atoms: C2_5  and  C3_6 
REMARK    3  A    between atoms: C3_6  and  N3_7 
REMARK    4  A    between atoms: N3_7  and  C4_9 
REMARK    5  A    between atoms: C12_18  and  O2_19 
ROOT
HETATM    1  N1  UNL     1       5.490  -0.627  -0.854  1.00  0.00    -0.172 NA
HETATM    2  C1  UNL     1       4.335  -0.756  -0.951  1.00  0.00     0.178 C 
HETATM    3  N2  UNL     1       2.938  -0.896  -1.084  1.00  0.00    -0.312 N 
ATOM      4  H2  UNL     1       2.516  -1.489  -1.799  1.00  0.00     0.172 HD
ENDROOT
BRANCH   3   5
HETATM    5  C2  UNL     1       2.142  -0.141  -0.138  1.00  0.00     0.106 C 
HETATM    6  C10 UNL     1       2.546   1.284  -0.125  1.00  0.00     0.065 C 
HETATM    7  C11 UNL     1       2.968   1.526   1.303  1.00  0.00     0.173 C 
HETATM    8  O1  UNL     1       3.086   0.322   1.948  1.00  0.00    -0.359 OA
HETATM    9  C12 UNL     1       2.425  -0.642   1.262  1.00  0.00     0.287 C 
BRANCH   5  10
HETATM   10  C3  UNL     1       0.654  -0.318  -0.404  1.00  0.00     0.151 C 
BRANCH  10  11
HETATM   11  N3  UNL     1      -0.071   0.454   0.540  1.00  0.00    -0.414 N 
ATOM     12  H3  UNL     1       0.393   1.043   1.231  1.00  0.00     0.153 HD
BRANCH  11  13
HETATM   13  C4  UNL     1      -1.486   0.352   0.459  1.00  0.00     0.076 C 
HETATM   14  C5  UNL     1      -2.021  -1.040   0.775  1.00  0.00     0.024 C 
HETATM   15  C6  UNL     1      -3.511  -0.873   1.030  1.00  0.00     0.002 C 
HETATM   16  C7  UNL     1      -4.077   0.300   0.282  1.00  0.00     0.000 C 
HETATM   17  C8  UNL     1      -3.415   0.559  -1.047  1.00  0.00     0.002 C 
HETATM   18  C9  UNL     1      -1.922   0.621  -0.976  1.00  0.00     0.024 C 
ENDBRANCH  11  13
ENDBRANCH  10  11
ENDBRANCH   5  10
BRANCH   9  19
HETATM   19  O2  UNL     1       3.267  -1.768   1.185  1.00  0.00    -0.369 OA
ATOM     20  H2  UNL     1       3.445  -2.082   2.064  1.00  0.00     0.212 HD
ENDBRANCH   9  19
ENDBRANCH   3   5
TORSDOF 5
