REMARK  8 active torsions:
REMARK  status: ('A' for Active; 'I' for Inactive)
REMARK    1  A    between atoms: C2_2  and  O1_3 
REMARK    2  A    between atoms: O1_3  and  C3_4 
REMARK    3  A    between atoms: C3_4  and  C4_6 
REMARK    4  A    between atoms: C5_8  and  N1_9 
REMARK       I    between atoms: N1_9  and  C6_11 
REMARK    5  A    between atoms: C6_11  and  C7_13 
REMARK    6  A    between atoms: C9_16  and  S2_17 
REMARK    7  A    between atoms: C11_21  and  O7_22 
REMARK    8  A    between atoms: C13_26  and  C14_27 
ROOT
HETATM    1  N1  UNL     1       0.809  -1.290  -0.565  1.00  0.00    -0.303 N 
ATOM      2  H1  UNL     1       1.011  -2.151  -1.073  1.00  0.00     0.171 HD
HETATM    3  C6  UNL     1       1.832  -0.544   0.073  1.00  0.00     0.262 C 
HETATM    4  O3  UNL     1       1.606   0.564   0.626  1.00  0.00    -0.267 OA
ENDROOT
BRANCH   1   5
HETATM    5  C5  UNL     1      -0.419  -0.812  -0.468  1.00  0.00     0.152 A 
HETATM    6  S1  UNL     1      -0.870   0.611   0.348  1.00  0.00    -0.046 SA
HETATM    7  C4  UNL     1      -2.556   0.535   0.101  1.00  0.00     0.106 A 
HETATM    8  C13 UNL     1      -2.682  -0.620  -0.628  1.00  0.00     0.038 A 
HETATM    9  N2  UNL     1      -1.575  -1.289  -0.905  1.00  0.00    -0.338 N 
ATOM     10  H2  UNL     1      -1.611  -2.154  -1.444  1.00  0.00     0.168 HD
BRANCH   7  11
HETATM   11  C3  UNL     1      -3.616   1.374   0.691  1.00  0.00     0.302 C 
HETATM   12  O2  UNL     1      -3.237   2.182   1.588  1.00  0.00    -0.259 OA
BRANCH  11  13
HETATM   13  O1  UNL     1      -4.926   1.329   0.352  1.00  0.00    -0.317 OA
BRANCH  13  14
HETATM   14  C2  UNL     1      -5.887   2.097   0.993  1.00  0.00     0.174 C 
HETATM   15  C1  UNL     1      -5.607   3.552   1.158  1.00  0.00     0.034 C 
ENDBRANCH  13  14
ENDBRANCH  11  13
ENDBRANCH   7  11
BRANCH   8  16
HETATM   16  C14 UNL     1      -4.013  -0.999  -1.202  1.00  0.00     0.029 C 
HETATM   17  C15 UNL     1      -4.635  -2.195  -0.493  1.00  0.00     0.016 C 
HETATM   18  C16 UNL     1      -3.733  -1.615  -2.621  1.00  0.00     0.016 C 
ENDBRANCH   8  16
ENDBRANCH   1   5
BRANCH   3  19
HETATM   19  C7  UNL     1       3.202  -1.042   0.118  1.00  0.00     0.091 A 
HETATM   20  C8  UNL     1       3.691  -2.222  -0.460  1.00  0.00     0.163 A 
HETATM   21  O4  UNL     1       4.960  -2.306  -0.209  1.00  0.00    -0.308 OA
HETATM   22  C9  UNL     1       5.375  -1.287   0.490  1.00  0.00     0.203 A 
HETATM   23  C11 UNL     1       4.296  -0.464   0.716  1.00  0.00     0.131 A 
BRANCH  22  24
HETATM   24  S2  UNL     1       7.005  -0.994   1.055  1.00  0.00     0.196 S 
HETATM   25  C10 UNL     1       7.859  -0.024  -0.168  1.00  0.00     0.169 C 
HETATM   26  O5  UNL     1       7.754  -2.263   1.313  1.00  0.00    -0.221 OA
HETATM   27  O6  UNL     1       6.970  -0.239   2.354  1.00  0.00    -0.221 OA
ENDBRANCH  22  24
BRANCH  23  28
HETATM   28  O7  UNL     1       4.298   0.736   1.416  1.00  0.00    -0.351 OA
HETATM   29  C12 UNL     1       4.575   1.995   0.825  1.00  0.00     0.210 C 
ENDBRANCH  23  28
ENDBRANCH   3  19
TORSDOF 8
