REMARK  7 active torsions:
REMARK  status: ('A' for Active; 'I' for Inactive)
REMARK    1  A    between atoms: N1_2  and  C2_5 
REMARK    2  A    between atoms: C2_5  and  C3_6 
REMARK    3  A    between atoms: C3_6  and  N2_7 
REMARK    4  A    between atoms: C4_8  and  O1_9 
REMARK    5  A    between atoms: C7_13  and  O2_14 
REMARK    6  A    between atoms: C8_16  and  C9_17 
REMARK    7  A    between atoms: C13_21  and  O3_22 
ROOT
HETATM    1  N2  UNL     1       2.550  -0.052   0.040  1.00  0.00    -0.306 N 
HETATM    2  C4  UNL     1       2.705  -1.315   0.471  1.00  0.00     0.151 A 
HETATM    3  C5  UNL     1       1.469  -1.858   0.672  1.00  0.00     0.011 A 
HETATM    4  C6  UNL     1       0.531  -0.874   0.346  1.00  0.00     0.017 A 
HETATM    5  C7  UNL     1       1.222   0.228  -0.041  1.00  0.00     0.152 A 
HETATM    6  C8  UNL     1      -0.880  -1.314   0.520  1.00  0.00     0.021 C 
HETATM    7  C17 UNL     1      -1.088  -2.537  -0.319  1.00  0.00     0.020 C 
HETATM    8  C18 UNL     1      -0.034  -3.563  -0.057  1.00  0.00     0.013 C 
HETATM    9  C19 UNL     1       0.873  -3.148   1.113  1.00  0.00     0.058 C 
HETATM   10  C20 UNL     1      -0.073  -2.940   2.276  1.00  0.00     0.180 C 
HETATM   11  F1  UNL     1      -0.902  -4.069   2.318  1.00  0.00    -0.249 F 
HETATM   12  C21 UNL     1      -0.972  -1.764   1.989  1.00  0.00     0.057 C 
ENDROOT
BRANCH   6  13
HETATM   13  C9  UNL     1      -1.869  -0.268   0.314  1.00  0.00    -0.043 A 
HETATM   14  C10 UNL     1      -1.905   0.806   1.161  1.00  0.00     0.017 A 
HETATM   15  C11 UNL     1      -2.847   1.797   0.971  1.00  0.00    -0.028 A 
HETATM   16  C12 UNL     1      -2.889   2.967   1.895  1.00  0.00     0.051 C 
HETATM   17  C13 UNL     1      -3.765   1.742  -0.058  1.00  0.00     0.077 A 
HETATM   18  C14 UNL     1      -3.732   0.661  -0.913  1.00  0.00    -0.028 A 
HETATM   19  C15 UNL     1      -4.729   0.593  -2.013  1.00  0.00     0.051 C 
HETATM   20  C16 UNL     1      -2.771  -0.338  -0.708  1.00  0.00     0.017 A 
BRANCH  17  21
HETATM   21  O3  UNL     1      -4.691   2.770  -0.202  1.00  0.00    -0.360 OA
ATOM     22  H3  UNL     1      -5.323   2.732  -0.910  1.00  0.00     0.217 HD
ENDBRANCH  17  21
ENDBRANCH   6  13
BRANCH   5  23
HETATM   23  O2  UNL     1       0.638   1.424  -0.445  1.00  0.00    -0.345 OA
ATOM     24  H2  UNL     1      -0.290   1.620  -0.502  1.00  0.00     0.219 HD
ENDBRANCH   5  23
BRANCH   2  25
HETATM   25  O1  UNL     1       3.887  -2.002   0.693  1.00  0.00    -0.345 OA
ATOM     26  H1  UNL     1       3.997  -2.895   0.998  1.00  0.00     0.219 HD
ENDBRANCH   2  25
BRANCH   1  27
HETATM   27  C3  UNL     1       3.579   0.913  -0.300  1.00  0.00     0.160 C 
BRANCH  27  28
HETATM   28  C2  UNL     1       3.969   0.814  -1.758  1.00  0.00     0.252 C 
BRANCH  28  29
HETATM   29  N1  UNL     1       4.984   1.784  -2.091  1.00  0.00    -0.077 N 
HETATM   30  C1  UNL     1       4.417   3.113  -2.029  1.00  0.00     0.267 C 
ATOM     31  H12 UNL     1       5.420   1.592  -2.993  1.00  0.00     0.276 HD
ATOM     32  H11 UNL     1       5.814   1.691  -1.505  1.00  0.00     0.276 HD
ENDBRANCH  28  29
ENDBRANCH  27  28
ENDBRANCH   1  27
TORSDOF 7
