REMARK  1 active torsions:
REMARK  status: ('A' for Active; 'I' for Inactive)
REMARK    1  A    between atoms: C8_8  and  C9_9 
REMARK       I    between atoms: N1_16  and  C12_17 
ROOT
HETATM    1  C1  UNL     1      -2.361  -1.677  -0.875  1.00  0.00     0.038 C 
HETATM    2  C2  UNL     1      -2.066  -0.735   0.257  1.00  0.00     0.032 C 
HETATM    3  C3  UNL     1      -3.349  -0.365   0.973  1.00  0.00     0.038 C 
HETATM    4  C4  UNL     1      -0.979  -1.190   1.203  1.00  0.00     0.061 C 
HETATM    5  C5  UNL     1      -0.051  -0.206   0.483  1.00  0.00     0.041 C 
HETATM    6  C6  UNL     1       0.770   0.626   1.412  1.00  0.00     0.032 C 
HETATM    7  C7  UNL     1       2.253   0.501   1.172  1.00  0.00     0.012 C 
HETATM    8  C8  UNL     1       2.616   0.748  -0.279  1.00  0.00     0.050 C 
HETATM    9  C10 UNL     1       1.811  -0.120  -1.202  1.00  0.00     0.092 C 
HETATM   10 CL2  UNL     1       2.869  -1.244  -2.127  1.00  0.00    -0.124 Cl
HETATM   11  C11 UNL     1       0.837  -0.971  -0.455  1.00  0.00     0.052 C 
HETATM   12  N1  UNL     1      -1.219   0.397  -0.081  1.00  0.00    -0.318 N 
HETATM   13  C12 UNL     1      -1.486   1.625  -0.728  1.00  0.00     0.332 C 
HETATM   14  N2  UNL     1      -2.777   1.976  -1.201  1.00  0.00    -0.040 NA
HETATM   15  O1  UNL     1      -0.555   2.445  -0.897  1.00  0.00    -0.251 OA
ENDROOT
BRANCH   8  16
HETATM   16  C9  UNL     1       4.106   0.504  -0.412  1.00  0.00     0.156 C 
HETATM   17 CL1  UNL     1       4.929   1.661   0.688  1.00  0.00    -0.093 Cl
HETATM   18 BR1  UNL     1       4.606  -1.262   0.133  1.00  0.00    -0.055 Br
HETATM   19 BR2  UNL     1       4.732   0.910  -2.197  1.00  0.00    -0.055 Br
ENDBRANCH   8  16
TORSDOF 1
