REMARK  8 active torsions:
REMARK  status: ('A' for Active; 'I' for Inactive)
REMARK    1  A    between atoms: C8_11  and  N3_12 
REMARK    2  A    between atoms: N6_16  and  C9_17 
REMARK    3  A    between atoms: C9_17  and  C10_18 
REMARK    4  A    between atoms: C10_18  and  N7_19 
REMARK    5  A    between atoms: C10_18  and  C11_23 
REMARK    6  A    between atoms: C11_23  and  N9_27 
REMARK    7  A    between atoms: N9_27  and  O3_29 
REMARK    8  A    between atoms: O3_29  and  C12_30 
ROOT
HETATM    1  C1  UNL     1      -4.570  -0.481  -0.395  1.00  0.00     0.132 C 
HETATM    2  N1  UNL     1      -3.391  -0.049   0.289  1.00  0.00    -0.232 NA
HETATM    3  N2  UNL     1      -3.652   0.593   1.504  1.00  0.00    -0.157 NA
HETATM    4  C2  UNL     1      -2.437   1.301   1.860  1.00  0.00     0.125 C 
HETATM    5  C3  UNL     1      -2.382   2.568   1.031  1.00  0.00     0.027 C 
HETATM    6  C4  UNL     1      -2.840   2.170  -0.379  1.00  0.00     0.025 C 
HETATM    7  C5  UNL     1      -2.477   0.707  -0.533  1.00  0.00     0.111 C 
HETATM    8  C6  UNL     1      -1.040   0.573   0.014  1.00  0.00     0.277 C 
HETATM    9  C7  UNL     1      -1.279   0.395   1.533  1.00  0.00     0.181 C 
HETATM   10  O1  UNL     1      -1.527  -0.939   1.668  1.00  0.00    -0.334 OA
HETATM   11  C8  UNL     1      -0.992  -1.610   0.576  1.00  0.00     0.486 C 
HETATM   12  N6  UNL     1      -0.448  -0.645  -0.311  1.00  0.00     0.146 N 
ENDROOT
BRANCH  12  13
HETATM   13  C9  UNL     1       0.967  -0.659  -0.294  1.00  0.00     0.319 C 
BRANCH  13  14
HETATM   14  C10 UNL     1       1.684   0.073  -1.387  1.00  0.00     0.280 C 
BRANCH  14  15
HETATM   15  N7  UNL     1       1.464   1.464  -1.504  1.00  0.00    -0.066 N 
ATOM     16  H73 UNL     1       0.462   1.640  -1.584  1.00  0.00     0.275 HD
ATOM     17  H72 UNL     1       1.668   1.912  -0.611  1.00  0.00     0.275 HD
ATOM     18  H71 UNL     1       1.952   1.962  -2.248  1.00  0.00     0.275 HD
ENDBRANCH  14  15
BRANCH  14  19
HETATM   19  C11 UNL     1       3.172  -0.109  -1.221  1.00  0.00     0.128 C 
HETATM   20  N8  UNL     1       3.917  -0.663  -2.102  1.00  0.00    -0.386 N 
ATOM     21  H82 UNL     1       3.494  -1.004  -2.965  1.00  0.00     0.157 HD
ATOM     22  H81 UNL     1       4.923  -0.786  -1.990  1.00  0.00     0.157 HD
BRANCH  19  23
HETATM   23  N9  UNL     1       3.757   0.363  -0.026  1.00  0.00    -0.242 N 
ATOM     24  H9  UNL     1       3.317   0.117   0.861  1.00  0.00     0.196 HD
BRANCH  23  25
HETATM   25  O3  UNL     1       4.903   1.146  -0.000  1.00  0.00    -0.182 OA
BRANCH  25  26
HETATM   26  C12 UNL     1       6.117   0.457  -0.000  1.00  0.00     0.394 C 
HETATM   27  N10 UNL     1       7.346   1.177   0.025  1.00  0.00    -0.031 NA
HETATM   28  O4  UNL     1       6.145  -0.804  -0.022  1.00  0.00    -0.240 OA
ENDBRANCH  25  26
ENDBRANCH  23  25
ENDBRANCH  19  23
ENDBRANCH  14  19
ENDBRANCH  13  14
ENDBRANCH  12  13
BRANCH  11  29
HETATM   29  N3  UNL     1      -0.065  -2.641   1.010  1.00  0.00    -0.006 NA
HETATM   30  N4  UNL     1      -0.784  -3.538   1.849  1.00  0.00     0.006 NA
HETATM   31  N5  UNL     1      -0.968  -4.419   0.776  1.00  0.00     0.053 NA
HETATM   32  O2  UNL     1      -0.033  -3.689   0.120  1.00  0.00    -0.148 OA
ENDBRANCH  11  29
TORSDOF 8
