REMARK  2 active torsions:
REMARK  status: ('A' for Active; 'I' for Inactive)
REMARK    1  A    between atoms: C2_2  and  C3_3 
REMARK    2  A    between atoms: C14_21  and  C15_22 
ROOT
HETATM    1  C3  UNL     1      -0.181  -1.439   0.478  1.00  0.00    -0.030 A 
HETATM    2  C4  UNL     1       1.184  -1.729   0.499  1.00  0.00     0.028 A 
HETATM    3  C5  UNL     1       2.065  -0.679   0.417  1.00  0.00     0.060 A 
HETATM    4  C6  UNL     1       3.434  -0.890   0.434  1.00  0.00     0.198 A 
HETATM    5  O1  UNL     1       3.856  -2.071   0.524  1.00  0.00    -0.286 OA
HETATM    6  C7  UNL     1       4.263   0.196   0.352  1.00  0.00     0.043 A 
HETATM    7  C8  UNL     1       5.637   0.007   0.368  1.00  0.00     0.043 A 
HETATM    8  C9  UNL     1       6.483   1.091   0.286  1.00  0.00     0.056 A 
HETATM    9 CL1  UNL     1       8.209   0.834   0.308  1.00  0.00    -0.083 Cl
HETATM   10  C10 UNL     1       5.999   2.374   0.188  1.00  0.00     0.058 A 
HETATM   11 CL2  UNL     1       7.139   3.723   0.087  1.00  0.00    -0.082 Cl
HETATM   12  C11 UNL     1       4.646   2.589   0.170  1.00  0.00     0.056 A 
HETATM   13  C12 UNL     1       3.790   1.487   0.253  1.00  0.00     0.049 A 
HETATM   14  N1  UNL     1       2.469   1.652   0.239  1.00  0.00    -0.341 N 
ATOM     15  H1  UNL     1       2.094   2.598   0.166  1.00  0.00     0.167 HD
HETATM   16  C13 UNL     1       1.603   0.613   0.318  1.00  0.00     0.120 A 
HETATM   17  N2  UNL     1       0.282   0.886   0.299  1.00  0.00    -0.340 N 
ATOM     18  H2  UNL     1      -0.044   1.850   0.226  1.00  0.00     0.167 HD
HETATM   19  C14 UNL     1      -0.617  -0.145   0.379  1.00  0.00     0.053 A 
ENDROOT
BRANCH  19  20
HETATM   20  C15 UNL     1      -2.041   0.144   0.397  1.00  0.00     0.026 A 
HETATM   21  C16 UNL     1      -2.868   0.248   1.493  1.00  0.00     0.019 A 
HETATM   22  C17 UNL     1      -2.506   0.077   2.948  1.00  0.00     0.069 C 
HETATM   23  N3  UNL     1      -4.097   0.552   1.060  1.00  0.00    -0.358 N 
HETATM   24  C18 UNL     1      -4.128   0.659  -0.301  1.00  0.00     0.043 A 
ATOM     25  H3  UNL     1      -4.905   0.686   1.667  1.00  0.00     0.166 HD
HETATM   26  C19 UNL     1      -5.137   0.958  -1.184  1.00  0.00     0.033 A 
HETATM   27  C23 UNL     1      -2.818   0.399  -0.705  1.00  0.00     0.008 A 
HETATM   28  C20 UNL     1      -4.891   1.014  -2.534  1.00  0.00     0.044 A 
HETATM   29  C21 UNL     1      -3.614   0.765  -2.980  1.00  0.00     0.117 A 
HETATM   30  F1  UNL     1      -3.375   0.822  -4.321  1.00  0.00    -0.206 F 
HETATM   31  C22 UNL     1      -2.609   0.466  -2.089  1.00  0.00     0.057 A 
ENDBRANCH  19  20
BRANCH   1  32
HETATM   32  C2  UNL     1      -1.083  -2.586   0.555  1.00  0.00     0.036 C 
HETATM   33  C1  UNL     1      -1.602  -2.964  -0.812  1.00  0.00     0.010 C 
ENDBRANCH   1  32
TORSDOF 2
