REMARK  3 active torsions:
REMARK  status: ('A' for Active; 'I' for Inactive)
REMARK    1  A    between atoms: C2_2  and  C5_5 
REMARK    2  A    between atoms: C9_9  and  N1_10 
REMARK       I    between atoms: N1_10  and  C10_12 
REMARK    3  A    between atoms: C10_12  and  C11_14 
ROOT
HETATM    1  C5  UNL     1      -3.420  -0.100   0.174  1.00  0.00     0.018 A 
HETATM    2  C6  UNL     1      -2.406  -0.092  -0.805  1.00  0.00     0.039 A 
HETATM    3  C7  UNL     1      -1.189  -0.289  -0.218  1.00  0.00    -0.004 A 
HETATM    4  C8  UNL     1       0.136  -0.313  -0.661  1.00  0.00     0.043 A 
HETATM    5  C9  UNL     1       1.201  -0.470   0.186  1.00  0.00     0.037 A 
HETATM    6  C17 UNL     1       0.904  -0.619   1.538  1.00  0.00     0.055 A 
HETATM    7  C18 UNL     1      -0.396  -0.598   2.004  1.00  0.00     0.063 A 
HETATM    8 CL2  UNL     1      -0.700  -0.786   3.725  1.00  0.00    -0.082 Cl
HETATM    9  C19 UNL     1      -1.452  -0.428   1.140  1.00  0.00     0.065 A 
HETATM   10  N2  UNL     1      -2.797  -0.306   1.319  1.00  0.00    -0.357 N 
ATOM     11  H2  UNL     1      -3.264  -0.366   2.224  1.00  0.00     0.166 HD
ENDROOT
BRANCH   5  12
HETATM   12  N1  UNL     1       2.559  -0.265  -0.228  1.00  0.00    -0.323 N 
HETATM   13  C10 UNL     1       3.666  -0.867   0.386  1.00  0.00     0.256 C 
HETATM   14  O1  UNL     1       3.593  -1.694   1.287  1.00  0.00    -0.267 OA
ATOM     15  H1  UNL     1       2.730   0.357  -1.018  1.00  0.00     0.169 HD
BRANCH  13  16
HETATM   16  C11 UNL     1       5.005  -0.427  -0.090  1.00  0.00     0.035 A 
HETATM   17  C12 UNL     1       5.241   0.040  -1.339  1.00  0.00     0.041 A 
HETATM   18  C13 UNL     1       6.451   0.633  -1.712  1.00  0.00     0.036 A 
HETATM   19 CL1  UNL     1       6.728   1.282  -3.329  1.00  0.00    -0.084 Cl
HETATM   20  C14 UNL     1       7.431   0.734  -0.770  1.00  0.00     0.043 A 
HETATM   21  C15 UNL     1       7.228   0.260   0.524  1.00  0.00     0.013 A 
HETATM   22 BR1  UNL     1       8.603   0.385   1.831  1.00  0.00    -0.051 Br
HETATM   23  C16 UNL     1       5.993  -0.331   0.865  1.00  0.00     0.036 A 
ENDBRANCH  13  16
ENDBRANCH   5  12
BRANCH   1  24
HETATM   24  C2  UNL     1      -4.851   0.180  -0.089  1.00  0.00    -0.009 C 
HETATM   25  C1  UNL     1      -5.509   0.393   1.277  1.00  0.00     0.021 C 
HETATM   26  C3  UNL     1      -4.947   1.524  -0.801  1.00  0.00     0.021 C 
HETATM   27  C4  UNL     1      -5.582  -0.886  -0.821  1.00  0.00     0.021 C 
ENDBRANCH   1  24
TORSDOF 3
