REMARK  10 active torsions:
REMARK  status: ('A' for Active; 'I' for Inactive)
REMARK    1  A    between atoms: C2_2  and  C3_3 
REMARK       I    between atoms: C3_3  and  N1_5 
REMARK    2  A    between atoms: N1_5  and  C4_7 
REMARK    3  A    between atoms: C4_7  and  C6_9 
REMARK    4  A    between atoms: C6_9  and  C7_10 
REMARK    5  A    between atoms: C6_9  and  N4_24 
REMARK    6  A    between atoms: C7_10  and  C8_11 
REMARK       I    between atoms: C8_11  and  N2_13 
REMARK    7  A    between atoms: N2_13  and  C9_15 
REMARK    8  A    between atoms: C9_15  and  C10_16 
REMARK       I    between atoms: N4_24  and  C15_26 
REMARK       I    between atoms: C15_26  and  N5_28 
REMARK    9  A    between atoms: N5_28  and  C16_30 
REMARK   10  A    between atoms: C16_30  and  C18_32 
ROOT
HETATM    1  C6  UNL     1      -0.104   1.962  -0.548  1.00  0.00     0.117 C 
ENDROOT
BRANCH   1   2
HETATM    2  C4  UNL     1      -0.766   3.213   0.054  1.00  0.00     0.103 C 
HETATM    3  C5  UNL     1      -0.128   4.403  -0.626  1.00  0.00     0.034 C 
BRANCH   2   4
HETATM    4  N1  UNL     1      -2.185   3.180  -0.099  1.00  0.00    -0.355 N 
HETATM    5  C3  UNL     1      -3.013   3.179   1.047  1.00  0.00     0.217 C 
HETATM    6  O1  UNL     1      -2.503   3.208   2.190  1.00  0.00    -0.274 OA
ATOM      7  H1  UNL     1      -2.600   3.157  -1.031  1.00  0.00     0.162 HD
BRANCH   5   8
HETATM    8  C2  UNL     1      -4.469   3.145   0.904  1.00  0.00     0.098 C 
HETATM    9  C1  UNL     1      -5.201   3.150   2.207  1.00  0.00     0.014 C 
ENDBRANCH   5   8
ENDBRANCH   2   4
ENDBRANCH   1   2
BRANCH   1  10
HETATM   10  C7  UNL     1       1.356   2.108  -0.329  1.00  0.00     0.130 C 
BRANCH  10  11
HETATM   11  C8  UNL     1       2.199   1.017  -0.827  1.00  0.00     0.219 C 
HETATM   12  O2  UNL     1       1.681   0.042  -1.394  1.00  0.00    -0.274 OA
HETATM   13  N2  UNL     1       3.585   1.089  -0.655  1.00  0.00    -0.361 N 
ATOM     14  H2  UNL     1       3.990   1.901  -0.190  1.00  0.00     0.162 HD
BRANCH  13  15
HETATM   15  C9  UNL     1       4.449   0.040  -1.121  1.00  0.00     0.127 C 
BRANCH  15  16
HETATM   16  C10 UNL     1       4.143  -1.239  -0.432  1.00  0.00     0.006 C 
HETATM   17  C11 UNL     1       4.340  -1.060   1.081  1.00  0.00     0.034 C 
HETATM   18  C12 UNL     1       3.637  -2.210   1.747  1.00  0.00     0.232 C 
HETATM   19  N3  UNL     1       3.765  -3.406   0.960  1.00  0.00    -0.075 N 
HETATM   20  C13 UNL     1       5.019  -3.451   0.223  1.00  0.00     0.232 C 
ATOM     21  H32 UNL     1       3.646  -4.240   1.535  1.00  0.00     0.277 HD
ATOM     22  H31 UNL     1       2.967  -3.523   0.336  1.00  0.00     0.277 HD
HETATM   23  C14 UNL     1       5.104  -2.353  -0.814  1.00  0.00     0.034 C 
ENDBRANCH  15  16
ENDBRANCH  13  15
ENDBRANCH  10  11
ENDBRANCH   1  10
BRANCH   1  24
HETATM   24  N4  UNL     1      -0.682   0.766  -0.044  1.00  0.00    -0.336 N 
HETATM   25  C15 UNL     1      -1.452  -0.081  -0.872  1.00  0.00     0.316 C 
HETATM   26  O3  UNL     1      -1.637   0.219  -2.078  1.00  0.00    -0.247 OA
HETATM   27  N5  UNL     1      -2.046  -1.290  -0.396  1.00  0.00    -0.339 N 
ATOM     28  H5  UNL     1      -1.911  -1.555   0.580  1.00  0.00     0.164 HD
ATOM     29  H4  UNL     1      -0.538   0.514   0.934  1.00  0.00     0.164 HD
BRANCH  27  30
HETATM   30  C16 UNL     1      -2.829  -2.146  -1.248  1.00  0.00     0.081 C 
HETATM   31  C17 UNL     1      -2.219  -3.498  -1.416  1.00  0.00     0.032 C 
BRANCH  30  32
HETATM   32  C18 UNL     1      -4.261  -2.195  -0.792  1.00  0.00     0.020 C 
HETATM   33  C19 UNL     1      -4.391  -2.724   0.620  1.00  0.00     0.007 C 
ENDBRANCH  30  32
ENDBRANCH  27  30
ENDBRANCH   1  24
TORSDOF 10
