REMARK  11 active torsions:
REMARK  status: ('A' for Active; 'I' for Inactive)
REMARK    1  A    between atoms: C2_2  and  C3_3 
REMARK    2  A    between atoms: C2_2  and  C9_9 
REMARK    3  A    between atoms: C3_3  and  C4_4 
REMARK       I    between atoms: C9_9  and  N1_11 
REMARK    4  A    between atoms: N1_11  and  C10_13 
REMARK    5  A    between atoms: C10_13  and  C11_14 
REMARK    6  A    between atoms: C10_13  and  C18_26 
REMARK       I    between atoms: C11_14  and  N2_16 
REMARK    7  A    between atoms: N2_16  and  C12_18 
REMARK    8  A    between atoms: C12_18  and  C13_19 
REMARK    9  A    between atoms: C12_18  and  C17_23 
REMARK   10  A    between atoms: C13_19  and  C14_20 
REMARK   11  A    between atoms: N4_28  and  O5_30 
ROOT
HETATM    1  C10 UNL     1      -0.270   0.093   1.320  1.00  0.00     0.243 C 
ENDROOT
BRANCH   1   2
HETATM    2  N1  UNL     1       0.978   0.285   0.655  1.00  0.00    -0.338 N 
HETATM    3  C9  UNL     1       1.777   1.436   0.726  1.00  0.00     0.247 C 
HETATM    4  O1  UNL     1       1.393   2.397   1.422  1.00  0.00    -0.268 OA
ATOM      5  H1  UNL     1       1.319  -0.483   0.077  1.00  0.00     0.164 HD
BRANCH   3   6
HETATM    6  C2  UNL     1       3.055   1.565   0.014  1.00  0.00     0.001 C 
HETATM    7  C1  UNL     1       3.737   2.680   0.138  1.00  0.00     0.024 C 
BRANCH   6   8
HETATM    8  C3  UNL     1       3.567   0.465  -0.824  1.00  0.00     0.048 C 
BRANCH   8   9
HETATM    9  C4  UNL     1       4.919   0.657  -1.413  1.00  0.00    -0.010 C 
HETATM   10  C5  UNL     1       5.212  -0.601  -2.256  1.00  0.00     0.005 C 
HETATM   11  C6  UNL     1       6.718  -0.681  -2.163  1.00  0.00     0.000 C 
HETATM   12  C7  UNL     1       6.894  -0.560  -0.644  1.00  0.00     0.000 C 
HETATM   13  C8  UNL     1       6.010   0.601  -0.338  1.00  0.00     0.005 C 
ENDBRANCH   8   9
ENDBRANCH   6   8
ENDBRANCH   3   6
ENDBRANCH   1   2
BRANCH   1  14
HETATM   14  C11 UNL     1      -1.406  -0.130   0.429  1.00  0.00     0.248 C 
HETATM   15  O2  UNL     1      -1.240  -0.123  -0.810  1.00  0.00    -0.271 OA
HETATM   16  N2  UNL     1      -2.693  -0.355   0.947  1.00  0.00    -0.344 N 
ATOM     17  H2  UNL     1      -2.831  -0.365   1.958  1.00  0.00     0.163 HD
BRANCH  16  18
HETATM   18  C12 UNL     1      -3.874  -0.582   0.037  1.00  0.00     0.185 C 
BRANCH  18  19
HETATM   19  C13 UNL     1      -4.792   0.509   0.396  1.00  0.00     0.040 C 
BRANCH  19  20
HETATM   20  C14 UNL     1      -6.085   0.718  -0.246  1.00  0.00    -0.020 C 
HETATM   21  C15 UNL     1      -7.146  -0.301  -0.172  1.00  0.00     0.009 C 
HETATM   22  C16 UNL     1      -5.965   1.134  -1.715  1.00  0.00     0.009 C 
ENDBRANCH  19  20
ENDBRANCH  18  19
BRANCH  18  23
HETATM   23  C17 UNL     1      -4.296  -1.941   0.349  1.00  0.00     0.196 C 
HETATM   24  O3  UNL     1      -3.807  -2.562   1.350  1.00  0.00    -0.646 OA
HETATM   25  O4  UNL     1      -5.219  -2.624  -0.403  1.00  0.00    -0.646 OA
ENDBRANCH  18  23
ENDBRANCH  16  18
ENDBRANCH   1  14
BRANCH   1  26
HETATM   26  C18 UNL     1      -0.171  -1.009   2.324  1.00  0.00     0.145 C 
HETATM   27  N3  UNL     1       0.182  -2.330   1.952  1.00  0.00    -0.083 NA
HETATM   28  N4  UNL     1      -0.414  -0.775   3.593  1.00  0.00    -0.257 N 
ATOM     29  H4  UNL     1      -0.346  -1.529   4.277  1.00  0.00     0.195 HD
BRANCH  28  30
HETATM   30  O5  UNL     1      -0.764   0.503   3.996  1.00  0.00    -0.289 OA
ATOM     31  H5  UNL     1      -0.940   0.672   4.914  1.00  0.00     0.244 HD
ENDBRANCH  28  30
ENDBRANCH   1  26
TORSDOF 11
