REMARK  8 active torsions:
REMARK  status: ('A' for Active; 'I' for Inactive)
REMARK    1  A    between atoms: N2_8  and  C6_10 
REMARK    2  A    between atoms: C6_10  and  C7_11 
REMARK    3  A    between atoms: C7_11  and  C8_12 
REMARK    4  A    between atoms: C8_12  and  C9_13 
REMARK    5  A    between atoms: C9_13  and  N3_14 
REMARK    6  A    between atoms: N5_21  and  C11_23 
REMARK    7  A    between atoms: C11_23  and  C12_24 
REMARK    8  A    between atoms: C12_24  and  C13_25 
ROOT
HETATM    1  C1  UNL     1      -2.039  -3.960  -1.245  1.00  0.00     0.102 C 
HETATM    2  C2  UNL     1      -1.088  -3.256  -0.940  1.00  0.00    -0.157 C 
HETATM    3  C3  UNL     1       0.030  -2.445  -0.563  1.00  0.00     0.099 C 
HETATM    4  C4  UNL     1      -0.153  -1.167  -0.287  1.00  0.00     0.143 A 
HETATM    5  N1  UNL     1      -1.474  -0.594  -0.365  1.00  0.00    -0.175 N 
ATOM      6  H1  UNL     1      -2.275  -1.166  -0.632  1.00  0.00     0.186 HD
HETATM    7  C5  UNL     1      -1.635   0.780  -0.063  1.00  0.00     0.694 A 
HETATM    8  N2  UNL     1      -2.808   1.285  -0.133  1.00  0.00    -0.226 N 
ATOM      9  H2  UNL     1      -2.914   2.275   0.087  1.00  0.00     0.177 HD
HETATM   10  N4  UNL     1      -0.531   1.588   0.311  1.00  0.00    -0.022 N 
ATOM     11  H4  UNL     1      -0.684   2.574   0.522  1.00  0.00     0.203 HD
HETATM   12  C10 UNL     1       0.794   1.052   0.399  1.00  0.00     0.694 A 
HETATM   13  N5  UNL     1       1.809   1.737   0.729  1.00  0.00    -0.225 N 
ATOM     14  H5  UNL     1       1.634   2.720   0.936  1.00  0.00     0.177 HD
HETATM   15  N6  UNL     1       0.939  -0.323   0.093  1.00  0.00    -0.175 N 
ATOM     16  H6  UNL     1       1.871  -0.734   0.146  1.00  0.00     0.186 HD
ENDROOT
BRANCH   8  17
HETATM   17  C6  UNL     1      -3.990   0.547  -0.503  1.00  0.00     0.138 C 
BRANCH  17  18
HETATM   18  C7  UNL     1      -4.572  -0.109   0.721  1.00  0.00     0.022 C 
BRANCH  18  19
HETATM   19  C8  UNL     1      -5.813  -0.903   0.425  1.00  0.00     0.029 C 
BRANCH  19  20
HETATM   20  C9  UNL     1      -6.923  -0.089  -0.154  1.00  0.00     0.229 C 
BRANCH  20  21
HETATM   21  N3  UNL     1      -7.337   0.979   0.739  1.00  0.00    -0.079 N 
ATOM     22  H33 UNL     1      -7.585   0.617   1.660  1.00  0.00     0.274 HD
ATOM     23  H32 UNL     1      -6.547   1.567   1.005  1.00  0.00     0.274 HD
ATOM     24  H31 UNL     1      -8.095   1.535   0.344  1.00  0.00     0.274 HD
ENDBRANCH  20  21
ENDBRANCH  19  20
ENDBRANCH  18  19
ENDBRANCH  17  18
ENDBRANCH   8  17
BRANCH  13  25
HETATM   25  C11 UNL     1       3.157   1.310   0.847  1.00  0.00     0.142 C 
BRANCH  25  26
HETATM   26  C12 UNL     1       3.882   1.244  -0.480  1.00  0.00     0.058 C 
BRANCH  26  27
HETATM   27  C13 UNL     1       5.294   0.786  -0.278  1.00  0.00    -0.057 A 
HETATM   28  C14 UNL     1       5.643  -0.536  -0.310  1.00  0.00     0.007 A 
HETATM   29  C15 UNL     1       6.941  -0.917  -0.122  1.00  0.00     0.001 A 
HETATM   30  C16 UNL     1       7.932   0.014   0.105  1.00  0.00     0.000 A 
HETATM   31  C17 UNL     1       7.587   1.356   0.138  1.00  0.00     0.001 A 
HETATM   32  C18 UNL     1       6.273   1.727  -0.053  1.00  0.00     0.007 A 
ENDBRANCH  26  27
ENDBRANCH  25  26
ENDBRANCH  13  25
TORSDOF 8
