REMARK  5 active torsions:
REMARK  status: ('A' for Active; 'I' for Inactive)
REMARK    1  A    between atoms: C2_2  and  O1_3 
REMARK    2  A    between atoms: C2_2  and  C3_5 
REMARK    3  A    between atoms: C5_9  and  N1_10 
REMARK       I    between atoms: N1_10  and  C6_12 
REMARK    4  A    between atoms: C6_12  and  C7_14 
REMARK    5  A    between atoms: C9_19  and  O5_20 
ROOT
HETATM    1  C3  UNL     1      -1.763   0.215   0.270  1.00  0.00     0.225 C 
HETATM    2  O2  UNL     1      -1.287   0.230   1.563  1.00  0.00    -0.229 OA
HETATM    3  O3  UNL     1      -0.282  -0.572   1.671  1.00  0.00    -0.230 OA
HETATM    4  C4  UNL     1       0.367  -0.678   0.466  1.00  0.00     0.220 C 
HETATM    5  C5  UNL     1       1.166   0.559   0.072  1.00  0.00     0.122 C 
HETATM    6  C8  UNL     1       0.293   0.750  -1.137  1.00  0.00     0.071 C 
HETATM    7  C9  UNL     1      -0.641  -0.297  -0.601  1.00  0.00     0.122 C 
ENDROOT
BRANCH   5   8
HETATM    8  N1  UNL     1       2.532   0.197  -0.207  1.00  0.00    -0.350 N 
HETATM    9  C6  UNL     1       3.572   0.848   0.492  1.00  0.00     0.273 C 
HETATM   10  O4  UNL     1       3.276   1.724   1.337  1.00  0.00    -0.269 OA
ATOM     11  H1  UNL     1       2.745  -0.520  -0.900  1.00  0.00     0.163 HD
BRANCH   9  12
HETATM   12  C7  UNL     1       4.983   0.464   0.195  1.00  0.00     0.269 C 
HETATM   13 CL1  UNL     1       6.033   1.461   1.234  1.00  0.00    -0.073 Cl
HETATM   14 CL2  UNL     1       5.360   0.802  -1.531  1.00  0.00    -0.073 Cl
HETATM   15 CL3  UNL     1       5.283  -1.251   0.473  1.00  0.00    -0.073 Cl
ENDBRANCH   9  12
ENDBRANCH   5   8
BRANCH   7  16
HETATM   16  O5  UNL     1      -0.975  -1.292  -1.484  1.00  0.00    -0.384 OA
ATOM     17  H5  UNL     1      -0.269  -1.614  -2.032  1.00  0.00     0.210 HD
ENDBRANCH   7  16
BRANCH   1  18
HETATM   18  C2  UNL     1      -2.954  -0.685   0.076  1.00  0.00     0.149 C 
HETATM   19  C1  UNL     1      -4.147  -0.271   0.887  1.00  0.00     0.042 C 
BRANCH  18  20
HETATM   20  O1  UNL     1      -3.317  -0.593  -1.276  1.00  0.00    -0.393 OA
ATOM     21  H1  UNL     1      -2.562  -0.855  -1.789  1.00  0.00     0.210 HD
ENDBRANCH  18  20
ENDBRANCH   1  18
TORSDOF 5
