REMARK  5 active torsions:
REMARK  status: ('A' for Active; 'I' for Inactive)
REMARK    1  A    between atoms: O1_2  and  C2_3 
REMARK    2  A    between atoms: C4_5  and  O2_6 
REMARK    3  A    between atoms: C5_8  and  O3_9 
REMARK    4  A    between atoms: C5_8  and  C6_11 
REMARK    5  A    between atoms: C6_11  and  O4_12 
ROOT
HETATM    1  C2  UNL     1      -1.490   0.013  -0.013  1.00  0.00     0.157 C 
HETATM    2  C3  UNL     1      -0.739  -0.653   1.097  1.00  0.00     0.069 C 
HETATM    3  C4  UNL     1       0.684  -0.988   0.767  1.00  0.00     0.158 C 
HETATM    4  C5  UNL     1       1.566   0.152   0.490  1.00  0.00     0.118 C 
HETATM    5  C7  UNL     1       1.051   1.318  -0.216  1.00  0.00     0.138 C 
HETATM    6  C8  UNL     1      -0.031   1.927   0.646  1.00  0.00     0.166 C 
HETATM    7  O5  UNL     1       0.046   2.565   1.678  1.00  0.00    -0.295 OA
HETATM    8  C9  UNL     1      -1.021   1.401  -0.301  1.00  0.00     0.159 C 
HETATM    9 CL1  UNL     1      -2.297   2.518  -0.788  1.00  0.00    -0.104 Cl
HETATM   10  C10 UNL     1       0.129   1.287  -1.313  1.00  0.00     0.157 C 
HETATM   11 CL2  UNL     1       0.007  -0.006  -2.443  1.00  0.00    -0.098 Cl
HETATM   12 CL3  UNL     1       0.141   2.855  -2.218  1.00  0.00    -0.098 Cl
ENDROOT
BRANCH   4  13
HETATM   13  O3  UNL     1       1.987   0.656   1.760  1.00  0.00    -0.384 OA
ATOM     14  H3  UNL     1       2.558   1.394   1.581  1.00  0.00     0.210 HD
ENDBRANCH   4  13
BRANCH   4  15
HETATM   15  C6  UNL     1       2.881  -0.395  -0.083  1.00  0.00     0.205 C 
BRANCH  15  16
HETATM   16  O4  UNL     1       2.752  -0.947  -1.322  1.00  0.00    -0.398 OA
ATOM     17  H4  UNL     1       3.566  -1.285  -1.677  1.00  0.00     0.209 HD
ENDBRANCH  15  16
ENDBRANCH   4  15
BRANCH   3  18
HETATM   18  O2  UNL     1       0.750  -2.022  -0.197  1.00  0.00    -0.392 OA
ATOM     19  H2  UNL     1       1.652  -2.234  -0.406  1.00  0.00     0.210 HD
ENDBRANCH   3  18
BRANCH   1  20
HETATM   20  O1  UNL     1      -2.840   0.044   0.364  1.00  0.00    -0.388 OA
HETATM   21  C1  UNL     1      -3.632  -0.750  -0.457  1.00  0.00     0.202 C 
ENDBRANCH   1  20
TORSDOF 5
