REMARK  4 active torsions:
REMARK  status: ('A' for Active; 'I' for Inactive)
REMARK    1  A    between atoms: C3_5  and  C4_6 
REMARK    2  A    between atoms: C6_10  and  C7_12 
REMARK    3  A    between atoms: C8_15  and  O4_16 
REMARK    4  A    between atoms: C9_18  and  O5_19 
ROOT
HETATM    1  C1  UNL     1      -3.133   0.177   0.288  1.00  0.00     0.313 C 
HETATM    2  N1  UNL     1      -2.007  -0.567  -0.108  1.00  0.00     0.117 N 
HETATM    3  C2  UNL     1      -1.433  -1.430   0.869  1.00  0.00     0.441 C 
HETATM    4  O1  UNL     1      -0.072  -1.551   0.595  1.00  0.00    -0.346 OA
HETATM    5  C3  UNL     1       0.153  -0.893  -0.615  1.00  0.00     0.130 C 
HETATM    6  C5  UNL     1       1.539  -0.444  -0.823  1.00  0.00     0.101 C 
HETATM    7  C6  UNL     1       1.972   0.753  -0.062  1.00  0.00     0.221 C 
HETATM    8  F1  UNL     1       2.974   1.385  -0.813  1.00  0.00    -0.228 F 
HETATM    9  C8  UNL     1       0.896   1.782   0.151  1.00  0.00     0.200 C 
HETATM   10  C9  UNL     1      -0.384   1.124   0.626  1.00  0.00     0.187 C 
HETATM   11  C10 UNL     1      -0.859   0.233  -0.510  1.00  0.00     0.293 C 
ENDROOT
BRANCH   7  12
HETATM   12  C7  UNL     1       2.608   0.341   1.206  1.00  0.00     0.217 C 
HETATM   13  O2  UNL     1       2.164   0.690   2.322  1.00  0.00    -0.645 OA
HETATM   14  O3  UNL     1       3.730  -0.456   1.157  1.00  0.00    -0.645 OA
ENDBRANCH   7  12
BRANCH   9  15
HETATM   15  O4  UNL     1       0.629   2.411  -1.054  1.00  0.00    -0.389 OA
ATOM     16  H4  UNL     1      -0.051   3.061  -0.919  1.00  0.00     0.210 HD
ENDBRANCH   9  15
BRANCH   5  17
HETATM   17  C4  UNL     1      -0.291  -1.830  -1.713  1.00  0.00     0.215 C 
HETATM   18 CL1  UNL     1       0.658  -3.343  -1.633  1.00  0.00    -0.105 Cl
HETATM   19 CL2  UNL     1      -0.203  -1.086  -3.308  1.00  0.00    -0.105 Cl
ENDBRANCH   5  17
BRANCH  10  20
HETATM   20  O5  UNL     1      -1.323   2.036   1.029  1.00  0.00    -0.391 OA
ATOM     21  H5  UNL     1      -2.125   1.624   1.327  1.00  0.00     0.210 HD
ENDBRANCH  10  20
TORSDOF 4
