REMARK  14 active torsions:
REMARK  status: ('A' for Active; 'I' for Inactive)
REMARK    1  A    between atoms: N1_1  and  C1_4 
REMARK    2  A    between atoms: C2_7  and  N3_8 
REMARK    3  A    between atoms: C3_13  and  N5_14 
REMARK    4  A    between atoms: N5_14  and  C4_16 
REMARK    5  A    between atoms: C4_16  and  C5_17 
REMARK    6  A    between atoms: C5_17  and  O1_18 
REMARK    7  A    between atoms: O1_18  and  C6_19 
REMARK    8  A    between atoms: C9_22  and  O2_23 
REMARK    9  A    between atoms: C10_25  and  C11_26 
REMARK   10  A    between atoms: C11_26  and  N6_27 
REMARK   11  A    between atoms: C13_31  and  C14_32 
REMARK   12  A    between atoms: C14_32  and  N8_33 
REMARK   13  A    between atoms: C14_32  and  N9_37 
REMARK   14  A    between atoms: C16_42  and  N10_43 
ROOT
HETATM    1  C6  UNL     1      -0.463  -1.614  -0.382  1.00  0.00     0.143 C 
HETATM    2  C7  UNL     1       0.171  -2.769  -0.813  1.00  0.00     0.059 C 
HETATM    3  C8  UNL     1       1.326  -2.852  -1.565  1.00  0.00     0.041 C 
HETATM    4  C9  UNL     1       2.036  -1.841  -2.202  1.00  0.00     0.077 C 
HETATM    5  C10 UNL     1       2.033  -0.521  -1.835  1.00  0.00     0.037 C 
HETATM    6  C16 UNL     1       1.050   0.179  -1.127  1.00  0.00     0.111 C 
HETATM    7  N11 UNL     1       0.032  -0.368  -0.427  1.00  0.00    -0.323 N 
ATOM      8  H11 UNL     1      -0.452   0.291   0.183  1.00  0.00     0.169 HD
ENDROOT
BRANCH   1   9
HETATM    9  O1  UNL     1      -1.721  -1.791   0.139  1.00  0.00    -0.334 OA
BRANCH   9  10
HETATM   10  C5  UNL     1      -2.541  -0.762   0.635  1.00  0.00     0.197 C 
BRANCH  10  11
HETATM   11  C4  UNL     1      -3.858  -1.327   1.130  1.00  0.00     0.164 C 
BRANCH  11  12
HETATM   12  N5  UNL     1      -4.740  -0.332   1.650  1.00  0.00    -0.223 N 
ATOM     13  H5  UNL     1      -4.685  -0.154   2.653  1.00  0.00     0.177 HD
BRANCH  12  14
HETATM   14  C3  UNL     1      -5.591   0.360   0.993  1.00  0.00     0.707 A 
HETATM   15  N4  UNL     1      -5.736   0.192  -0.355  1.00  0.00    -0.022 N 
HETATM   16  C2  UNL     1      -6.635   0.922  -1.044  1.00  0.00     0.705 A 
ATOM     17  H4  UNL     1      -5.159  -0.492  -0.844  1.00  0.00     0.203 HD
HETATM   18  N2  UNL     1      -7.403   1.823  -0.433  1.00  0.00    -0.022 N 
HETATM   19  C1  UNL     1      -7.275   2.008   0.912  1.00  0.00     0.705 A 
ATOM     20  H2  UNL     1      -8.080   2.369  -0.966  1.00  0.00     0.203 HD
HETATM   21  N12 UNL     1      -6.380   1.279   1.590  1.00  0.00    -0.022 N 
ATOM     22  H12 UNL     1      -6.291   1.423   2.596  1.00  0.00     0.203 HD
BRANCH  16  23
HETATM   23  N3  UNL     1      -6.734   0.723  -2.333  1.00  0.00    -0.234 N 
ATOM     24  H32 UNL     1      -7.414   1.276  -2.855  1.00  0.00     0.174 HD
ATOM     25  H31 UNL     1      -6.146   0.033  -2.801  1.00  0.00     0.174 HD
ENDBRANCH  16  23
BRANCH  19  26
HETATM   26  N1  UNL     1      -8.033   2.888   1.476  1.00  0.00    -0.234 N 
ATOM     27  H12 UNL     1      -8.715   3.443   0.959  1.00  0.00     0.174 HD
ATOM     28  H11 UNL     1      -7.937   3.026   2.482  1.00  0.00     0.174 HD
ENDBRANCH  19  26
ENDBRANCH  12  14
ENDBRANCH  11  12
ENDBRANCH  10  11
ENDBRANCH   9  10
ENDBRANCH   1   9
BRANCH   6  29
HETATM   29  N10 UNL     1       1.149   1.451  -1.165  1.00  0.00    -0.385 N 
ATOM     30 2H10 UNL     1       1.918   1.864  -1.693  1.00  0.00     0.157 HD
ATOM     31 1H10 UNL     1       0.432   1.961  -0.649  1.00  0.00     0.157 HD
ENDBRANCH   6  29
BRANCH   4  32
HETATM   32  O2  UNL     1       2.800  -2.183  -3.284  1.00  0.00    -0.360 OA
ATOM     33  H2  UNL     1       3.285  -1.492  -3.719  1.00  0.00     0.217 HD
ENDBRANCH   4  32
BRANCH   5  34
HETATM   34  C11 UNL     1       3.191   0.289  -2.212  1.00  0.00     0.174 C 
BRANCH  34  35
HETATM   35  N6  UNL     1       4.332   0.038  -1.338  1.00  0.00    -0.347 N 
HETATM   36  C12 UNL     1       5.326  -0.851  -1.451  1.00  0.00     0.183 A 
HETATM   37  N7  UNL     1       6.179  -0.734  -0.403  1.00  0.00    -0.351 N 
HETATM   38  C13 UNL     1       5.741   0.241   0.407  1.00  0.00     0.083 A 
ATOM     39  H7  UNL     1       7.017  -1.296  -0.255  1.00  0.00     0.166 HD
HETATM   40  C15 UNL     1       4.591   0.720  -0.177  1.00  0.00     0.121 A 
BRANCH  38  41
HETATM   41  C14 UNL     1       6.365   0.723   1.688  1.00  0.00     0.428 C 
BRANCH  41  42
HETATM   42  N8  UNL     1       6.358   2.182   1.662  1.00  0.00    -0.045 N 
ATOM     43  H83 UNL     1       6.809   2.566   0.832  1.00  0.00     0.277 HD
ATOM     44  H82 UNL     1       5.429   2.571   1.502  1.00  0.00     0.277 HD
ATOM     45  H81 UNL     1       6.781   2.509   2.531  1.00  0.00     0.277 HD
ENDBRANCH  41  42
BRANCH  41  46
HETATM   46  N9  UNL     1       7.779   0.334   1.628  1.00  0.00    -0.045 N 
ATOM     47  H93 UNL     1       7.919  -0.662   1.459  1.00  0.00     0.277 HD
ATOM     48  H92 UNL     1       8.257   0.671   0.792  1.00  0.00     0.277 HD
ATOM     49  H91 UNL     1       8.202   0.661   2.497  1.00  0.00     0.277 HD
ENDBRANCH  41  46
ENDBRANCH  38  41
ENDBRANCH  34  35
ENDBRANCH   5  34
TORSDOF 14
