REMARK  17 active torsions:
REMARK  status: ('A' for Active; 'I' for Inactive)
REMARK    1  A    between atoms: C2_2  and  O1_3 
REMARK    2  A    between atoms: O1_3  and  C3_4 
REMARK       I    between atoms: C3_4  and  N1_6 
REMARK    3  A    between atoms: N1_6  and  C4_8 
REMARK    4  A    between atoms: C4_8  and  C5_9 
REMARK    5  A    between atoms: C5_9  and  C6_10 
REMARK    6  A    between atoms: C6_10  and  C7_11 
REMARK    7  A    between atoms: C7_11  and  N2_12 
REMARK       I    between atoms: N2_12  and  C8_14 
REMARK    8  A    between atoms: C8_14  and  C9_16 
REMARK    9  A    between atoms: C9_16  and  C10_17 
REMARK   10  A    between atoms: C10_17  and  C11_18 
REMARK   11  A    between atoms: C11_18  and  C12_19 
REMARK   12  A    between atoms: C12_19  and  C13_20 
REMARK   13  A    between atoms: C13_20  and  N3_21 
REMARK   14  A    between atoms: N4_24  and  C15_25 
REMARK   15  A    between atoms: C15_25  and  C16_26 
REMARK   16  A    between atoms: C16_26  and  O4_27 
REMARK   17  A    between atoms: C16_26  and  N5_29 
ROOT
HETATM    1  N3  UNL     1      -2.246   2.183   0.191  1.00  0.00    -0.348 N 
HETATM    2  C14 UNL     1      -1.963   0.796   0.158  1.00  0.00     0.176 C 
HETATM    3  S1  UNL     1      -0.509   0.055   0.139  1.00  0.00    -0.040 SA
HETATM    4  N4  UNL     1      -3.239   0.052   0.140  1.00  0.00    -0.328 N 
HETATM    5  C22 UNL     1      -4.096   0.943   0.878  1.00  0.00     0.161 C 
HETATM    6  C23 UNL     1      -3.591   2.359   0.614  1.00  0.00     0.044 C 
HETATM    7  C24 UNL     1      -3.765   3.131   1.897  1.00  0.00     0.040 C 
HETATM    8  C25 UNL     1      -4.491   2.943  -0.468  1.00  0.00     0.040 C 
ENDROOT
BRANCH   1   9
HETATM    9  C13 UNL     1      -1.235   3.175  -0.170  1.00  0.00     0.126 C 
BRANCH   9  10
HETATM   10  C12 UNL     1      -0.777   3.981   0.987  1.00  0.00     0.020 C 
BRANCH  10  11
HETATM   11  C11 UNL     1       0.287   4.949   0.449  1.00  0.00     0.002 C 
BRANCH  11  12
HETATM   12  C10 UNL     1       1.450   4.174  -0.136  1.00  0.00     0.009 C 
BRANCH  12  13
HETATM   13  C9  UNL     1       2.106   3.291   0.872  1.00  0.00     0.103 C 
BRANCH  13  14
HETATM   14  C8  UNL     1       3.203   2.520   0.199  1.00  0.00     0.217 C 
HETATM   15  N2  UNL     1       4.027   1.659   0.975  1.00  0.00    -0.361 N 
ATOM     16  H2  UNL     1       3.860   1.607   1.980  1.00  0.00     0.162 HD
HETATM   17  O3  UNL     1       3.404   2.616  -1.025  1.00  0.00    -0.274 OA
BRANCH  15  18
HETATM   18  C7  UNL     1       5.082   0.859   0.418  1.00  0.00     0.122 C 
BRANCH  18  19
HETATM   19  C6  UNL     1       4.517  -0.138  -0.533  1.00  0.00     0.021 C 
BRANCH  19  20
HETATM   20  C5  UNL     1       5.565  -1.047  -1.157  1.00  0.00     0.021 C 
BRANCH  20  21
HETATM   21  C4  UNL     1       6.585  -0.267  -1.930  1.00  0.00     0.125 C 
BRANCH  21  22
HETATM   22  N1  UNL     1       7.548  -1.127  -2.536  1.00  0.00    -0.337 N 
HETATM   23  C3  UNL     1       8.381  -1.971  -1.763  1.00  0.00     0.360 C 
HETATM   24  O2  UNL     1       8.384  -2.052  -0.519  1.00  0.00    -0.239 OA
ATOM     25  H1  UNL     1       7.639  -1.134  -3.552  1.00  0.00     0.164 HD
BRANCH  23  26
HETATM   26  O1  UNL     1       9.300  -2.804  -2.435  1.00  0.00    -0.304 OA
BRANCH  26  27
HETATM   27  C2  UNL     1      10.173  -3.683  -1.736  1.00  0.00     0.176 C 
HETATM   28  C1  UNL     1      10.979  -4.425  -2.794  1.00  0.00     0.034 C 
ENDBRANCH  26  27
ENDBRANCH  23  26
ENDBRANCH  21  22
ENDBRANCH  20  21
ENDBRANCH  19  20
ENDBRANCH  18  19
ENDBRANCH  15  18
ENDBRANCH  13  14
ENDBRANCH  12  13
ENDBRANCH  11  12
ENDBRANCH  10  11
ENDBRANCH   9  10
ENDBRANCH   1   9
BRANCH   4  29
HETATM   29  C15 UNL     1      -3.422  -1.165  -0.557  1.00  0.00     0.149 C 
BRANCH  29  30
HETATM   30  C16 UNL     1      -4.433  -2.116  -0.402  1.00  0.00     0.154 C 
BRANCH  30  31
HETATM   31  O4  UNL     1      -4.325  -3.049  -1.411  1.00  0.00    -0.345 OA
ATOM     32  H4  UNL     1      -5.013  -3.696  -1.306  1.00  0.00     0.219 HD
ENDBRANCH  30  31
BRANCH  30  33
HETATM   33  N5  UNL     1      -5.480  -2.431   0.402  1.00  0.00    -0.359 N 
HETATM   34  C17 UNL     1      -6.377  -3.519  -0.113  1.00  0.00     0.126 C 
HETATM   35  C18 UNL     1      -7.805  -3.094   0.138  1.00  0.00     0.047 C 
HETATM   36  C19 UNL     1      -8.319  -3.595   1.460  1.00  0.00     0.234 C 
HETATM   37  N6  UNL     1      -7.780  -2.760   2.527  1.00  0.00    -0.074 N 
HETATM   38  C20 UNL     1      -6.346  -2.901   2.587  1.00  0.00     0.252 C 
ATOM     39  H62 UNL     1      -8.065  -1.785   2.430  1.00  0.00     0.277 HD
ATOM     40  H61 UNL     1      -8.221  -2.956   3.426  1.00  0.00     0.277 HD
HETATM   41  C21 UNL     1      -5.665  -1.852   1.698  1.00  0.00     0.152 C 
ENDBRANCH  30  33
ENDBRANCH  29  30
ENDBRANCH   4  29
TORSDOF 17
