REMARK  6 active torsions:
REMARK  status: ('A' for Active; 'I' for Inactive)
REMARK    1  A    between atoms: C2_2  and  C3_3 
REMARK    2  A    between atoms: N1_5  and  C5_6 
REMARK    3  A    between atoms: C8_9  and  C9_10 
REMARK    4  A    between atoms: C9_10  and  N2_11 
REMARK       I    between atoms: N2_11  and  C10_13 
REMARK    5  A    between atoms: C10_13  and  C11_15 
REMARK    6  A    between atoms: C17_24  and  O2_25 
ROOT
HETATM    1  C5  UNL     1      -2.102   0.351  -0.066  1.00  0.00     0.119 C 
HETATM    2  C6  UNL     1      -2.219   1.862  -0.297  1.00  0.00     0.029 C 
HETATM    3  C7  UNL     1      -0.938   2.284  -0.922  1.00  0.00     0.008 C 
HETATM    4  C8  UNL     1       0.278   1.521  -0.552  1.00  0.00     0.006 C 
HETATM    5  C16 UNL     1       0.208   0.709   0.697  1.00  0.00     0.040 C 
HETATM    6  C17 UNL     1      -1.127   0.217   1.083  1.00  0.00     0.142 C 
ENDROOT
BRANCH   4   7
HETATM    7  C9  UNL     1       1.444   2.487  -0.552  1.00  0.00     0.127 C 
BRANCH   7   8
HETATM    8  N2  UNL     1       2.700   1.911  -0.210  1.00  0.00    -0.360 N 
HETATM    9  C10 UNL     1       3.327   0.881  -0.917  1.00  0.00     0.223 C 
HETATM   10  O1  UNL     1       2.800   0.381  -1.942  1.00  0.00    -0.273 OA
ATOM     11  H2  UNL     1       3.178   2.277   0.613  1.00  0.00     0.162 HD
BRANCH   9  12
HETATM   12  C11 UNL     1       4.638   0.330  -0.496  1.00  0.00     0.103 C 
HETATM   13  C12 UNL     1       4.565  -0.261   0.897  1.00  0.00     0.017 C 
HETATM   14  C13 UNL     1       5.876  -0.826   1.306  1.00  0.00     0.028 C 
HETATM   15  C14 UNL     1       6.594  -1.604   0.264  1.00  0.00     0.232 C 
HETATM   16  N3  UNL     1       6.458  -1.096  -1.070  1.00  0.00    -0.074 N 
HETATM   17  C15 UNL     1       5.086  -0.786  -1.413  1.00  0.00     0.246 C 
ATOM     18  H32 UNL     1       7.063  -0.288  -1.217  1.00  0.00     0.277 HD
ATOM     19  H31 UNL     1       6.869  -1.737  -1.749  1.00  0.00     0.277 HD
ENDBRANCH   9  12
ENDBRANCH   7   8
ENDBRANCH   4   7
BRANCH   6  20
HETATM   20  O2  UNL     1      -1.037  -1.081   1.556  1.00  0.00    -0.393 OA
ATOM     21  H2  UNL     1      -0.425  -1.165   2.278  1.00  0.00     0.210 HD
ENDBRANCH   6  20
BRANCH   1  22
HETATM   22  N1  UNL     1      -3.363  -0.253   0.185  1.00  0.00    -0.338 N 
HETATM   23  C4  UNL     1      -3.868  -0.610   1.371  1.00  0.00     0.117 A 
HETATM   24  C3  UNL     1      -5.110  -1.158   1.180  1.00  0.00     0.025 A 
HETATM   25  N4  UNL     1      -5.364  -1.132  -0.156  1.00  0.00    -0.348 N 
HETATM   26  C18 UNL     1      -4.273  -0.569  -0.752  1.00  0.00     0.080 A 
ATOM     27  H4  UNL     1      -6.207  -1.468  -0.622  1.00  0.00     0.167 HD
HETATM   28  C19 UNL     1      -4.178  -0.370  -2.224  1.00  0.00     0.089 C 
BRANCH  24  29
HETATM   29  C2  UNL     1      -6.014  -1.685   2.247  1.00  0.00     0.054 C 
HETATM   30  C1  UNL     1      -7.277  -2.193   1.607  1.00  0.00     0.011 C 
ENDBRANCH  24  29
ENDBRANCH   1  22
TORSDOF 6
