REMARK  6 active torsions:
REMARK  status: ('A' for Active; 'I' for Inactive)
REMARK    1  A    between atoms: C2_2  and  N1_3 
REMARK    2  A    between atoms: N1_3  and  C3_5 
REMARK    3  A    between atoms: C6_10  and  S1_11 
REMARK    4  A    between atoms: S1_11  and  S2_12 
REMARK    5  A    between atoms: S2_12  and  C7_13 
REMARK    6  A    between atoms: C11_18  and  O2_19 
ROOT
HETATM    1  C3  UNL     1       3.030   0.395  -0.707  1.00  0.00     0.145 A 
HETATM    2  N2  UNL     1       1.924   1.009  -1.119  1.00  0.00    -0.339 N 
ATOM      3  H2  UNL     1       1.921   2.014  -1.291  1.00  0.00     0.168 HD
HETATM    4  C4  UNL     1       0.844   0.302  -1.299  1.00  0.00     0.032 A 
HETATM    5  C5  UNL     1      -0.461   0.923  -1.770  1.00  0.00     0.070 C 
HETATM    6  C6  UNL     1       0.907  -1.042  -1.053  1.00  0.00     0.078 A 
HETATM    7  S3  UNL     1       2.542  -1.231  -0.566  1.00  0.00    -0.044 SA
ENDROOT
BRANCH   6   8
HETATM    8  S1  UNL     1      -0.382  -2.301  -1.191  1.00  0.00    -0.041 SA
BRANCH   8   9
HETATM    9  S2  UNL     1      -1.350  -2.429   0.692  1.00  0.00    -0.024 SA
BRANCH   9  10
HETATM   10  C7  UNL     1      -2.705  -1.283   0.673  1.00  0.00     0.156 A 
HETATM   11  O1  UNL     1      -2.767  -0.022   1.016  1.00  0.00    -0.305 OA
HETATM   12  C8  UNL     1      -3.973   0.456   0.844  1.00  0.00     0.053 A 
HETATM   13  C9  UNL     1      -4.418   1.840   1.125  1.00  0.00     0.077 C 
HETATM   14  C10 UNL     1      -4.770  -0.556   0.351  1.00  0.00     0.072 A 
HETATM   15  C11 UNL     1      -3.980  -1.668   0.236  1.00  0.00     0.109 A 
BRANCH  15  16
HETATM   16  O2  UNL     1      -4.395  -2.889  -0.218  1.00  0.00    -0.357 OA
ATOM     17  H2  UNL     1      -5.259  -3.150  -0.514  1.00  0.00     0.217 HD
ENDBRANCH  15  16
ENDBRANCH   9  10
ENDBRANCH   8   9
ENDBRANCH   6   8
BRANCH   1  18
HETATM   18  N1  UNL     1       4.217   0.894  -0.463  1.00  0.00    -0.371 N 
ATOM     19  H1  UNL     1       4.400   1.890  -0.582  1.00  0.00     0.161 HD
BRANCH  18  20
HETATM   20  C2  UNL     1       5.272  -0.015  -0.015  1.00  0.00     0.117 C 
HETATM   21  C1  UNL     1       5.652   0.216   1.417  1.00  0.00     0.026 C 
ENDBRANCH  18  20
ENDBRANCH   1  18
TORSDOF 6
