REMARK  6 active torsions:
REMARK  status: ('A' for Active; 'I' for Inactive)
REMARK    1  A    between atoms: C2_2  and  O1_3 
REMARK    2  A    between atoms: C2_2  and  C16_24 
REMARK    3  A    between atoms: O1_3  and  C3_4 
REMARK    4  A    between atoms: C5_7  and  O2_8 
REMARK    5  A    between atoms: C8_13  and  C9_14 
REMARK    6  A    between atoms: C9_14  and  C10_16 
ROOT
HETATM    1  C3  UNL     1      -1.394   1.363  -0.647  1.00  0.00     0.123 A 
HETATM    2  C4  UNL     1      -1.792   2.653  -0.962  1.00  0.00     0.183 A 
HETATM    3  F1  UNL     1      -2.981   2.916  -1.561  1.00  0.00    -0.200 F 
HETATM    4  C5  UNL     1      -0.925   3.673  -0.639  1.00  0.00     0.109 A 
HETATM    5  C6  UNL     1       0.282   3.429  -0.034  1.00  0.00     0.078 A 
HETATM    6  C7  UNL     1       0.668   2.141   0.274  1.00  0.00     0.092 A 
HETATM    7  O3  UNL     1       1.741   1.643   0.839  1.00  0.00    -0.306 OA
HETATM    8  C8  UNL     1       1.696   0.345   0.938  1.00  0.00     0.128 A 
HETATM    9  C14 UNL     1       0.480  -0.038   0.387  1.00  0.00     0.058 A 
HETATM   10  C15 UNL     1      -0.189   1.088  -0.040  1.00  0.00     0.037 A 
ENDROOT
BRANCH   8  11
HETATM   11  C9  UNL     1       2.737  -0.506   1.522  1.00  0.00     0.218 C 
HETATM   12  O4  UNL     1       2.861  -0.622   2.763  1.00  0.00    -0.284 OA
BRANCH  11  13
HETATM   13  C10 UNL     1       3.648  -1.230   0.587  1.00  0.00     0.049 A 
HETATM   14  C11 UNL     1       3.590  -1.118  -0.747  1.00  0.00     0.025 A 
HETATM   15  C12 UNL     1       4.499  -1.823  -1.485  1.00  0.00     0.052 A 
HETATM   16  S1  UNL     1       5.414  -2.628  -0.304  1.00  0.00    -0.086 SA
HETATM   17  C13 UNL     1       4.626  -2.054   1.097  1.00  0.00     0.101 A 
HETATM   18  N1  UNL     1       4.905  -2.359   2.481  1.00  0.00    -0.093 NA
ENDBRANCH  11  13
ENDBRANCH   8  11
BRANCH   1  19
HETATM   19  O1  UNL     1      -2.237   0.322  -0.955  1.00  0.00    -0.341 OA
BRANCH  19  20
HETATM   20  C2  UNL     1      -3.241  -0.163  -0.093  1.00  0.00     0.139 C 
HETATM   21  C1  UNL     1      -4.626   0.015  -0.651  1.00  0.00     0.041 C 
BRANCH  20  22
HETATM   22  C16 UNL     1      -2.957  -1.607   0.213  1.00  0.00     0.085 A 
HETATM   23  C17 UNL     1      -3.006  -2.641  -0.886  1.00  0.00     0.092 A 
HETATM   24  S2  UNL     1      -4.380  -2.732   0.250  1.00  0.00    -0.160 SA
ENDBRANCH  20  22
ENDBRANCH  19  20
ENDBRANCH   1  19
BRANCH   4  25
HETATM   25  O2  UNL     1      -1.276   4.969  -0.931  1.00  0.00    -0.357 OA
ATOM     26  H2  UNL     1      -0.678   5.673  -0.708  1.00  0.00     0.217 HD
ENDBRANCH   4  25
TORSDOF 6
