REMARK  6 active torsions:
REMARK  status: ('A' for Active; 'I' for Inactive)
REMARK    1  A    between atoms: C5_6  and  C6_7 
REMARK    2  A    between atoms: C7_8  and  C8_9 
REMARK    3  A    between atoms: C10_12  and  O3_13 
REMARK    4  A    between atoms: C12_17  and  O5_18 
REMARK    5  A    between atoms: O5_18  and  C13_19 
REMARK    6  A    between atoms: C16_23  and  O7_24 
ROOT
HETATM    1  C8  UNL     1       0.851   0.965  -0.489  1.00  0.00     0.096 C 
HETATM    2  C9  UNL     1       0.647   2.431  -0.264  1.00  0.00     0.166 C 
HETATM    3  O2  UNL     1       1.444   3.301  -0.036  1.00  0.00    -0.294 OA
HETATM    4  C10 UNL     1      -0.823   2.639  -0.381  1.00  0.00     0.218 C 
HETATM    5  C11 UNL     1      -1.403   1.401   0.271  1.00  0.00     0.177 C 
HETATM    6  O4  UNL     1      -2.609   1.124  -0.369  1.00  0.00    -0.330 OA
HETATM    7  C12 UNL     1      -3.021  -0.175  -0.086  1.00  0.00     0.416 C 
HETATM    8  O6  UNL     1      -2.183  -1.136  -0.611  1.00  0.00    -0.308 OA
HETATM    9  C16 UNL     1      -0.923  -0.687  -0.918  1.00  0.00     0.274 C 
HETATM   10  C17 UNL     1      -0.382   0.318   0.071  1.00  0.00     0.049 C 
HETATM   11  C18 UNL     1      -0.073  -0.427   1.346  1.00  0.00     0.024 C 
ENDROOT
BRANCH   1  12
HETATM   12  C7  UNL     1       2.054   0.535   0.250  1.00  0.00    -0.017 C 
HETATM   13  C6  UNL     1       3.063  -0.094  -0.337  1.00  0.00    -0.019 C 
BRANCH  13  14
HETATM   14  C5  UNL     1       4.259  -0.522   0.397  1.00  0.00     0.062 C 
HETATM   15  C2  UNL     1       5.526  -0.005  -0.163  1.00  0.00    -0.056 C 
HETATM   16  C1  UNL     1       5.825   1.258  -0.366  1.00  0.00     0.017 C 
HETATM   17  C3  UNL     1       6.387  -1.170  -0.448  1.00  0.00     0.202 C 
HETATM   18  O1  UNL     1       5.487  -2.210  -0.623  1.00  0.00    -0.386 OA
HETATM   19  C4  UNL     1       4.494  -2.017   0.348  1.00  0.00     0.180 C 
ENDBRANCH  13  14
ENDBRANCH   1  12
BRANCH   4  20
HETATM   20  O3  UNL     1      -1.236   2.666  -1.714  1.00  0.00    -0.385 OA
ATOM     21  H3  UNL     1      -2.174   2.799  -1.789  1.00  0.00     0.210 HD
ENDBRANCH   4  20
BRANCH   9  22
HETATM   22  O7  UNL     1      -0.059  -1.793  -0.875  1.00  0.00    -0.370 OA
ATOM     23  H7  UNL     1       0.813  -1.482  -1.088  1.00  0.00     0.212 HD
ENDBRANCH   9  22
BRANCH   7  24
HETATM   24  O5  UNL     1      -4.297  -0.381  -0.558  1.00  0.00    -0.334 OA
BRANCH  24  25
HETATM   25  C13 UNL     1      -5.224  -0.595   0.456  1.00  0.00     0.118 C 
HETATM   26  C14 UNL     1      -5.966  -1.900   0.281  1.00  0.00     0.039 C 
HETATM   27  C15 UNL     1      -6.224   0.542   0.387  1.00  0.00     0.039 C 
ENDBRANCH  24  25
ENDBRANCH   7  24
TORSDOF 6
