REMARK  10 active torsions:
REMARK  status: ('A' for Active; 'I' for Inactive)
REMARK    1  A    between atoms: O1_2  and  C2_3 
REMARK    2  A    between atoms: C2_3  and  C3_5 
REMARK    3  A    between atoms: C3_5  and  O3_6 
REMARK    4  A    between atoms: C3_5  and  C4_8 
REMARK    5  A    between atoms: C3_5  and  O6_26 
REMARK    6  A    between atoms: C4_8  and  C5_9 
REMARK    7  A    between atoms: C5_9  and  N1_11 
REMARK    8  A    between atoms: C7_12  and  O4_13 
REMARK    9  A    between atoms: C9_16  and  N2_17 
REMARK   10  A    between atoms: C15_23  and  O5_24 
ROOT
HETATM    1  N1  UNL     1       0.008  -0.452  -0.273  1.00  0.00    -0.302 N 
HETATM    2  C7  UNL     1       0.241  -0.932  -1.511  1.00  0.00     0.146 A 
HETATM    3  C8  UNL     1       1.592  -0.768  -1.789  1.00  0.00     0.089 A 
HETATM    4  C9  UNL     1       2.190  -0.169  -0.684  1.00  0.00     0.086 A 
HETATM    5  C15 UNL     1       1.157  -0.002   0.215  1.00  0.00     0.172 A 
ENDROOT
BRANCH   1   6
HETATM    6  C5  UNL     1      -1.312  -0.457   0.361  1.00  0.00     0.096 C 
HETATM    7  C6  UNL     1      -1.899  -1.821   0.317  1.00  0.00     0.033 C 
BRANCH   6   8
HETATM    8  C4  UNL     1      -2.199   0.592  -0.161  1.00  0.00     0.105 C 
BRANCH   8   9
HETATM    9  C3  UNL     1      -3.500   0.858   0.470  1.00  0.00     0.254 C 
BRANCH   9  10
HETATM   10  C2  UNL     1      -4.516  -0.182   0.520  1.00  0.00     0.321 C 
HETATM   11  O2  UNL     1      -4.925  -0.703  -0.551  1.00  0.00    -0.259 OA
BRANCH  10  12
HETATM   12  O1  UNL     1      -5.097  -0.667   1.685  1.00  0.00    -0.322 OA
HETATM   13  C1  UNL     1      -6.075  -1.679   1.583  1.00  0.00     0.213 C 
ENDBRANCH  10  12
ENDBRANCH   9  10
BRANCH   9  14
HETATM   14  O3  UNL     1      -3.254   1.180   1.852  1.00  0.00    -0.358 OA
ATOM     15  H3  UNL     1      -2.591   1.859   1.819  1.00  0.00     0.213 HD
ENDBRANCH   9  14
BRANCH   9  16
HETATM   16  O6  UNL     1      -3.997   2.064  -0.026  1.00  0.00    -0.352 OA
HETATM   17  C16 UNL     1      -4.333   2.089  -1.339  1.00  0.00     0.206 C 
ENDBRANCH   9  16
ENDBRANCH   8   9
ENDBRANCH   6   8
ENDBRANCH   1   6
BRANCH   2  18
HETATM   18  O4  UNL     1      -0.677  -1.490  -2.364  1.00  0.00    -0.346 OA
ATOM     19  H4  UNL     1      -0.513  -1.828  -3.236  1.00  0.00     0.219 HD
ENDBRANCH   2  18
BRANCH   5  20
HETATM   20  O5  UNL     1       1.317   0.566   1.464  1.00  0.00    -0.344 OA
ATOM     21  H5  UNL     1       2.140   0.888   1.813  1.00  0.00     0.219 HD
ENDBRANCH   5  20
BRANCH   4  22
HETATM   22  N2  UNL     1       3.566   0.171  -0.564  1.00  0.00    -0.377 N 
HETATM   23  C10 UNL     1       4.066   1.488  -0.348  1.00  0.00     0.123 C 
HETATM   24  C11 UNL     1       4.834   1.516   0.933  1.00  0.00     0.020 C 
HETATM   25  C12 UNL     1       5.913   0.494   0.949  1.00  0.00     0.003 C 
HETATM   26  C13 UNL     1       5.919  -0.438  -0.219  1.00  0.00     0.020 C 
HETATM   27  C14 UNL     1       4.563  -0.884  -0.665  1.00  0.00     0.123 C 
ENDBRANCH   4  22
TORSDOF 10
