REMARK  11 active torsions:
REMARK  status: ('A' for Active; 'I' for Inactive)
REMARK    1  A    between atoms: C2_2  and  C3_3 
REMARK    2  A    between atoms: C3_3  and  C4_4 
REMARK    3  A    between atoms: C4_4  and  C5_5 
REMARK    4  A    between atoms: C9_9  and  C10_10 
REMARK       I    between atoms: C10_10  and  N1_12 
REMARK    5  A    between atoms: N1_12  and  C11_14 
REMARK    6  A    between atoms: C11_14  and  C12_15 
REMARK    7  A    between atoms: C11_14  and  C23_29 
REMARK       I    between atoms: C12_15  and  N2_17 
REMARK    8  A    between atoms: N3_20  and  C15_21 
REMARK       I    between atoms: N4_32  and  C26_33 
REMARK    9  A    between atoms: C26_33  and  C27_35 
REMARK   10  A    between atoms: C27_35  and  N5_36 
REMARK   11  A    between atoms: C27_35  and  C29_40 
ROOT
HETATM    1  C11 UNL     1      -0.007   0.172  -1.038  1.00  0.00     0.183 C 
ENDROOT
BRANCH   1   2
HETATM    2  N1  UNL     1      -0.924   1.274  -1.322  1.00  0.00    -0.347 N 
HETATM    3  C10 UNL     1      -1.990   1.757  -0.580  1.00  0.00     0.222 C 
HETATM    4  O1  UNL     1      -2.301   1.255   0.514  1.00  0.00    -0.273 OA
ATOM      5  H1  UNL     1      -0.753   1.762  -2.201  1.00  0.00     0.163 HD
BRANCH   3   6
HETATM    6  C9  UNL     1      -2.806   2.907  -1.077  1.00  0.00     0.082 C 
HETATM    7  C5  UNL     1      -3.916   3.368  -0.240  1.00  0.00    -0.001 C 
HETATM    8  C6  UNL     1      -3.587   4.660   0.410  1.00  0.00     0.005 C 
HETATM    9  C7  UNL     1      -2.155   4.958  -0.031  1.00  0.00     0.001 C 
HETATM   10  C8  UNL     1      -1.923   4.133  -1.255  1.00  0.00     0.014 C 
BRANCH   7  11
HETATM   11  C4  UNL     1      -4.635   2.360   0.592  1.00  0.00     0.009 C 
BRANCH  11  12
HETATM   12  C3  UNL     1      -6.008   2.767   1.048  1.00  0.00     0.027 C 
BRANCH  12  13
HETATM   13  C2  UNL     1      -6.106   3.957   1.894  1.00  0.00    -0.037 C 
HETATM   14  C1  UNL     1      -6.876   4.978   1.560  1.00  0.00     0.007 C 
ENDBRANCH  12  13
ENDBRANCH  11  12
ENDBRANCH   7  11
ENDBRANCH   3   6
ENDBRANCH   1   2
BRANCH   1  15
HETATM   15  C12 UNL     1       0.862   0.693   0.047  1.00  0.00     0.243 C 
HETATM   16  O2  UNL     1       0.460   1.777   0.619  1.00  0.00    -0.271 OA
HETATM   17  N2  UNL     1       2.063   0.180   0.542  1.00  0.00    -0.344 N 
HETATM   18  C13 UNL     1       2.687   0.880   1.679  1.00  0.00     0.146 C 
HETATM   19  C22 UNL     1       2.692  -0.950  -0.056  1.00  0.00     0.170 C 
HETATM   20  C14 UNL     1       4.190   0.919   1.501  1.00  0.00     0.142 C 
HETATM   21  N3  UNL     1       4.607   0.423   0.232  1.00  0.00    -0.386 N 
HETATM   22  C21 UNL     1       4.205  -0.868  -0.119  1.00  0.00     0.078 C 
BRANCH  21  23
HETATM   23  C15 UNL     1       5.829   0.925  -0.256  1.00  0.00     0.083 C 
HETATM   24  C16 UNL     1       6.951   0.519   0.709  1.00  0.00     0.025 C 
HETATM   25  C17 UNL     1       8.151   1.371   0.297  1.00  0.00     0.002 C 
HETATM   26  C18 UNL     1       8.597   0.865  -1.058  1.00  0.00     0.000 C 
HETATM   27  C19 UNL     1       7.510   1.104  -2.080  1.00  0.00     0.002 C 
HETATM   28  C20 UNL     1       6.189   0.475  -1.622  1.00  0.00     0.025 C 
ENDBRANCH  21  23
ENDBRANCH   1  15
BRANCH   1  29
HETATM   29  C23 UNL     1      -0.858  -0.939  -0.558  1.00  0.00     0.048 C 
HETATM   30  C24 UNL     1      -1.975  -1.374  -1.515  1.00  0.00     0.022 C 
HETATM   31  C25 UNL     1      -2.765  -2.202  -0.498  1.00  0.00     0.132 C 
HETATM   32  C31 UNL     1      -1.091  -2.407  -2.081  1.00  0.00    -0.021 C 
HETATM   33  N4  UNL     1      -1.664  -2.941   0.070  1.00  0.00    -0.344 N 
HETATM   34  C26 UNL     1      -1.536  -3.900   1.081  1.00  0.00     0.262 C 
HETATM   35  C30 UNL     1      -0.501  -2.375  -0.712  1.00  0.00     0.102 C 
HETATM   36  O3  UNL     1      -0.373  -4.351   1.348  1.00  0.00    -0.270 OA
HETATM   37  C32 UNL     1      -1.725  -3.769  -2.358  1.00  0.00     0.017 C 
HETATM   38  C33 UNL     1      -0.226  -2.055  -3.252  1.00  0.00     0.017 C 
BRANCH  34  39
HETATM   39  C27 UNL     1      -2.627  -4.460   1.904  1.00  0.00     0.376 C 
BRANCH  39  40
HETATM   40  N5  UNL     1      -2.043  -5.147   3.086  1.00  0.00    -0.056 N 
HETATM   41  C28 UNL     1      -3.173  -5.559   3.896  1.00  0.00     0.268 C 
ATOM     42  H52 UNL     1      -1.412  -5.911   2.845  1.00  0.00     0.278 HD
ATOM     43  H51 UNL     1      -1.361  -4.582   3.592  1.00  0.00     0.278 HD
ENDBRANCH  39  40
BRANCH  39  44
HETATM   44  C29 UNL     1      -3.459  -5.473   1.195  1.00  0.00     0.214 C 
HETATM   45  O4  UNL     1      -3.523  -6.677   1.632  1.00  0.00    -0.646 OA
HETATM   46  O5  UNL     1      -4.187  -5.214   0.073  1.00  0.00    -0.646 OA
ENDBRANCH  39  44
ENDBRANCH  34  39
ENDBRANCH   1  29
TORSDOF 11
