REMARK  10 active torsions:
REMARK  status: ('A' for Active; 'I' for Inactive)
REMARK    1  A    between atoms: N1_2  and  C3_4 
REMARK    2  A    between atoms: C3_4  and  C4_5 
REMARK       I    between atoms: C4_5  and  N2_7 
REMARK    3  A    between atoms: N2_7  and  N3_9 
REMARK    4  A    between atoms: C5_11  and  C6_12 
REMARK    5  A    between atoms: C7_17  and  N6_18 
REMARK    6  A    between atoms: N7_21  and  C10_22 
REMARK    7  A    between atoms: C11_23  and  O2_24 
REMARK    8  A    between atoms: C12_26  and  O3_27 
REMARK    9  A    between atoms: C14_31  and  O4_32 
REMARK   10  A    between atoms: C17_38  and  N10_39 
ROOT
HETATM    1  C6  UNL     1       2.628  -1.629   0.995  1.00  0.00     0.109 A 
HETATM    2  N4  UNL     1       2.812  -0.519   0.288  1.00  0.00    -0.281 N 
ATOM      3  H4  UNL     1       3.762  -0.230   0.055  1.00  0.00     0.187 HD
HETATM    4  N5  UNL     1       1.794   0.222  -0.122  1.00  0.00    -0.131 N 
ATOM      5  H5  UNL     1       1.976   1.068  -0.662  1.00  0.00     0.205 HD
HETATM    6  C7  UNL     1       0.537  -0.117   0.158  1.00  0.00     0.696 A 
HETATM    7  N9  UNL     1       0.325  -1.228   0.868  1.00  0.00    -0.173 N 
ATOM      8  H9  UNL     1      -0.634  -1.497   1.089  1.00  0.00     0.186 HD
HETATM    9  C17 UNL     1       1.329  -2.001   1.300  1.00  0.00     0.144 A 
ENDROOT
BRANCH   6  10
HETATM   10  N6  UNL     1      -0.532   0.688  -0.288  1.00  0.00    -0.213 N 
HETATM   11  C8  UNL     1      -1.126   1.730   0.511  1.00  0.00     0.161 C 
HETATM   12  C9  UNL     1      -2.617   1.706   0.506  1.00  0.00     0.143 C 
HETATM   13  N7  UNL     1      -3.228   0.715  -0.351  1.00  0.00    -0.372 N 
HETATM   14  C15 UNL     1      -2.538   0.012  -1.388  1.00  0.00     0.143 C 
HETATM   15  C16 UNL     1      -1.132   0.536  -1.619  1.00  0.00     0.161 C 
BRANCH  13  16
HETATM   16  C10 UNL     1      -4.639   0.467  -0.137  1.00  0.00     0.120 A 
HETATM   17  C11 UNL     1      -5.460  -0.458  -0.749  1.00  0.00     0.148 A 
HETATM   18  C12 UNL     1      -6.750  -0.250  -0.203  1.00  0.00     0.180 A 
HETATM   19  N8  UNL     1      -6.731   0.730   0.682  1.00  0.00    -0.309 N 
HETATM   20  C13 UNL     1      -7.874   1.237   1.459  1.00  0.00     0.161 C 
HETATM   21  C14 UNL     1      -5.467   1.170   0.731  1.00  0.00     0.174 A 
BRANCH  17  22
HETATM   22  O2  UNL     1      -5.177  -1.405  -1.684  1.00  0.00    -0.355 OA
ATOM     23  H2  UNL     1      -5.742  -2.042  -2.105  1.00  0.00     0.218 HD
ENDBRANCH  17  22
BRANCH  18  24
HETATM   24  O3  UNL     1      -7.838  -1.000  -0.584  1.00  0.00    -0.344 OA
ATOM     25  H3  UNL     1      -8.703  -0.860  -0.218  1.00  0.00     0.219 HD
ENDBRANCH  18  24
BRANCH  21  26
HETATM   26  O4  UNL     1      -5.089   2.219   1.580  1.00  0.00    -0.344 OA
ATOM     27  H4  UNL     1      -5.655   2.699   2.173  1.00  0.00     0.219 HD
ENDBRANCH  21  26
ENDBRANCH  13  16
ENDBRANCH   6  10
BRANCH   9  28
HETATM   28  N10 UNL     1       1.176  -3.073   1.983  1.00  0.00    -0.383 N 
ATOM     29 2H10 UNL     1       1.941  -3.662   2.312  1.00  0.00     0.157 HD
ATOM     30 1H10 UNL     1       0.219  -3.347   2.208  1.00  0.00     0.157 HD
ENDBRANCH   9  28
BRANCH   1  31
HETATM   31  C5  UNL     1       3.768  -2.404   1.422  1.00  0.00     0.142 C 
HETATM   32  N3  UNL     1       4.964  -2.124   1.174  1.00  0.00    -0.307 N 
ATOM     33  H3  UNL     1       5.646  -2.781   1.553  1.00  0.00     0.186 HD
BRANCH  32  34
HETATM   34  N2  UNL     1       5.506  -1.067   0.469  1.00  0.00    -0.269 N 
HETATM   35  C4  UNL     1       5.726  -1.182  -0.926  1.00  0.00     0.253 C 
HETATM   36  O1  UNL     1       5.373  -2.310  -1.442  1.00  0.00    -0.270 OA
ATOM     37  H2  UNL     1       5.748  -0.203   0.953  1.00  0.00     0.190 HD
BRANCH  35  38
HETATM   38  C3  UNL     1       6.306  -0.158  -1.798  1.00  0.00     0.220 C 
BRANCH  38  39
HETATM   39  N1  UNL     1       6.675   1.057  -1.172  1.00  0.00    -0.413 N 
HETATM   40  C1  UNL     1       5.587   1.844  -0.744  1.00  0.00     0.143 C 
HETATM   41  C2  UNL     1       7.782   0.912  -0.298  1.00  0.00     0.143 C 
ENDBRANCH  38  39
ENDBRANCH  35  38
ENDBRANCH  32  34
ENDBRANCH   1  31
TORSDOF 10
