REMARK  9 active torsions:
REMARK  status: ('A' for Active; 'I' for Inactive)
REMARK    1  A    between atoms: O1_2  and  C2_3 
REMARK    2  A    between atoms: C2_3  and  C3_5 
REMARK    3  A    between atoms: C3_5  and  O3_6 
REMARK    4  A    between atoms: C5_9  and  O5_10 
REMARK    5  A    between atoms: C5_9  and  C13_24 
REMARK    6  A    between atoms: O5_10  and  C6_11 
REMARK    7  A    between atoms: C8_13  and  C9_14 
REMARK    8  A    between atoms: N1_16  and  O6_18 
REMARK    9  A    between atoms: C17_35  and  O7_36 
ROOT
HETATM    1  C3  UNL     1      -2.342   0.132  -0.210  1.00  0.00     0.292 C 
HETATM    2  O4  UNL     1      -0.955   0.184  -0.365  1.00  0.00    -0.298 OA
HETATM    3  C5  UNL     1      -0.376   0.710   0.751  1.00  0.00     0.263 C 
HETATM    4  C14 UNL     1      -1.437   1.183   1.675  1.00  0.00     0.296 C 
HETATM    5  N5  UNL     1      -1.253   2.528   2.153  1.00  0.00    -0.062 N 
ATOM      6  H51 UNL     1      -0.279   2.830   2.122  1.00  0.00     0.277 HD
ATOM      7  H52 UNL     1      -1.388   2.612   3.160  1.00  0.00     0.277 HD
HETATM    8  C15 UNL     1      -2.127   3.384   1.399  1.00  0.00     0.236 C 
HETATM    9  C16 UNL     1      -2.656   2.576   0.235  1.00  0.00     0.074 C 
HETATM   10  C17 UNL     1      -2.682   1.183   0.822  1.00  0.00     0.162 C 
ENDROOT
BRANCH   3  11
HETATM   11  O5  UNL     1       0.351  -0.318   1.457  1.00  0.00    -0.289 OA
BRANCH  11  12
HETATM   12  C6  UNL     1       1.397  -0.998   0.849  1.00  0.00     0.138 C 
HETATM   13  C7  UNL     1       2.663  -0.815   1.179  1.00  0.00     0.039 C 
HETATM   14  C8  UNL     1       3.763  -1.556   0.512  1.00  0.00     0.061 C 
HETATM   15  C11 UNL     1       3.470  -1.812  -0.946  1.00  0.00     0.034 C 
HETATM   16  C12 UNL     1       2.050  -2.121  -1.251  1.00  0.00     0.122 C 
HETATM   17  N2  UNL     1       1.121  -1.939  -0.178  1.00  0.00    -0.371 N 
ATOM     18  H2  UNL     1       0.260  -2.485  -0.151  1.00  0.00     0.161 HD
BRANCH  14  19
HETATM   19  C9  UNL     1       5.011  -0.769   0.580  1.00  0.00     0.014 C 
HETATM   20  C10 UNL     1       6.277  -1.261  -0.005  1.00  0.00     0.066 C 
HETATM   21  N1  UNL     1       4.993   0.372   1.162  1.00  0.00    -0.277 N 
ATOM     22  H1  UNL     1       4.113   0.699   1.561  1.00  0.00     0.193 HD
BRANCH  21  23
HETATM   23  O6  UNL     1       6.088   1.169   1.275  1.00  0.00    -0.290 OA
ATOM     24  H6  UNL     1       6.075   2.015   1.707  1.00  0.00     0.244 HD
ENDBRANCH  21  23
ENDBRANCH  14  19
ENDBRANCH  11  12
ENDBRANCH   3  11
BRANCH   3  25
HETATM   25  C13 UNL     1       0.619   1.724   0.347  1.00  0.00     0.152 C 
HETATM   26  N3  UNL     1       0.876   1.926  -0.899  1.00  0.00    -0.387 N 
ATOM     27  H32 UNL     1       0.354   1.358  -1.566  1.00  0.00     0.157 HD
ATOM     28  H31 UNL     1       1.563   2.626  -1.178  1.00  0.00     0.157 HD
HETATM   29  N4  UNL     1       1.349   2.519   1.280  1.00  0.00    -0.082 NA
ENDBRANCH   3  25
BRANCH   1  30
HETATM   30  C2  UNL     1      -2.688  -1.192   0.318  1.00  0.00     0.325 C 
HETATM   31  O2  UNL     1      -2.221  -1.534   1.467  1.00  0.00    -0.259 OA
BRANCH  30  32
HETATM   32  O1  UNL     1      -3.473  -2.154  -0.269  1.00  0.00    -0.322 OA
HETATM   33  C1  UNL     1      -3.745  -3.404   0.328  1.00  0.00     0.213 C 
ENDBRANCH  30  32
ENDBRANCH   1  30
BRANCH   1  34
HETATM   34  O3  UNL     1      -2.887   0.470  -1.419  1.00  0.00    -0.350 OA
HETATM   35  C4  UNL     1      -2.571  -0.293  -2.499  1.00  0.00     0.206 C 
ENDBRANCH   1  34
BRANCH  10  36
HETATM   36  O7  UNL     1      -3.796   0.953   1.563  1.00  0.00    -0.376 OA
HETATM   37  C18 UNL     1      -4.997   0.876   0.927  1.00  0.00     0.202 C 
ENDBRANCH  10  36
TORSDOF 9
