REMARK  15 active torsions:
REMARK  status: ('A' for Active; 'I' for Inactive)
REMARK    1  A    between atoms: C4_7  and  C5_8 
REMARK    2  A    between atoms: C5_8  and  C6_9 
REMARK    3  A    between atoms: C6_9  and  C7_10 
REMARK    4  A    between atoms: N2_13  and  C9_14 
REMARK    5  A    between atoms: C9_14  and  C10_15 
REMARK    6  A    between atoms: C10_15  and  C13_18 
REMARK       I    between atoms: C13_18  and  N3_20 
REMARK    7  A    between atoms: N3_20  and  C14_22 
REMARK    8  A    between atoms: N4_29  and  C20_30 
REMARK    9  A    between atoms: C20_30  and  C21_31 
REMARK   10  A    between atoms: C21_31  and  C22_32 
REMARK   11  A    between atoms: C22_32  and  C23_33 
REMARK   12  A    between atoms: C23_33  and  N5_34 
REMARK       I    between atoms: N5_34  and  C24_36 
REMARK       I    between atoms: C24_36  and  N6_38 
REMARK   13  A    between atoms: N6_38  and  C25_40 
REMARK   14  A    between atoms: C25_40  and  C26_41 
REMARK   15  A    between atoms: C34_50  and  C35_51 
ROOT
HETATM    1  C1  UNL     1      -5.129   5.026   2.959  1.00  0.00     0.014 C 
HETATM    2  C2  UNL     1      -4.702   5.089   1.826  1.00  0.00    -0.084 C 
HETATM    3  C3  UNL     1      -4.187   5.166   0.461  1.00  0.00     0.267 C 
HETATM    4  N1  UNL     1      -3.119   4.220   0.335  1.00  0.00    -0.056 N 
ATOM      5  H11 UNL     1      -3.385   3.305   0.699  1.00  0.00     0.279 HD
ATOM      6  H12 UNL     1      -2.356   4.429   0.978  1.00  0.00     0.279 HD
HETATM    7  C4  UNL     1      -2.646   4.131  -1.049  1.00  0.00     0.187 C 
HETATM    8  C32 UNL     1      -2.140   5.458  -1.516  1.00  0.00     0.033 C 
HETATM    9  C33 UNL     1      -3.192   6.515  -1.302  1.00  0.00     0.010 C 
HETATM   10  C34 UNL     1      -3.576   6.539   0.164  1.00  0.00     0.028 C 
ENDROOT
BRANCH  10  11
HETATM   11  C35 UNL     1      -4.581   7.625   0.464  1.00  0.00     0.003 C 
HETATM   12  C36 UNL     1      -3.926   8.952   0.156  1.00  0.00     0.005 C 
ENDBRANCH  10  11
BRANCH   7  13
HETATM   13  C5  UNL     1      -1.536   3.085  -1.018  1.00  0.00     0.035 C 
BRANCH  13  14
HETATM   14  C6  UNL     1      -2.118   1.795  -0.533  1.00  0.00     0.037 C 
BRANCH  14  15
HETATM   15  C7  UNL     1      -1.130   0.664  -0.423  1.00  0.00     0.179 C 
HETATM   16  C8  UNL     1      -1.874  -0.567   0.073  1.00  0.00     0.243 C 
HETATM   17  O1  UNL     1      -1.595  -0.963   1.217  1.00  0.00    -0.271 OA
HETATM   18  N2  UNL     1      -2.830  -1.199  -0.756  1.00  0.00    -0.341 N 
HETATM   19  C18 UNL     1      -2.658  -1.091  -2.186  1.00  0.00     0.228 C 
HETATM   20  C19 UNL     1      -1.390  -0.435  -2.575  1.00  0.00     0.238 C 
HETATM   21  O3  UNL     1      -0.961  -0.618  -3.760  1.00  0.00    -0.272 OA
HETATM   22  N4  UNL     1      -0.603   0.384  -1.744  1.00  0.00    -0.337 N 
BRANCH  18  23
HETATM   23  C9  UNL     1      -3.932  -1.911  -0.232  1.00  0.00     0.144 C 
BRANCH  23  24
HETATM   24  C10 UNL     1      -3.836  -3.366  -0.012  1.00  0.00     0.050 C 
HETATM   25  C11 UNL     1      -2.790  -3.861   0.925  1.00  0.00     0.027 C 
HETATM   26  C12 UNL     1      -3.781  -4.079  -1.354  1.00  0.00     0.027 C 
BRANCH  24  27
HETATM   27  C13 UNL     1      -5.166  -3.787   0.581  1.00  0.00     0.228 C 
HETATM   28  O2  UNL     1      -6.068  -2.945   0.813  1.00  0.00    -0.273 OA
HETATM   29  N3  UNL     1      -5.450  -5.138   0.898  1.00  0.00    -0.352 N 
ATOM     30  H3  UNL     1      -4.735  -5.843   0.721  1.00  0.00     0.163 HD
BRANCH  29  31
HETATM   31  C14 UNL     1      -6.713  -5.557   1.462  1.00  0.00     0.022 C 
HETATM   32  C15 UNL     1      -6.935  -4.852   2.807  1.00  0.00     0.037 C 
HETATM   33  C16 UNL     1      -7.895  -5.203   0.608  1.00  0.00     0.037 C 
HETATM   34  C17 UNL     1      -6.721  -7.033   1.763  1.00  0.00     0.037 C 
ENDBRANCH  29  31
ENDBRANCH  24  27
ENDBRANCH  23  24
ENDBRANCH  18  23
BRANCH  22  35
HETATM   35  C20 UNL     1       0.646   0.936  -2.139  1.00  0.00     0.127 C 
BRANCH  35  36
HETATM   36  C21 UNL     1       1.857   0.087  -1.859  1.00  0.00     0.021 C 
BRANCH  36  37
HETATM   37  C22 UNL     1       2.069  -0.237  -0.421  1.00  0.00     0.021 C 
BRANCH  37  38
HETATM   38  C23 UNL     1       3.314  -1.066  -0.240  1.00  0.00     0.124 C 
BRANCH  38  39
HETATM   39  N5  UNL     1       4.496  -0.375  -0.694  1.00  0.00    -0.343 N 
HETATM   40  C24 UNL     1       5.801  -0.994  -0.605  1.00  0.00     0.319 C 
HETATM   41  O4  UNL     1       5.821  -2.131  -0.122  1.00  0.00    -0.247 OA
HETATM   42  N6  UNL     1       6.954  -0.330  -1.044  1.00  0.00    -0.322 N 
ATOM     43  H6  UNL     1       6.768   0.584  -1.457  1.00  0.00     0.169 HD
ATOM     44  H5  UNL     1       4.411   0.564  -1.084  1.00  0.00     0.164 HD
BRANCH  42  45
HETATM   45  C25 UNL     1       8.312  -0.673  -1.028  1.00  0.00     0.070 C 
BRANCH  45  46
HETATM   46  C26 UNL     1       9.079  -0.794   0.235  1.00  0.00     0.027 C 
HETATM   47  C27 UNL     1      10.516  -1.168  -0.091  1.00  0.00     0.040 C 
HETATM   48  C28 UNL     1      11.194  -1.879   1.039  1.00  0.00     0.272 C 
HETATM   49  N7  UNL     1      10.771  -1.339   2.308  1.00  0.00     0.084 N 
HETATM   50  C29 UNL     1      11.056   0.047   2.501  1.00  0.00     0.309 C 
HETATM   51  C30 UNL     1       9.416  -1.736   2.530  1.00  0.00     0.272 C 
HETATM   52  C31 UNL     1       8.503  -1.564   1.334  1.00  0.00     0.040 C 
ENDBRANCH  45  46
ENDBRANCH  42  45
ENDBRANCH  38  39
ENDBRANCH  37  38
ENDBRANCH  36  37
ENDBRANCH  35  36
ENDBRANCH  22  35
ENDBRANCH  14  15
ENDBRANCH  13  14
ENDBRANCH   7  13
TORSDOF 15
