REMARK  12 active torsions:
REMARK  status: ('A' for Active; 'I' for Inactive)
REMARK    1  A    between atoms: C2_2  and  C3_3 
REMARK    2  A    between atoms: C4_4  and  C5_5 
REMARK    3  A    between atoms: C13_19  and  C14_20 
REMARK    4  A    between atoms: C14_20  and  C15_21 
REMARK    5  A    between atoms: C19_25  and  C20_26 
REMARK    6  A    between atoms: C22_32  and  O3_33 
REMARK    7  A    between atoms: N5_35  and  C23_36 
REMARK    8  A    between atoms: C23_36  and  C24_37 
REMARK    9  A    between atoms: C24_37  and  C25_38 
REMARK   10  A    between atoms: C25_38  and  C26_39 
REMARK   11  A    between atoms: C26_39  and  C27_40 
REMARK   12  A    between atoms: C32_45  and  O4_46 
ROOT
HETATM    1  C5  UNL     1       3.458  -0.803  -0.974  1.00  0.00     0.050 C 
HETATM    2  C6  UNL     1       3.302  -2.245  -0.628  1.00  0.00     0.084 C 
HETATM    3  C7  UNL     1       4.499  -2.983  -1.280  1.00  0.00     0.020 C 
HETATM    4  C8  UNL     1       2.069  -2.827  -1.219  1.00  0.00     0.223 C 
HETATM    5  O1  UNL     1       1.969  -2.476  -2.463  1.00  0.00    -0.273 OA
HETATM    6  N1  UNL     1       1.085  -3.630  -0.692  1.00  0.00    -0.343 N 
ATOM      7  H1  UNL     1       1.088  -4.578  -1.067  1.00  0.00     0.163 HD
HETATM    8  C9  UNL     1       0.045  -3.399   0.289  1.00  0.00     0.106 C 
HETATM    9  C10 UNL     1       0.491  -2.919   1.615  1.00  0.00     0.048 C 
HETATM   10  C11 UNL     1      -0.523  -4.814   0.686  1.00  0.00     0.048 C 
HETATM   11  C12 UNL     1      -1.129  -2.723  -0.307  1.00  0.00     0.246 C 
HETATM   12  O2  UNL     1      -1.918  -3.535  -0.943  1.00  0.00    -0.271 OA
HETATM   13  N2  UNL     1      -1.498  -1.375  -0.287  1.00  0.00    -0.347 N 
ATOM     14  H2  UNL     1      -1.729  -1.002  -1.208  1.00  0.00     0.163 HD
HETATM   15  C13 UNL     1      -1.615  -0.424   0.755  1.00  0.00     0.163 C 
HETATM   16  C22 UNL     1      -0.574   0.589   0.907  1.00  0.00     0.137 C 
HETATM   17  N5  UNL     1      -0.029   1.506   0.019  1.00  0.00    -0.363 N 
HETATM   18  C29 UNL     1       0.334   1.377  -1.351  1.00  0.00     0.131 C 
HETATM   19  C30 UNL     1       1.750   0.912  -1.620  1.00  0.00     0.029 C 
HETATM   20  C31 UNL     1       2.681   2.085  -1.862  1.00  0.00     0.014 C 
HETATM   21  C32 UNL     1       2.321   0.091  -0.531  1.00  0.00     0.132 C 
ENDROOT
BRANCH  15  22
HETATM   22  C14 UNL     1      -2.998   0.266   0.652  1.00  0.00     0.072 C 
BRANCH  22  23
HETATM   23  C15 UNL     1      -4.106  -0.710   0.780  1.00  0.00    -0.055 A 
HETATM   24  C16 UNL     1      -4.597  -1.020   2.055  1.00  0.00     0.007 A 
HETATM   25  C17 UNL     1      -5.633  -1.913   2.220  1.00  0.00     0.002 A 
HETATM   26  C18 UNL     1      -6.214  -2.525   1.136  1.00  0.00     0.015 A 
HETATM   27  C19 UNL     1      -5.738  -2.228  -0.127  1.00  0.00     0.005 A 
HETATM   28  C21 UNL     1      -4.693  -1.326  -0.291  1.00  0.00     0.022 A 
BRANCH  27  29
HETATM   29  C20 UNL     1      -6.360  -2.883  -1.260  1.00  0.00     0.120 C 
HETATM   30  N3  UNL     1      -5.937  -2.622  -2.440  1.00  0.00    -0.387 N 
ATOM     31  H32 UNL     1      -5.171  -1.961  -2.569  1.00  0.00     0.157 HD
ATOM     32  H31 UNL     1      -6.375  -3.083  -3.238  1.00  0.00     0.157 HD
HETATM   33  N4  UNL     1      -7.417  -3.796  -1.082  1.00  0.00    -0.082 NA
ENDBRANCH  27  29
ENDBRANCH  22  23
ENDBRANCH  15  22
BRANCH  16  34
HETATM   34  O3  UNL     1      -0.049   0.659   2.097  1.00  0.00    -0.348 OA
ATOM     35  H3  UNL     1       0.628   1.318   2.196  1.00  0.00     0.219 HD
ENDBRANCH  16  34
BRANCH  17  36
HETATM   36  C23 UNL     1       0.221   2.852   0.607  1.00  0.00     0.124 C 
BRANCH  36  37
HETATM   37  C24 UNL     1      -1.013   3.656   0.387  1.00  0.00     0.020 C 
BRANCH  37  38
HETATM   38  C25 UNL     1      -0.842   5.054   0.957  1.00  0.00     0.002 C 
BRANCH  38  39
HETATM   39  C26 UNL     1       0.310   5.751   0.286  1.00  0.00    -0.000 C 
BRANCH  39  40
HETATM   40  C27 UNL     1       0.084   5.870  -1.205  1.00  0.00    -0.005 C 
HETATM   41  C28 UNL     1      -1.172   6.664  -1.501  1.00  0.00     0.005 C 
ENDBRANCH  39  40
ENDBRANCH  38  39
ENDBRANCH  37  38
ENDBRANCH  36  37
ENDBRANCH  17  36
BRANCH  21  42
HETATM   42  O4  UNL     1       2.840   0.990   0.439  1.00  0.00    -0.394 OA
ATOM     43  H4  UNL     1       2.126   1.551   0.717  1.00  0.00     0.210 HD
ENDBRANCH  21  42
BRANCH   1  44
HETATM   44  C4  UNL     1       4.759  -0.203  -0.557  1.00  0.00    -0.019 C 
HETATM   45  C3  UNL     1       5.602  -0.763   0.279  1.00  0.00    -0.004 C 
BRANCH  45  46
HETATM   46  C2  UNL     1       6.854  -0.096   0.624  1.00  0.00    -0.011 C 
HETATM   47  C1  UNL     1       7.740  -0.606   1.455  1.00  0.00     0.011 C 
ENDBRANCH  45  46
ENDBRANCH   1  44
TORSDOF 12
