REMARK  1 active torsions:
REMARK  status: ('A' for Active; 'I' for Inactive)
REMARK    1  A    between atoms: C5_5  and  C6_6 
ROOT
HETATM    1  C1  UNL     1      -2.873   0.424   0.552  1.00  0.00     0.011 C 
HETATM    2  C2  UNL     1      -1.736  -0.072  -0.361  1.00  0.00    -0.009 A 
HETATM    3  C3  UNL     1      -0.807  -0.967   0.209  1.00  0.00    -0.004 A 
HETATM    4  C4  UNL     1       0.422  -0.638   1.066  1.00  0.00     0.019 C 
HETATM    5  C5  UNL     1       0.918  -0.239  -0.341  1.00  0.00     0.080 C 
HETATM    6  C7  UNL     1      -0.427   0.489  -0.297  1.00  0.00     0.007 A 
ENDROOT
BRANCH   5   7
HETATM    7  C6  UNL     1       2.069   0.624  -0.372  1.00  0.00     0.235 C 
HETATM    8  N1  UNL     1       3.296   0.217   0.202  1.00  0.00    -0.062 NA
HETATM    9  O1  UNL     1       2.005   1.751  -0.909  1.00  0.00    -0.276 OA
ENDBRANCH   5   7
TORSDOF 1
