REMARK  7 active torsions:
REMARK  status: ('A' for Active; 'I' for Inactive)
REMARK    1  A    between atoms: O1_2  and  C2_3 
REMARK    2  A    between atoms: C2_3  and  S1_4 
REMARK    3  A    between atoms: S1_4  and  C3_5 
REMARK    4  A    between atoms: C4_9  and  O2_10 
REMARK    5  A    between atoms: C4_9  and  C6_12 
REMARK    6  A    between atoms: C6_12  and  O4_14 
REMARK    7  A    between atoms: O4_14  and  N2_15 
ROOT
HETATM    1  C3  UNL     1      -0.410  -1.111  -0.327  1.00  0.00     0.324 C 
HETATM    2  N1  UNL     1      -1.124  -0.013   0.352  1.00  0.00    -0.013 N 
ATOM      3  H11 UNL     1      -0.913   0.896  -0.059  1.00  0.00     0.283 HD
ATOM      4  H12 UNL     1      -0.760   0.163   1.289  1.00  0.00     0.283 HD
HETATM    5  C4  UNL     1      -2.573  -0.300   0.360  1.00  0.00     0.318 C 
HETATM    6  C7  UNL     1      -3.008  -1.023  -0.890  1.00  0.00     0.087 C 
HETATM    7  C8  UNL     1      -2.147  -0.666  -2.079  1.00  0.00     0.087 C 
HETATM    8  C9  UNL     1      -0.714  -0.927  -1.747  1.00  0.00     0.167 C 
HETATM    9  O5  UNL     1       0.067  -0.966  -2.656  1.00  0.00    -0.295 OA
ENDROOT
BRANCH   1  10
HETATM   10  S1  UNL     1       1.200  -1.401   0.230  1.00  0.00    -0.070 SA
BRANCH  10  11
HETATM   11  C2  UNL     1       2.498  -0.243   0.031  1.00  0.00     0.218 C 
HETATM   12  C10 UNL     1       2.226   1.101   0.724  1.00  0.00     0.192 C 
HETATM   13  N3  UNL     1       3.246   2.019   0.257  1.00  0.00    -0.358 N 
HETATM   14  C11 UNL     1       4.462   1.530   0.260  1.00  0.00     0.200 C 
ATOM     15  H3  UNL     1       3.035   2.969  -0.049  1.00  0.00     0.162 HD
HETATM   16  N4  UNL     1       5.528   2.357  -0.181  1.00  0.00    -0.062 NA
HETATM   17  N5  UNL     1       4.661   0.191   0.705  1.00  0.00    -0.274 N 
HETATM   18  N6  UNL     1       3.674  -0.778   0.752  1.00  0.00    -0.086 NA
ATOM     19  H5  UNL     1       5.598  -0.072   1.011  1.00  0.00     0.185 HD
BRANCH  11  20
HETATM   20  O1  UNL     1       2.970  -0.029  -1.261  1.00  0.00    -0.357 OA
HETATM   21  C1  UNL     1       3.501  -1.230  -1.742  1.00  0.00     0.205 C 
ENDBRANCH  11  20
ENDBRANCH  10  11
ENDBRANCH   1  10
BRANCH   5  22
HETATM   22  O2  UNL     1      -2.805  -0.990   1.506  1.00  0.00    -0.352 OA
HETATM   23  C5  UNL     1      -4.064  -1.406   1.790  1.00  0.00     0.205 C 
ENDBRANCH   5  22
BRANCH   5  24
HETATM   24  C6  UNL     1      -3.266   1.010   0.357  1.00  0.00     0.344 C 
HETATM   25  O3  UNL     1      -2.599   2.073   0.377  1.00  0.00    -0.258 OA
BRANCH  24  26
HETATM   26  O4  UNL     1      -4.646   1.137   0.333  1.00  0.00    -0.202 OA
BRANCH  26  27
HETATM   27  N2  UNL     1      -5.198   2.394   0.332  1.00  0.00    -0.302 N 
ATOM     28  H22 UNL     1      -4.588   3.211   0.349  1.00  0.00     0.184 HD
ATOM     29  H21 UNL     1      -6.214   2.487   0.314  1.00  0.00     0.184 HD
ENDBRANCH  26  27
ENDBRANCH  24  26
ENDBRANCH   5  24
TORSDOF 7
