REMARK  8 active torsions:
REMARK  status: ('A' for Active; 'I' for Inactive)
REMARK    1  A    between atoms: C2_2  and  N1_3 
REMARK    2  A    between atoms: C4_7  and  N3_8 
REMARK    3  A    between atoms: N4_10  and  N5_12 
REMARK    4  A    between atoms: N5_12  and  C5_14 
REMARK    5  A    between atoms: C6_15  and  O1_16 
REMARK    6  A    between atoms: N7_22  and  C9_23 
REMARK    7  A    between atoms: N10_28  and  N11_29 
REMARK    8  A    between atoms: C11_32  and  N12_33 
ROOT
HETATM    1  C5  UNL     1      -0.906  -0.632  -0.008  1.00  0.00     0.184 A 
HETATM    2  C6  UNL     1      -0.360  -1.877  -0.338  1.00  0.00     0.193 A 
HETATM    3  N6  UNL     1      -1.396  -2.602  -0.851  1.00  0.00    -0.281 N 
HETATM    4  C7  UNL     1      -1.268  -3.967  -1.323  1.00  0.00     0.163 C 
HETATM    5  C8  UNL     1      -2.500  -1.828  -0.826  1.00  0.00     0.337 A 
HETATM    6  O2  UNL     1      -3.632  -2.185  -1.225  1.00  0.00    -0.246 OA
HETATM    7  N7  UNL     1      -2.210  -0.627  -0.315  1.00  0.00    -0.237 N 
ENDROOT
BRANCH   1   8
HETATM    8  N5  UNL     1      -0.150   0.416   0.555  1.00  0.00    -0.267 N 
ATOM      9  H5  UNL     1       0.268   1.126  -0.046  1.00  0.00     0.190 HD
BRANCH   8  10
HETATM   10  N4  UNL     1       0.023   0.478   1.926  1.00  0.00    -0.240 N 
HETATM   11  N3  UNL     1       1.101   0.417   2.551  1.00  0.00    -0.273 N 
ATOM     12  H3  UNL     1       1.037   0.480   3.567  1.00  0.00     0.190 HD
ATOM     13  H4  UNL     1      -0.822   0.585   2.487  1.00  0.00     0.208 HD
BRANCH  11  14
HETATM   14  C4  UNL     1       2.398   0.271   2.016  1.00  0.00     0.123 C 
HETATM   15  N2  UNL     1       3.299  -0.513   2.490  1.00  0.00    -0.352 N 
HETATM   16  C3  UNL     1       4.521  -0.431   1.714  1.00  0.00     0.397 C 
ATOM     17  H2  UNL     1       3.171  -1.114   3.304  1.00  0.00     0.162 HD
HETATM   18  N1  UNL     1       4.400   0.805   1.014  1.00  0.00     0.112 N 
HETATM   19  C12 UNL     1       2.991   0.970   0.826  1.00  0.00     0.351 C 
BRANCH  18  20
HETATM   20  C2  UNL     1       5.230   0.985  -0.119  1.00  0.00     0.270 C 
HETATM   21  C1  UNL     1       4.946   0.127  -1.305  1.00  0.00     0.037 C 
ENDBRANCH  18  20
ENDBRANCH  11  14
ENDBRANCH   8  10
ENDBRANCH   1   8
BRANCH   2  22
HETATM   22  O1  UNL     1       0.943  -2.308  -0.189  1.00  0.00    -0.343 OA
ATOM     23  H1  UNL     1       1.314  -3.153  -0.413  1.00  0.00     0.219 HD
ENDBRANCH   2  22
BRANCH   7  24
HETATM   24  C9  UNL     1      -3.100   0.434  -0.134  1.00  0.00     0.135 A 
HETATM   25  C10 UNL     1      -4.230   0.498   0.696  1.00  0.00     0.164 A 
HETATM   26  N8  UNL     1      -4.636  -0.598   1.520  1.00  0.00    -0.079 NA
HETATM   27  N9  UNL     1      -4.763   1.705   0.536  1.00  0.00    -0.263 N 
HETATM   28  N10 UNL     1      -4.076   2.423  -0.322  1.00  0.00    -0.183 N 
ATOM     29  H9  UNL     1      -5.600   2.032   1.019  1.00  0.00     0.190 HD
HETATM   30  C11 UNL     1      -3.054   1.673  -0.748  1.00  0.00     0.169 A 
BRANCH  28  31
HETATM   31  N11 UNL     1      -4.379   3.729  -0.708  1.00  0.00    -0.322 N 
ATOM     32 2H11 UNL     1      -5.158   4.301  -0.383  1.00  0.00     0.179 HD
ATOM     33 1H11 UNL     1      -3.845   4.287  -1.375  1.00  0.00     0.179 HD
ENDBRANCH  28  31
BRANCH  30  34
HETATM   34  N12 UNL     1      -2.177   2.069  -1.601  1.00  0.00    -0.381 N 
ATOM     35 2H12 UNL     1      -1.398   1.497  -1.926  1.00  0.00     0.157 HD
ATOM     36 1H12 UNL     1      -2.143   2.982  -2.054  1.00  0.00     0.157 HD
ENDBRANCH  30  34
ENDBRANCH   7  24
TORSDOF 8
