REMARK  8 active torsions:
REMARK  status: ('A' for Active; 'I' for Inactive)
REMARK    1  A    between atoms: O1_2  and  C2_3 
REMARK    2  A    between atoms: C5_8  and  C6_9 
REMARK    3  A    between atoms: C8_13  and  C9_14 
REMARK    4  A    between atoms: C13_18  and  N3_19 
REMARK    5  A    between atoms: C15_23  and  C16_24 
REMARK    6  A    between atoms: C19_27  and  O2_28 
REMARK    7  A    between atoms: O2_28  and  C20_29 
REMARK    8  A    between atoms: C20_29  and  C21_30 
ROOT
HETATM    1  C9  UNL     1      -2.887   1.481   0.176  1.00  0.00    -0.006 A 
HETATM    2  C10 UNL     1      -3.011   2.836   0.353  1.00  0.00     0.015 A 
HETATM    3  C11 UNL     1      -1.910   3.675   0.467  1.00  0.00     0.017 A 
HETATM    4  C12 UNL     1      -0.658   3.097   0.397  1.00  0.00     0.017 A 
HETATM    5  C13 UNL     1       0.455   3.875   0.504  1.00  0.00     0.040 A 
HETATM    6  C14 UNL     1       1.700   3.261   0.429  1.00  0.00     0.060 A 
HETATM    7  C15 UNL     1       1.819   1.918   0.254  1.00  0.00     0.045 A 
HETATM    8  N4  UNL     1       0.733   1.164   0.151  1.00  0.00    -0.355 N 
ATOM      9  H4  UNL     1       0.820   0.156   0.020  1.00  0.00     0.166 HD
HETATM   10  C29 UNL     1      -0.498   1.739   0.221  1.00  0.00     0.046 A 
HETATM   11  C30 UNL     1      -1.623   0.946   0.112  1.00  0.00     0.044 A 
ENDROOT
BRANCH   1  12
HETATM   12  C8  UNL     1      -4.065   0.642   0.062  1.00  0.00     0.059 A 
HETATM   13  C7  UNL     1      -4.043  -0.743  -0.119  1.00  0.00     0.120 A 
HETATM   14  N2  UNL     1      -5.324  -1.155  -0.179  1.00  0.00    -0.349 N 
HETATM   15  C6  UNL     1      -6.148  -0.106  -0.045  1.00  0.00     0.117 A 
ATOM     16  H2  UNL     1      -5.623  -2.122  -0.307  1.00  0.00     0.167 HD
HETATM   17  N5  UNL     1      -5.359   0.972   0.099  1.00  0.00    -0.340 N 
ATOM     18  H5  UNL     1      -5.705   1.924   0.221  1.00  0.00     0.167 HD
BRANCH  15  19
HETATM   19  C5  UNL     1      -7.631  -0.137  -0.056  1.00  0.00     0.026 A 
HETATM   20  C4  UNL     1      -8.331   1.035   0.094  1.00  0.00     0.102 A 
HETATM   21  N1  UNL     1      -9.665   1.005   0.084  1.00  0.00    -0.372 N 
HETATM   22  C3  UNL     1     -10.315  -0.156  -0.070  1.00  0.00     0.124 A 
ATOM     23  H1  UNL     1     -10.193   1.871   0.194  1.00  0.00     0.164 HD
HETATM   24  C2  UNL     1      -9.672  -1.363  -0.225  1.00  0.00     0.084 A 
HETATM   25  C31 UNL     1      -8.290  -1.313  -0.213  1.00  0.00     0.054 A 
BRANCH  24  26
HETATM   26  O1  UNL     1     -10.372  -2.551  -0.384  1.00  0.00    -0.355 OA
HETATM   27  C1  UNL     1     -11.785  -2.494  -0.382  1.00  0.00     0.210 C 
ENDBRANCH  24  26
ENDBRANCH  15  19
ENDBRANCH   1  12
BRANCH   5  28
HETATM   28  N3  UNL     1       0.378   5.147   0.670  1.00  0.00    -0.398 N 
ATOM     29  H32 UNL     1      -0.535   5.597   0.725  1.00  0.00     0.156 HD
ATOM     30  H31 UNL     1       1.211   5.730   0.750  1.00  0.00     0.156 HD
ENDBRANCH   5  28
BRANCH   7  31
HETATM   31  C16 UNL     1       3.174   1.324   0.183  1.00  0.00    -0.009 A 
HETATM   32  C17 UNL     1       4.325   2.073   0.286  1.00  0.00     0.016 A 
HETATM   33  C18 UNL     1       5.593   1.474   0.214  1.00  0.00     0.037 A 
HETATM   34  C19 UNL     1       5.742   0.121   0.037  1.00  0.00     0.069 A 
HETATM   35  C27 UNL     1       4.599  -0.632  -0.066  1.00  0.00     0.037 A 
HETATM   36  C28 UNL     1       3.329  -0.028   0.007  1.00  0.00     0.016 A 
BRANCH  34  37
HETATM   37  O2  UNL     1       7.016  -0.454  -0.032  1.00  0.00    -0.347 OA
BRANCH  37  38
HETATM   38  C20 UNL     1       7.114  -1.844  -0.213  1.00  0.00     0.214 C 
BRANCH  38  39
HETATM   39  C21 UNL     1       8.545  -2.241  -0.259  1.00  0.00    -0.034 A 
HETATM   40  C22 UNL     1       9.223  -2.584   0.891  1.00  0.00     0.012 A 
HETATM   41  C23 UNL     1      10.560  -2.947   0.796  1.00  0.00     0.043 A 
HETATM   42  C24 UNL     1      11.240  -2.981  -0.404  1.00  0.00     0.116 A 
HETATM   43  F1  UNL     1      12.551  -3.348  -0.422  1.00  0.00    -0.206 F 
HETATM   44  C25 UNL     1      10.550  -2.635  -1.551  1.00  0.00     0.043 A 
HETATM   45  C26 UNL     1       9.208  -2.268  -1.468  1.00  0.00     0.012 A 
ENDBRANCH  38  39
ENDBRANCH  37  38
ENDBRANCH  34  37
ENDBRANCH   7  31
TORSDOF 8
