REMARK  19 active torsions:
REMARK  status: ('A' for Active; 'I' for Inactive)
REMARK    1  A    between atoms: C2_2  and  C3_3 
REMARK    2  A    between atoms: C3_3  and  C4_4 
REMARK    3  A    between atoms: C4_4  and  C5_5 
REMARK    4  A    between atoms: C5_5  and  O1_6 
REMARK    5  A    between atoms: O1_6  and  C6_7 
REMARK    6  A    between atoms: C6_7  and  O2_8 
REMARK    7  A    between atoms: C6_7  and  N1_10 
REMARK    8  A    between atoms: N2_13  and  C9_14 
REMARK    9  A    between atoms: C9_14  and  O3_15 
REMARK   10  A    between atoms: C10_17  and  C11_18 
REMARK   11  A    between atoms: C10_17  and  N6_31 
REMARK   12  A    between atoms: C11_18  and  C12_19 
REMARK   13  A    between atoms: N6_31  and  C18_33 
REMARK   14  A    between atoms: C18_33  and  O4_34 
REMARK   15  A    between atoms: C18_33  and  C19_36 
REMARK   16  A    between atoms: C19_36  and  C22_44 
REMARK   17  A    between atoms: N7_37  and  O5_39 
REMARK   18  A    between atoms: O5_39  and  C20_40 
REMARK   19  A    between atoms: C20_40  and  C21_41 
ROOT
HETATM    1  C9  UNL     1      -0.543   0.394   1.394  1.00  0.00     0.161 C 
HETATM    2  C10 UNL     1      -1.871   0.472   0.938  1.00  0.00     0.066 C 
ENDROOT
BRANCH   2   3
HETATM    3  C11 UNL     1      -2.463   1.351  -0.053  1.00  0.00     0.104 C 
BRANCH   3   4
HETATM    4  C12 UNL     1      -2.346   2.805   0.085  1.00  0.00    -0.006 A 
HETATM    5  C13 UNL     1      -1.770   3.675  -0.863  1.00  0.00     0.099 A 
HETATM    6  N3  UNL     1      -1.907   4.949  -0.480  1.00  0.00    -0.350 N 
HETATM    7  C14 UNL     1      -2.548   5.002   0.681  1.00  0.00     0.132 A 
ATOM      8  H3  UNL     1      -1.570   5.758  -1.002  1.00  0.00     0.166 HD
HETATM    9  N4  UNL     1      -2.914   6.020   1.460  1.00  0.00    -0.349 N 
HETATM   10  C17 UNL     1      -2.826   3.688   1.043  1.00  0.00     0.084 A 
HETATM   11  C15 UNL     1      -3.569   5.805   2.631  1.00  0.00     0.106 A 
ATOM     12  H4  UNL     1      -2.699   6.975   1.173  1.00  0.00     0.167 HD
HETATM   13  C16 UNL     1      -3.849   4.504   2.998  1.00  0.00     0.105 A 
HETATM   14  N5  UNL     1      -3.466   3.496   2.188  1.00  0.00    -0.361 N 
ATOM     15  H5  UNL     1      -3.679   2.539   2.470  1.00  0.00     0.165 HD
ENDBRANCH   3   4
ENDBRANCH   2   3
BRANCH   2  16
HETATM   16  N6  UNL     1      -2.717  -0.390   1.498  1.00  0.00    -0.335 N 
ATOM     17  H6  UNL     1      -2.329  -1.021   2.199  1.00  0.00     0.168 HD
BRANCH  16  18
HETATM   18  C18 UNL     1      -4.059  -0.517   1.229  1.00  0.00     0.166 C 
BRANCH  18  19
HETATM   19  O4  UNL     1      -4.906   0.350   1.724  1.00  0.00    -0.345 OA
ATOM     20  H4  UNL     1      -5.833   0.262   1.538  1.00  0.00     0.219 HD
ENDBRANCH  18  19
BRANCH  18  21
HETATM   21  C19 UNL     1      -4.695  -1.533   0.436  1.00  0.00     0.090 C 
HETATM   22  N7  UNL     1      -5.996  -1.416   0.352  1.00  0.00    -0.265 N 
ATOM     23  H7  UNL     1      -6.388  -0.624   0.861  1.00  0.00     0.194 HD
BRANCH  22  24
HETATM   24  O5  UNL     1      -6.885  -2.161  -0.287  1.00  0.00    -0.270 OA
BRANCH  24  25
HETATM   25  C20 UNL     1      -8.260  -1.742  -0.179  1.00  0.00     0.314 C 
BRANCH  25  26
HETATM   26  C21 UNL     1      -9.125  -2.584  -0.989  1.00  0.00     0.200 C 
HETATM   27  O6  UNL     1     -10.352  -2.377  -1.044  1.00  0.00    -0.646 OA
HETATM   28  O7  UNL     1      -8.561  -3.648  -1.722  1.00  0.00    -0.646 OA
ENDBRANCH  25  26
ENDBRANCH  24  25
ENDBRANCH  22  24
BRANCH  21  29
HETATM   29  C22 UNL     1      -3.973  -2.593  -0.259  1.00  0.00    -0.003 C 
HETATM   30  C23 UNL     1      -3.343  -2.072  -1.528  1.00  0.00     0.021 C 
HETATM   31  C24 UNL     1      -2.794  -3.147   0.562  1.00  0.00     0.021 C 
HETATM   32  C25 UNL     1      -4.868  -3.805  -0.538  1.00  0.00     0.021 C 
ENDBRANCH  21  29
ENDBRANCH  18  21
ENDBRANCH  16  18
ENDBRANCH   2  16
BRANCH   1  33
HETATM   33  N2  UNL     1       0.718   0.896   1.238  1.00  0.00    -0.357 N 
HETATM   34  C8  UNL     1       1.794   0.592   2.238  1.00  0.00     0.145 C 
HETATM   35  C7  UNL     1       2.776  -0.301   1.588  1.00  0.00     0.147 C 
HETATM   36  N1  UNL     1       3.241   0.232   0.311  1.00  0.00    -0.339 N 
HETATM   37  C27 UNL     1       2.571   1.288  -0.377  1.00  0.00     0.147 C 
HETATM   38  C26 UNL     1       1.221   1.672   0.120  1.00  0.00     0.145 C 
BRANCH  36  39
HETATM   39  C6  UNL     1       4.429  -0.326  -0.226  1.00  0.00     0.260 C 
BRANCH  39  40
HETATM   40  O1  UNL     1       5.019  -0.007  -1.421  1.00  0.00    -0.317 OA
BRANCH  40  41
HETATM   41  C5  UNL     1       6.199  -0.526  -1.955  1.00  0.00     0.179 C 
BRANCH  41  42
HETATM   42  C4  UNL     1       7.456  -0.175  -1.234  1.00  0.00     0.027 C 
BRANCH  42  43
HETATM   43  C3  UNL     1       8.605  -0.867  -1.972  1.00  0.00     0.002 C 
BRANCH  43  44
HETATM   44  C2  UNL     1       9.903  -0.470  -1.350  1.00  0.00    -0.004 C 
HETATM   45  C1  UNL     1      11.054  -1.143  -2.048  1.00  0.00     0.005 C 
ENDBRANCH  43  44
ENDBRANCH  42  43
ENDBRANCH  41  42
ENDBRANCH  40  41
ENDBRANCH  39  40
BRANCH  39  46
HETATM   46  O2  UNL     1       5.066  -1.238   0.448  1.00  0.00    -0.327 OA
ATOM     47  H2  UNL     1       4.657  -1.459   1.276  1.00  0.00     0.221 HD
ENDBRANCH  39  46
ENDBRANCH  36  39
ENDBRANCH   1  33
BRANCH   1  48
HETATM   48  O3  UNL     1      -0.481  -0.558   2.403  1.00  0.00    -0.345 OA
ATOM     49  H3  UNL     1      -1.358  -0.907   2.511  1.00  0.00     0.219 HD
ENDBRANCH   1  48
TORSDOF 19
