REMARK  12 active torsions:
REMARK  status: ('A' for Active; 'I' for Inactive)
REMARK    1  A    between atoms: C2_2  and  C3_3 
REMARK    2  A    between atoms: C3_3  and  C4_4 
REMARK    3  A    between atoms: C4_4  and  O1_5 
REMARK    4  A    between atoms: O1_5  and  C5_6 
REMARK    5  A    between atoms: C8_11  and  N2_12 
REMARK       I    between atoms: N3_15  and  C11_16 
REMARK    6  A    between atoms: C11_16  and  C12_18 
REMARK    7  A    between atoms: C12_18  and  N4_19 
REMARK    8  A    between atoms: C18_30  and  N7_31 
REMARK    9  A    between atoms: N7_31  and  C19_33 
REMARK   10  A    between atoms: C21_35  and  O3_36 
REMARK   11  A    between atoms: C24_39  and  O4_40 
REMARK   12  A    between atoms: C29_45  and  O5_46 
ROOT
HETATM    1  C5  UNL     1      -3.903   3.410   0.116  1.00  0.00     0.104 A 
HETATM    2  C6  UNL     1      -2.548   3.088  -0.028  1.00  0.00     0.070 A 
HETATM    3  C7  UNL     1      -2.132   1.778   0.018  1.00  0.00     0.066 A 
HETATM    4  N1  UNL     1      -0.834   1.481  -0.119  1.00  0.00    -0.191 N 
ATOM      5  H1  UNL     1      -0.166   2.239  -0.258  1.00  0.00     0.184 HD
HETATM    6  C8  UNL     1      -0.379   0.201  -0.078  1.00  0.00     0.682 A 
HETATM    7  N6  UNL     1      -1.289  -0.764   0.107  1.00  0.00    -0.176 N 
ATOM      8  H6  UNL     1      -0.971  -1.732   0.141  1.00  0.00     0.186 HD
HETATM    9  C18 UNL     1      -2.625  -0.512   0.253  1.00  0.00     0.134 A 
HETATM   10  C27 UNL     1      -3.072   0.799   0.208  1.00  0.00     0.039 A 
HETATM   11  C28 UNL     1      -4.426   1.095   0.354  1.00  0.00     0.057 A 
HETATM   12  C29 UNL     1      -4.843   2.422   0.307  1.00  0.00     0.102 A 
ENDROOT
BRANCH   6  13
HETATM   13  N2  UNL     1       0.999  -0.099  -0.223  1.00  0.00    -0.214 N 
HETATM   14  C9  UNL     1       1.892   1.052  -0.473  1.00  0.00     0.161 C 
HETATM   15  C10 UNL     1       3.105   0.983   0.405  1.00  0.00     0.146 C 
HETATM   16  N3  UNL     1       3.723  -0.323   0.217  1.00  0.00    -0.348 N 
HETATM   17  C11 UNL     1       5.065  -0.451  -0.242  1.00  0.00     0.248 C 
HETATM   18  C16 UNL     1       2.902  -1.474   0.526  1.00  0.00     0.146 C 
HETATM   19  O2  UNL     1       5.696   0.603  -0.480  1.00  0.00    -0.271 OA
HETATM   20  C17 UNL     1       1.535  -1.432  -0.130  1.00  0.00     0.161 C 
BRANCH  17  21
HETATM   21  C12 UNL     1       5.609  -1.806  -0.401  1.00  0.00     0.377 C 
BRANCH  21  22
HETATM   22  N4  UNL     1       6.957  -1.858  -0.858  1.00  0.00     0.124 N 
HETATM   23  C13 UNL     1       7.932  -1.381   0.061  1.00  0.00     0.302 A 
HETATM   24  C14 UNL     1       8.750  -0.398  -0.720  1.00  0.00     0.264 A 
HETATM   25  N5  UNL     1       8.284  -0.422  -2.071  1.00  0.00    -0.047 N 
HETATM   26  C15 UNL     1       7.203  -1.360  -2.156  1.00  0.00     0.503 A 
ATOM     27  H52 UNL     1       8.029   0.504  -2.416  1.00  0.00     0.279 HD
ATOM     28  H51 UNL     1       9.028  -0.618  -2.740  1.00  0.00     0.279 HD
ENDBRANCH  21  22
ENDBRANCH  17  21
ENDBRANCH   6  13
BRANCH   9  29
HETATM   29  N7  UNL     1      -3.471  -1.465   0.432  1.00  0.00    -0.341 N 
ATOM     30  H7  UNL     1      -4.466  -1.266   0.538  1.00  0.00     0.167 HD
BRANCH  29  31
HETATM   31  C19 UNL     1      -2.989  -2.797   0.478  1.00  0.00     0.038 A 
HETATM   32  C20 UNL     1      -2.543  -3.391   1.623  1.00  0.00     0.066 A 
HETATM   33  C21 UNL     1      -2.086  -4.709   1.578  1.00  0.00     0.073 A 
HETATM   34  C23 UNL     1      -2.068  -5.438   0.403  1.00  0.00     0.073 A 
HETATM   35  C24 UNL     1      -2.521  -4.828  -0.746  1.00  0.00     0.073 A 
HETATM   36  C26 UNL     1      -2.978  -3.514  -0.708  1.00  0.00     0.066 A 
BRANCH  33  37
HETATM   37  O3  UNL     1      -1.647  -5.265   2.753  1.00  0.00    -0.356 OA
HETATM   38  C22 UNL     1      -1.154  -6.570   2.903  1.00  0.00     0.210 C 
ENDBRANCH  33  37
BRANCH  35  39
HETATM   39  O4  UNL     1      -2.550  -5.459  -1.973  1.00  0.00    -0.356 OA
HETATM   40  C25 UNL     1      -2.138  -6.773  -2.228  1.00  0.00     0.210 C 
ENDBRANCH  35  39
ENDBRANCH  29  31
ENDBRANCH   9  29
BRANCH   1  41
HETATM   41  O1  UNL     1      -4.330   4.733   0.071  1.00  0.00    -0.348 OA
BRANCH  41  42
HETATM   42  C4  UNL     1      -3.421   5.807  -0.122  1.00  0.00     0.176 C 
BRANCH  42  43
HETATM   43  C3  UNL     1      -4.113   7.135  -0.134  1.00  0.00     0.026 C 
BRANCH  43  44
HETATM   44  C2  UNL     1      -3.063   8.209  -0.345  1.00  0.00    -0.002 C 
HETATM   45  C1  UNL     1      -2.082   8.118   0.799  1.00  0.00     0.005 C 
ENDBRANCH  43  44
ENDBRANCH  42  43
ENDBRANCH  41  42
ENDBRANCH   1  41
BRANCH  12  46
HETATM   46  O5  UNL     1      -6.192   2.775   0.448  1.00  0.00    -0.353 OA
HETATM   47  C30 UNL     1      -7.116   1.717   0.642  1.00  0.00     0.210 C 
ENDBRANCH  12  46
TORSDOF 12
