REMARK  14 active torsions:
REMARK  status: ('A' for Active; 'I' for Inactive)
REMARK    1  A    between atoms: C1_4  and  C2_5 
REMARK    2  A    between atoms: C1_4  and  N2_15 
REMARK    3  A    between atoms: C5_8  and  C6_9 
REMARK    4  A    between atoms: C11_18  and  C12_19 
REMARK    5  A    between atoms: C11_18  and  N4_31 
REMARK    6  A    between atoms: C12_19  and  C13_20 
REMARK    7  A    between atoms: C13_20  and  C14_21 
REMARK    8  A    between atoms: C14_21  and  C15_22 
REMARK    9  A    between atoms: C15_22  and  N3_23 
REMARK   10  A    between atoms: N3_23  and  S1_25 
REMARK   11  A    between atoms: S1_25  and  C16_28 
REMARK   12  A    between atoms: N4_31  and  S2_33 
REMARK   13  A    between atoms: S2_33  and  C19_36 
REMARK   14  A    between atoms: C19_36  and  C20_37 
ROOT
HETATM    1  N2  UNL     1      -1.271  -1.776  -1.307  1.00  0.00    -0.364 N 
HETATM    2  C9  UNL     1      -2.443  -1.079  -0.830  1.00  0.00     0.127 C 
HETATM    3  C10 UNL     1      -1.834   0.002   0.015  1.00  0.00     0.053 C 
HETATM    4  C11 UNL     1      -0.506   0.347  -0.568  1.00  0.00     0.058 C 
HETATM    5  C25 UNL     1      -0.337  -0.728  -1.681  1.00  0.00     0.156 C 
ENDROOT
BRANCH   4   6
HETATM    6  C12 UNL     1       0.568  -0.099   0.399  1.00  0.00     0.033 C 
BRANCH   6   7
HETATM    7  C13 UNL     1       1.959   0.185  -0.028  1.00  0.00     0.004 C 
BRANCH   7   8
HETATM    8  C14 UNL     1       3.005  -0.535   0.840  1.00  0.00     0.020 C 
BRANCH   8   9
HETATM    9  C15 UNL     1       4.407  -0.246   0.342  1.00  0.00     0.132 C 
BRANCH   9  10
HETATM   10  N3  UNL     1       4.916   1.066   0.568  1.00  0.00    -0.319 N 
ATOM     11  H3  UNL     1       4.400   1.810   1.038  1.00  0.00     0.172 HD
BRANCH  10  12
HETATM   12  S1  UNL     1       6.521   1.234  -0.057  1.00  0.00     0.230 S 
HETATM   13  O1  UNL     1       6.545   1.017  -1.520  1.00  0.00    -0.206 OA
HETATM   14  O2  UNL     1       7.062   2.622   0.196  1.00  0.00    -0.206 OA
BRANCH  12  15
HETATM   15  C16 UNL     1       7.626   0.088   0.751  1.00  0.00     0.129 A 
HETATM   16  C17 UNL     1       8.924  -0.079  -0.014  1.00  0.00     0.023 A 
HETATM   17  C18 UNL     1       7.939  -1.173  -0.086  1.00  0.00     0.023 A 
ENDBRANCH  12  15
ENDBRANCH  10  12
ENDBRANCH   9  10
ENDBRANCH   8   9
ENDBRANCH   7   8
ENDBRANCH   6   7
ENDBRANCH   4   6
BRANCH   4  18
HETATM   18  N4  UNL     1      -0.451   1.591  -1.189  1.00  0.00    -0.308 N 
ATOM     19  H4  UNL     1      -0.524   1.593  -2.206  1.00  0.00     0.173 HD
BRANCH  18  20
HETATM   20  S2  UNL     1      -0.282   3.057  -0.465  1.00  0.00     0.227 S 
HETATM   21  O3  UNL     1       1.071   3.544  -0.032  1.00  0.00    -0.206 OA
HETATM   22  O4  UNL     1      -0.495   4.058  -1.685  1.00  0.00    -0.206 OA
BRANCH  20  23
HETATM   23  C19 UNL     1      -1.474   3.611   0.676  1.00  0.00     0.167 C 
BRANCH  23  24
HETATM   24  C20 UNL     1      -2.869   3.945   0.227  1.00  0.00     0.005 C 
HETATM   25  C21 UNL     1      -2.919   5.134  -0.638  1.00  0.00     0.032 C 
HETATM   26  C22 UNL     1      -4.215   5.857  -0.594  1.00  0.00     0.168 C 
HETATM   27  O5  UNL     1      -4.989   5.786   0.512  1.00  0.00    -0.391 OA
HETATM   28  C23 UNL     1      -4.454   5.228   1.639  1.00  0.00     0.168 C 
HETATM   29  C24 UNL     1      -3.836   3.886   1.344  1.00  0.00     0.032 C 
ENDBRANCH  23  24
ENDBRANCH  20  23
ENDBRANCH  18  20
ENDBRANCH   4  18
BRANCH   1  30
HETATM   30  C1  UNL     1      -1.166  -3.183  -1.396  1.00  0.00     0.107 C 
HETATM   31  N1  UNL     1      -0.467  -3.642  -2.402  1.00  0.00    -0.385 N 
ATOM     32  H12 UNL     1      -0.391  -4.657  -2.466  1.00  0.00     0.157 HD
ATOM     33  H11 UNL     1       0.015  -2.927  -2.946  1.00  0.00     0.157 HD
BRANCH  30  34
HETATM   34  C2  UNL     1      -1.851  -4.198  -0.623  1.00  0.00     0.007 A 
HETATM   35  C3  UNL     1      -2.033  -4.212   0.711  1.00  0.00     0.016 A 
HETATM   36  C4  UNL     1      -2.855  -5.126   1.380  1.00  0.00     0.017 A 
HETATM   37  C5  UNL     1      -3.534  -6.090   0.648  1.00  0.00     0.048 A 
HETATM   38  C7  UNL     1      -3.351  -6.086  -0.721  1.00  0.00     0.017 A 
HETATM   39  C8  UNL     1      -2.548  -5.183  -1.354  1.00  0.00     0.016 A 
BRANCH  37  40
HETATM   40  C6  UNL     1      -4.439  -7.060   1.327  1.00  0.00     0.417 C 
HETATM   41  F1  UNL     1      -3.668  -8.030   1.986  1.00  0.00    -0.166 F 
HETATM   42  F2  UNL     1      -5.206  -7.715   0.401  1.00  0.00    -0.166 F 
HETATM   43  F3  UNL     1      -5.240  -6.434   2.269  1.00  0.00    -0.166 F 
ENDBRANCH  37  40
ENDBRANCH  30  34
ENDBRANCH   1  30
TORSDOF 14
