REMARK  16 active torsions:
REMARK  status: ('A' for Active; 'I' for Inactive)
REMARK    1  A    between atoms: C2_2  and  C3_3 
REMARK    2  A    between atoms: C6_6  and  C8_8 
REMARK    3  A    between atoms: C8_8  and  O1_9 
REMARK    4  A    between atoms: O1_9  and  C9_10 
REMARK    5  A    between atoms: C11_13  and  O3_14 
REMARK    6  A    between atoms: C12_16  and  C13_17 
REMARK    7  A    between atoms: C13_17  and  C14_18 
REMARK    8  A    between atoms: C18_22  and  C19_23 
REMARK    9  A    between atoms: C19_23  and  C20_24 
REMARK   10  A    between atoms: C21_25  and  C23_27 
REMARK   11  A    between atoms: C23_27  and  C24_28 
REMARK   12  A    between atoms: C24_28  and  C25_29 
REMARK   13  A    between atoms: C25_29  and  N1_30 
REMARK   14  A    between atoms: C25_29  and  C26_34 
REMARK       I    between atoms: C26_34  and  N2_36 
REMARK   15  A    between atoms: N2_36  and  S1_38 
REMARK   16  A    between atoms: S1_38  and  C27_41 
ROOT
HETATM    1  C3  UNL     1      -2.510  -0.370   1.920  1.00  0.00     0.013 C 
HETATM    2  C4  UNL     1      -3.952  -0.066   1.482  1.00  0.00     0.015 C 
HETATM    3  C5  UNL     1      -3.898   0.029  -0.017  1.00  0.00     0.011 C 
HETATM    4  C6  UNL     1      -3.552   1.313  -0.659  1.00  0.00     0.009 C 
HETATM    5  C7  UNL     1      -4.321   1.535  -1.952  1.00  0.00     0.020 C 
HETATM    6  C11 UNL     1      -2.149   0.741  -0.903  1.00  0.00     0.138 C 
HETATM    7  C12 UNL     1      -2.594  -0.605  -0.466  1.00  0.00    -0.001 C 
HETATM    8  C18 UNL     1      -2.002  -1.187   0.761  1.00  0.00     0.008 C 
ENDROOT
BRANCH   8   9
HETATM    9  C19 UNL     1      -0.578  -1.517   0.774  1.00  0.00     0.033 C 
BRANCH   9  10
HETATM   10  C20 UNL     1       0.419  -0.466   0.793  1.00  0.00    -0.024 C 
HETATM   11  C21 UNL     1       1.342  -0.398  -0.153  1.00  0.00    -0.087 C 
HETATM   12  C22 UNL     1       1.367  -1.413  -1.260  1.00  0.00     0.043 C 
BRANCH  11  13
HETATM   13  C23 UNL     1       2.388   0.698  -0.132  1.00  0.00     0.036 C 
BRANCH  13  14
HETATM   14  C24 UNL     1       3.723   0.040  -0.043  1.00  0.00     0.047 C 
BRANCH  14  15
HETATM   15  C25 UNL     1       4.879   1.014  -0.017  1.00  0.00     0.276 C 
BRANCH  15  16
HETATM   16  N1  UNL     1       4.821   1.914   1.100  1.00  0.00    -0.066 N 
ATOM     17  H13 UNL     1       3.928   2.406   1.128  1.00  0.00     0.275 HD
ATOM     18  H12 UNL     1       4.755   1.402   1.979  1.00  0.00     0.275 HD
ATOM     19  H11 UNL     1       5.601   2.571   1.118  1.00  0.00     0.275 HD
ENDBRANCH  15  16
BRANCH  15  20
HETATM   20  C26 UNL     1       6.120   0.205  -0.028  1.00  0.00     0.261 C 
HETATM   21  O4  UNL     1       6.341  -0.652  -0.909  1.00  0.00    -0.270 OA
HETATM   22  N2  UNL     1       7.078   0.413   0.991  1.00  0.00    -0.252 N 
ATOM     23  H2  UNL     1       6.913   1.109   1.719  1.00  0.00     0.181 HD
BRANCH  22  24
HETATM   24  S1  UNL     1       8.538  -0.528   0.991  1.00  0.00     0.237 S 
HETATM   25  O5  UNL     1       8.729  -1.211   2.327  1.00  0.00    -0.205 OA
HETATM   26  O6  UNL     1       8.474  -1.555  -0.113  1.00  0.00    -0.205 OA
BRANCH  24  27
HETATM   27  C27 UNL     1       9.924   0.553   0.735  1.00  0.00     0.130 A 
HETATM   28  C28 UNL     1      11.149  -0.140   0.166  1.00  0.00     0.023 A 
HETATM   29  C29 UNL     1      10.370   0.860  -0.659  1.00  0.00     0.023 A 
ENDBRANCH  24  27
ENDBRANCH  22  24
ENDBRANCH  15  20
ENDBRANCH  14  15
ENDBRANCH  13  14
ENDBRANCH  11  13
ENDBRANCH   9  10
ENDBRANCH   8   9
BRANCH   1  30
HETATM   30  C2  UNL     1      -2.553  -1.145   3.176  1.00  0.00    -0.032 C 
HETATM   31  C1  UNL     1      -3.575  -1.391   3.939  1.00  0.00     0.007 C 
ENDBRANCH   1  30
BRANCH   7  32
HETATM   32  C13 UNL     1      -2.732  -1.562  -1.622  1.00  0.00     0.040 C 
BRANCH  32  33
HETATM   33  C14 UNL     1      -3.648  -2.718  -1.304  1.00  0.00    -0.024 C 
HETATM   34  C15 UNL     1      -4.720  -2.956  -2.017  1.00  0.00    -0.091 C 
HETATM   35  C16 UNL     1      -5.128  -2.123  -3.188  1.00  0.00     0.042 C 
HETATM   36  C17 UNL     1      -5.573  -4.141  -1.612  1.00  0.00     0.042 C 
ENDBRANCH  32  33
ENDBRANCH   7  32
BRANCH   6  37
HETATM   37  O3  UNL     1      -1.833   0.855  -2.240  1.00  0.00    -0.394 OA
ATOM     38  H3  UNL     1      -0.964   0.501  -2.391  1.00  0.00     0.210 HD
ENDBRANCH   6  37
BRANCH   4  39
HETATM   39  C8  UNL     1      -3.453   2.555   0.148  1.00  0.00     0.191 C 
BRANCH  39  40
HETATM   40  O1  UNL     1      -4.626   2.924   0.803  1.00  0.00    -0.321 OA
BRANCH  40  41
HETATM   41  C9  UNL     1      -4.628   4.075   1.577  1.00  0.00     0.254 C 
HETATM   42  C10 UNL     1      -5.866   4.515   2.302  1.00  0.00     0.126 C 
HETATM   43  O2  UNL     1      -3.595   4.786   1.697  1.00  0.00    -0.266 OA
ENDBRANCH  40  41
ENDBRANCH  39  40
ENDBRANCH   4  39
TORSDOF 16
