REMARK  14 active torsions:
REMARK  status: ('A' for Active; 'I' for Inactive)
REMARK    1  A    between atoms: C2_2  and  C3_3 
REMARK    2  A    between atoms: C3_3  and  C4_4 
REMARK    3  A    between atoms: C4_4  and  C5_5 
REMARK    4  A    between atoms: C5_5  and  C6_6 
REMARK    5  A    between atoms: C6_6  and  C7_7 
REMARK    6  A    between atoms: C7_7  and  C8_8 
REMARK    7  A    between atoms: C8_8  and  N1_9 
REMARK    8  A    between atoms: N2_12  and  C10_13 
REMARK    9  A    between atoms: C10_13  and  C12_15 
REMARK   10  A    between atoms: N3_19  and  C15_20 
REMARK   11  A    between atoms: C15_20  and  C16_21 
REMARK       I    between atoms: C16_21  and  N4_23 
REMARK   12  A    between atoms: N4_23  and  C17_24 
REMARK   13  A    between atoms: N4_23  and  C20_31 
REMARK   14  A    between atoms: C17_24  and  C18_28 
ROOT
HETATM    1  C18 UNL     1      -3.479  -4.303   1.111  1.00  0.00     0.200 C 
HETATM    2  C19 UNL     1      -2.268  -4.598   0.394  1.00  0.00     0.066 C 
HETATM    3  N6  UNL     1      -1.291  -4.848  -0.166  1.00  0.00    -0.197 NA
ENDROOT
BRANCH   1   4
HETATM    4  C17 UNL     1      -3.730  -2.824   1.268  1.00  0.00     0.098 C 
HETATM    5  N5  UNL     1      -3.672  -2.389   2.463  1.00  0.00    -0.388 N 
ATOM      6  H52 UNL     1      -3.842  -1.389   2.569  1.00  0.00     0.157 HD
ATOM      7  H51 UNL     1      -3.466  -3.010   3.245  1.00  0.00     0.157 HD
BRANCH   4   8
HETATM    8  N4  UNL     1      -4.013  -1.971   0.194  1.00  0.00    -0.262 N 
HETATM    9  C16 UNL     1      -3.127  -0.915  -0.128  1.00  0.00     0.248 C 
HETATM   10  O3  UNL     1      -3.433  -0.055  -1.029  1.00  0.00    -0.271 OA
BRANCH   9  11
HETATM   11  C15 UNL     1      -1.841  -0.761   0.535  1.00  0.00     0.233 C 
BRANCH  11  12
HETATM   12  N3  UNL     1      -1.060   0.382   0.064  1.00  0.00    -0.304 N 
HETATM   13  C14 UNL     1      -1.148   1.668   0.665  1.00  0.00     0.331 C 
HETATM   14  N2  UNL     1      -0.034   2.575   0.663  1.00  0.00    -0.247 N 
HETATM   15  O2  UNL     1      -2.259   1.974   1.204  1.00  0.00    -0.246 OA
HETATM   16  C9  UNL     1       1.153   2.109   0.023  1.00  0.00     0.330 C 
HETATM   17  N1  UNL     1       1.154   0.819  -0.555  1.00  0.00    -0.312 N 
HETATM   18  O1  UNL     1       2.154   2.837  -0.013  1.00  0.00    -0.246 OA
HETATM   19  C25 UNL     1      -0.122   0.268  -1.056  1.00  0.00     0.192 C 
HETATM   20  C26 UNL     1      -0.554   1.196  -2.168  1.00  0.00     0.056 C 
BRANCH  14  21
HETATM   21  C10 UNL     1      -0.198   3.839   1.278  1.00  0.00     0.095 C 
HETATM   22  C11 UNL     1       0.767   4.162   2.370  1.00  0.00     0.033 C 
BRANCH  21  23
HETATM   23  C12 UNL     1      -0.098   4.940   0.228  1.00  0.00     0.021 C 
HETATM   24  C13 UNL     1      -0.283   6.294   0.894  1.00  0.00     0.007 C 
ENDBRANCH  21  23
ENDBRANCH  14  21
BRANCH  17  25
HETATM   25  C8  UNL     1       2.375   0.064  -0.653  1.00  0.00     0.130 C 
BRANCH  25  26
HETATM   26  C7  UNL     1       3.122   0.309  -1.933  1.00  0.00     0.020 C 
BRANCH  26  27
HETATM   27  C6  UNL     1       4.360  -0.541  -1.991  1.00  0.00     0.002 C 
BRANCH  27  28
HETATM   28  C5  UNL     1       5.283  -0.217  -0.862  1.00  0.00     0.000 C 
BRANCH  28  29
HETATM   29  C4  UNL     1       6.541  -1.080  -0.925  1.00  0.00     0.000 C 
BRANCH  29  30
HETATM   30  C3  UNL     1       7.446  -0.718   0.193  1.00  0.00    -0.000 C 
BRANCH  30  31
HETATM   31  C2  UNL     1       6.821  -0.914   1.538  1.00  0.00    -0.005 C 
HETATM   32  C1  UNL     1       6.422  -2.366   1.704  1.00  0.00     0.005 C 
ENDBRANCH  30  31
ENDBRANCH  29  30
ENDBRANCH  28  29
ENDBRANCH  27  28
ENDBRANCH  26  27
ENDBRANCH  25  26
ENDBRANCH  17  25
ENDBRANCH  11  12
ENDBRANCH   9  11
BRANCH   8  33
HETATM   33  C20 UNL     1      -5.186  -2.099  -0.605  1.00  0.00     0.134 A 
HETATM   34  C21 UNL     1      -6.396  -1.681  -0.132  1.00  0.00     0.043 A 
HETATM   35  C22 UNL     1      -6.468  -1.075   1.211  1.00  0.00     0.071 C 
HETATM   36  N7  UNL     1      -7.515  -1.830  -0.916  1.00  0.00    -0.310 N 
HETATM   37  C23 UNL     1      -7.416  -2.383  -2.139  1.00  0.00     0.327 A 
ATOM     38  H7  UNL     1      -8.423  -1.521  -0.570  1.00  0.00     0.170 HD
HETATM   39  O4  UNL     1      -8.442  -2.524  -2.865  1.00  0.00    -0.247 OA
HETATM   40  N8  UNL     1      -6.253  -2.796  -2.620  1.00  0.00    -0.274 N 
HETATM   41  C24 UNL     1      -5.130  -2.657  -1.857  1.00  0.00     0.278 A 
ATOM     42  H8  UNL     1      -6.197  -3.213  -3.549  1.00  0.00     0.173 HD
HETATM   43  O5  UNL     1      -4.066  -3.054  -2.348  1.00  0.00    -0.265 OA
ENDBRANCH   8  33
ENDBRANCH   4   8
ENDBRANCH   1   4
TORSDOF 14
