REMARK  15 active torsions:
REMARK  status: ('A' for Active; 'I' for Inactive)
REMARK    1  A    between atoms: C2_2  and  C3_3 
REMARK    2  A    between atoms: C3_3  and  O1_5 
REMARK    3  A    between atoms: C3_3  and  C15_17 
REMARK    4  A    between atoms: O1_5  and  C5_6 
REMARK    5  A    between atoms: C5_6  and  C6_8 
REMARK    6  A    between atoms: C15_17  and  O3_18 
REMARK    7  A    between atoms: C15_17  and  C16_20 
REMARK    8  A    between atoms: C16_20  and  N1_21 
REMARK    9  A    between atoms: N2_28  and  C23_29 
REMARK   10  A    between atoms: C23_29  and  C24_30 
REMARK   11  A    between atoms: C24_30  and  O4_31 
REMARK   12  A    between atoms: C24_30  and  C25_33 
REMARK   13  A    between atoms: C25_33  and  O5_34 
REMARK   14  A    between atoms: C26_36  and  C27_37 
REMARK   15  A    between atoms: C27_37  and  C28_38 
ROOT
HETATM    1  N1  UNL     1      -1.450  -0.844   0.869  1.00  0.00    -0.347 N 
HETATM    2  C17 UNL     1      -1.493   0.141   1.927  1.00  0.00     0.130 C 
HETATM    3  C18 UNL     1      -2.677   0.295   2.788  1.00  0.00     0.005 C 
HETATM    4  C19 UNL     1      -2.285   0.971   4.062  1.00  0.00     0.012 C 
HETATM    5  C20 UNL     1      -3.881   1.055   2.132  1.00  0.00     0.015 C 
HETATM    6  C21 UNL     1      -5.132   0.594   2.897  1.00  0.00     0.012 C 
HETATM    7  C22 UNL     1      -3.832   0.609   0.804  1.00  0.00     0.278 C 
HETATM    8  N2  UNL     1      -4.317   0.487  -0.455  1.00  0.00     0.105 N 
HETATM    9  C26 UNL     1      -3.325  -0.378  -1.127  1.00  0.00     0.314 C 
HETATM   10  C31 UNL     1      -2.323  -1.023  -0.250  1.00  0.00     0.253 C 
HETATM   11  O6  UNL     1      -2.187  -2.211  -0.657  1.00  0.00    -0.271 OA
ENDROOT
BRANCH   1  12
HETATM   12  C16 UNL     1      -0.333  -1.807   0.940  1.00  0.00     0.160 C 
BRANCH  12  13
HETATM   13  C15 UNL     1       0.793  -1.176   0.209  1.00  0.00     0.170 C 
BRANCH  13  14
HETATM   14  C3  UNL     1       2.109  -1.822   0.176  1.00  0.00     0.094 C 
HETATM   15  C4  UNL     1       2.156  -3.049  -0.793  1.00  0.00     0.049 C 
BRANCH  14  16
HETATM   16  C2  UNL     1       2.627  -2.334   1.457  1.00  0.00     0.036 C 
HETATM   17  C1  UNL     1       1.909  -3.517   2.052  1.00  0.00     0.008 C 
ENDBRANCH  14  16
BRANCH  14  18
HETATM   18  O1  UNL     1       3.026  -0.936  -0.467  1.00  0.00    -0.307 OA
BRANCH  18  19
HETATM   19  C5  UNL     1       3.488   0.225   0.058  1.00  0.00     0.263 C 
HETATM   20  O2  UNL     1       3.109   0.589   1.194  1.00  0.00    -0.265 OA
BRANCH  19  21
HETATM   21  C6  UNL     1       4.465   1.097  -0.719  1.00  0.00     0.086 C 
HETATM   22  C7  UNL     1       4.815   2.323   0.060  1.00  0.00     0.015 C 
HETATM   23  C8  UNL     1       6.001   2.981  -0.563  1.00  0.00     0.005 C 
HETATM   24  C9  UNL     1       7.316   2.440  -0.091  1.00  0.00    -0.018 C 
HETATM   25  C10 UNL     1       8.382   2.400  -1.144  1.00  0.00     0.010 C 
HETATM   26  C11 UNL     1       7.203   1.095   0.568  1.00  0.00     0.008 C 
HETATM   27  C12 UNL     1       6.707   0.007  -0.299  1.00  0.00    -0.017 C 
HETATM   28  C13 UNL     1       6.389  -1.191   0.606  1.00  0.00     0.010 C 
HETATM   29  C14 UNL     1       5.619   0.333  -1.236  1.00  0.00     0.018 C 
ENDBRANCH  19  21
ENDBRANCH  18  19
ENDBRANCH  14  18
ENDBRANCH  13  14
BRANCH  13  30
HETATM   30  O3  UNL     1       0.322  -0.913  -1.109  1.00  0.00    -0.391 OA
ATOM     31  H3  UNL     1      -0.531  -0.494  -1.088  1.00  0.00     0.210 HD
ENDBRANCH  13  30
ENDBRANCH  12  13
ENDBRANCH   1  12
BRANCH   9  32
HETATM   32  C27 UNL     1      -3.990  -1.348  -2.047  1.00  0.00     0.049 C 
BRANCH  32  33
HETATM   33  C28 UNL     1      -4.952  -2.310  -1.477  1.00  0.00    -0.020 C 
HETATM   34  C29 UNL     1      -6.146  -1.675  -0.818  1.00  0.00     0.009 C 
HETATM   35  C30 UNL     1      -5.503  -3.187  -2.618  1.00  0.00     0.009 C 
ENDBRANCH  32  33
ENDBRANCH   9  32
BRANCH   8  36
HETATM   36  C23 UNL     1      -4.492   1.621  -1.305  1.00  0.00     0.307 C 
BRANCH  36  37
HETATM   37  C24 UNL     1      -5.549   2.590  -0.950  1.00  0.00     0.170 C 
BRANCH  37  38
HETATM   38  O4  UNL     1      -5.297   3.133   0.302  1.00  0.00    -0.392 OA
ATOM     39  H4  UNL     1      -5.977   3.756   0.530  1.00  0.00     0.210 HD
ENDBRANCH  37  38
BRANCH  37  40
HETATM   40  C25 UNL     1      -5.476   3.765  -1.936  1.00  0.00     0.197 C 
BRANCH  40  41
HETATM   41  O5  UNL     1      -5.709   3.369  -3.231  1.00  0.00    -0.398 OA
ATOM     42  H5  UNL     1      -5.664   4.096  -3.841  1.00  0.00     0.209 HD
ENDBRANCH  40  41
ENDBRANCH  37  40
ENDBRANCH  36  37
ENDBRANCH   8  36
TORSDOF 15
