REMARK  7 active torsions:
REMARK  status: ('A' for Active; 'I' for Inactive)
REMARK    1  A    between atoms: N2_3  and  C2_5 
REMARK    2  A    between atoms: C2_5  and  C3_6 
REMARK    3  A    between atoms: C3_6  and  N3_7 
REMARK    4  A    between atoms: N3_7  and  C4_10 
REMARK    5  A    between atoms: C4_10  and  C5_11 
REMARK    6  A    between atoms: C5_11  and  N4_12 
REMARK    7  A    between atoms: C9_19  and  N5_20 
ROOT
HETATM    1  C5  UNL     1      -1.252  -0.009   0.472  1.00  0.00     0.175 C 
HETATM    2  C6  UNL     1      -2.010  -0.835   1.478  1.00  0.00     0.043 C 
HETATM    3  C7  UNL     1      -3.462  -0.535   1.259  1.00  0.00     0.005 C 
HETATM    4  C8  UNL     1      -3.555  -0.288  -0.209  1.00  0.00     0.035 C 
HETATM    5  C9  UNL     1      -2.200   0.113  -0.712  1.00  0.00     0.220 C 
ENDROOT
BRANCH   1   6
HETATM    6  C4  UNL     1      -0.018  -0.791   0.077  1.00  0.00     0.273 C 
BRANCH   6   7
HETATM    7  N3  UNL     1       0.781  -0.132  -0.900  1.00  0.00    -0.071 N 
ATOM      8  H32 UNL     1       1.043   0.810  -0.609  1.00  0.00     0.277 HD
ATOM      9  H31 UNL     1       0.244   0.114  -1.732  1.00  0.00     0.277 HD
BRANCH   7  10
HETATM   10  C3  UNL     1       1.932  -0.940  -1.218  1.00  0.00     0.251 C 
BRANCH  10  11
HETATM   11  C2  UNL     1       2.935  -1.040  -0.100  1.00  0.00     0.147 C 
BRANCH  11  12
HETATM   12  N2  UNL     1       3.439   0.293   0.255  1.00  0.00    -0.386 N 
HETATM   13  C1  UNL     1       4.627   0.642  -0.153  1.00  0.00     0.185 C 
HETATM   14  N1  UNL     1       5.109   1.922   0.186  1.00  0.00    -0.097 NA
ATOM     15  H2  UNL     1       2.871   0.933   0.810  1.00  0.00     0.159 HD
ENDBRANCH  11  12
ENDBRANCH  10  11
ENDBRANCH   7  10
ENDBRANCH   6   7
ENDBRANCH   1   6
BRANCH   1  16
HETATM   16  N4  UNL     1      -0.959   1.276   1.047  1.00  0.00    -0.067 N 
ATOM     17  H43 UNL     1      -0.324   1.180   1.839  1.00  0.00     0.275 HD
ATOM     18  H42 UNL     1      -0.369   1.825   0.422  1.00  0.00     0.275 HD
ATOM     19  H41 UNL     1      -1.791   1.803   1.313  1.00  0.00     0.275 HD
ENDBRANCH   1  16
BRANCH   5  20
HETATM   20  N5  UNL     1      -2.277   1.528  -1.111  1.00  0.00    -0.073 N 
ATOM     21  H53 UNL     1      -2.539   2.138  -0.337  1.00  0.00     0.274 HD
ATOM     22  H52 UNL     1      -1.359   1.930  -1.303  1.00  0.00     0.274 HD
ATOM     23  H51 UNL     1      -2.912   1.610  -1.905  1.00  0.00     0.274 HD
ENDBRANCH   5  20
TORSDOF 7
