REMARK  13 active torsions:
REMARK  status: ('A' for Active; 'I' for Inactive)
REMARK    1  A    between atoms: N1_2  and  C2_5 
REMARK    2  A    between atoms: C2_5  and  C4_7 
REMARK       I    between atoms: C4_7  and  N2_9 
REMARK    3  A    between atoms: N2_9  and  C5_11 
REMARK    4  A    between atoms: C5_11  and  C6_12 
REMARK    5  A    between atoms: C5_11  and  C10_17 
REMARK    6  A    between atoms: C6_12  and  C7_13 
REMARK    7  A    between atoms: C8_14  and  C9_15 
REMARK       I    between atoms: C10_17  and  N3_19 
REMARK    8  A    between atoms: N3_19  and  C11_21 
REMARK    9  A    between atoms: C11_21  and  C12_22 
REMARK   10  A    between atoms: C11_21  and  C15_26 
REMARK   11  A    between atoms: C12_22  and  C13_23 
REMARK   12  A    between atoms: C13_23  and  S1_24 
REMARK       I    between atoms: C15_26  and  N4_28 
REMARK   13  A    between atoms: C19_33  and  O4_34 
ROOT
HETATM    1  C10 UNL     1       2.021   0.741   0.534  1.00  0.00     0.242 C 
HETATM    2  O2  UNL     1       1.633   0.390   1.679  1.00  0.00    -0.271 OA
HETATM    3  N3  UNL     1       1.028   1.120  -0.399  1.00  0.00    -0.346 N 
ATOM      4  H3  UNL     1       1.302   1.410  -1.338  1.00  0.00     0.163 HD
ENDROOT
BRANCH   3   5
HETATM    5  C11 UNL     1      -0.398   1.100  -0.029  1.00  0.00     0.177 C 
BRANCH   5   6
HETATM    6  C12 UNL     1      -0.937   2.488  -0.161  1.00  0.00     0.045 C 
BRANCH   6   7
HETATM    7  C13 UNL     1      -0.134   3.386   0.797  1.00  0.00     0.076 C 
BRANCH   7   8
HETATM    8  S1  UNL     1      -0.700   5.085   0.724  1.00  0.00    -0.173 SA
HETATM    9  C14 UNL     1      -2.383   5.253   1.347  1.00  0.00     0.089 C 
ENDBRANCH   7   8
ENDBRANCH   6   7
ENDBRANCH   5   6
BRANCH   5  10
HETATM   10  C15 UNL     1      -1.106   0.081  -0.854  1.00  0.00     0.242 C 
HETATM   11  O3  UNL     1      -0.429  -0.475  -1.807  1.00  0.00    -0.271 OA
HETATM   12  N4  UNL     1      -2.429  -0.346  -0.710  1.00  0.00    -0.346 N 
HETATM   13  C16 UNL     1      -3.122   0.270   0.391  1.00  0.00     0.154 C 
HETATM   14  C25 UNL     1      -2.824  -1.314  -1.686  1.00  0.00     0.135 C 
HETATM   15  C17 UNL     1      -3.979  -0.736   1.118  1.00  0.00     0.010 C 
HETATM   16  C18 UNL     1      -4.913  -1.562   0.730  1.00  0.00     0.015 C 
HETATM   17 BR1  UNL     1      -5.639  -2.599   2.160  1.00  0.00    -0.053 Br
HETATM   18  C19 UNL     1      -5.557  -1.900  -0.553  1.00  0.00     0.161 C 
HETATM   19  C21 UNL     1      -5.324  -0.858  -1.618  1.00  0.00     0.047 C 
HETATM   20  C22 UNL     1      -4.096  -1.049  -2.418  1.00  0.00    -0.029 C 
HETATM   21  C23 UNL     1      -4.341  -2.313  -3.265  1.00  0.00     0.016 C 
HETATM   22  C24 UNL     1      -3.981   0.070  -3.427  1.00  0.00     0.016 C 
BRANCH  18  23
HETATM   23  O4  UNL     1      -6.949  -1.890  -0.299  1.00  0.00    -0.386 OA
HETATM   24  C20 UNL     1      -7.512  -3.103  -0.630  1.00  0.00     0.202 C 
ENDBRANCH  18  23
ENDBRANCH   5  10
ENDBRANCH   3   5
BRANCH   1  25
HETATM   25  C5  UNL     1       3.461   0.743   0.215  1.00  0.00     0.187 C 
BRANCH  25  26
HETATM   26  N2  UNL     1       4.193   0.298   1.381  1.00  0.00    -0.345 N 
HETATM   27  C4  UNL     1       5.102  -0.780   1.306  1.00  0.00     0.248 C 
HETATM   28  O1  UNL     1       5.259  -1.347   0.185  1.00  0.00    -0.271 OA
ATOM     29  H2  UNL     1       4.050   0.771   2.273  1.00  0.00     0.163 HD
BRANCH  27  30
HETATM   30  C2  UNL     1       5.834  -1.213   2.510  1.00  0.00     0.272 C 
HETATM   31  C3  UNL     1       4.838  -1.717   3.541  1.00  0.00     0.050 C 
BRANCH  30  32
HETATM   32  N1  UNL     1       6.728  -2.323   2.217  1.00  0.00    -0.067 N 
HETATM   33  C1  UNL     1       6.057  -3.450   1.637  1.00  0.00     0.267 C 
ATOM     34  H12 UNL     1       7.249  -2.599   3.049  1.00  0.00     0.277 HD
ATOM     35  H11 UNL     1       7.503  -2.019   1.628  1.00  0.00     0.277 HD
ENDBRANCH  30  32
ENDBRANCH  27  30
ENDBRANCH  25  26
BRANCH  25  36
HETATM   36  C6  UNL     1       3.962   2.132  -0.130  1.00  0.00     0.128 C 
BRANCH  36  37
HETATM   37  C7  UNL     1       5.403   2.097  -0.423  1.00  0.00    -0.103 C 
HETATM   38  C8  UNL     1       6.587   2.048  -0.671  1.00  0.00    -0.092 C 
BRANCH  38  39
HETATM   39  C9  UNL     1       8.021   1.962  -0.975  1.00  0.00     0.208 C 
HETATM   40 CL1  UNL     1       8.605   3.458  -1.716  1.00  0.00    -0.117 Cl
ENDBRANCH  38  39
ENDBRANCH  36  37
ENDBRANCH  25  36
ENDBRANCH   1  25
TORSDOF 13
