REMARK  14 active torsions:
REMARK  status: ('A' for Active; 'I' for Inactive)
REMARK    1  A    between atoms: C2_2  and  C3_3 
REMARK    2  A    between atoms: C5_6  and  O1_7 
REMARK    3  A    between atoms: C6_9  and  C7_10 
REMARK    4  A    between atoms: C7_10  and  C8_11 
REMARK       I    between atoms: C8_11  and  N2_13 
REMARK    5  A    between atoms: N2_13  and  N3_14 
REMARK    6  A    between atoms: N2_13  and  C9_17 
REMARK    7  A    between atoms: C9_17  and  C10_18 
REMARK    8  A    between atoms: C12_21  and  C13_22 
REMARK    9  A    between atoms: C13_22  and  C14_23 
REMARK   10  A    between atoms: C17_26  and  C18_27 
REMARK   11  A    between atoms: C18_27  and  C20_29 
REMARK   12  A    between atoms: C22_33  and  O3_34 
REMARK   13  A    between atoms: C23_36  and  C24_37 
REMARK   14  A    between atoms: C24_37  and  C25_38 
ROOT
HETATM    1  C3  UNL     1      -2.386  -1.594   1.602  1.00  0.00     0.056 C 
HETATM    2  C4  UNL     1      -1.193  -2.466   1.537  1.00  0.00     0.136 C 
HETATM    3  N1  UNL     1      -0.405  -2.453   0.289  1.00  0.00    -0.356 N 
HETATM    4  C5  UNL     1       1.017  -2.272   0.240  1.00  0.00     0.144 C 
HETATM    5  C6  UNL     1       1.717  -0.920   0.291  1.00  0.00    -0.002 C 
HETATM    6  C11 UNL     1       0.837   0.218   0.203  1.00  0.00    -0.008 C 
HETATM    7  C12 UNL     1       1.082   1.619   0.058  1.00  0.00     0.032 C 
HETATM    8  C17 UNL     1      -0.154   2.325  -0.621  1.00  0.00     0.094 C 
HETATM    9  N4  UNL     1      -1.351   1.999   0.065  1.00  0.00    -0.367 N 
ATOM     10  H4  UNL     1      -1.158   1.781   1.043  1.00  0.00     0.161 HD
HETATM   11  C22 UNL     1      -2.709   1.889  -0.203  1.00  0.00     0.143 C 
HETATM   12  C23 UNL     1      -3.576   0.850  -0.761  1.00  0.00     0.268 C 
HETATM   13  N6  UNL     1      -3.876  -0.280   0.118  1.00  0.00    -0.058 N 
ATOM     14  H61 UNL     1      -4.730  -0.754  -0.175  1.00  0.00     0.278 HD
ATOM     15  H62 UNL     1      -4.173   0.042   1.039  1.00  0.00     0.278 HD
HETATM   16  C26 UNL     1      -2.792  -1.200   0.224  1.00  0.00     0.201 C 
HETATM   17  C27 UNL     1      -2.714  -2.342  -0.703  1.00  0.00     0.035 C 
HETATM   18  C28 UNL     1      -3.563  -3.524  -0.403  1.00  0.00     0.014 C 
HETATM   19  C29 UNL     1      -1.244  -2.657  -0.902  1.00  0.00     0.088 C 
HETATM   20  C30 UNL     1      -1.239  -4.083  -1.415  1.00  0.00     0.033 C 
ENDROOT
BRANCH   5  21
HETATM   21  C7  UNL     1       3.037  -0.946  -0.341  1.00  0.00     0.147 C 
BRANCH  21  22
HETATM   22  C8  UNL     1       4.094  -1.782   0.278  1.00  0.00     0.242 C 
HETATM   23  O2  UNL     1       3.953  -2.205   1.471  1.00  0.00    -0.271 OA
HETATM   24  N2  UNL     1       5.278  -2.144  -0.402  1.00  0.00    -0.267 N 
BRANCH  24  25
HETATM   25  N3  UNL     1       5.452  -1.704  -1.740  1.00  0.00    -0.340 N 
ATOM     26  H32 UNL     1       4.738  -1.147  -2.209  1.00  0.00     0.177 HD
ATOM     27  H31 UNL     1       6.307  -1.965  -2.231  1.00  0.00     0.177 HD
ENDBRANCH  24  25
BRANCH  24  28
HETATM   28  C9  UNL     1       6.286  -2.930   0.260  1.00  0.00     0.166 C 
BRANCH  28  29
HETATM   29  C10 UNL     1       7.333  -2.125   0.972  1.00  0.00     0.136 C 
HETATM   30 CL1  UNL     1       6.700  -1.071   2.234  1.00  0.00    -0.129 Cl
ENDBRANCH  28  29
ENDBRANCH  24  28
ENDBRANCH  21  22
ENDBRANCH   5  21
BRANCH   4  31
HETATM   31  O1  UNL     1       1.927  -3.196   0.145  1.00  0.00    -0.346 OA
ATOM     32  H1  UNL     1       2.869  -3.076   0.113  1.00  0.00     0.219 HD
ENDBRANCH   4  31
BRANCH   7  33
HETATM   33  C13 UNL     1       1.320   2.382   1.323  1.00  0.00     0.014 C 
BRANCH  33  34
HETATM   34  C14 UNL     1       2.478   2.054   2.169  1.00  0.00    -0.022 C 
HETATM   35  C15 UNL     1       3.836   2.213   1.587  1.00  0.00     0.009 C 
HETATM   36  C16 UNL     1       2.454   3.001   3.391  1.00  0.00     0.009 C 
ENDBRANCH  33  34
ENDBRANCH   7  33
BRANCH   8  37
HETATM   37  C18 UNL     1      -0.088   2.122  -2.091  1.00  0.00     0.004 C 
HETATM   38  C19 UNL     1       1.241   2.653  -2.659  1.00  0.00     0.012 C 
BRANCH  37  39
HETATM   39  C20 UNL     1      -1.111   3.026  -2.752  1.00  0.00     0.002 C 
HETATM   40  C21 UNL     1      -0.871   4.476  -2.462  1.00  0.00     0.005 C 
ENDBRANCH  37  39
ENDBRANCH   8  37
BRANCH   1  41
HETATM   41  C2  UNL     1      -3.494  -2.044   2.452  1.00  0.00    -0.029 C 
HETATM   42  C1  UNL     1      -3.609  -3.218   3.026  1.00  0.00     0.007 C 
ENDBRANCH   1  41
BRANCH  11  43
HETATM   43  O3  UNL     1      -3.384   2.969   0.116  1.00  0.00    -0.348 OA
ATOM     44  H3  UNL     1      -4.313   2.894  -0.067  1.00  0.00     0.219 HD
ENDBRANCH  11  43
BRANCH  12  45
HETATM   45  C24 UNL     1      -4.957   1.365  -1.106  1.00  0.00     0.141 C 
BRANCH  45  46
HETATM   46  C25 UNL     1      -5.748   1.847   0.020  1.00  0.00     0.233 C 
HETATM   47  N5  UNL     1      -6.963   2.534  -0.298  1.00  0.00    -0.062 NA
HETATM   48  O4  UNL     1      -5.506   1.741   1.243  1.00  0.00    -0.277 OA
ENDBRANCH  45  46
ENDBRANCH  12  45
TORSDOF 14
