REMARK  10 active torsions:
REMARK  status: ('A' for Active; 'I' for Inactive)
REMARK    1  A    between atoms: C2_2  and  C3_3 
REMARK    2  A    between atoms: N1_7  and  C7_8 
REMARK    3  A    between atoms: N2_10  and  C9_11 
REMARK    4  A    between atoms: C9_11  and  C10_12 
REMARK    5  A    between atoms: C10_12  and  C11_13 
REMARK    6  A    between atoms: C13_15  and  N3_16 
REMARK    7  A    between atoms: N3_16  and  C14_18 
REMARK    8  A    between atoms: C14_18  and  C15_19 
REMARK    9  A    between atoms: C15_19  and  C16_21 
REMARK   10  A    between atoms: C16_21  and  C17_22 
ROOT
HETATM    1  C9  UNL     1       0.826   1.068  -1.650  1.00  0.00     0.273 C 
ENDROOT
BRANCH   1   2
HETATM    2  N2  UNL     1      -0.009  -0.111  -1.365  1.00  0.00     0.094 N 
HETATM    3  C8  UNL     1      -1.082   0.420  -0.535  1.00  0.00     0.338 C 
HETATM    4  C7  UNL     1      -2.226  -0.556  -0.344  1.00  0.00     0.452 C 
HETATM    5  N4  UNL     1      -2.461  -1.346  -1.527  1.00  0.00     0.119 N 
HETATM    6  C24 UNL     1      -1.937  -0.741  -2.727  1.00  0.00     0.304 C 
HETATM    7  C25 UNL     1      -1.787  -2.658  -1.452  1.00  0.00     0.312 C 
HETATM    8  C23 UNL     1      -0.436  -0.641  -2.612  1.00  0.00     0.302 C 
BRANCH   4   9
HETATM    9  N1  UNL     1      -3.370   0.047   0.248  1.00  0.00    -0.029 N 
HETATM   10  C6  UNL     1      -3.665  -0.531   1.569  1.00  0.00     0.241 C 
HETATM   11  C5  UNL     1      -5.044  -0.187   2.054  1.00  0.00     0.033 C 
HETATM   12  C4  UNL     1      -5.421   1.139   1.370  1.00  0.00    -0.005 C 
HETATM   13  C3  UNL     1      -5.545   0.966  -0.115  1.00  0.00     0.020 C 
HETATM   14  C27 UNL     1      -4.151   1.971   1.600  1.00  0.00     0.033 C 
HETATM   15  C28 UNL     1      -4.603  -0.087  -0.564  1.00  0.00     0.193 C 
HETATM   16  C29 UNL     1      -5.069  -1.487  -0.621  1.00  0.00     0.041 C 
HETATM   17  C26 UNL     1      -3.176   1.465   0.529  1.00  0.00     0.241 C 
BRANCH  13  18
HETATM   18  C2  UNL     1      -6.897   1.052  -0.678  1.00  0.00     0.002 C 
HETATM   19  C1  UNL     1      -7.956   0.127  -0.215  1.00  0.00     0.005 C 
ENDBRANCH  13  18
ENDBRANCH   4   9
ENDBRANCH   1   2
BRANCH   1  20
HETATM   20  C10 UNL     1       1.562   1.597  -0.484  1.00  0.00     0.037 C 
BRANCH  20  21
HETATM   21  C11 UNL     1       2.621   0.704   0.115  1.00  0.00     0.012 A 
HETATM   22  C12 UNL     1       2.317  -0.628   0.645  1.00  0.00     0.032 A 
HETATM   23  C13 UNL     1       2.637   0.510   1.561  1.00  0.00     0.085 A 
BRANCH  23  24
HETATM   24  N3  UNL     1       3.641   0.505   2.512  1.00  0.00    -0.391 N 
ATOM     25  H3  UNL     1       3.578   1.199   3.257  1.00  0.00     0.159 HD
BRANCH  24  26
HETATM   26  C14 UNL     1       4.726  -0.358   2.545  1.00  0.00     0.134 C 
BRANCH  26  27
HETATM   27  C15 UNL     1       5.821  -0.070   1.598  1.00  0.00     0.168 C 
HETATM   28  O1  UNL     1       5.893   0.923   0.923  1.00  0.00    -0.291 OA
BRANCH  27  29
HETATM   29  C16 UNL     1       6.944  -1.060   1.441  1.00  0.00     0.123 C 
BRANCH  29  30
HETATM   30  C17 UNL     1       7.966  -0.568   0.507  1.00  0.00    -0.048 A 
HETATM   31  C18 UNL     1       7.811  -0.795  -0.842  1.00  0.00     0.026 A 
HETATM   32  C19 UNL     1       8.756  -0.341  -1.749  1.00  0.00     0.012 A 
HETATM   33 BR1  UNL     1       8.476  -0.685  -3.602  1.00  0.00    -0.051 Br
HETATM   34  C20 UNL     1       9.871   0.349  -1.310  1.00  0.00     0.038 A 
HETATM   35  C21 UNL     1      10.033   0.580   0.036  1.00  0.00     0.012 A 
HETATM   36 BR2  UNL     1      11.554   1.527   0.709  1.00  0.00    -0.051 Br
HETATM   37  C22 UNL     1       9.095   0.129   0.939  1.00  0.00     0.026 A 
ENDBRANCH  29  30
ENDBRANCH  27  29
ENDBRANCH  26  27
ENDBRANCH  24  26
ENDBRANCH  23  24
ENDBRANCH  20  21
ENDBRANCH   1  20
TORSDOF 10
