REMARK  7 active torsions:
REMARK  status: ('A' for Active; 'I' for Inactive)
REMARK    1  A    between atoms: N1_2  and  C2_5 
REMARK    2  A    between atoms: C2_5  and  C3_6 
REMARK    3  A    between atoms: C3_6  and  C4_7 
REMARK    4  A    between atoms: C4_7  and  C5_8 
REMARK    5  A    between atoms: C5_8  and  N2_9 
REMARK    6  A    between atoms: N2_9  and  C6_10 
REMARK    7  A    between atoms: C8_18  and  N6_19 
ROOT
HETATM    1  C6  UNL     1      -2.563  -0.022  -0.166  1.00  0.00     0.236 A 
HETATM    2  N3  UNL     1      -3.194   0.476  -1.268  1.00  0.00    -0.270 N 
ATOM      3  H3  UNL     1      -2.701   0.462  -2.161  1.00  0.00     0.189 HD
HETATM    4  N4  UNL     1      -4.404   0.971  -1.230  1.00  0.00    -0.294 N 
ATOM      5  H4  UNL     1      -4.840   1.335  -2.078  1.00  0.00     0.187 HD
HETATM    6  C7  UNL     1      -5.064   0.995  -0.066  1.00  0.00     0.199 A 
HETATM    7  N5  UNL     1      -4.495   0.521   1.051  1.00  0.00    -0.334 N 
ATOM      8  H5  UNL     1      -5.021   0.553   1.924  1.00  0.00     0.168 HD
HETATM    9  C8  UNL     1      -3.265   0.009   1.058  1.00  0.00     0.160 A 
ENDROOT
BRANCH   1  10
HETATM   10  N2  UNL     1      -1.457  -0.468  -0.247  1.00  0.00    -0.399 NA
BRANCH  10  11
HETATM   11  C5  UNL     1      -0.231  -0.930  -0.495  1.00  0.00     0.158 C 
BRANCH  11  12
HETATM   12  C4  UNL     1       0.899   0.101  -0.575  1.00  0.00     0.061 C 
BRANCH  12  13
HETATM   13  C3  UNL     1       2.152  -0.736  -0.849  1.00  0.00     0.033 C 
BRANCH  13  14
HETATM   14  C2  UNL     1       3.332   0.211  -0.932  1.00  0.00     0.232 C 
BRANCH  14  15
HETATM   15  N1  UNL     1       3.426   0.882   0.348  1.00  0.00    -0.079 N 
HETATM   16  C1  UNL     1       3.830  -0.019   1.404  1.00  0.00     0.266 C 
ATOM     17  H12 UNL     1       2.555   1.358   0.581  1.00  0.00     0.276 HD
ATOM     18  H11 UNL     1       4.043   1.692   0.297  1.00  0.00     0.276 HD
ENDBRANCH  14  15
ENDBRANCH  13  14
ENDBRANCH  12  13
ENDBRANCH  11  12
ENDBRANCH  10  11
ENDBRANCH   1  10
BRANCH   9  19
HETATM   19  N6  UNL     1      -2.719  -0.455   2.142  1.00  0.00    -0.381 N 
ATOM     20  H62 UNL     1      -1.777  -0.847   2.147  1.00  0.00     0.157 HD
ATOM     21  H61 UNL     1      -3.226  -0.433   3.027  1.00  0.00     0.157 HD
ENDBRANCH   9  19
TORSDOF 7
