REMARK  2 active torsions:
REMARK  status: ('A' for Active; 'I' for Inactive)
REMARK    1  A    between atoms: N3_4  and  N4_6 
REMARK    2  A    between atoms: C2_8  and  C3_9 
ROOT
HETATM    1  N4  UNL     1      -0.394  -0.339  -0.257  1.00  0.00    -0.308 N 
ATOM      2  H4  UNL     1      -0.247   0.375  -0.971  1.00  0.00     0.186 HD
HETATM    3  C2  UNL     1       0.582  -0.737   0.476  1.00  0.00     0.138 C 
ENDROOT
BRANCH   3   4
HETATM    4  C3  UNL     1       1.902  -0.156   0.274  1.00  0.00     0.065 A 
HETATM    5  C4  UNL     1       2.212   0.812  -0.661  1.00  0.00     0.119 A 
HETATM    6  N5  UNL     1       3.526   1.053  -0.502  1.00  0.00    -0.360 N 
HETATM    7  C5  UNL     1       3.996   0.262   0.490  1.00  0.00     0.180 A 
ATOM      8  H5  UNL     1       4.077   1.722  -1.040  1.00  0.00     0.166 HD
HETATM    9  N6  UNL     1       2.998  -0.490   0.977  1.00  0.00    -0.350 N 
ATOM     10  H6  UNL     1       3.058  -1.177   1.729  1.00  0.00     0.166 HD
ENDBRANCH   3   4
BRANCH   1  11
HETATM   11  N3  UNL     1      -1.660  -0.896  -0.064  1.00  0.00    -0.276 N 
HETATM   12  C1  UNL     1      -2.702  -0.171  -0.312  1.00  0.00     0.215 C 
HETATM   13  N1  UNL     1      -2.592   1.172  -0.773  1.00  0.00    -0.065 NA
HETATM   14  N2  UNL     1      -3.967  -0.753  -0.110  1.00  0.00    -0.065 NA
ATOM     15  H3  UNL     1      -1.761  -1.856   0.266  1.00  0.00     0.189 HD
ENDBRANCH   1  11
TORSDOF 2
