REMARK  7 active torsions:
REMARK  status: ('A' for Active; 'I' for Inactive)
REMARK    1  A    between atoms: C2_2  and  C3_3 
REMARK    2  A    between atoms: C3_3  and  C4_5 
REMARK    3  A    between atoms: C4_5  and  C6_8 
REMARK       I    between atoms: C6_8  and  N2_10 
REMARK    4  A    between atoms: C7_11  and  C8_12 
REMARK    5  A    between atoms: C15_20  and  C16_21 
REMARK    6  A    between atoms: C16_21  and  N4_22 
REMARK    7  A    between atoms: C16_21  and  C17_26 
ROOT
HETATM    1  C4  UNL     1       2.251  -1.325   0.395  1.00  0.00     0.254 C 
HETATM    2  C5  UNL     1       2.479  -1.495  -1.050  1.00  0.00     0.081 C 
HETATM    3  N1  UNL     1       2.683  -1.631  -2.182  1.00  0.00    -0.196 NA
ENDROOT
BRANCH   1   4
HETATM    4  C3  UNL     1       3.587  -1.208   1.036  1.00  0.00     0.153 C 
HETATM    5  O1  UNL     1       3.891  -1.969   1.925  1.00  0.00    -0.296 OA
BRANCH   4   6
HETATM    6  C2  UNL     1       4.537  -0.176   0.596  1.00  0.00     0.076 C 
HETATM    7  C1  UNL     1       5.844  -0.238   1.371  1.00  0.00     0.013 C 
ENDBRANCH   4   6
ENDBRANCH   1   4
BRANCH   1   8
HETATM    8  C6  UNL     1       1.354  -0.216   0.674  1.00  0.00     0.250 C 
HETATM    9  O2  UNL     1       1.843   0.662   1.483  1.00  0.00    -0.271 OA
HETATM   10  N2  UNL     1       0.056   0.050   0.201  1.00  0.00    -0.301 N 
HETATM   11  C7  UNL     1      -0.659   1.287   0.520  1.00  0.00     0.068 C 
HETATM   12  C15 UNL     1      -0.834  -0.690  -0.689  1.00  0.00     0.155 C 
HETATM   13  N3  UNL     1      -1.698   1.456  -0.455  1.00  0.00    -0.266 NA
HETATM   14  C11 UNL     1      -1.693   2.786  -1.044  1.00  0.00     0.119 C 
HETATM   15  C12 UNL     1      -1.459   0.444  -1.488  1.00  0.00     0.034 C 
HETATM   16  C13 UNL     1      -2.717   0.198  -2.191  1.00  0.00     0.034 C 
HETATM   17  C14 UNL     1      -0.443   0.997  -2.466  1.00  0.00     0.034 C 
BRANCH  11  18
HETATM   18  C8  UNL     1      -0.947   1.593   1.913  1.00  0.00     0.040 C 
HETATM   19  C9  UNL     1      -1.700   2.949   1.969  1.00  0.00     0.017 C 
HETATM   20  C10 UNL     1      -1.748   0.682   2.749  1.00  0.00     0.017 C 
ENDBRANCH  11  18
BRANCH  12  21
HETATM   21  C16 UNL     1      -1.803  -1.624  -0.124  1.00  0.00     0.296 C 
BRANCH  21  22
HETATM   22  N4  UNL     1      -2.512  -2.230  -1.282  1.00  0.00    -0.065 N 
ATOM     23  H43 UNL     1      -2.928  -1.542  -1.910  1.00  0.00     0.275 HD
ATOM     24  H42 UNL     1      -1.886  -2.657  -1.964  1.00  0.00     0.275 HD
ATOM     25  H41 UNL     1      -3.189  -2.883  -0.887  1.00  0.00     0.275 HD
ENDBRANCH  21  22
BRANCH  21  26
HETATM   26  C17 UNL     1      -1.213  -2.700   0.676  1.00  0.00     0.264 C 
HETATM   27  N5  UNL     1      -1.114  -4.020   0.089  1.00  0.00    -0.060 NA
HETATM   28  O3  UNL     1      -0.769  -2.631   1.837  1.00  0.00    -0.274 OA
ENDBRANCH  21  26
ENDBRANCH  12  21
ENDBRANCH   1   8
TORSDOF 7
