REMARK  13 active torsions:
REMARK  status: ('A' for Active; 'I' for Inactive)
REMARK    1  A    between atoms: O1_2  and  C2_3 
REMARK    2  A    between atoms: C2_3  and  S1_5 
REMARK    3  A    between atoms: S1_5  and  C3_6 
REMARK    4  A    between atoms: C3_6  and  C4_7 
REMARK    5  A    between atoms: C4_7  and  C5_8 
REMARK    6  A    between atoms: C5_8  and  C6_9 
REMARK    7  A    between atoms: C6_9  and  C7_10 
REMARK    8  A    between atoms: C7_10  and  C8_11 
REMARK    9  A    between atoms: C8_11  and  C9_12 
REMARK   10  A    between atoms: C9_12  and  C10_13 
REMARK   11  A    between atoms: C11_17  and  C12_18 
REMARK   12  A    between atoms: C19_26  and  O6_27 
REMARK   13  A    between atoms: C21_30  and  O7_31 
ROOT
HETATM    1  C9  UNL     1      -0.988  -1.965  -0.393  1.00  0.00     0.193 C 
HETATM    2  O5  UNL     1      -2.089  -2.119   0.469  1.00  0.00    -0.350 OA
HETATM    3  C11 UNL     1      -3.234  -1.463   0.280  1.00  0.00     0.185 C 
HETATM    4  C19 UNL     1      -3.609  -1.250  -1.140  1.00  0.00     0.154 C 
HETATM    5  C20 UNL     1      -2.446  -0.581  -1.883  1.00  0.00     0.070 C 
HETATM    6  C21 UNL     1      -1.332  -1.636  -1.794  1.00  0.00     0.170 C 
ENDROOT
BRANCH   1   7
HETATM    7  C8  UNL     1      -0.171  -0.893   0.229  1.00  0.00     0.024 C 
BRANCH   7   8
HETATM    8  C7  UNL     1       1.106  -0.467  -0.250  1.00  0.00    -0.005 C 
BRANCH   8   9
HETATM    9  C6  UNL     1       1.850  -0.774  -1.253  1.00  0.00    -0.027 C 
BRANCH   9  10
HETATM   10  C5  UNL     1       3.212  -0.022  -1.371  1.00  0.00     0.028 C 
BRANCH  10  11
HETATM   11  C4  UNL     1       4.222  -1.106  -1.321  1.00  0.00     0.014 C 
BRANCH  11  12
HETATM   12  C3  UNL     1       5.643  -0.659  -1.446  1.00  0.00     0.085 C 
BRANCH  12  13
HETATM   13  S1  UNL     1       6.181   0.478  -0.204  1.00  0.00    -0.061 SA
BRANCH  13  14
HETATM   14  C2  UNL     1       5.601   2.137  -0.352  1.00  0.00     0.321 C 
HETATM   15  O2  UNL     1       4.994   2.519  -1.377  1.00  0.00    -0.252 OA
BRANCH  14  16
HETATM   16  O1  UNL     1       5.788   3.097   0.642  1.00  0.00    -0.318 OA
HETATM   17  C1  UNL     1       5.305   4.429   0.476  1.00  0.00     0.214 C 
ENDBRANCH  14  16
ENDBRANCH  13  14
ENDBRANCH  12  13
ENDBRANCH  11  12
ENDBRANCH  10  11
ENDBRANCH   9  10
ENDBRANCH   8   9
ENDBRANCH   7   8
ENDBRANCH   1   7
BRANCH   1  18
HETATM   18  C10 UNL     1      -0.210  -3.258  -0.305  1.00  0.00     0.216 C 
HETATM   19  O3  UNL     1      -0.670  -4.090   0.566  1.00  0.00    -0.645 OA
HETATM   20  O4  UNL     1       0.865  -3.672  -0.981  1.00  0.00    -0.645 OA
ENDBRANCH   1  18
BRANCH   6  21
HETATM   21  O7  UNL     1      -1.818  -2.730  -2.517  1.00  0.00    -0.392 OA
ATOM     22  H7  UNL     1      -2.039  -2.519  -3.417  1.00  0.00     0.210 HD
ENDBRANCH   6  21
BRANCH   3  23
HETATM   23  C12 UNL     1      -3.344  -0.274   1.160  1.00  0.00    -0.026 A 
HETATM   24  C13 UNL     1      -3.000  -0.474   2.505  1.00  0.00     0.010 A 
HETATM   25  C14 UNL     1      -3.064   0.551   3.422  1.00  0.00     0.009 A 
HETATM   26  C15 UNL     1      -3.467   1.800   3.057  1.00  0.00    -0.045 A 
HETATM   27  C16 UNL     1      -3.540   2.926   4.056  1.00  0.00     0.049 C 
HETATM   28  C17 UNL     1      -3.808   2.015   1.745  1.00  0.00     0.017 A 
HETATM   29 BR1  UNL     1      -4.383   3.717   1.122  1.00  0.00    -0.051 Br
HETATM   30  C18 UNL     1      -3.740   0.973   0.817  1.00  0.00     0.029 A 
ENDBRANCH   3  23
BRANCH   4  31
HETATM   31  O6  UNL     1      -4.830  -0.711  -1.401  1.00  0.00    -0.393 OA
ATOM     32  H6  UNL     1      -5.070  -0.575  -2.310  1.00  0.00     0.210 HD
ENDBRANCH   4  31
TORSDOF 13
