REMARK  5 active torsions:
REMARK  status: ('A' for Active; 'I' for Inactive)
REMARK    1  A    between atoms: C2_3  and  N2_4 
REMARK    2  A    between atoms: C2_3  and  N3_8 
REMARK    3  A    between atoms: N3_8  and  C3_10 
REMARK    4  A    between atoms: C3_10  and  C4_14 
REMARK    5  A    between atoms: C4_14  and  C5_16 
ROOT
HETATM    1  N1  UNL     1      -1.788   2.153  -2.508  1.00  0.00    -0.193 NA
HETATM    2  C1  UNL     1      -2.042   1.508  -1.573  1.00  0.00     0.114 C 
HETATM    3  C2  UNL     1      -2.365   0.713  -0.395  1.00  0.00     0.390 C 
ENDROOT
BRANCH   3   4
HETATM    4  N2  UNL     1      -3.808   0.575  -0.335  1.00  0.00    -0.045 N 
ATOM      5  H23 UNL     1      -4.292   1.472  -0.352  1.00  0.00     0.278 HD
ATOM      6  H22 UNL     1      -4.205   0.191  -1.193  1.00  0.00     0.278 HD
ATOM      7  H21 UNL     1      -4.034   0.019   0.489  1.00  0.00     0.278 HD
ENDBRANCH   3   4
BRANCH   3   8
HETATM    8  N3  UNL     1      -1.714  -0.566  -0.536  1.00  0.00    -0.335 N 
ATOM      9  H3  UNL     1      -2.272  -1.420  -0.552  1.00  0.00     0.164 HD
BRANCH   8  10
HETATM   10  C3  UNL     1      -0.287  -0.644  -0.654  1.00  0.00     0.150 C 
HETATM   11  N4  UNL     1       0.153  -0.977  -1.795  1.00  0.00    -0.382 N 
ATOM     12  H42 UNL     1      -0.418  -1.187  -2.614  1.00  0.00     0.157 HD
ATOM     13  H41 UNL     1       1.168  -1.032  -1.879  1.00  0.00     0.157 HD
BRANCH  10  14
HETATM   14  C4  UNL     1       0.510  -0.351   0.488  1.00  0.00     0.243 C 
HETATM   15  O1  UNL     1      -0.118  -0.028   1.574  1.00  0.00    -0.282 OA
BRANCH  14  16
HETATM   16  C5  UNL     1       1.969  -0.383   0.539  1.00  0.00     0.116 A 
HETATM   17  C6  UNL     1       2.777  -0.100   1.643  1.00  0.00     0.139 A 
HETATM   18  N5  UNL     1       4.066  -0.236   1.303  1.00  0.00    -0.293 N 
HETATM   19  N6  UNL     1       4.068  -0.593   0.025  1.00  0.00    -0.022 NA
ATOM     20  H5  UNL     1       4.878  -0.094   1.903  1.00  0.00     0.183 HD
HETATM   21  N7  UNL     1       2.831  -0.681  -0.431  1.00  0.00    -0.279 N 
ATOM     22  H7  UNL     1       2.575  -0.939  -1.384  1.00  0.00     0.184 HD
ENDBRANCH  14  16
ENDBRANCH  10  14
ENDBRANCH   8  10
ENDBRANCH   3   8
TORSDOF 5
