REMARK  10 active torsions:
REMARK  status: ('A' for Active; 'I' for Inactive)
REMARK    1  A    between atoms: N1_1  and  C1_4 
REMARK    2  A    between atoms: N3_7  and  O1_8 
REMARK    3  A    between atoms: C5_13  and  C6_14 
REMARK       I    between atoms: C6_14  and  N4_16 
REMARK    4  A    between atoms: N4_16  and  C7_18 
REMARK    5  A    between atoms: C7_18  and  O3_19 
REMARK    6  A    between atoms: C7_18  and  C8_21 
REMARK    7  A    between atoms: C8_21  and  N5_22 
REMARK    8  A    between atoms: C8_21  and  C9_26 
REMARK    9  A    between atoms: C9_26  and  N6_27 
REMARK   10  A    between atoms: C9_26  and  N7_31 
ROOT
HETATM    1  C6  UNL     1      -0.190  -0.623   0.840  1.00  0.00     0.253 C 
HETATM    2  O2  UNL     1      -0.488  -1.851   0.699  1.00  0.00    -0.268 OA
HETATM    3  N4  UNL     1      -1.202   0.260   1.234  1.00  0.00    -0.329 N 
ATOM      4  H4  UNL     1      -0.948   1.242   1.344  1.00  0.00     0.165 HD
ENDROOT
BRANCH   1   5
HETATM    5  C5  UNL     1       1.187  -0.240   0.577  1.00  0.00     0.034 A 
HETATM    6  C4  UNL     1       1.610   1.064   0.702  1.00  0.00     0.019 A 
HETATM    7  C3  UNL     1       2.913   1.447   0.456  1.00  0.00     0.037 A 
HETATM    8  C2  UNL     1       3.856   0.520   0.072  1.00  0.00     0.109 A 
HETATM    9  N3  UNL     1       5.144   0.889  -0.172  1.00  0.00    -0.147 N 
HETATM   10  C11 UNL     1       3.447  -0.790  -0.057  1.00  0.00     0.081 A 
HETATM   11  N2  UNL     1       5.998  -0.044  -0.537  1.00  0.00    -0.105 N 
HETATM   12  C1  UNL     1       5.650  -1.336  -0.677  1.00  0.00     0.693 A 
ATOM     13  H2  UNL     1       6.965   0.224  -0.722  1.00  0.00     0.208 HD
HETATM   14  N8  UNL     1       4.380  -1.711  -0.438  1.00  0.00    -0.188 N 
ATOM     15  H8  UNL     1       4.113  -2.690  -0.542  1.00  0.00     0.184 HD
HETATM   16  C10 UNL     1       2.141  -1.159   0.191  1.00  0.00     0.049 A 
BRANCH   9  17
HETATM   17  O1  UNL     1       5.460   2.207  -0.020  1.00  0.00    -0.267 OA
ATOM     18  H1  UNL     1       4.844   2.880   0.243  1.00  0.00     0.247 HD
ENDBRANCH   9  17
BRANCH  12  19
HETATM   19  N1  UNL     1       6.477  -2.262  -1.034  1.00  0.00    -0.233 N 
ATOM     20  H12 UNL     1       7.440  -1.978  -1.215  1.00  0.00     0.174 HD
ATOM     21  H11 UNL     1       6.213  -3.242  -1.140  1.00  0.00     0.174 HD
ENDBRANCH  12  19
ENDBRANCH   1   5
BRANCH   3  22
HETATM   22  C7  UNL     1      -2.561  -0.096   1.496  1.00  0.00     0.255 C 
BRANCH  22  23
HETATM   23  O3  UNL     1      -2.900   0.139   2.835  1.00  0.00    -0.374 OA
ATOM     24  H3  UNL     1      -3.803  -0.098   3.009  1.00  0.00     0.212 HD
ENDBRANCH  22  23
BRANCH  22  25
HETATM   25  C8  UNL     1      -3.546   0.635   0.614  1.00  0.00     0.289 C 
BRANCH  25  26
HETATM   26  N5  UNL     1      -4.902   0.183   0.840  1.00  0.00    -0.067 N 
ATOM     27  H53 UNL     1      -4.981  -0.828   0.728  1.00  0.00     0.275 HD
ATOM     28  H52 UNL     1      -5.159   0.255   1.824  1.00  0.00     0.275 HD
ATOM     29  H51 UNL     1      -5.567   0.677   0.245  1.00  0.00     0.275 HD
ENDBRANCH  25  26
BRANCH  25  30
HETATM   30  C9  UNL     1      -3.246   0.491  -0.840  1.00  0.00     0.412 C 
BRANCH  30  31
HETATM   31  N6  UNL     1      -3.267  -0.890  -1.285  1.00  0.00    -0.048 N 
ATOM     32  H63 UNL     1      -2.638  -1.464  -0.724  1.00  0.00     0.276 HD
ATOM     33  H62 UNL     1      -4.153  -1.336  -1.049  1.00  0.00     0.276 HD
ATOM     34  H61 UNL     1      -3.062  -0.988  -2.279  1.00  0.00     0.276 HD
ENDBRANCH  30  31
BRANCH  30  35
HETATM   35  N7  UNL     1      -4.281   1.185  -1.586  1.00  0.00    -0.048 N 
ATOM     36  H73 UNL     1      -5.220   0.868  -1.344  1.00  0.00     0.276 HD
ATOM     37  H72 UNL     1      -4.387   2.158  -1.300  1.00  0.00     0.276 HD
ATOM     38  H71 UNL     1      -4.076   1.087  -2.580  1.00  0.00     0.276 HD
ENDBRANCH  30  35
ENDBRANCH  25  30
ENDBRANCH  22  25
ENDBRANCH   3  22
TORSDOF 10
