REMARK  9 active torsions:
REMARK  status: ('A' for Active; 'I' for Inactive)
REMARK    1  A    between atoms: C3_5  and  N2_6 
REMARK    2  A    between atoms: N2_6  and  C4_8 
REMARK    3  A    between atoms: C4_8  and  C5_9 
REMARK    4  A    between atoms: C5_9  and  C6_10 
REMARK    5  A    between atoms: C6_10  and  N3_11 
REMARK    6  A    between atoms: N3_11  and  C7_13 
REMARK    7  A    between atoms: C7_13  and  C8_14 
REMARK    8  A    between atoms: C8_14  and  O1_15 
REMARK    9  A    between atoms: C8_14  and  C9_17 
ROOT
HETATM    1  C5  UNL     1       1.937   0.125  -1.571  1.00  0.00     0.039 C 
ENDROOT
BRANCH   1   2
HETATM    2  C4  UNL     1       2.756  -1.040  -1.137  1.00  0.00     0.139 C 
BRANCH   2   3
HETATM    3  N2  UNL     1       3.273  -0.979   0.185  1.00  0.00    -0.226 N 
ATOM      4  H2  UNL     1       2.622  -1.203   0.937  1.00  0.00     0.177 HD
BRANCH   3   5
HETATM    5  C3  UNL     1       4.466  -0.674   0.537  1.00  0.00     0.679 A 
HETATM    6  N1  UNL     1       4.763  -0.678   1.877  1.00  0.00    -0.189 N 
HETATM    7  C2  UNL     1       5.983  -0.376   2.333  1.00  0.00     0.092 A 
ATOM      8  H1  UNL     1       4.031  -0.919   2.545  1.00  0.00     0.184 HD
HETATM    9  C1  UNL     1       6.275  -0.380   3.628  1.00  0.00     0.048 C 
HETATM   10  C17 UNL     1       6.967  -0.053   1.428  1.00  0.00     0.224 A 
HETATM   11  C15 UNL     1       6.713  -0.038   0.079  1.00  0.00     0.092 A 
HETATM   12  O2  UNL     1       8.136   0.239   1.810  1.00  0.00    -0.284 OA
HETATM   13  N5  UNL     1       5.442  -0.356  -0.321  1.00  0.00    -0.189 N 
HETATM   14  C16 UNL     1       7.617   0.261  -0.826  1.00  0.00     0.048 C 
ATOM     15  H5  UNL     1       5.230  -0.350  -1.319  1.00  0.00     0.184 HD
ENDBRANCH   3   5
ENDBRANCH   2   3
ENDBRANCH   1   2
BRANCH   1  16
HETATM   16  C6  UNL     1       0.685   0.382  -0.794  1.00  0.00     0.115 C 
BRANCH  16  17
HETATM   17  N3  UNL     1      -0.178  -0.749  -0.845  1.00  0.00    -0.418 N 
ATOM     18  H3  UNL     1       0.130  -1.632  -1.253  1.00  0.00     0.153 HD
BRANCH  17  19
HETATM   19  C7  UNL     1      -1.486  -0.601  -0.305  1.00  0.00     0.151 C 
BRANCH  19  20
HETATM   20  C8  UNL     1      -2.342   0.328  -1.158  1.00  0.00     0.180 C 
BRANCH  20  21
HETATM   21  O1  UNL     1      -2.389  -0.182  -2.475  1.00  0.00    -0.388 OA
ATOM     22  H1  UNL     1      -2.923   0.397  -3.007  1.00  0.00     0.210 HD
ENDBRANCH  20  21
BRANCH  20  23
HETATM   23  C9  UNL     1      -3.758   0.327  -0.623  1.00  0.00     0.013 C 
HETATM   24  N4  UNL     1      -4.216  -0.307   0.367  1.00  0.00    -0.386 N 
HETATM   25  C10 UNL     1      -5.633  -0.047   0.565  1.00  0.00     0.023 C 
ATOM     26  H4  UNL     1      -3.660  -0.926   0.957  1.00  0.00     0.160 HD
HETATM   27  C11 UNL     1      -5.942   0.011   2.024  1.00  0.00     0.038 C 
HETATM   28  C12 UNL     1      -6.499  -1.027  -0.162  1.00  0.00     0.038 C 
HETATM   29  C13 UNL     1      -5.823   1.310  -0.129  1.00  0.00     0.036 C 
HETATM   30  C14 UNL     1      -4.841   1.129  -1.262  1.00  0.00     0.057 C 
ENDBRANCH  20  23
ENDBRANCH  19  20
ENDBRANCH  17  19
ENDBRANCH  16  17
ENDBRANCH   1  16
TORSDOF 9
