REMARK  4 active torsions:
REMARK  status: ('A' for Active; 'I' for Inactive)
REMARK    1  A    between atoms: C1_2  and  C2_3 
REMARK       I    between atoms: C1_2  and  N3_21 
REMARK    2  A    between atoms: C2_3  and  S1_4 
REMARK    3  A    between atoms: S1_4  and  C3_5 
REMARK    4  A    between atoms: N3_21  and  C14_23 
ROOT
HETATM    1  C3  UNL     1      -1.165  -1.204   0.260  1.00  0.00     0.084 A 
HETATM    2  N1  UNL     1      -0.287  -2.111  -0.164  1.00  0.00    -0.346 N 
ATOM      3  H1  UNL     1       0.683  -1.982   0.125  1.00  0.00     0.167 HD
HETATM    4  C4  UNL     1      -0.547  -3.159  -0.920  1.00  0.00     0.182 A 
HETATM    5  N2  UNL     1      -1.833  -3.301  -1.282  1.00  0.00    -0.346 N 
ATOM      6  H2  UNL     1      -2.102  -4.091  -1.868  1.00  0.00     0.167 HD
HETATM    7  C5  UNL     1      -2.791  -2.407  -0.880  1.00  0.00     0.089 A 
HETATM    8  S2  UNL     1      -4.474  -2.355  -1.137  1.00  0.00    -0.075 SA
HETATM    9  C6  UNL     1      -4.823  -0.958  -0.243  1.00  0.00    -0.008 A 
HETATM   10  C7  UNL     1      -3.568  -0.540   0.256  1.00  0.00    -0.029 A 
HETATM   11  C8  UNL     1      -2.529  -1.317  -0.095  1.00  0.00     0.039 A 
HETATM   12  C9  UNL     1      -3.569   0.687   1.125  1.00  0.00     0.040 C 
HETATM   13  C10 UNL     1      -4.204   1.883   0.474  1.00  0.00     0.005 C 
HETATM   14  C11 UNL     1      -4.885   1.589  -0.840  1.00  0.00     0.001 C 
HETATM   15  C12 UNL     1      -6.254   0.977  -0.644  1.00  0.00     0.005 C 
HETATM   16  C13 UNL     1      -6.192  -0.374  -0.034  1.00  0.00     0.046 C 
ENDROOT
BRANCH   1  17
HETATM   17  S1  UNL     1      -0.572   0.122   1.286  1.00  0.00    -0.102 SA
BRANCH  17  18
HETATM   18  C2  UNL     1       0.193   1.343   0.207  1.00  0.00     0.183 C 
BRANCH  18  19
HETATM   19  C1  UNL     1       1.605   1.022  -0.150  1.00  0.00     0.227 C 
HETATM   20  O1  UNL     1       2.100   1.725  -1.105  1.00  0.00    -0.273 OA
HETATM   21  N3  UNL     1       2.417   0.061   0.444  1.00  0.00    -0.356 N 
ATOM     22  H3  UNL     1       1.964  -0.472   1.187  1.00  0.00     0.162 HD
BRANCH  21  23
HETATM   23  C14 UNL     1       3.765  -0.307   0.197  1.00  0.00     0.084 C 
HETATM   24  C15 UNL     1       4.258  -0.299  -1.207  1.00  0.00     0.025 C 
HETATM   25  C16 UNL     1       5.705   0.198  -1.279  1.00  0.00     0.002 C 
HETATM   26  C17 UNL     1       6.574  -0.527  -0.292  1.00  0.00     0.000 C 
HETATM   27  C18 UNL     1       6.065  -0.207   1.085  1.00  0.00     0.002 C 
HETATM   28  C19 UNL     1       4.733   0.460   1.081  1.00  0.00     0.025 C 
ENDBRANCH  21  23
ENDBRANCH  18  19
ENDBRANCH  17  18
ENDBRANCH   1  17
TORSDOF 4
