REMARK  5 active torsions:
REMARK  status: ('A' for Active; 'I' for Inactive)
REMARK    1  A    between atoms: C9_9  and  C10_10 
REMARK    2  A    between atoms: C9_9  and  C11_13 
REMARK    3  A    between atoms: C10_10  and  O1_11 
REMARK    4  A    between atoms: C15_17  and  C16_18 
REMARK    5  A    between atoms: C17_22  and  O5_23 
ROOT
HETATM    1  C1  UNL     1       4.788   2.482  -0.218  1.00  0.00     0.043 C 
HETATM    2  C2  UNL     1       3.579   1.661   0.121  1.00  0.00    -0.087 C 
HETATM    3  C3  UNL     1       3.593   0.383  -0.158  1.00  0.00    -0.015 C 
HETATM    4  C4  UNL     1       2.333  -0.374   0.217  1.00  0.00    -0.022 C 
HETATM    5  C5  UNL     1       2.218  -0.514   1.705  1.00  0.00     0.020 C 
HETATM    6  C6  UNL     1       2.618  -1.753  -0.317  1.00  0.00     0.013 C 
HETATM    7  C7  UNL     1       1.400  -2.557  -0.280  1.00  0.00     0.002 C 
HETATM    8  C8  UNL     1       0.135  -1.849   0.059  1.00  0.00     0.013 C 
HETATM    9  C9  UNL     1      -0.035  -0.503  -0.677  1.00  0.00    -0.003 C 
HETATM   10  C18 UNL     1       1.155   0.327  -0.439  1.00  0.00     0.009 C 
HETATM   11  C19 UNL     1       1.066   1.679   0.174  1.00  0.00     0.011 C 
HETATM   12  C20 UNL     1       2.377   2.202   0.753  1.00  0.00     0.034 C 
ENDROOT
BRANCH   9  13
HETATM   13  C10 UNL     1       0.040  -0.965  -2.127  1.00  0.00     0.175 C 
BRANCH  13  14
HETATM   14  O1  UNL     1      -0.867  -1.887  -2.526  1.00  0.00    -0.400 OA
ATOM     15  H1  UNL     1      -0.820  -2.175  -3.430  1.00  0.00     0.209 HD
ENDBRANCH  13  14
ENDBRANCH   9  13
BRANCH   9  16
HETATM   16  C11 UNL     1      -1.397   0.039  -0.453  1.00  0.00     0.016 C 
HETATM   17  C12 UNL     1      -1.511   1.416  -1.140  1.00  0.00     0.021 C 
HETATM   18  C13 UNL     1      -1.743   0.272   1.003  1.00  0.00     0.018 C 
HETATM   19  C14 UNL     1      -2.952  -0.478   1.514  1.00  0.00     0.044 C 
HETATM   20  C15 UNL     1      -4.141  -0.317   0.598  1.00  0.00     0.225 C 
HETATM   21  O4  UNL     1      -3.681   0.158  -0.631  1.00  0.00    -0.345 OA
HETATM   22  C17 UNL     1      -2.559  -0.672  -1.037  1.00  0.00     0.267 C 
BRANCH  20  23
HETATM   23  C16 UNL     1      -5.113   0.686   1.104  1.00  0.00     0.203 C 
HETATM   24  O2  UNL     1      -5.401   1.734   0.472  1.00  0.00    -0.646 OA
HETATM   25  O3  UNL     1      -5.761   0.502   2.327  1.00  0.00    -0.646 OA
ENDBRANCH  20  23
BRANCH  22  26
HETATM   26  O5  UNL     1      -2.944  -1.881  -0.610  1.00  0.00    -0.370 OA
ATOM     27  H5  UNL     1      -3.689  -2.337  -0.984  1.00  0.00     0.212 HD
ENDBRANCH  22  26
ENDBRANCH   9  16
TORSDOF 5
