REMARK  4 active torsions:
REMARK  status: ('A' for Active; 'I' for Inactive)
REMARK    1  A    between atoms: C1_1  and  N1_2 
REMARK    2  A    between atoms: C1_1  and  C9_12 
REMARK    3  A    between atoms: N1_2  and  C2_5 
REMARK    4  A    between atoms: C10_15  and  C11_16 
ROOT
HETATM    1  C1  UNL     1       0.325   0.735  -0.693  1.00  0.00     0.319 C 
ENDROOT
BRANCH   1   2
HETATM    2  N1  UNL     1      -0.560  -0.331  -0.260  1.00  0.00    -0.063 N 
ATOM      3  H12 UNL     1      -0.155  -1.259  -0.388  1.00  0.00     0.278 HD
ATOM      4  H11 UNL     1      -0.668  -0.370   0.754  1.00  0.00     0.278 HD
BRANCH   2   5
HETATM    5  C2  UNL     1      -1.792  -0.170  -0.938  1.00  0.00     0.191 C 
HETATM    6  C3  UNL     1      -2.512   1.123  -0.620  1.00  0.00     0.038 C 
HETATM    7  C4  UNL     1      -3.976   0.764  -0.572  1.00  0.00    -0.012 C 
HETATM    8  C5  UNL     1      -4.253   0.214   0.811  1.00  0.00     0.005 C 
HETATM    9  C8  UNL     1      -4.014  -0.555  -1.363  1.00  0.00     0.011 C 
HETATM   10  C6  UNL     1      -3.352  -1.029   0.819  1.00  0.00     0.007 C 
HETATM   11  C7  UNL     1      -2.844  -1.196  -0.588  1.00  0.00     0.016 C 
ENDBRANCH   2   5
ENDBRANCH   1   2
BRANCH   1  12
HETATM   12  C9  UNL     1       1.647   0.694  -0.065  1.00  0.00     0.174 A 
HETATM   13  N2  UNL     1       2.755   0.060  -0.494  1.00  0.00    -0.325 N 
HETATM   14  C10 UNL     1       3.760   0.279   0.382  1.00  0.00     0.108 A 
ATOM     15  H2  UNL     1       2.824  -0.497  -1.345  1.00  0.00     0.169 HD
HETATM   16  N3  UNL     1       3.229   1.049   1.330  1.00  0.00    -0.247 N 
HETATM   17  O1  UNL     1       1.974   1.287   1.051  1.00  0.00    -0.221 OA
ATOM     18  H3  UNL     1       3.726   1.400   2.149  1.00  0.00     0.196 HD
BRANCH  14  19
HETATM   19  C11 UNL     1       5.122  -0.264   0.232  1.00  0.00     0.055 A 
HETATM   20  C12 UNL     1       6.277   0.505   0.810  1.00  0.00     0.013 A 
HETATM   21  C13 UNL     1       5.779  -0.738   1.537  1.00  0.00     0.013 A 
ENDBRANCH  14  19
ENDBRANCH   1  12
TORSDOF 4
