REMARK  16 active torsions:
REMARK  status: ('A' for Active; 'I' for Inactive)
REMARK    1  A    between atoms: O1_2  and  N1_3 
REMARK    2  A    between atoms: C2_5  and  C3_6 
REMARK    3  A    between atoms: C2_5  and  C18_48 
REMARK       I    between atoms: C3_6  and  N2_8 
REMARK    4  A    between atoms: N2_8  and  C4_10 
REMARK    5  A    between atoms: C4_10  and  C5_11 
REMARK    6  A    between atoms: C4_10  and  C15_43 
REMARK       I    between atoms: C5_11  and  N3_13 
REMARK    7  A    between atoms: N3_13  and  C6_15 
REMARK    8  A    between atoms: C6_15  and  C7_16 
REMARK    9  A    between atoms: C8_19  and  N5_20 
REMARK   10  A    between atoms: C11_30  and  N9_31 
REMARK   11  A    between atoms: C13_37  and  O5_38 
REMARK   12  A    between atoms: C14_40  and  O6_41 
REMARK   13  A    between atoms: C15_43  and  O7_46 
REMARK   14  A    between atoms: C19_51  and  N12_52 
REMARK   15  A    between atoms: C21_58  and  C22_59 
REMARK       I    between atoms: C22_59  and  N14_61 
REMARK   16  A    between atoms: N15_63  and  N16_65 
ROOT
HETATM    1  C4  UNL     1      -1.288  -0.680  -1.072  1.00  0.00     0.210 C 
ENDROOT
BRANCH   1   2
HETATM    2  N2  UNL     1      -2.443  -0.067  -0.359  1.00  0.00    -0.339 N 
HETATM    3  C3  UNL     1      -3.422  -0.828   0.244  1.00  0.00     0.273 C 
HETATM    4  O2  UNL     1      -3.268  -2.108   0.118  1.00  0.00    -0.266 OA
ATOM      5  H2  UNL     1      -2.512   0.950  -0.315  1.00  0.00     0.163 HD
BRANCH   3   6
HETATM    6  C2  UNL     1      -4.577  -0.390   0.974  1.00  0.00     0.150 C 
HETATM    7  N1  UNL     1      -5.453  -1.311   1.378  1.00  0.00    -0.260 N 
ATOM      8  H1  UNL     1      -6.283  -1.025   1.898  1.00  0.00     0.194 HD
BRANCH   7   9
HETATM    9  O1  UNL     1      -5.253  -2.620   1.106  1.00  0.00    -0.285 OA
HETATM   10  C1  UNL     1      -6.241  -3.599   0.983  1.00  0.00     0.237 C 
ENDBRANCH   7   9
BRANCH   6  11
HETATM   11  C18 UNL     1      -4.952   0.968   1.323  1.00  0.00     0.100 A 
HETATM   12  N11 UNL     1      -3.934   1.836   1.614  1.00  0.00    -0.189 N 
HETATM   13  C19 UNL     1      -4.208   3.017   2.207  1.00  0.00     0.676 A 
ATOM     14  H11 UNL     1      -2.971   1.591   1.383  1.00  0.00     0.184 HD
HETATM   15  N13 UNL     1      -5.449   3.391   2.534  1.00  0.00    -0.201 N 
HETATM   16  C20 UNL     1      -6.489   2.600   2.280  1.00  0.00     0.125 A 
ATOM     17  H13 UNL     1      -5.601   4.294   2.984  1.00  0.00     0.183 HD
HETATM   18  C21 UNL     1      -6.225   1.361   1.656  1.00  0.00     0.079 A 
BRANCH  13  19
HETATM   19  N12 UNL     1      -3.217   3.824   2.469  1.00  0.00    -0.234 N 
ATOM     20 2H12 UNL     1      -2.270   3.539   2.219  1.00  0.00     0.174 HD
ATOM     21 1H12 UNL     1      -3.424   4.717   2.917  1.00  0.00     0.174 HD
ENDBRANCH  13  19
BRANCH  18  22
HETATM   22  C22 UNL     1      -7.430   0.686   1.225  1.00  0.00     0.274 C 
HETATM   23  O8  UNL     1      -7.469  -0.224   0.397  1.00  0.00    -0.266 OA
HETATM   24  N14 UNL     1      -8.719   1.056   1.770  1.00  0.00    -0.252 N 
HETATM   25  N15 UNL     1      -9.517   1.535   0.895  1.00  0.00    -0.246 N 
ATOM     26  H14 UNL     1      -8.965   0.945   2.754  1.00  0.00     0.191 HD
ATOM     27  H15 UNL     1     -10.446   1.818   1.208  1.00  0.00     0.207 HD
BRANCH  25  28
HETATM   28  N16 UNL     1      -9.213   1.699  -0.453  1.00  0.00    -0.331 N 
ATOM     29 2H16 UNL     1      -8.280   1.410  -0.747  1.00  0.00     0.178 HD
ATOM     30 1H16 UNL     1      -9.850   2.081  -1.152  1.00  0.00     0.178 HD
ENDBRANCH  25  28
ENDBRANCH  18  22
ENDBRANCH   6  11
ENDBRANCH   3   6
ENDBRANCH   1   2
BRANCH   1  31
HETATM   31  C5  UNL     1      -0.072  -0.163  -0.399  1.00  0.00     0.243 C 
HETATM   32  O3  UNL     1      -0.242   0.752   0.496  1.00  0.00    -0.271 OA
HETATM   33  N3  UNL     1       1.244  -0.557  -0.624  1.00  0.00    -0.354 N 
ATOM     34  H3  UNL     1       1.437  -1.281  -1.316  1.00  0.00     0.162 HD
BRANCH  33  35
HETATM   35  C6  UNL     1       2.342   0.037   0.102  1.00  0.00     0.177 C 
BRANCH  35  36
HETATM   36  C7  UNL     1       3.654  -0.543  -0.302  1.00  0.00     0.033 C 
HETATM   37  N4  UNL     1       4.509  -1.133   0.422  1.00  0.00    -0.368 N 
HETATM   38  C8  UNL     1       5.629  -1.543  -0.325  1.00  0.00     0.240 C 
ATOM     39  H4  UNL     1       4.399  -1.292   1.424  1.00  0.00     0.161 HD
HETATM   40  C13 UNL     1       5.645  -0.602  -1.501  1.00  0.00     0.196 C 
HETATM   41  C14 UNL     1       4.130  -0.470  -1.732  1.00  0.00     0.197 C 
BRANCH  38  42
HETATM   42  N5  UNL     1       6.872  -1.555   0.397  1.00  0.00    -0.233 N 
HETATM   43  N6  UNL     1       7.703  -2.587   0.421  1.00  0.00    -0.236 N 
HETATM   44  N7  UNL     1       8.748  -2.303   1.157  1.00  0.00    -0.278 N 
ATOM     45  H6  UNL     1       7.551  -3.472  -0.063  1.00  0.00     0.208 HD
HETATM   46  C9  UNL     1       8.597  -1.044   1.632  1.00  0.00     0.164 A 
ATOM     47  H7  UNL     1       9.538  -2.922   1.340  1.00  0.00     0.189 HD
HETATM   48  C10 UNL     1       9.353  -0.238   2.433  1.00  0.00     0.291 A 
HETATM   49  C12 UNL     1       7.403  -0.591   1.137  1.00  0.00     0.175 A 
HETATM   50  O4  UNL     1      10.452  -0.696   2.869  1.00  0.00    -0.265 OA
HETATM   51  N8  UNL     1       8.916   0.997   2.729  1.00  0.00    -0.154 N 
HETATM   52  C11 UNL     1       7.741   1.418   2.231  1.00  0.00     0.680 A 
ATOM     53  H8  UNL     1       9.471   1.610   3.326  1.00  0.00     0.187 HD
HETATM   54  N10 UNL     1       6.982   0.642   1.442  1.00  0.00    -0.173 N 
ATOM     55  H10 UNL     1       6.094   0.988   1.079  1.00  0.00     0.186 HD
BRANCH  52  56
HETATM   56  N9  UNL     1       7.296   2.618   2.507  1.00  0.00    -0.234 N 
ATOM     57  H92 UNL     1       7.873   3.208   3.107  1.00  0.00     0.174 HD
ATOM     58  H91 UNL     1       6.404   2.938   2.129  1.00  0.00     0.174 HD
ENDBRANCH  52  56
ENDBRANCH  38  42
BRANCH  40  59
HETATM   59  O5  UNL     1       6.273  -1.155  -2.612  1.00  0.00    -0.389 OA
ATOM     60  H5  UNL     1       6.283  -0.561  -3.354  1.00  0.00     0.210 HD
ENDBRANCH  40  59
BRANCH  41  61
HETATM   61  O6  UNL     1       3.688  -1.622  -2.349  1.00  0.00    -0.387 OA
ATOM     62  H6  UNL     1       3.988  -1.576  -3.249  1.00  0.00     0.210 HD
ENDBRANCH  41  61
ENDBRANCH  35  36
ENDBRANCH  33  35
ENDBRANCH   1  31
BRANCH   1  63
HETATM   63  C15 UNL     1      -1.285  -0.162  -2.494  1.00  0.00     0.080 C 
HETATM   64  C16 UNL     1      -0.212  -0.842  -3.280  1.00  0.00     0.048 C 
HETATM   65  C17 UNL     1      -2.602  -0.480  -3.189  1.00  0.00     0.048 C 
BRANCH  63  66
HETATM   66  O7  UNL     1      -1.130   1.206  -2.435  1.00  0.00    -0.388 OA
ATOM     67  H7  UNL     1      -1.128   1.531  -3.328  1.00  0.00     0.210 HD
ENDBRANCH  63  66
ENDBRANCH   1  63
TORSDOF 16
