REMARK  12 active torsions:
REMARK  status: ('A' for Active; 'I' for Inactive)
REMARK    1  A    between atoms: N1_1  and  C1_5 
REMARK    2  A    between atoms: C2_6  and  O1_7 
REMARK    3  A    between atoms: O1_7  and  C3_8 
REMARK    4  A    between atoms: C5_11  and  O3_12 
REMARK    5  A    between atoms: C6_14  and  O4_15 
REMARK    6  A    between atoms: C7_17  and  O5_18 
REMARK    7  A    between atoms: C8_20  and  O6_21 
REMARK    8  A    between atoms: C10_24  and  O7_25 
REMARK    9  A    between atoms: O7_25  and  C11_26 
REMARK   10  A    between atoms: C15_33  and  O8_34 
REMARK   11  A    between atoms: O8_34  and  C16_35 
REMARK   12  A    between atoms: C16_35  and  C17_36 
ROOT
HETATM    1  C1  UNL     1       0.095  -0.395   0.173  1.00  0.00     0.246 C 
HETATM    2  C2  UNL     1       1.030   0.055  -0.880  1.00  0.00     0.186 C 
HETATM    3  C8  UNL     1       0.512   1.235  -1.695  1.00  0.00     0.151 C 
HETATM    4  C9  UNL     1      -0.801   0.832  -2.275  1.00  0.00     0.069 C 
HETATM    5  C10 UNL     1      -1.764   0.730  -1.121  1.00  0.00     0.158 C 
HETATM    6  C15 UNL     1      -1.361  -0.310  -0.115  1.00  0.00     0.183 C 
ENDROOT
BRANCH   2   7
HETATM    7  O1  UNL     1       2.200   0.501  -0.316  1.00  0.00    -0.349 OA
BRANCH   7   8
HETATM    8  C3  UNL     1       3.342  -0.111  -0.724  1.00  0.00     0.291 C 
HETATM    9  O2  UNL     1       4.237   0.735  -1.380  1.00  0.00    -0.356 OA
HETATM   10  C4  UNL     1       5.081  -0.097  -2.124  1.00  0.00     0.205 C 
HETATM   11  C5  UNL     1       5.962  -0.936  -1.212  1.00  0.00     0.173 C 
HETATM   12  C6  UNL     1       5.052  -1.787  -0.342  1.00  0.00     0.182 C 
HETATM   13  C7  UNL     1       4.107  -0.820   0.356  1.00  0.00     0.204 C 
BRANCH  11  14
HETATM   14  O3  UNL     1       6.679  -1.807  -2.024  1.00  0.00    -0.391 OA
ATOM     15  H3  UNL     1       7.229  -2.331  -1.454  1.00  0.00     0.210 HD
ENDBRANCH  11  14
BRANCH  12  16
HETATM   16  O4  UNL     1       4.262  -2.566  -1.191  1.00  0.00    -0.390 OA
ATOM     17  H4  UNL     1       3.693  -3.098  -0.647  1.00  0.00     0.210 HD
ENDBRANCH  12  16
BRANCH  13  18
HETATM   18  O5  UNL     1       4.945   0.070   1.065  1.00  0.00    -0.388 OA
ATOM     19  H5  UNL     1       5.429  -0.379   1.748  1.00  0.00     0.210 HD
ENDBRANCH  13  18
ENDBRANCH   7   8
ENDBRANCH   2   7
BRANCH   1  20
HETATM   20  N1  UNL     1       0.371   0.311   1.435  1.00  0.00    -0.070 N 
ATOM     21  H13 UNL     1       1.345   0.211   1.722  1.00  0.00     0.274 HD
ATOM     22  H12 UNL     1       0.352   1.324   1.317  1.00  0.00     0.274 HD
ATOM     23  H11 UNL     1      -0.274   0.001   2.162  1.00  0.00     0.274 HD
ENDBRANCH   1  20
BRANCH   3  24
HETATM   24  O6  UNL     1       0.463   2.301  -0.830  1.00  0.00    -0.393 OA
ATOM     25  H6  UNL     1       0.140   3.036  -1.338  1.00  0.00     0.210 HD
ENDBRANCH   3  24
BRANCH   6  26
HETATM   26  O8  UNL     1      -1.859  -1.518  -0.571  1.00  0.00    -0.377 OA
BRANCH  26  27
HETATM   27  C16 UNL     1      -2.841  -2.097   0.174  1.00  0.00     0.207 C 
BRANCH  27  28
HETATM   28  C17 UNL     1      -2.418  -2.429   1.548  1.00  0.00    -0.035 A 
HETATM   29  C18 UNL     1      -2.786  -1.704   2.653  1.00  0.00     0.009 A 
HETATM   30  C19 UNL     1      -2.365  -2.059   3.919  1.00  0.00     0.001 A 
HETATM   31  C20 UNL     1      -1.554  -3.161   4.129  1.00  0.00     0.000 A 
HETATM   32  C21 UNL     1      -1.186  -3.889   3.016  1.00  0.00     0.001 A 
HETATM   33  C22 UNL     1      -1.602  -3.542   1.747  1.00  0.00     0.009 A 
ENDBRANCH  27  28
ENDBRANCH  26  27
ENDBRANCH   6  26
BRANCH   5  34
HETATM   34  O7  UNL     1      -1.883   2.002  -0.567  1.00  0.00    -0.351 OA
BRANCH  34  35
HETATM   35  C11 UNL     1      -3.145   2.504  -0.729  1.00  0.00     0.321 C 
HETATM   36  C12 UNL     1      -3.845   2.803   0.583  1.00  0.00     0.063 C 
HETATM   37  C13 UNL     1      -5.045   3.606   0.084  1.00  0.00     0.032 C 
HETATM   38  C14 UNL     1      -4.449   4.385  -1.046  1.00  0.00     0.235 C 
HETATM   39  N2  UNL     1      -3.189   3.794  -1.383  1.00  0.00    -0.049 N 
ATOM     40  H22 UNL     1      -2.392   4.388  -1.154  1.00  0.00     0.280 HD
ATOM     41  H21 UNL     1      -3.026   3.741  -2.388  1.00  0.00     0.280 HD
ENDBRANCH  34  35
ENDBRANCH   5  34
TORSDOF 12
