REMARK  9 active torsions:
REMARK  status: ('A' for Active; 'I' for Inactive)
REMARK    1  A    between atoms: C2_2  and  S1_4 
REMARK    2  A    between atoms: S1_4  and  C3_5 
REMARK    3  A    between atoms: C3_5  and  C4_6 
REMARK       I    between atoms: C4_6  and  N1_8 
REMARK    4  A    between atoms: N1_8  and  C5_10 
REMARK    5  A    between atoms: C5_10  and  C6_11 
REMARK    6  A    between atoms: C7_13  and  N2_14 
REMARK       I    between atoms: N2_14  and  C8_16 
REMARK       I    between atoms: C8_16  and  N3_18 
REMARK    7  A    between atoms: N3_18  and  N4_20 
REMARK    8  A    between atoms: C12_25  and  C13_26 
REMARK    9  A    between atoms: C14_29  and  O8_30 
ROOT
HETATM    1  C6  UNL     1       1.778  -0.213   0.143  1.00  0.00     0.179 C 
HETATM    2  O3  UNL     1       0.778  -1.143  -0.334  1.00  0.00    -0.352 OA
HETATM    3  C7  UNL     1      -0.027  -1.330   0.794  1.00  0.00     0.255 C 
HETATM    4  C14 UNL     1       0.781  -1.148   2.016  1.00  0.00     0.184 C 
HETATM    5  C15 UNL     1       2.196  -0.900   1.410  1.00  0.00     0.126 C 
HETATM    6  S2  UNL     1       2.825  -2.588   1.076  1.00  0.00    -0.086 SA
ENDROOT
BRANCH   3   7
HETATM    7  N2  UNL     1      -1.194  -0.477   0.733  1.00  0.00    -0.313 N 
HETATM    8  C8  UNL     1      -2.353  -0.721  -0.034  1.00  0.00     0.336 C 
HETATM    9  O4  UNL     1      -2.351  -1.782  -0.741  1.00  0.00    -0.246 OA
HETATM   10  N3  UNL     1      -3.445   0.192   0.003  1.00  0.00    -0.253 N 
ATOM     11  H3  UNL     1      -3.349   1.004   0.613  1.00  0.00     0.191 HD
ATOM     12  H2  UNL     1      -1.178   0.375   1.293  1.00  0.00     0.167 HD
BRANCH  10  13
HETATM   13  N4  UNL     1      -4.598   0.083  -0.696  1.00  0.00    -0.305 N 
HETATM   14  C9  UNL     1      -5.286  -1.137  -0.757  1.00  0.00     0.170 C 
HETATM   15  C10 UNL     1      -6.553  -1.016  -1.623  1.00  0.00     0.189 C 
HETATM   16  O5  UNL     1      -6.342  -0.145  -2.689  1.00  0.00    -0.387 OA
HETATM   17  C11 UNL     1      -6.104   1.151  -2.310  1.00  0.00     0.205 C 
HETATM   18  C12 UNL     1      -5.277   1.266  -1.055  1.00  0.00     0.226 C 
BRANCH  18  19
HETATM   19  C13 UNL     1      -6.094   1.700   0.104  1.00  0.00     0.200 C 
HETATM   20  O6  UNL     1      -6.787   2.733  -0.013  1.00  0.00    -0.646 OA
HETATM   21  O7  UNL     1      -6.117   1.008   1.296  1.00  0.00    -0.646 OA
ENDBRANCH  18  19
ENDBRANCH  10  13
ENDBRANCH   3   7
BRANCH   4  22
HETATM   22  O8  UNL     1       0.818  -2.232   2.887  1.00  0.00    -0.390 OA
ATOM     23  H8  UNL     1       1.338  -2.115   3.673  1.00  0.00     0.210 HD
ENDBRANCH   4  22
BRANCH   1  24
HETATM   24  C5  UNL     1       2.749   0.024  -0.931  1.00  0.00     0.097 C 
BRANCH  24  25
HETATM   25  N1  UNL     1       3.775   0.979  -0.795  1.00  0.00    -0.338 N 
HETATM   26  C4  UNL     1       4.854   1.053   0.053  1.00  0.00     0.231 C 
HETATM   27  O2  UNL     1       5.139   0.161   0.931  1.00  0.00    -0.272 OA
ATOM     28  H1  UNL     1       3.704   1.761  -1.447  1.00  0.00     0.167 HD
BRANCH  26  29
HETATM   29  C3  UNL     1       5.784   2.221  -0.010  1.00  0.00     0.185 C 
BRANCH  29  30
HETATM   30  S1  UNL     1       7.100   2.032   1.202  1.00  0.00    -0.084 SA
BRANCH  30  31
HETATM   31  C2  UNL     1       8.232   0.726   0.840  1.00  0.00     0.182 C 
HETATM   32  C1  UNL     1       8.151  -0.112  -0.358  1.00  0.00     0.104 C 
HETATM   33  O1  UNL     1       9.153   0.495   1.639  1.00  0.00    -0.286 OA
ENDBRANCH  30  31
ENDBRANCH  29  30
ENDBRANCH  26  29
ENDBRANCH  24  25
ENDBRANCH   1  24
TORSDOF 9
