REMARK  11 active torsions:
REMARK  status: ('A' for Active; 'I' for Inactive)
REMARK    1  A    between atoms: N1_2  and  C2_4 
REMARK    2  A    between atoms: C2_4  and  N2_5 
REMARK    3  A    between atoms: C2_4  and  C11_15 
REMARK    4  A    between atoms: N2_5  and  S1_6 
REMARK    5  A    between atoms: S1_6  and  C3_7 
REMARK    6  A    between atoms: C11_15  and  N3_16 
REMARK    7  A    between atoms: C11_15  and  C12_20 
REMARK    8  A    between atoms: C16_27  and  C17_28 
REMARK    9  A    between atoms: C17_28  and  O4_29 
REMARK   10  A    between atoms: C19_33  and  C20_34 
REMARK   11  A    between atoms: C20_34  and  O6_35 
ROOT
HETATM    1  C11 UNL     1      -0.026  -1.738   0.426  1.00  0.00     0.253 C 
ENDROOT
BRANCH   1   2
HETATM    2  C2  UNL     1      -1.037  -1.960  -0.640  1.00  0.00     0.213 C 
BRANCH   2   3
HETATM    3  N1  UNL     1      -0.778  -2.983  -1.586  1.00  0.00    -0.406 N 
HETATM    4  C1  UNL     1      -0.714  -4.320  -1.100  1.00  0.00     0.141 C 
ATOM      5  H1  UNL     1      -0.643  -2.770  -2.574  1.00  0.00     0.154 HD
ENDBRANCH   2   3
BRANCH   2   6
HETATM    6  N2  UNL     1      -1.459  -0.704  -1.275  1.00  0.00    -0.151 NA
BRANCH   6   7
HETATM    7  S1  UNL     1      -1.768   0.464   0.013  1.00  0.00    -0.053 SA
BRANCH   7   8
HETATM    8  C3  UNL     1      -3.499   0.878   0.158  1.00  0.00     0.029 C 
HETATM    9  C4  UNL     1      -4.109   1.631  -1.012  1.00  0.00     0.026 C 
HETATM   10  C5  UNL     1      -5.156   2.463  -0.308  1.00  0.00    -0.012 C 
HETATM   11  C6  UNL     1      -6.127   1.533   0.364  1.00  0.00     0.010 C 
HETATM   12  C10 UNL     1      -4.345   2.935   0.912  1.00  0.00     0.011 C 
HETATM   13  C7  UNL     1      -5.219   0.780   1.331  1.00  0.00    -0.007 C 
HETATM   14  C8  UNL     1      -4.415  -0.284   0.568  1.00  0.00     0.027 C 
HETATM   15  C9  UNL     1      -3.933   1.567   1.406  1.00  0.00     0.010 C 
ENDBRANCH   7   8
ENDBRANCH   6   7
ENDBRANCH   2   6
ENDBRANCH   1   2
BRANCH   1  16
HETATM   16  N3  UNL     1       0.139  -2.932   1.200  1.00  0.00    -0.069 N 
ATOM     17  H33 UNL     1      -0.747  -3.269   1.577  1.00  0.00     0.275 HD
ATOM     18  H32 UNL     1       0.368  -3.737   0.617  1.00  0.00     0.275 HD
ATOM     19  H31 UNL     1       0.833  -2.780   1.932  1.00  0.00     0.275 HD
ENDBRANCH   1  16
BRANCH   1  20
HETATM   20  C12 UNL     1       1.191  -1.012   0.045  1.00  0.00     0.189 C 
HETATM   21  O1  UNL     1       1.872  -0.604   1.209  1.00  0.00    -0.348 OA
HETATM   22  C13 UNL     1       2.722   0.461   0.821  1.00  0.00     0.295 C 
HETATM   23  O2  UNL     1       1.881   1.475   0.432  1.00  0.00    -0.329 OA
HETATM   24  C18 UNL     1       3.657   0.078  -0.277  1.00  0.00     0.208 C 
HETATM   25  C14 UNL     1       2.543   2.620  -0.002  1.00  0.00     0.259 C 
HETATM   26  C15 UNL     1       3.136   3.386   1.153  1.00  0.00     0.071 C 
HETATM   27  O3  UNL     1       3.413   2.382  -1.030  1.00  0.00    -0.351 OA
HETATM   28  C16 UNL     1       4.246   1.316  -0.911  1.00  0.00     0.182 C 
HETATM   29  O5  UNL     1       3.074  -0.666  -1.265  1.00  0.00    -0.368 OA
HETATM   30  C19 UNL     1       2.176  -1.644  -0.850  1.00  0.00     0.177 C 
BRANCH  28  31
HETATM   31  C17 UNL     1       5.542   1.636  -0.194  1.00  0.00     0.199 C 
BRANCH  31  32
HETATM   32  O4  UNL     1       6.337   0.476  -0.121  1.00  0.00    -0.398 OA
ATOM     33  H4  UNL     1       7.150   0.677   0.329  1.00  0.00     0.209 HD
ENDBRANCH  31  32
ENDBRANCH  28  31
BRANCH  30  34
HETATM   34  C20 UNL     1       2.884  -2.833  -0.313  1.00  0.00     0.198 C 
BRANCH  34  35
HETATM   35  O6  UNL     1       3.689  -2.648   0.774  1.00  0.00    -0.398 OA
ATOM     36  H6  UNL     1       4.142  -3.409   1.118  1.00  0.00     0.209 HD
ENDBRANCH  34  35
ENDBRANCH  30  34
ENDBRANCH   1  20
TORSDOF 11
