REMARK  11 active torsions:
REMARK  status: ('A' for Active; 'I' for Inactive)
REMARK       I    between atoms: C1_4  and  N3_6 
REMARK    1  A    between atoms: C3_8  and  C4_9 
REMARK    2  A    between atoms: C3_8  and  C15_26 
REMARK    3  A    between atoms: C4_9  and  O1_10 
REMARK    4  A    between atoms: C4_9  and  C5_12 
REMARK    5  A    between atoms: C5_12  and  C6_13 
REMARK    6  A    between atoms: N5_18  and  C9_19 
REMARK    7  A    between atoms: C9_19  and  C10_20 
REMARK    8  A    between atoms: C10_20  and  C11_21 
REMARK    9  A    between atoms: C11_21  and  C12_22 
REMARK   10  A    between atoms: C12_22  and  C13_23 
REMARK   11  A    between atoms: C13_23  and  C14_24 
ROOT
HETATM    1  C4  UNL     1      -1.846   0.725   0.755  1.00  0.00     0.161 C 
ENDROOT
BRANCH   1   2
HETATM    2  C3  UNL     1      -2.585   1.463  -0.303  1.00  0.00     0.191 C 
HETATM    3  C2  UNL     1      -2.729   0.725  -1.619  1.00  0.00     0.188 C 
HETATM    4  N3  UNL     1      -4.049   0.319  -1.142  1.00  0.00    -0.265 N 
HETATM    5  C1  UNL     1      -4.996  -0.658  -1.523  1.00  0.00     0.200 C 
HETATM    6  N6  UNL     1      -4.017   1.296  -0.136  1.00  0.00    -0.112 NA
HETATM    7  N1  UNL     1      -4.595  -1.781  -1.973  1.00  0.00    -0.373 N 
HETATM    8  N2  UNL     1      -6.377  -0.394  -1.406  1.00  0.00    -0.062 NA
ATOM      9  H12 UNL     1      -5.279  -2.486  -2.248  1.00  0.00     0.158 HD
ATOM     10  H11 UNL     1      -3.597  -1.972  -2.058  1.00  0.00     0.158 HD
BRANCH   2  11
HETATM   11  C15 UNL     1      -2.209   2.895  -0.532  1.00  0.00     0.415 C 
HETATM   12  F1  UNL     1      -3.226   3.476  -1.293  1.00  0.00    -0.168 F 
HETATM   13  F2  UNL     1      -2.094   3.621   0.615  1.00  0.00    -0.168 F 
HETATM   14  F3  UNL     1      -1.063   2.979  -1.335  1.00  0.00    -0.168 F 
ENDBRANCH   2  11
ENDBRANCH   1   2
BRANCH   1  15
HETATM   15  O1  UNL     1      -2.151  -0.619   0.679  1.00  0.00    -0.393 OA
ATOM     16  H1  UNL     1      -1.679  -1.091   1.355  1.00  0.00     0.210 HD
ENDBRANCH   1  15
BRANCH   1  17
HETATM   17  C5  UNL     1      -0.349   0.900   0.688  1.00  0.00     0.092 C 
BRANCH  17  18
HETATM   18  C6  UNL     1       0.241   0.104   1.801  1.00  0.00     0.030 A 
HETATM   19  C7  UNL     1       0.335   0.620   3.112  1.00  0.00     0.114 A 
HETATM   20  N4  UNL     1       0.886  -0.289   3.914  1.00  0.00    -0.360 N 
HETATM   21  C8  UNL     1       1.139  -1.348   3.156  1.00  0.00     0.183 A 
ATOM     22  H4  UNL     1       1.076  -0.191   4.911  1.00  0.00     0.166 HD
HETATM   23  N5  UNL     1       0.749  -1.110   1.868  1.00  0.00    -0.345 N 
BRANCH  23  24
HETATM   24  C9  UNL     1       0.959  -2.044   0.791  1.00  0.00     0.130 C 
BRANCH  24  25
HETATM   25  C10 UNL     1       2.346  -2.043   0.241  1.00  0.00     0.020 C 
BRANCH  25  26
HETATM   26  C11 UNL     1       2.805  -0.748  -0.311  1.00  0.00     0.002 C 
BRANCH  26  27
HETATM   27  C12 UNL     1       4.235  -0.872  -0.840  1.00  0.00     0.001 C 
BRANCH  27  28
HETATM   28  C13 UNL     1       4.655   0.478  -1.393  1.00  0.00     0.011 C 
BRANCH  28  29
HETATM   29  C14 UNL     1       6.046   0.460  -1.937  1.00  0.00     0.085 C 
HETATM   30 BR1  UNL     1       6.478   2.209  -2.609  1.00  0.00    -0.097 Br
ENDBRANCH  28  29
ENDBRANCH  27  28
ENDBRANCH  26  27
ENDBRANCH  25  26
ENDBRANCH  24  25
ENDBRANCH  23  24
ENDBRANCH  17  18
ENDBRANCH   1  17
TORSDOF 11
