REMARK  13 active torsions:
REMARK  status: ('A' for Active; 'I' for Inactive)
REMARK    1  A    between atoms: C5_5  and  C6_6 
REMARK       I    between atoms: C6_6  and  N1_8 
REMARK    2  A    between atoms: N2_11  and  C9_12 
REMARK    3  A    between atoms: C9_12  and  O2_13 
REMARK    4  A    between atoms: C10_15  and  N3_16 
REMARK    5  A    between atoms: C10_15  and  C28_43 
REMARK       I    between atoms: N3_16  and  C11_18 
REMARK    6  A    between atoms: C11_18  and  C12_20 
REMARK    7  A    between atoms: C12_20  and  C13_21 
REMARK    8  A    between atoms: C13_21  and  N4_22 
REMARK    9  A    between atoms: N4_22  and  C14_23 
REMARK   10  A    between atoms: C14_23  and  C15_24 
REMARK   11  A    between atoms: C15_24  and  C16_25 
REMARK   12  A    between atoms: C16_25  and  N5_26 
REMARK   13  A    between atoms: C18_31  and  C19_32 
ROOT
HETATM    1  N3  UNL     1       0.951  -0.437   0.552  1.00  0.00    -0.323 N 
ATOM      2  H3  UNL     1       0.863  -0.603   1.554  1.00  0.00     0.169 HD
HETATM    3  C11 UNL     1      -0.167  -0.540  -0.256  1.00  0.00     0.223 C 
HETATM    4  O3  UNL     1      -0.066  -0.334  -1.507  1.00  0.00    -0.273 OA
ENDROOT
BRANCH   3   5
HETATM    5  C12 UNL     1      -1.533  -0.890   0.272  1.00  0.00     0.131 C 
BRANCH   5   6
HETATM    6  C13 UNL     1      -2.488  -0.877  -0.863  1.00  0.00     0.246 C 
BRANCH   6   7
HETATM    7  N4  UNL     1      -3.847  -1.180  -0.575  1.00  0.00    -0.067 N 
HETATM    8  C24 UNL     1      -4.353  -2.051  -1.631  1.00  0.00     0.237 C 
HETATM    9  C25 UNL     1      -3.735  -3.373  -1.337  1.00  0.00     0.029 C 
HETATM   10  C26 UNL     1      -3.744  -3.415   0.172  1.00  0.00     0.029 C 
HETATM   11  C27 UNL     1      -3.990  -1.979   0.597  1.00  0.00     0.237 C 
BRANCH   7  12
HETATM   12  C14 UNL     1      -4.695   0.011  -0.548  1.00  0.00     0.239 C 
BRANCH  12  13
HETATM   13  C15 UNL     1      -4.776   0.640   0.795  1.00  0.00     0.050 C 
BRANCH  13  14
HETATM   14  C16 UNL     1      -5.647   1.864   0.842  1.00  0.00     0.156 C 
BRANCH  14  15
HETATM   15  N5  UNL     1      -7.015   1.671   0.488  1.00  0.00    -0.238 N 
HETATM   16  C17 UNL     1      -7.530   1.816  -0.826  1.00  0.00     0.338 C 
HETATM   17  O4  UNL     1      -6.762   2.151  -1.762  1.00  0.00    -0.245 OA
HETATM   18  N6  UNL     1      -8.891   1.606  -1.168  1.00  0.00    -0.328 N 
HETATM   19  C18 UNL     1      -9.762   0.907  -0.252  1.00  0.00     0.183 C 
ATOM     20  H6  UNL     1      -9.253   1.948  -2.058  1.00  0.00     0.165 HD
HETATM   21  C22 UNL     1      -9.318   1.085   1.149  1.00  0.00     0.261 C 
HETATM   22  O5  UNL     1     -10.169   1.050   2.063  1.00  0.00    -0.269 OA
HETATM   23  N7  UNL     1      -7.958   1.293   1.488  1.00  0.00    -0.258 N 
HETATM   24  C23 UNL     1      -7.533   1.118   2.859  1.00  0.00     0.181 C 
BRANCH  19  25
HETATM   25  C19 UNL     1     -11.160   1.464  -0.464  1.00  0.00     0.009 C 
HETATM   26  C20 UNL     1     -12.182   0.826   0.424  1.00  0.00     0.012 C 
HETATM   27  C21 UNL     1     -11.579   1.279  -1.904  1.00  0.00     0.012 C 
ENDBRANCH  19  25
ENDBRANCH  14  15
ENDBRANCH  13  14
ENDBRANCH  12  13
ENDBRANCH   7  12
ENDBRANCH   6   7
ENDBRANCH   5   6
ENDBRANCH   3   5
BRANCH   1  28
HETATM   28  C10 UNL     1       2.272  -0.089  -0.016  1.00  0.00     0.087 C 
HETATM   29  C9  UNL     1       3.187  -1.189   0.060  1.00  0.00     0.166 C 
BRANCH  29  30
HETATM   30  N2  UNL     1       4.506  -1.485   0.336  1.00  0.00    -0.357 N 
HETATM   31  C8  UNL     1       4.979  -2.906   0.192  1.00  0.00     0.145 C 
HETATM   32  C7  UNL     1       6.279  -3.007  -0.497  1.00  0.00     0.145 C 
HETATM   33  N1  UNL     1       7.160  -1.864  -0.381  1.00  0.00    -0.349 N 
HETATM   34  C6  UNL     1       8.533  -2.048  -0.280  1.00  0.00     0.224 C 
HETATM   35  C32 UNL     1       6.550  -0.566  -0.382  1.00  0.00     0.145 C 
HETATM   36  O1  UNL     1       8.925  -3.278  -0.296  1.00  0.00    -0.273 OA
HETATM   37  C31 UNL     1       5.536  -0.607   0.790  1.00  0.00     0.145 C 
BRANCH  34  38
HETATM   38  C5  UNL     1       9.606  -1.038  -0.158  1.00  0.00     0.078 C 
HETATM   39  C4  UNL     1       9.574  -0.193   1.049  1.00  0.00     0.014 C 
HETATM   40  C3  UNL     1       9.909   1.241   0.934  1.00  0.00     0.005 C 
HETATM   41  C2  UNL     1       9.889   1.850  -0.423  1.00  0.00    -0.019 C 
HETATM   42  C1  UNL     1      10.606   3.193  -0.371  1.00  0.00     0.010 C 
HETATM   43  C34 UNL     1      10.589   0.922  -1.380  1.00  0.00     0.005 C 
HETATM   44  C33 UNL     1       9.796  -0.332  -1.477  1.00  0.00     0.014 C 
ENDBRANCH  34  38
ENDBRANCH  29  30
BRANCH  29  45
HETATM   45  O2  UNL     1       2.511  -2.333  -0.246  1.00  0.00    -0.344 OA
ATOM     46  H2  UNL     1       1.603  -2.129  -0.436  1.00  0.00     0.219 HD
ENDBRANCH  29  45
BRANCH  28  47
HETATM   47  C28 UNL     1       2.597   1.317   0.256  1.00  0.00    -0.057 C 
HETATM   48  C29 UNL     1       3.635   1.963  -0.618  1.00  0.00     0.045 C 
HETATM   49  C30 UNL     1       2.710   1.691   1.723  1.00  0.00     0.045 C 
ENDBRANCH  28  47
ENDBRANCH   1  28
TORSDOF 13
