REMARK  10 active torsions:
REMARK  status: ('A' for Active; 'I' for Inactive)
REMARK    1  A    between atoms: C2_2  and  C4_4 
REMARK    2  A    between atoms: C2_2  and  N3_20 
REMARK    3  A    between atoms: C4_4  and  N1_5 
REMARK    4  A    between atoms: N2_9  and  C9_11 
REMARK    5  A    between atoms: C9_11  and  C10_12 
REMARK       I    between atoms: N3_20  and  C17_22 
REMARK       I    between atoms: C17_22  and  N4_24 
REMARK    6  A    between atoms: N4_24  and  C18_26 
REMARK    7  A    between atoms: C18_26  and  C19_27 
REMARK    8  A    between atoms: C19_27  and  C20_28 
REMARK    9  A    between atoms: C20_28  and  N5_29 
REMARK   10  A    between atoms: N6_32  and  C23_33 
ROOT
HETATM    1  N3  UNL     1       1.275  -0.835  -1.792  1.00  0.00    -0.333 N 
ATOM      2  H3  UNL     1       1.567  -0.058  -2.384  1.00  0.00     0.165 HD
HETATM    3  C17 UNL     1      -0.112  -1.097  -1.670  1.00  0.00     0.316 C 
HETATM    4  O2  UNL     1      -0.480  -2.067  -0.966  1.00  0.00    -0.247 OA
HETATM    5  N4  UNL     1      -1.074  -0.277  -2.328  1.00  0.00    -0.343 N 
ATOM      6  H4  UNL     1      -0.737   0.496  -2.902  1.00  0.00     0.164 HD
ENDROOT
BRANCH   1   7
HETATM    7  C2  UNL     1       2.321  -1.623  -1.111  1.00  0.00     0.053 C 
HETATM    8  C1  UNL     1       2.043  -3.056  -1.539  1.00  0.00     0.040 C 
HETATM    9  C3  UNL     1       2.155  -1.373   0.346  1.00  0.00     0.040 C 
BRANCH   7  10
HETATM   10  C4  UNL     1       3.637  -1.170  -1.700  1.00  0.00     0.302 C 
BRANCH  10  11
HETATM   11  N1  UNL     1       4.815  -1.853  -1.381  1.00  0.00     0.092 N 
HETATM   12  C5  UNL     1       5.892  -1.575  -2.349  1.00  0.00     0.274 C 
HETATM   13  C6  UNL     1       6.348  -0.173  -2.194  1.00  0.00     0.058 C 
HETATM   14  C7  UNL     1       7.329  -0.059  -1.039  1.00  0.00     0.238 C 
HETATM   15  N2  UNL     1       6.688   0.426   0.152  1.00  0.00    -0.069 N 
HETATM   16  C8  UNL     1       6.332   1.829  -0.142  1.00  0.00     0.272 C 
HETATM   17  C15 UNL     1       5.440  -0.277   0.435  1.00  0.00     0.267 C 
HETATM   18  C16 UNL     1       5.362  -1.668  -0.048  1.00  0.00     0.300 C 
BRANCH  15  19
HETATM   19  C9  UNL     1       7.515   0.297   1.300  1.00  0.00     0.241 C 
BRANCH  19  20
HETATM   20  C10 UNL     1       8.917   0.772   1.239  1.00  0.00     0.015 C 
HETATM   21  C11 UNL     1       9.108   2.235   0.950  1.00  0.00     0.032 C 
HETATM   22  C12 UNL     1      10.610   2.535   1.106  1.00  0.00     0.168 C 
HETATM   23  O1  UNL     1      11.316   1.352   1.393  1.00  0.00    -0.391 OA
HETATM   24  C13 UNL     1      10.945   0.873   2.648  1.00  0.00     0.168 C 
HETATM   25  C14 UNL     1       9.504   0.521   2.642  1.00  0.00     0.032 C 
ENDBRANCH  19  20
ENDBRANCH  15  19
ENDBRANCH  10  11
ENDBRANCH   7  10
ENDBRANCH   1   7
BRANCH   5  26
HETATM   26  C18 UNL     1      -2.481  -0.478  -2.227  1.00  0.00     0.126 C 
BRANCH  26  27
HETATM   27  C19 UNL     1      -3.023  -0.363  -0.821  1.00  0.00     0.050 C 
BRANCH  27  28
HETATM   28  C20 UNL     1      -4.524  -0.547  -0.794  1.00  0.00     0.275 C 
BRANCH  28  29
HETATM   29  N5  UNL     1      -5.005  -0.449   0.537  1.00  0.00     0.101 N 
HETATM   30  C21 UNL     1      -4.948   0.819   1.170  1.00  0.00     0.303 C 
HETATM   31  C22 UNL     1      -6.160   1.698   0.952  1.00  0.00     0.303 C 
HETATM   32  N6  UNL     1      -6.980   1.180  -0.093  1.00  0.00     0.097 N 
HETATM   33  C28 UNL     1      -7.427  -0.161   0.289  1.00  0.00     0.314 C 
HETATM   34  C29 UNL     1      -6.311  -1.038   0.749  1.00  0.00     0.189 C 
HETATM   35  C30 UNL     1      -6.473  -1.296   2.232  1.00  0.00     0.071 C 
HETATM   36  C33 UNL     1      -6.480  -2.380   0.071  1.00  0.00     0.071 C 
HETATM   37  C31 UNL     1      -7.882  -1.796   2.541  1.00  0.00     0.235 C 
HETATM   38  N7  UNL     1      -8.365  -2.680   1.525  1.00  0.00    -0.075 N 
HETATM   39  C32 UNL     1      -7.275  -3.360   0.906  1.00  0.00     0.235 C 
ATOM     40  H72 UNL     1      -9.064  -3.329   1.885  1.00  0.00     0.277 HD
ATOM     41  H71 UNL     1      -8.948  -2.195   0.843  1.00  0.00     0.277 HD
BRANCH  32  42
HETATM   42  C23 UNL     1      -8.196   1.949  -0.269  1.00  0.00     0.223 C 
HETATM   43  C24 UNL     1      -7.949   3.376  -0.674  1.00  0.00     0.036 C 
HETATM   44  C25 UNL     1      -9.301   3.750  -1.285  1.00  0.00     0.002 C 
HETATM   45  C26 UNL     1      -9.576   2.551  -2.173  1.00  0.00     0.002 C 
HETATM   46  C27 UNL     1      -8.977   1.385  -1.435  1.00  0.00     0.036 C 
ENDBRANCH  32  42
ENDBRANCH  28  29
ENDBRANCH  27  28
ENDBRANCH  26  27
ENDBRANCH   5  26
TORSDOF 10
