REMARK  13 active torsions:
REMARK  status: ('A' for Active; 'I' for Inactive)
REMARK    1  A    between atoms: O1_2  and  C2_3 
REMARK    2  A    between atoms: C2_3  and  C3_4 
REMARK    3  A    between atoms: C3_4  and  N1_5 
REMARK    4  A    between atoms: N1_5  and  C4_8 
REMARK    5  A    between atoms: C4_8  and  C5_9 
REMARK    6  A    between atoms: C5_9  and  C6_10 
REMARK    7  A    between atoms: C6_10  and  N2_11 
REMARK    8  A    between atoms: N3_25  and  C20_26 
REMARK    9  A    between atoms: C20_26  and  O2_27 
REMARK   10  A    between atoms: C21_29  and  N4_30 
REMARK       I    between atoms: N4_30  and  C22_32 
REMARK   11  A    between atoms: C27_38  and  C28_39 
REMARK   12  A    between atoms: C28_39  and  O4_40 
REMARK   13  A    between atoms: C32_46  and  O5_47 
ROOT
HETATM    1  N2  UNL     1       1.391   0.812   0.790  1.00  0.00    -0.360 N 
HETATM    2  C7  UNL     1       1.404  -0.608   0.599  1.00  0.00     0.125 C 
HETATM    3  C8  UNL     1       1.919  -1.098  -0.726  1.00  0.00     0.020 C 
HETATM    4  C9  UNL     1       1.353  -2.511  -0.928  1.00  0.00     0.002 C 
HETATM    5  C10 UNL     1       1.890  -3.504   0.049  1.00  0.00     0.000 C 
HETATM    6  C11 UNL     1       1.290  -4.851  -0.297  1.00  0.00     0.000 C 
HETATM    7  C12 UNL     1       0.389  -5.411   0.749  1.00  0.00     0.000 C 
HETATM    8  C13 UNL     1      -0.983  -4.790   0.803  1.00  0.00     0.000 C 
HETATM    9  C14 UNL     1      -1.894  -5.194  -0.307  1.00  0.00     0.000 C 
HETATM   10  C15 UNL     1      -2.507  -4.042  -1.065  1.00  0.00     0.000 C 
HETATM   11  C16 UNL     1      -3.348  -3.176  -0.163  1.00  0.00     0.000 C 
HETATM   12  C17 UNL     1      -3.486  -1.760  -0.674  1.00  0.00     0.007 C 
HETATM   13  C18 UNL     1      -2.462  -0.840   0.023  1.00  0.00     0.012 C 
HETATM   14  C19 UNL     1      -1.808  -0.026  -1.016  1.00  0.00     0.136 C 
HETATM   15  N3  UNL     1      -1.414   1.352  -0.647  1.00  0.00    -0.326 N 
HETATM   16  C24 UNL     1      -0.930   2.063   0.454  1.00  0.00     0.065 C 
HETATM   17  C25 UNL     1      -1.911   2.421   1.542  1.00  0.00     0.071 C 
HETATM   18  C26 UNL     1      -2.164   1.428   2.592  1.00  0.00     0.060 C 
HETATM   19  C27 UNL     1      -3.534   1.380   3.214  1.00  0.00     0.253 C 
HETATM   20  N5  UNL     1      -3.735   0.004   2.937  1.00  0.00     0.101 N 
HETATM   21  C29 UNL     1      -4.355  -0.437   1.738  1.00  0.00     0.280 C 
HETATM   22  C30 UNL     1      -3.246   0.054   0.921  1.00  0.00     0.053 C 
HETATM   23  C31 UNL     1      -2.488   0.050   2.210  1.00  0.00     0.236 C 
HETATM   24  C32 UNL     1       0.355   1.691   1.093  1.00  0.00     0.161 C 
ENDROOT
BRANCH   1  25
HETATM   25  C6  UNL     1       2.740   1.427   0.705  1.00  0.00     0.126 C 
BRANCH  25  26
HETATM   26  C5  UNL     1       3.076   1.936  -0.649  1.00  0.00     0.047 C 
BRANCH  26  27
HETATM   27  C4  UNL     1       4.471   2.566  -0.551  1.00  0.00     0.234 C 
BRANCH  27  28
HETATM   28  N1  UNL     1       5.484   1.650  -0.153  1.00  0.00    -0.073 N 
ATOM     29  H12 UNL     1       5.236   1.211   0.734  1.00  0.00     0.277 HD
ATOM     30  H11 UNL     1       6.325   2.153   0.129  1.00  0.00     0.277 HD
BRANCH  28  31
HETATM   31  C3  UNL     1       5.808   0.643  -1.137  1.00  0.00     0.258 C 
BRANCH  31  32
HETATM   32  C2  UNL     1       6.869  -0.248  -0.545  1.00  0.00     0.194 C 
BRANCH  32  33
HETATM   33  O1  UNL     1       7.296  -1.266  -1.364  1.00  0.00    -0.394 OA
HETATM   34  C1  UNL     1       6.309  -2.154  -1.743  1.00  0.00     0.201 C 
ENDBRANCH  32  33
ENDBRANCH  31  32
ENDBRANCH  28  31
ENDBRANCH  27  28
ENDBRANCH  26  27
ENDBRANCH  25  26
ENDBRANCH   1  25
BRANCH  24  35
HETATM   35  O5  UNL     1       0.515   2.389   2.210  1.00  0.00    -0.345 OA
ATOM     36  H5  UNL     1      -0.192   2.989   2.417  1.00  0.00     0.219 HD
ENDBRANCH  24  35
BRANCH  15  37
HETATM   37  C20 UNL     1      -1.538   2.067  -1.839  1.00  0.00     0.158 C 
HETATM   38  C21 UNL     1      -1.592   3.431  -2.251  1.00  0.00     0.147 C 
BRANCH  37  39
HETATM   39  O2  UNL     1      -1.648   1.298  -2.957  1.00  0.00    -0.345 OA
ATOM     40  H2  UNL     1      -1.732   1.785  -3.768  1.00  0.00     0.219 HD
ENDBRANCH  37  39
BRANCH  38  41
HETATM   41  N4  UNL     1      -1.641   4.602  -1.494  1.00  0.00    -0.333 N 
HETATM   42  C22 UNL     1      -1.634   5.861  -2.230  1.00  0.00     0.217 C 
HETATM   43  C23 UNL     1      -1.683   7.110  -1.481  1.00  0.00     0.117 C 
HETATM   44  O3  UNL     1      -1.586   5.819  -3.464  1.00  0.00    -0.274 OA
ATOM     45  H4  UNL     1      -1.680   4.579  -0.475  1.00  0.00     0.168 HD
ENDBRANCH  38  41
ENDBRANCH  15  37
BRANCH  19  46
HETATM   46  C28 UNL     1      -4.524   2.387   2.792  1.00  0.00     0.200 C 
BRANCH  46  47
HETATM   47  O4  UNL     1      -4.045   3.652   3.207  1.00  0.00    -0.399 OA
ATOM     48  H4  UNL     1      -4.683   4.301   2.935  1.00  0.00     0.209 HD
ENDBRANCH  46  47
ENDBRANCH  19  46
TORSDOF 13
