REMARK  6 active torsions:
REMARK  status: ('A' for Active; 'I' for Inactive)
REMARK    1  A    between atoms: C2_2  and  C3_3 
REMARK    2  A    between atoms: C3_3  and  N1_4 
REMARK    3  A    between atoms: N1_4  and  S1_6 
REMARK    4  A    between atoms: S1_6  and  N2_9 
REMARK    5  A    between atoms: N2_9  and  C4_11 
REMARK    6  A    between atoms: N3_12  and  N4_14 
ROOT
HETATM    1  S1  UNL     1       0.678  -1.818   0.345  1.00  0.00     0.320 S 
HETATM    2  O1  UNL     1       0.906  -2.982   1.290  1.00  0.00    -0.182 OA
HETATM    3  O2  UNL     1       0.849  -2.247  -1.081  1.00  0.00    -0.182 OA
ENDROOT
BRANCH   1   4
HETATM    4  N1  UNL     1      -0.939  -1.279   0.641  1.00  0.00    -0.299 N 
ATOM      5  H1  UNL     1      -1.437  -1.400   1.523  1.00  0.00     0.174 HD
BRANCH   4   6
HETATM    6  C3  UNL     1      -1.500  -0.623  -0.549  1.00  0.00     0.160 C 
BRANCH   6   7
HETATM    7  C2  UNL     1      -2.877  -0.206  -0.179  1.00  0.00    -0.017 C 
HETATM    8  C1  UNL     1      -3.185   1.071  -0.231  1.00  0.00     0.008 C 
ENDBRANCH   6   7
ENDBRANCH   4   6
ENDBRANCH   1   4
BRANCH   1   9
HETATM    9  N2  UNL     1       1.808  -0.596   0.752  1.00  0.00    -0.263 N 
ATOM     10  H2  UNL     1       2.190  -0.549   1.697  1.00  0.00     0.181 HD
BRANCH   9  11
HETATM   11  C4  UNL     1       2.216   0.359  -0.234  1.00  0.00     0.208 C 
HETATM   12  N3  UNL     1       2.683   1.484   0.153  1.00  0.00    -0.302 N 
ATOM     13  H3  UNL     1       2.977   2.171  -0.542  1.00  0.00     0.187 HD
BRANCH  12  14
HETATM   14  N4  UNL     1       2.796   1.784   1.489  1.00  0.00    -0.344 N 
ATOM     15  H42 UNL     1       2.498   1.086   2.170  1.00  0.00     0.176 HD
ATOM     16  H41 UNL     1       3.169   2.682   1.798  1.00  0.00     0.176 HD
ENDBRANCH  12  14
ENDBRANCH   9  11
ENDBRANCH   1   9
TORSDOF 6
