REMARK  4 active torsions:
REMARK  status: ('A' for Active; 'I' for Inactive)
REMARK    1  A    between atoms: O1_2  and  C2_3 
REMARK    2  A    between atoms: C5_6  and  O2_7 
REMARK    3  A    between atoms: C7_10  and  O3_11 
REMARK    4  A    between atoms: O3_11  and  C8_12 
ROOT
HETATM    1  C2  UNL     1      -1.172   0.069   0.984  1.00  0.00     0.172 C 
HETATM    2  C3  UNL     1      -2.497  -0.506   0.530  1.00  0.00     0.071 C 
HETATM    3  C4  UNL     1      -2.148  -1.483  -0.568  1.00  0.00     0.037 C 
HETATM    4  C5  UNL     1      -1.061  -0.718  -1.311  1.00  0.00     0.130 C 
HETATM    5  C6  UNL     1      -0.350   0.082  -0.249  1.00  0.00     0.108 C 
HETATM    6  C7  UNL     1       0.897  -0.674   0.137  1.00  0.00     0.167 C 
HETATM    7  C10 UNL     1       0.451  -1.451   1.325  1.00  0.00     0.204 C 
HETATM    8  O5  UNL     1      -0.635  -0.849   1.880  1.00  0.00    -0.352 OA
ENDROOT
BRANCH   6   9
HETATM    9  O3  UNL     1       1.947   0.194   0.531  1.00  0.00    -0.314 OA
BRANCH   9  10
HETATM   10  C8  UNL     1       3.202   0.156  -0.084  1.00  0.00     0.255 C 
HETATM   11  C9  UNL     1       4.314   1.058   0.316  1.00  0.00     0.126 C 
HETATM   12  O4  UNL     1       3.341  -0.690  -1.004  1.00  0.00    -0.266 OA
ENDBRANCH   9  10
ENDBRANCH   6   9
BRANCH   1  13
HETATM   13  O1  UNL     1      -1.284   1.269   1.626  1.00  0.00    -0.359 OA
HETATM   14  C1  UNL     1      -1.796   2.302   0.900  1.00  0.00     0.205 C 
ENDBRANCH   1  13
BRANCH   4  15
HETATM   15  O2  UNL     1      -1.578   0.067  -2.329  1.00  0.00    -0.395 OA
ATOM     16  H2  UNL     1      -0.900   0.544  -2.793  1.00  0.00     0.210 HD
ENDBRANCH   4  15
TORSDOF 4
