REMARK  2 active torsions:
REMARK  status: ('A' for Active; 'I' for Inactive)
REMARK    1  A    between atoms: O1_2  and  C2_3 
REMARK    2  A    between atoms: C3_5  and  C5_8 
ROOT
HETATM    1  C2  UNL     1       0.538   0.893   0.426  1.00  0.00     0.295 C 
HETATM    2  O2  UNL     1       1.331  -0.076   0.970  1.00  0.00    -0.322 OA
HETATM    3  C3  UNL     1       1.360  -1.298   0.380  1.00  0.00     0.266 C 
HETATM    4  C4  UNL     1       1.839  -2.260   1.407  1.00  0.00     0.111 C 
HETATM    5  N1  UNL     1       2.204  -2.998   2.220  1.00  0.00    -0.193 NA
HETATM    6  C6  UNL     1       0.021  -1.819  -0.089  1.00  0.00     0.338 C 
HETATM    7  N2  UNL     1      -0.991  -0.907   0.338  1.00  0.00     0.102 N 
HETATM    8  C7  UNL     1      -2.317  -1.234  -0.062  1.00  0.00     0.273 C 
HETATM    9  C8  UNL     1      -3.001   0.118  -0.219  1.00  0.00     0.033 C 
HETATM   10  C9  UNL     1      -1.924   1.161   0.002  1.00  0.00     0.042 C 
HETATM   11  C10 UNL     1      -0.680   0.385  -0.298  1.00  0.00     0.278 C 
ENDROOT
BRANCH   3  12
HETATM   12  C5  UNL     1       2.353  -1.399  -0.731  1.00  0.00     0.226 C 
HETATM   13  O3  UNL     1       2.483  -2.477  -1.364  1.00  0.00    -0.645 OA
HETATM   14  O4  UNL     1       3.161  -0.340  -1.108  1.00  0.00    -0.645 OA
ENDBRANCH   3  12
BRANCH   1  15
HETATM   15  O1  UNL     1       1.313   1.739  -0.335  1.00  0.00    -0.364 OA
HETATM   16  C1  UNL     1       1.350   3.027   0.192  1.00  0.00     0.204 C 
ENDBRANCH   1  15
TORSDOF 2
