REMARK  8 active torsions:
REMARK  status: ('A' for Active; 'I' for Inactive)
REMARK    1  A    between atoms: C2_2  and  O1_3 
REMARK    2  A    between atoms: O1_3  and  C3_4 
REMARK       I    between atoms: C3_4  and  N1_6 
REMARK    3  A    between atoms: C6_9  and  N2_10 
REMARK    4  A    between atoms: N2_10  and  C7_12 
REMARK    5  A    between atoms: C7_12  and  N3_14 
REMARK    6  A    between atoms: N3_14  and  C8_16 
REMARK    7  A    between atoms: C8_16  and  C9_17 
REMARK    8  A    between atoms: C8_16  and  C12_20 
ROOT
HETATM    1  C7  UNL     1      -0.290   0.560  -0.467  1.00  0.00     0.172 C 
HETATM    2  S1  UNL     1      -0.137   1.115  -1.986  1.00  0.00    -0.041 SA
ENDROOT
BRANCH   1   3
HETATM    3  N2  UNL     1       0.821   0.716   0.395  1.00  0.00    -0.362 N 
ATOM      4  H2  UNL     1       0.723   0.409   1.363  1.00  0.00     0.162 HD
BRANCH   3   5
HETATM    5  C6  UNL     1       2.095   1.288  -0.014  1.00  0.00     0.087 C 
HETATM    6  C5  UNL     1       2.973   1.332   1.210  1.00  0.00     0.045 C 
HETATM    7  C4  UNL     1       4.405   1.673   0.791  1.00  0.00     0.130 C 
HETATM    8  N1  UNL     1       4.842   0.502   0.053  1.00  0.00    -0.328 N 
HETATM    9  C3  UNL     1       5.985  -0.218   0.504  1.00  0.00     0.362 C 
HETATM   10  C19 UNL     1       4.089   0.132  -1.100  1.00  0.00     0.130 C 
HETATM   11  O2  UNL     1       6.366  -1.243  -0.144  1.00  0.00    -0.238 OA
HETATM   12  C18 UNL     1       2.686   0.554  -1.164  1.00  0.00     0.045 C 
BRANCH   9  13
HETATM   13  O1  UNL     1       6.716   0.128   1.611  1.00  0.00    -0.304 OA
BRANCH  13  14
HETATM   14  C2  UNL     1       7.863  -0.598   2.060  1.00  0.00     0.176 C 
HETATM   15  C1  UNL     1       8.942  -0.636   1.032  1.00  0.00     0.034 C 
ENDBRANCH  13  14
ENDBRANCH   9  13
ENDBRANCH   3   5
ENDBRANCH   1   3
BRANCH   1  16
HETATM   16  N3  UNL     1      -1.499   0.000  -0.033  1.00  0.00    -0.338 N 
ATOM     17  H3  UNL     1      -1.566  -0.282   0.945  1.00  0.00     0.168 HD
BRANCH  16  18
HETATM   18  C8  UNL     1      -2.656  -0.207  -0.871  1.00  0.00     0.025 C 
BRANCH  18  19
HETATM   19  C9  UNL     1      -2.767  -1.528  -1.516  1.00  0.00     0.025 C 
HETATM   20  C10 UNL     1      -1.625  -1.882  -2.449  1.00  0.00     0.016 C 
HETATM   21  C11 UNL     1      -2.791  -2.682  -0.499  1.00  0.00     0.016 C 
ENDBRANCH  18  19
BRANCH  18  22
HETATM   22  C12 UNL     1      -3.827   0.401  -0.221  1.00  0.00     0.268 C 
HETATM   23  C13 UNL     1      -5.134   0.260  -0.996  1.00  0.00     0.042 C 
HETATM   24  C14 UNL     1      -6.274   0.915  -0.302  1.00  0.00     0.004 C 
HETATM   25  C15 UNL     1      -6.003   1.649   0.937  1.00  0.00     0.030 C 
HETATM   26  C16 UNL     1      -4.720   1.410   1.654  1.00  0.00     0.273 C 
HETATM   27  N4  UNL     1      -4.089   0.170   1.145  1.00  0.00     0.094 N 
HETATM   28  C17 UNL     1      -5.032  -0.844   1.498  1.00  0.00     0.310 C 
ENDBRANCH  18  22
ENDBRANCH  16  18
ENDBRANCH   1  16
TORSDOF 8
