REMARK  7 active torsions:
REMARK  status: ('A' for Active; 'I' for Inactive)
REMARK    1  A    between atoms: C2_2  and  C3_3 
REMARK    2  A    between atoms: C3_3  and  O1_4 
REMARK    3  A    between atoms: C3_3  and  C4_6 
REMARK    4  A    between atoms: C4_6  and  N1_7 
REMARK    5  A    between atoms: N1_7  and  C5_9 
REMARK    6  A    between atoms: C5_9  and  C6_11 
REMARK    7  A    between atoms: C20_26  and  C21_27 
ROOT
HETATM    1  C6  UNL     1      -0.084  -0.586   0.416  1.00  0.00     0.035 C 
HETATM    2  C7  UNL     1       0.579  -1.683  -0.450  1.00  0.00     0.028 C 
HETATM    3  C8  UNL     1      -0.971  -1.440   1.281  1.00  0.00    -0.014 C 
HETATM    4  C9  UNL     1      -2.043  -2.310   0.853  1.00  0.00    -0.027 C 
HETATM    5  C10 UNL     1      -3.527  -1.978   1.098  1.00  0.00     0.059 C 
HETATM    6  C11 UNL     1      -3.745  -0.559   0.969  1.00  0.00     0.129 C 
HETATM    7  O2  UNL     1      -4.733   0.266   0.835  1.00  0.00    -0.385 OA
HETATM    8  C12 UNL     1      -3.969   1.508   0.854  1.00  0.00     0.174 C 
HETATM    9  C13 UNL     1      -2.530   1.085   0.768  1.00  0.00     0.032 C 
HETATM   10  C14 UNL     1      -2.874  -0.033  -0.099  1.00  0.00     0.026 C 
HETATM   11  C15 UNL     1      -3.193   0.855  -1.260  1.00  0.00    -0.006 C 
HETATM   12  C16 UNL     1      -2.314   0.282  -2.432  1.00  0.00     0.006 C 
HETATM   13  C17 UNL     1      -0.985  -0.096  -1.870  1.00  0.00     0.012 C 
HETATM   14  C18 UNL     1      -0.567   0.457  -0.493  1.00  0.00    -0.013 C 
HETATM   15  C19 UNL     1       0.615   1.328  -0.942  1.00  0.00     0.018 C 
HETATM   16  C20 UNL     1      -1.466   1.569   0.003  1.00  0.00     0.028 C 
HETATM   17  C22 UNL     1      -2.370   2.127  -1.125  1.00  0.00     0.023 C 
ENDROOT
BRANCH   1  18
HETATM   18  C5  UNL     1       1.011  -0.225   1.371  1.00  0.00     0.086 C 
HETATM   19  S1  UNL     1       0.515   0.137   2.963  1.00  0.00    -0.065 SA
BRANCH  18  20
HETATM   20  N1  UNL     1       2.381  -0.141   1.246  1.00  0.00    -0.381 N 
ATOM     21  H1  UNL     1       2.815   0.130   2.128  1.00  0.00     0.160 HD
BRANCH  20  22
HETATM   22  C4  UNL     1       3.350  -0.325   0.238  1.00  0.00     0.151 C 
BRANCH  22  23
HETATM   23  C3  UNL     1       4.791  -0.379   0.779  1.00  0.00     0.135 C 
BRANCH  23  24
HETATM   24  C2  UNL     1       5.757  -0.621  -0.360  1.00  0.00     0.029 C 
HETATM   25  C1  UNL     1       5.796   0.570  -1.302  1.00  0.00     0.007 C 
ENDBRANCH  23  24
BRANCH  23  26
HETATM   26  O1  UNL     1       4.815  -1.495   1.609  1.00  0.00    -0.394 OA
ATOM     27  H1  UNL     1       4.208  -1.343   2.324  1.00  0.00     0.210 HD
ENDBRANCH  23  26
ENDBRANCH  22  23
ENDBRANCH  20  22
ENDBRANCH  18  20
ENDBRANCH   1  18
BRANCH  16  28
HETATM   28  C21 UNL     1      -0.864   2.735   0.643  1.00  0.00     0.242 C 
HETATM   29  O3  UNL     1      -1.109   3.153   1.756  1.00  0.00    -0.306 OA
ENDBRANCH  16  28
TORSDOF 7
