REMARK  7 active torsions:
REMARK  status: ('A' for Active; 'I' for Inactive)
REMARK    1  A    between atoms: C2_2  and  N1_4 
REMARK       I    between atoms: N1_4  and  C4_6 
REMARK       I    between atoms: C4_6  and  N2_8 
REMARK    2  A    between atoms: N2_8  and  C5_10 
REMARK    3  A    between atoms: C5_10  and  C7_12 
REMARK    4  A    between atoms: C13_18  and  O2_19 
REMARK    5  A    between atoms: O2_19  and  C14_20 
REMARK    6  A    between atoms: C14_20  and  C15_22 
REMARK    7  A    between atoms: C15_22  and  N3_23 
ROOT
HETATM    1  C7  UNL     1       1.719   0.164  -1.412  1.00  0.00     0.012 C 
HETATM    2  C8  UNL     1       1.145  -1.169  -0.942  1.00  0.00     0.012 C 
HETATM    3  C9  UNL     1      -0.307  -1.180  -1.346  1.00  0.00    -0.009 C 
HETATM    4  C10 UNL     1      -1.130  -2.239  -0.653  1.00  0.00     0.010 C 
HETATM    5  C11 UNL     1      -2.526  -1.628  -0.856  1.00  0.00    -0.007 C 
HETATM    6  C12 UNL     1      -3.448  -2.251   0.130  1.00  0.00     0.037 C 
HETATM    7  C13 UNL     1      -3.690  -1.201   1.194  1.00  0.00     0.132 C 
HETATM    8  C18 UNL     1      -2.576  -0.172   0.990  1.00  0.00     0.038 C 
HETATM    9  C19 UNL     1      -2.316  -0.191  -0.499  1.00  0.00    -0.004 C 
HETATM   10  C20 UNL     1      -0.922   0.132  -0.897  1.00  0.00    -0.006 C 
HETATM   11  C21 UNL     1      -0.090   0.787   0.175  1.00  0.00     0.010 C 
HETATM   12  C22 UNL     1       1.228   1.212  -0.495  1.00  0.00    -0.012 C 
HETATM   13  C23 UNL     1       2.141   1.647   0.595  1.00  0.00     0.010 C 
ENDROOT
BRANCH   1  14
HETATM   14  C5  UNL     1       3.149   0.102  -1.741  1.00  0.00     0.086 C 
HETATM   15  C6  UNL     1       3.294  -0.931  -2.877  1.00  0.00     0.032 C 
BRANCH  14  16
HETATM   16  N2  UNL     1       4.081  -0.275  -0.750  1.00  0.00    -0.339 N 
HETATM   17  C4  UNL     1       5.231   0.522  -0.522  1.00  0.00     0.316 C 
HETATM   18  N1  UNL     1       6.209   0.182   0.469  1.00  0.00    -0.339 N 
HETATM   19  O1  UNL     1       5.429   1.559  -1.188  1.00  0.00    -0.247 OA
ATOM     20  H1  UNL     1       6.071  -0.661   1.027  1.00  0.00     0.164 HD
ATOM     21  H2  UNL     1       3.927  -1.119  -0.199  1.00  0.00     0.164 HD
BRANCH  18  22
HETATM   22  C2  UNL     1       7.380   0.986   0.707  1.00  0.00     0.078 C 
HETATM   23  C1  UNL     1       8.579   0.105   0.439  1.00  0.00     0.032 C 
HETATM   24  C3  UNL     1       7.462   1.461   2.140  1.00  0.00     0.032 C 
ENDBRANCH  18  22
ENDBRANCH  14  16
ENDBRANCH   1  14
BRANCH   7  25
HETATM   25  O2  UNL     1      -4.964  -0.653   0.932  1.00  0.00    -0.315 OA
BRANCH  25  26
HETATM   26  C14 UNL     1      -5.970  -0.643   1.882  1.00  0.00     0.287 C 
HETATM   27  O3  UNL     1      -5.774  -1.127   3.024  1.00  0.00    -0.263 OA
BRANCH  26  28
HETATM   28  C15 UNL     1      -7.275  -0.063   1.555  1.00  0.00     0.381 C 
BRANCH  28  29
HETATM   29  N3  UNL     1      -7.337   0.437   0.209  1.00  0.00     0.089 N 
HETATM   30  C16 UNL     1      -8.642   0.996  -0.094  1.00  0.00     0.310 C 
HETATM   31  C17 UNL     1      -6.267   1.322  -0.141  1.00  0.00     0.310 C 
ENDBRANCH  28  29
ENDBRANCH  26  28
ENDBRANCH  25  26
ENDBRANCH   7  25
TORSDOF 7
