REMARK  2 active torsions:
REMARK  status: ('A' for Active; 'I' for Inactive)
REMARK    1  A    between atoms: N1_1  and  N2_4 
REMARK    2  A    between atoms: N3_6  and  C1_8 
ROOT
HETATM    1  N2  UNL     1       3.039   0.030  -0.278  1.00  0.00    -0.253 N 
ATOM      2  H2  UNL     1       2.572   0.004   0.629  1.00  0.00     0.207 HD
HETATM    3  N3  UNL     1       2.163   0.442  -1.058  1.00  0.00    -0.318 N 
ATOM      4  H3  UNL     1       2.417   0.959  -1.900  1.00  0.00     0.182 HD
ENDROOT
BRANCH   3   5
HETATM    5  C1  UNL     1       0.811   0.181  -0.756  1.00  0.00     0.100 C 
HETATM    6  C2  UNL     1       0.181   1.322  -0.004  1.00  0.00     0.027 C 
HETATM    7  C3  UNL     1      -1.271   1.123   0.290  1.00  0.00     0.002 C 
HETATM    8  C4  UNL     1      -1.645  -0.272   0.661  1.00  0.00     0.000 C 
HETATM    9  C5  UNL     1      -0.951  -1.333  -0.129  1.00  0.00     0.002 C 
HETATM   10  C6  UNL     1       0.557  -1.082   0.017  1.00  0.00     0.027 C 
ENDBRANCH   3   5
BRANCH   1  11
HETATM   11  N1  UNL     1       4.177  -0.361  -0.040  1.00  0.00    -0.331 N 
ATOM     12  H12 UNL     1       4.610  -0.321  -0.963  1.00  0.00     0.178 HD
ATOM     13  H11 UNL     1       4.896  -0.699   0.600  1.00  0.00     0.178 HD
ENDBRANCH   1  11
TORSDOF 2
