REMARK  15 active torsions:
REMARK  status: ('A' for Active; 'I' for Inactive)
REMARK    1  A    between atoms: C2_2  and  C3_3 
REMARK    2  A    between atoms: C3_3  and  C4_4 
REMARK    3  A    between atoms: C4_4  and  C5_5 
REMARK    4  A    between atoms: C5_5  and  C6_6 
REMARK    5  A    between atoms: C6_6  and  C7_7 
REMARK    6  A    between atoms: C7_7  and  C8_8 
REMARK    7  A    between atoms: C8_8  and  C9_9 
REMARK    8  A    between atoms: C9_9  and  C10_10 
REMARK    9  A    between atoms: C9_9  and  C15_17 
REMARK   10  A    between atoms: C10_10  and  C11_11 
REMARK   11  A    between atoms: C11_11  and  C12_12 
REMARK   12  A    between atoms: C13_13  and  C14_14 
REMARK   13  A    between atoms: C14_14  and  O1_15 
REMARK   14  A    between atoms: C15_17  and  O2_18 
REMARK   15  A    between atoms: C15_17  and  C16_20 
ROOT
HETATM    1  C9  UNL     1      -0.897  -0.033  -0.432  1.00  0.00     0.019 C 
ENDROOT
BRANCH   1   2
HETATM    2  C8  UNL     1      -0.500  -1.425  -0.458  1.00  0.00     0.007 C 
BRANCH   2   3
HETATM    3  C7  UNL     1       0.763  -1.947  -0.973  1.00  0.00     0.000 C 
BRANCH   3   4
HETATM    4  C6  UNL     1       2.013  -1.546  -0.260  1.00  0.00     0.000 C 
BRANCH   4   5
HETATM    5  C5  UNL     1       3.234  -2.222  -0.921  1.00  0.00     0.000 C 
BRANCH   5   6
HETATM    6  C4  UNL     1       4.479  -1.854  -0.210  1.00  0.00     0.004 C 
BRANCH   6   7
HETATM    7  C3  UNL     1       4.767  -0.375  -0.218  1.00  0.00     0.026 C 
BRANCH   7   8
HETATM    8  C2  UNL     1       6.060  -0.176   0.511  1.00  0.00    -0.037 C 
HETATM    9  C1  UNL     1       7.067   0.376  -0.142  1.00  0.00     0.007 C 
ENDBRANCH   7   8
ENDBRANCH   6   7
ENDBRANCH   5   6
ENDBRANCH   4   5
ENDBRANCH   3   4
ENDBRANCH   2   3
ENDBRANCH   1   2
BRANCH   1  10
HETATM   10  C10 UNL     1      -2.284   0.028   0.234  1.00  0.00     0.011 C 
BRANCH  10  11
HETATM   11  C11 UNL     1      -3.315  -0.725  -0.532  1.00  0.00     0.027 C 
BRANCH  11  12
HETATM   12  C12 UNL     1      -4.653  -0.631   0.079  1.00  0.00    -0.029 C 
HETATM   13  C13 UNL     1      -5.330  -1.655   0.505  1.00  0.00    -0.005 C 
BRANCH  13  14
HETATM   14  C14 UNL     1      -4.946  -3.075   0.483  1.00  0.00     0.191 C 
BRANCH  14  15
HETATM   15  O1  UNL     1      -5.858  -3.845  -0.271  1.00  0.00    -0.397 OA
ATOM     16  H1  UNL     1      -5.610  -4.762  -0.285  1.00  0.00     0.209 HD
ENDBRANCH  14  15
ENDBRANCH  13  14
ENDBRANCH  11  12
ENDBRANCH  10  11
ENDBRANCH   1  10
BRANCH   1  17
HETATM   17  C15 UNL     1      -0.051   1.019   0.171  1.00  0.00     0.158 C 
BRANCH  17  18
HETATM   18  O2  UNL     1       0.189   0.817   1.529  1.00  0.00    -0.390 OA
ATOM     19  H2  UNL     1       0.733   1.493   1.916  1.00  0.00     0.210 HD
ENDBRANCH  17  18
BRANCH  17  20
HETATM   20  C16 UNL     1      -0.705   2.377   0.003  1.00  0.00     0.005 A 
HETATM   21  C17 UNL     1      -1.631   2.780  -0.929  1.00  0.00     0.118 A 
HETATM   22  N1  UNL     1      -1.918   4.075  -0.680  1.00  0.00    -0.310 N 
HETATM   23  N2  UNL     1      -1.234   4.526   0.354  1.00  0.00    -0.307 N 
ATOM     24  H1  UNL     1      -2.578   4.633  -1.221  1.00  0.00     0.186 HD
HETATM   25  C18 UNL     1      -1.268   5.873   0.933  1.00  0.00     0.177 C 
HETATM   26  C19 UNL     1      -0.486   3.494   0.782  1.00  0.00     0.120 A 
ENDBRANCH  17  20
ENDBRANCH   1  17
TORSDOF 15
