REMARK  5 active torsions:
REMARK  status: ('A' for Active; 'I' for Inactive)
REMARK    1  A    between atoms: N1_2  and  C3_4 
REMARK    2  A    between atoms: C3_4  and  C4_5 
REMARK    3  A    between atoms: C4_5  and  C5_6 
REMARK    4  A    between atoms: C5_6  and  O1_7 
REMARK    5  A    between atoms: O1_7  and  C6_8 
ROOT
HETATM    1  C6  UNL     1       1.105   0.062   0.764  1.00  0.00     0.216 C 
HETATM    2  C7  UNL     1       1.350  -1.064  -0.148  1.00  0.00     0.053 C 
HETATM    3  C8  UNL     1       2.308  -0.587  -1.232  1.00  0.00     0.004 C 
HETATM    4  C9  UNL     1       3.727  -0.844  -0.856  1.00  0.00     0.002 C 
HETATM    5  C10 UNL     1       4.150  -0.224   0.430  1.00  0.00     0.019 C 
HETATM    6  C11 UNL     1       3.299  -0.553   1.616  1.00  0.00     0.116 C 
HETATM    7  N2  UNL     1       2.132   0.237   1.779  1.00  0.00    -0.397 N 
ATOM      8  H2  UNL     1       2.020   0.886   2.558  1.00  0.00     0.155 HD
ENDROOT
BRANCH   1   9
HETATM    9  O1  UNL     1      -0.137   0.016   1.374  1.00  0.00    -0.367 OA
BRANCH   9  10
HETATM   10  C5  UNL     1      -0.921   1.119   1.199  1.00  0.00     0.172 C 
BRANCH  10  11
HETATM   11  C4  UNL     1      -1.362   1.420  -0.200  1.00  0.00     0.056 C 
BRANCH  11  12
HETATM   12  C3  UNL     1      -2.238   0.309  -0.706  1.00  0.00     0.273 C 
BRANCH  12  13
HETATM   13  N1  UNL     1      -3.433   0.140   0.089  1.00  0.00     0.080 N 
HETATM   14  C1  UNL     1      -4.377   1.198   0.006  1.00  0.00     0.309 C 
HETATM   15  C2  UNL     1      -4.054  -1.137  -0.015  1.00  0.00     0.309 C 
ENDBRANCH  12  13
ENDBRANCH  11  12
ENDBRANCH  10  11
ENDBRANCH   9  10
ENDBRANCH   1   9
TORSDOF 5
