REMARK  1 active torsions:
REMARK  status: ('A' for Active; 'I' for Inactive)
REMARK    1  A    between atoms: N1_1  and  N2_4 
ROOT
HETATM    1  N2  UNL     1      -0.576  -0.172   0.013  1.00  0.00    -0.171 N 
HETATM    2  N3  UNL     1       0.439  -1.010   0.161  1.00  0.00    -0.228 N 
ATOM      3  H3  UNL     1       0.359  -2.016   0.310  1.00  0.00     0.194 HD
HETATM    4  C1  UNL     1       1.598  -0.317   0.083  1.00  0.00     0.342 A 
HETATM    5  O1  UNL     1       2.749  -0.850   0.188  1.00  0.00    -0.245 OA
HETATM    6  N4  UNL     1       1.286   0.969  -0.117  1.00  0.00    -0.281 N 
ATOM      7  H4  UNL     1       1.944   1.741  -0.219  1.00  0.00     0.173 HD
HETATM    8  C2  UNL     1      -0.056   1.055  -0.159  1.00  0.00     0.217 A 
HETATM    9  S1  UNL     1      -0.946   2.417  -0.383  1.00  0.00    -0.037 SA
ENDROOT
BRANCH   1  10
HETATM   10  N1  UNL     1      -1.951  -0.515   0.034  1.00  0.00    -0.321 N 
ATOM     11  H12 UNL     1      -2.346  -1.446   0.165  1.00  0.00     0.179 HD
ATOM     12  H11 UNL     1      -2.733   0.130  -0.080  1.00  0.00     0.179 HD
ENDBRANCH   1  10
TORSDOF 1
