REMARK  17 active torsions:
REMARK  status: ('A' for Active; 'I' for Inactive)
REMARK    1  A    between atoms: C2_2  and  C3_3 
REMARK    2  A    between atoms: C3_3  and  C4_4 
REMARK    3  A    between atoms: C4_4  and  C5_5 
REMARK    4  A    between atoms: C5_5  and  C6_6 
REMARK    5  A    between atoms: C5_5  and  C13_15 
REMARK    6  A    between atoms: C6_6  and  C7_7 
REMARK       I    between atoms: C7_7  and  N1_9 
REMARK       I    between atoms: C13_15  and  N2_17 
REMARK    7  A    between atoms: N2_17  and  C14_19 
REMARK    8  A    between atoms: C14_19  and  O3_20 
REMARK    9  A    between atoms: C14_19  and  C15_22 
REMARK   10  A    between atoms: C15_22  and  N3_23 
REMARK       I    between atoms: N3_23  and  C16_25 
REMARK   11  A    between atoms: C16_25  and  C17_27 
REMARK   12  A    between atoms: C17_27  and  C18_28 
REMARK   13  A    between atoms: C17_27  and  N4_33 
REMARK   14  A    between atoms: C18_28  and  C19_29 
REMARK   15  A    between atoms: C19_29  and  C21_31 
REMARK       I    between atoms: N4_33  and  C23_35 
REMARK   16  A    between atoms: C23_35  and  C24_37 
REMARK   17  A    between atoms: C31_44  and  O6_45 
ROOT
HETATM    1  C15 UNL     1      -0.745  -0.878   0.611  1.00  0.00     0.098 C 
HETATM    2  C28 UNL     1      -0.446  -1.126  -0.803  1.00  0.00     0.040 C 
HETATM    3  C29 UNL     1      -0.309  -2.509  -1.312  1.00  0.00     0.010 C 
HETATM    4  C30 UNL     1      -0.166  -3.616  -0.353  1.00  0.00     0.018 C 
HETATM    5  C31 UNL     1      -0.772  -4.905  -0.858  1.00  0.00     0.122 C 
HETATM    6  C32 UNL     1      -2.173  -4.981  -0.295  1.00  0.00     0.032 C 
HETATM    7  C33 UNL     1      -2.346  -3.682   0.505  1.00  0.00     0.007 C 
HETATM    8  C34 UNL     1      -0.923  -3.386   0.929  1.00  0.00    -0.005 C 
HETATM    9  C35 UNL     1      -0.693  -2.069   1.540  1.00  0.00     0.044 C 
ENDROOT
BRANCH   1  10
HETATM   10  C14 UNL     1       0.087   0.219   1.163  1.00  0.00     0.147 C 
BRANCH  10  11
HETATM   11  N2  UNL     1       1.435   0.376   1.355  1.00  0.00    -0.309 N 
HETATM   12  C13 UNL     1       2.570  -0.389   1.113  1.00  0.00     0.228 C 
HETATM   13  O2  UNL     1       2.529  -1.513   0.589  1.00  0.00    -0.273 OA
ATOM     14  H2  UNL     1       1.661   1.275   1.780  1.00  0.00     0.170 HD
BRANCH  12  15
HETATM   15  C5  UNL     1       3.985   0.076   1.470  1.00  0.00     0.087 C 
BRANCH  15  16
HETATM   16  C4  UNL     1       4.210   1.428   0.921  1.00  0.00     0.014 C 
BRANCH  16  17
HETATM   17  C3  UNL     1       5.521   2.088   1.050  1.00  0.00     0.000 C 
BRANCH  17  18
HETATM   18  C2  UNL     1       5.374   3.500   0.418  1.00  0.00    -0.005 C 
HETATM   19  C1  UNL     1       4.990   3.392  -1.025  1.00  0.00     0.005 C 
ENDBRANCH  17  18
ENDBRANCH  16  17
ENDBRANCH  15  16
BRANCH  15  20
HETATM   20  C6  UNL     1       4.884  -0.960   0.889  1.00  0.00     0.117 C 
BRANCH  20  21
HETATM   21  C7  UNL     1       6.306  -0.889   1.100  1.00  0.00     0.220 C 
HETATM   22  O1  UNL     1       6.775  -0.452   2.212  1.00  0.00    -0.273 OA
HETATM   23  N1  UNL     1       7.287  -1.273   0.154  1.00  0.00    -0.352 N 
HETATM   24  C8  UNL     1       8.717  -1.207   0.412  1.00  0.00     0.125 C 
HETATM   25  C12 UNL     1       6.902  -1.756  -1.149  1.00  0.00     0.125 C 
HETATM   26  C9  UNL     1       9.305  -0.133  -0.479  1.00  0.00     0.020 C 
HETATM   27  C10 UNL     1       8.740  -0.234  -1.862  1.00  0.00     0.003 C 
HETATM   28  C11 UNL     1       8.109  -1.612  -2.065  1.00  0.00     0.020 C 
ENDBRANCH  20  21
ENDBRANCH  15  20
ENDBRANCH  12  15
ENDBRANCH  10  11
BRANCH  10  29
HETATM   29  O3  UNL     1      -0.637   1.259   1.554  1.00  0.00    -0.347 OA
ATOM     30  H3  UNL     1      -1.571   1.150   1.421  1.00  0.00     0.219 HD
ENDBRANCH  10  29
ENDBRANCH   1  10
BRANCH   1  31
HETATM   31  N3  UNL     1      -2.169  -0.467   0.658  1.00  0.00    -0.342 N 
HETATM   32  C16 UNL     1      -2.776   0.589  -0.007  1.00  0.00     0.241 C 
HETATM   33  O4  UNL     1      -2.179   1.355  -0.768  1.00  0.00    -0.271 OA
ATOM     34  H3  UNL     1      -2.777  -1.030   1.252  1.00  0.00     0.163 HD
BRANCH  32  35
HETATM   35  C17 UNL     1      -4.267   0.849   0.190  1.00  0.00     0.177 C 
BRANCH  35  36
HETATM   36  C18 UNL     1      -4.389   1.167   1.633  1.00  0.00     0.039 C 
BRANCH  36  37
HETATM   37  C19 UNL     1      -5.702   1.470   2.212  1.00  0.00    -0.017 C 
HETATM   38  C20 UNL     1      -6.414   2.659   1.628  1.00  0.00     0.010 C 
BRANCH  37  39
HETATM   39  C21 UNL     1      -6.610   0.278   2.397  1.00  0.00    -0.000 C 
HETATM   40  C22 UNL     1      -7.942   0.667   2.998  1.00  0.00     0.005 C 
ENDBRANCH  37  39
ENDBRANCH  36  37
ENDBRANCH  35  36
BRANCH  35  41
HETATM   41  N4  UNL     1      -4.633   1.880  -0.723  1.00  0.00    -0.347 N 
HETATM   42  C23 UNL     1      -5.511   1.657  -1.833  1.00  0.00     0.222 C 
HETATM   43  O5  UNL     1      -5.954   0.478  -1.960  1.00  0.00    -0.273 OA
ATOM     44  H4  UNL     1      -4.254   2.816  -0.580  1.00  0.00     0.163 HD
BRANCH  42  45
HETATM   45  C24 UNL     1      -5.927   2.657  -2.811  1.00  0.00     0.078 C 
HETATM   46  C25 UNL     1      -6.669   3.870  -2.290  1.00  0.00     0.014 C 
HETATM   47  C26 UNL     1      -7.967   3.133  -2.540  1.00  0.00     0.002 C 
HETATM   48  C27 UNL     1      -7.217   2.252  -3.526  1.00  0.00     0.014 C 
ENDBRANCH  42  45
ENDBRANCH  35  41
ENDBRANCH  32  35
ENDBRANCH   1  31
BRANCH   5  49
HETATM   49  O6  UNL     1      -0.910  -4.858  -2.265  1.00  0.00    -0.395 OA
ATOM     50  H6  UNL     1      -1.291  -5.668  -2.582  1.00  0.00     0.210 HD
ENDBRANCH   5  49
TORSDOF 17
