REMARK  6 active torsions:
REMARK  status: ('A' for Active; 'I' for Inactive)
REMARK    1  A    between atoms: N3_8  and  C3_10 
REMARK    2  A    between atoms: C3_10  and  C4_11 
REMARK    3  A    between atoms: C4_11  and  C5_12 
REMARK    4  A    between atoms: C5_12  and  O1_13 
REMARK    5  A    between atoms: O1_13  and  N4_14 
REMARK    6  A    between atoms: C8_22  and  C9_23 
ROOT
HETATM    1  N1  UNL     1      -4.565  -2.942   0.312  1.00  0.00    -0.234 N 
ATOM      2  H11 UNL     1      -5.570  -3.065   0.187  1.00  0.00     0.174 HD
ATOM      3  H12 UNL     1      -4.016  -3.769   0.548  1.00  0.00     0.174 HD
HETATM    4  C1  UNL     1      -4.000  -1.768   0.177  1.00  0.00     0.692 A 
HETATM    5  N2  UNL     1      -2.599  -1.596   0.352  1.00  0.00    -0.023 N 
ATOM      6  H2  UNL     1      -2.036  -2.413   0.588  1.00  0.00     0.203 HD
HETATM    7  C2  UNL     1      -1.943  -0.338   0.214  1.00  0.00     0.694 A 
HETATM    8  N3  UNL     1      -0.686  -0.185   0.372  1.00  0.00    -0.225 N 
ATOM      9  H3  UNL     1      -0.107  -0.990   0.609  1.00  0.00     0.177 HD
HETATM   10  N7  UNL     1      -2.767   0.774  -0.116  1.00  0.00    -0.169 N 
ATOM     11  H7  UNL     1      -2.325   1.687  -0.221  1.00  0.00     0.186 HD
HETATM   12  C8  UNL     1      -4.172   0.683  -0.307  1.00  0.00     0.212 A 
HETATM   13  N8  UNL     1      -4.764  -0.617  -0.152  1.00  0.00    -0.169 N 
ATOM     14  H8  UNL     1      -5.771  -0.717  -0.283  1.00  0.00     0.186 HD
ENDROOT
BRANCH   8  15
HETATM   15  C3  UNL     1      -0.082   1.096   0.222  1.00  0.00     0.140 C 
BRANCH  15  16
HETATM   16  C4  UNL     1       1.360   1.140   0.667  1.00  0.00     0.049 C 
BRANCH  16  17
HETATM   17  C5  UNL     1       2.243   0.205  -0.085  1.00  0.00     0.203 C 
BRANCH  17  18
HETATM   18  O1  UNL     1       3.538   0.341   0.416  1.00  0.00    -0.270 OA
BRANCH  18  19
HETATM   19  N4  UNL     1       4.405  -0.500  -0.239  1.00  0.00    -0.188 N 
HETATM   20  C6  UNL     1       4.441  -1.891  -0.503  1.00  0.00     0.219 A 
HETATM   21  N5  UNL     1       5.653  -1.624  -1.166  1.00  0.00    -0.323 N 
HETATM   22  C7  UNL     1       5.613  -0.397  -0.928  1.00  0.00     0.221 A 
ATOM     23  H5  UNL     1       6.321  -2.216  -1.660  1.00  0.00     0.169 HD
HETATM   24  N6  UNL     1       6.468   0.730  -1.230  1.00  0.00    -0.061 NA
ENDBRANCH  18  19
ENDBRANCH  17  18
ENDBRANCH  16  17
ENDBRANCH  15  16
ENDBRANCH   8  15
BRANCH  12  25
HETATM   25  C9  UNL     1      -4.904   1.739  -0.613  1.00  0.00     0.246 C 
HETATM   26  O2  UNL     1      -4.259   2.959  -0.745  1.00  0.00    -0.642 OA
HETATM   27  O3  UNL     1      -6.255   1.681  -0.802  1.00  0.00    -0.642 OA
ENDBRANCH  12  25
TORSDOF 6
