REMARK  16 active torsions:
REMARK  status: ('A' for Active; 'I' for Inactive)
REMARK    1  A    between atoms: C3_3  and  C4_4 
REMARK    2  A    between atoms: C4_4  and  C5_5 
REMARK    3  A    between atoms: C5_5  and  C6_6 
REMARK    4  A    between atoms: C6_6  and  C7_7 
REMARK    5  A    between atoms: C7_7  and  C8_8 
REMARK    6  A    between atoms: C11_11  and  C12_12 
REMARK    7  A    between atoms: C12_12  and  C13_13 
REMARK    8  A    between atoms: C13_13  and  C14_14 
REMARK    9  A    between atoms: C14_14  and  C15_15 
REMARK   10  A    between atoms: C15_15  and  O1_16 
REMARK   11  A    between atoms: O1_16  and  C16_17 
REMARK   12  A    between atoms: C17_19  and  C18_20 
REMARK   13  A    between atoms: C18_20  and  O3_21 
REMARK   14  A    between atoms: C19_23  and  O4_24 
REMARK   15  A    between atoms: C20_26  and  O5_27 
REMARK   16  A    between atoms: C21_29  and  O6_30 
ROOT
HETATM    1  C1  UNL     1      10.162  -0.100  -1.644  1.00  0.00     0.012 C 
HETATM    2  C2  UNL     1       9.856  -0.034  -0.475  1.00  0.00    -0.117 C 
HETATM    3  C3  UNL     1       9.483   0.064   0.952  1.00  0.00     0.093 C 
ENDROOT
BRANCH   3   4
HETATM    4  C4  UNL     1       8.101  -0.557   1.130  1.00  0.00     0.012 C 
BRANCH   4   5
HETATM    5  C5  UNL     1       7.129   0.225   0.260  1.00  0.00     0.001 C 
BRANCH   5   6
HETATM    6  C6  UNL     1       5.736  -0.339   0.388  1.00  0.00     0.005 C 
BRANCH   6   7
HETATM    7  C7  UNL     1       4.830   0.493  -0.507  1.00  0.00     0.038 C 
BRANCH   7   8
HETATM    8  C8  UNL     1       3.427   0.022  -0.457  1.00  0.00    -0.058 A 
HETATM    9  C9  UNL     1       2.551   0.538   0.470  1.00  0.00     0.007 A 
HETATM   10  C10 UNL     1       1.252   0.057   0.467  1.00  0.00     0.007 A 
HETATM   11  C11 UNL     1       0.771  -0.894  -0.389  1.00  0.00    -0.058 A 
HETATM   12  C22 UNL     1       1.701  -1.392  -1.318  1.00  0.00     0.007 A 
HETATM   13  C23 UNL     1       3.002  -0.940  -1.348  1.00  0.00     0.007 A 
BRANCH  11  14
HETATM   14  C12 UNL     1      -0.615  -1.419  -0.418  1.00  0.00     0.038 C 
BRANCH  14  15
HETATM   15  C13 UNL     1      -1.417  -0.623  -1.400  1.00  0.00     0.007 C 
BRANCH  15  16
HETATM   16  C14 UNL     1      -1.577   0.826  -1.088  1.00  0.00     0.027 C 
BRANCH  16  17
HETATM   17  C15 UNL     1      -2.315   1.115   0.196  1.00  0.00     0.171 C 
BRANCH  17  18
HETATM   18  O1  UNL     1      -3.588   0.558   0.053  1.00  0.00    -0.359 OA
BRANCH  18  19
HETATM   19  C16 UNL     1      -4.382   0.745   1.157  1.00  0.00     0.291 C 
HETATM   20  O2  UNL     1      -5.448   1.532   0.823  1.00  0.00    -0.348 OA
HETATM   21  C17 UNL     1      -6.405   0.881   0.053  1.00  0.00     0.179 C 
HETATM   22  C19 UNL     1      -6.954  -0.346   0.744  1.00  0.00     0.180 C 
HETATM   23  C20 UNL     1      -5.822  -1.295   1.015  1.00  0.00     0.183 C 
HETATM   24  C21 UNL     1      -4.779  -0.539   1.846  1.00  0.00     0.204 C 
BRANCH  21  25
HETATM   25  C18 UNL     1      -7.498   1.826  -0.396  1.00  0.00     0.198 C 
BRANCH  25  26
HETATM   26  O3  UNL     1      -8.408   1.096  -1.156  1.00  0.00    -0.398 OA
ATOM     27  H3  UNL     1      -9.094   1.689  -1.438  1.00  0.00     0.209 HD
ENDBRANCH  25  26
ENDBRANCH  21  25
BRANCH  22  28
HETATM   28  O4  UNL     1      -7.631  -0.067   1.906  1.00  0.00    -0.390 OA
ATOM     29  H4  UNL     1      -7.976  -0.838   2.340  1.00  0.00     0.210 HD
ENDBRANCH  22  28
BRANCH  23  30
HETATM   30  O5  UNL     1      -5.266  -1.664  -0.213  1.00  0.00    -0.390 OA
ATOM     31  H5  UNL     1      -4.550  -2.264  -0.042  1.00  0.00     0.210 HD
ENDBRANCH  23  30
BRANCH  24  32
HETATM   32  O6  UNL     1      -5.352  -0.236   3.078  1.00  0.00    -0.388 OA
ATOM     33  H6  UNL     1      -5.602  -1.044   3.511  1.00  0.00     0.210 HD
ENDBRANCH  24  32
ENDBRANCH  18  19
ENDBRANCH  17  18
ENDBRANCH  16  17
ENDBRANCH  15  16
ENDBRANCH  14  15
ENDBRANCH  11  14
ENDBRANCH   7   8
ENDBRANCH   6   7
ENDBRANCH   5   6
ENDBRANCH   4   5
ENDBRANCH   3   4
TORSDOF 16
