REMARK  16 active torsions:
REMARK  status: ('A' for Active; 'I' for Inactive)
REMARK    1  A    between atoms: O1_1  and  C1_3 
REMARK    2  A    between atoms: C1_3  and  C2_4 
REMARK    3  A    between atoms: C3_5  and  O2_6 
REMARK    4  A    between atoms: C4_8  and  O3_9 
REMARK    5  A    between atoms: C5_11  and  O4_12 
REMARK    6  A    between atoms: N1_15  and  C7_16 
REMARK    7  A    between atoms: C7_16  and  C8_17 
REMARK    8  A    between atoms: C8_17  and  C9_18 
REMARK    9  A    between atoms: C9_18  and  C10_19 
REMARK   10  A    between atoms: C10_19  and  C11_20 
REMARK   11  A    between atoms: C11_20  and  C12_21 
REMARK   12  A    between atoms: C12_21  and  O5_22 
REMARK   13  A    between atoms: O5_22  and  C13_23 
REMARK   14  A    between atoms: C13_23  and  C14_24 
REMARK   15  A    between atoms: C15_25  and  C16_26 
REMARK   16  A    between atoms: C16_26  and  N2_27 
ROOT
HETATM    1  C7  UNL     1      -3.481  -0.287  -0.633  1.00  0.00     0.064 C 
ENDROOT
BRANCH   1   2
HETATM    2  N1  UNL     1      -4.467   0.058   0.292  1.00  0.00    -0.362 N 
HETATM    3  C2  UNL     1      -5.182   1.251   0.169  1.00  0.00     0.143 C 
HETATM    4  C3  UNL     1      -6.686   1.098   0.155  1.00  0.00     0.175 C 
HETATM    5  C4  UNL     1      -7.124  -0.344   0.245  1.00  0.00     0.182 C 
HETATM    6  C5  UNL     1      -6.366  -1.126   1.296  1.00  0.00     0.188 C 
HETATM    7  C6  UNL     1      -4.898  -0.834   1.279  1.00  0.00     0.098 C 
BRANCH   3   8
HETATM    8  C1  UNL     1      -4.814   2.086  -1.040  1.00  0.00     0.192 C 
BRANCH   8   9
HETATM    9  O1  UNL     1      -5.616   3.238  -1.015  1.00  0.00    -0.399 OA
ATOM     10  H1  UNL     1      -5.385   3.762  -1.773  1.00  0.00     0.209 HD
ENDBRANCH   8   9
ENDBRANCH   3   8
BRANCH   4  11
HETATM   11  O2  UNL     1      -7.297   1.800   1.209  1.00  0.00    -0.391 OA
ATOM     12  H2  UNL     1      -8.242   1.704   1.200  1.00  0.00     0.210 HD
ENDBRANCH   4  11
BRANCH   5  13
HETATM   13  O3  UNL     1      -8.484  -0.352   0.565  1.00  0.00    -0.390 OA
ATOM     14  H3  UNL     1      -8.760  -1.259   0.622  1.00  0.00     0.210 HD
ENDBRANCH   5  13
BRANCH   6  15
HETATM   15  O4  UNL     1      -6.934  -0.814   2.528  1.00  0.00    -0.388 OA
ATOM     16  H4  UNL     1      -6.458  -1.305   3.188  1.00  0.00     0.210 HD
ENDBRANCH   6  15
ENDBRANCH   1   2
BRANCH   1  17
HETATM   17  C8  UNL     1      -2.827  -1.603  -0.383  1.00  0.00     0.044 C 
BRANCH  17  18
HETATM   18  C9  UNL     1      -1.788  -1.840  -1.455  1.00  0.00     0.005 C 
BRANCH  18  19
HETATM   19  C10 UNL     1      -0.703  -0.817  -1.503  1.00  0.00     0.002 C 
BRANCH  19  20
HETATM   20  C11 UNL     1       0.073  -0.739  -0.192  1.00  0.00     0.026 C 
BRANCH  20  21
HETATM   21  C12 UNL     1       1.139   0.308  -0.387  1.00  0.00     0.168 C 
BRANCH  21  22
HETATM   22  O5  UNL     1       1.942   0.537   0.691  1.00  0.00    -0.387 OA
BRANCH  22  23
HETATM   23  C13 UNL     1       2.646  -0.598   1.143  1.00  0.00     0.194 C 
BRANCH  23  24
HETATM   24  C14 UNL     1       3.513  -1.174   0.106  1.00  0.00    -0.003 C 
HETATM   25  C15 UNL     1       4.804  -1.308   0.193  1.00  0.00     0.001 C 
BRANCH  25  26
HETATM   26  C16 UNL     1       5.647  -0.919   1.327  1.00  0.00     0.299 C 
BRANCH  26  27
HETATM   27  N2  UNL     1       6.665   0.060   0.999  1.00  0.00     0.091 N 
HETATM   28  C17 UNL     1       6.148   1.346   0.675  1.00  0.00     0.272 C 
HETATM   29  C18 UNL     1       6.827   1.982  -0.515  1.00  0.00     0.030 C 
HETATM   30  C19 UNL     1       8.323   1.828  -0.336  1.00  0.00     0.003 C 
HETATM   31  C20 UNL     1       8.730   0.369  -0.286  1.00  0.00     0.030 C 
HETATM   32  C21 UNL     1       7.524  -0.508   0.012  1.00  0.00     0.272 C 
ENDBRANCH  26  27
ENDBRANCH  25  26
ENDBRANCH  23  24
ENDBRANCH  22  23
ENDBRANCH  21  22
ENDBRANCH  20  21
ENDBRANCH  19  20
ENDBRANCH  18  19
ENDBRANCH  17  18
ENDBRANCH   1  17
TORSDOF 16
