REMARK  7 active torsions:
REMARK  status: ('A' for Active; 'I' for Inactive)
REMARK    1  A    between atoms: N1_1  and  C1_4 
REMARK    2  A    between atoms: C2_7  and  C3_8 
REMARK    3  A    between atoms: C3_8  and  C4_9 
REMARK    4  A    between atoms: C4_9  and  C5_10 
REMARK    5  A    between atoms: C5_10  and  C6_11 
REMARK    6  A    between atoms: C6_11  and  N3_12 
REMARK    7  A    between atoms: C8_18  and  N6_19 
ROOT
HETATM    1  C4  UNL     1       0.494   0.072  -2.180  1.00  0.00     0.009 C 
ENDROOT
BRANCH   1   2
HETATM    2  C3  UNL     1       1.445  -0.846  -1.510  1.00  0.00     0.078 C 
BRANCH   2   3
HETATM    3  C2  UNL     1       2.163  -0.268  -0.360  1.00  0.00     0.112 A 
HETATM    4  N2  UNL     1       2.939  -0.937   0.545  1.00  0.00    -0.178 N 
HETATM    5  C1  UNL     1       3.461  -0.072   1.414  1.00  0.00     0.691 A 
ATOM      6  H2  UNL     1       3.095  -1.945   0.554  1.00  0.00     0.185 HD
HETATM    7  N8  UNL     1       3.030   1.156   1.081  1.00  0.00    -0.131 N 
HETATM    8  N7  UNL     1       2.249   1.015   0.008  1.00  0.00    -0.274 N 
ATOM      9  H8  UNL     1       3.256   2.029   1.557  1.00  0.00     0.205 HD
ATOM     10  H7  UNL     1       1.779   1.785  -0.469  1.00  0.00     0.189 HD
BRANCH   5  11
HETATM   11  N1  UNL     1       4.254  -0.381   2.414  1.00  0.00    -0.233 N 
ATOM     12  H12 UNL     1       4.581  -1.313   2.667  1.00  0.00     0.174 HD
ATOM     13  H11 UNL     1       4.654   0.281   3.079  1.00  0.00     0.174 HD
ENDBRANCH   5  11
ENDBRANCH   2   3
ENDBRANCH   1   2
BRANCH   1  14
HETATM   14  C5  UNL     1      -0.647   0.465  -1.282  1.00  0.00     0.021 C 
BRANCH  14  15
HETATM   15  C6  UNL     1      -1.447  -0.765  -0.847  1.00  0.00     0.148 C 
BRANCH  15  16
HETATM   16  N3  UNL     1      -2.518  -0.246   0.016  1.00  0.00    -0.177 N 
HETATM   17  C7  UNL     1      -3.745   0.149  -0.381  1.00  0.00     0.218 A 
HETATM   18  N4  UNL     1      -4.412   0.553   0.719  1.00  0.00    -0.281 N 
HETATM   19  N5  UNL     1      -3.651   0.428   1.792  1.00  0.00    -0.131 N 
ATOM     20  H4  UNL     1      -5.369   0.905   0.722  1.00  0.00     0.188 HD
HETATM   21  C8  UNL     1      -2.474  -0.070   1.349  1.00  0.00     0.693 A 
ATOM     22  H5  UNL     1      -3.899   0.659   2.754  1.00  0.00     0.205 HD
BRANCH  21  23
HETATM   23  N6  UNL     1      -1.437  -0.348   2.066  1.00  0.00    -0.233 N 
ATOM     24  H62 UNL     1      -0.549  -0.724   1.732  1.00  0.00     0.174 HD
ATOM     25  H61 UNL     1      -1.404  -0.215   3.077  1.00  0.00     0.174 HD
ENDBRANCH  21  23
ENDBRANCH  15  16
ENDBRANCH  14  15
ENDBRANCH   1  14
TORSDOF 7
