REMARK  3 active torsions:
REMARK  status: ('A' for Active; 'I' for Inactive)
REMARK    1  A    between atoms: C2_2  and  N1_4 
REMARK    2  A    between atoms: N1_4  and  C4_7 
REMARK    3  A    between atoms: C4_7  and  C6_9 
ROOT
HETATM    1  C4  UNL     1      -0.065  -0.558  -0.218  1.00  0.00     0.212 C 
HETATM    2  C5  UNL     1       0.041  -1.989   0.113  1.00  0.00     0.042 C 
ENDROOT
BRANCH   1   3
HETATM    3  N1  UNL     1      -1.026   0.177   0.561  1.00  0.00    -0.066 N 
ATOM      4  H12 UNL     1      -0.807   1.173   0.576  1.00  0.00     0.278 HD
ATOM      5  H11 UNL     1      -0.928  -0.024   1.556  1.00  0.00     0.278 HD
BRANCH   3   6
HETATM    6  C2  UNL     1      -2.363  -0.054   0.114  1.00  0.00     0.178 C 
HETATM    7  C1  UNL     1      -3.382  -0.245   1.197  1.00  0.00     0.039 C 
HETATM    8  C3  UNL     1      -2.764   1.093  -0.812  1.00  0.00     0.039 C 
ENDBRANCH   3   6
ENDBRANCH   1   3
BRANCH   1   9
HETATM    9  C6  UNL     1       1.171   0.232  -0.360  1.00  0.00     0.216 C 
HETATM   10  C7  UNL     1       1.752   0.699   0.958  1.00  0.00     0.037 C 
HETATM   11  C8  UNL     1       3.064   1.287   0.483  1.00  0.00     0.029 C 
HETATM   12  C9  UNL     1       3.462   0.304  -0.584  1.00  0.00     0.233 C 
HETATM   13  N2  UNL     1       2.296  -0.485  -0.918  1.00  0.00    -0.069 N 
ATOM     14  H22 UNL     1       2.356  -1.456  -0.611  1.00  0.00     0.277 HD
ATOM     15  H21 UNL     1       2.204  -0.679  -1.915  1.00  0.00     0.277 HD
ENDBRANCH   1   9
TORSDOF 3
