REMARK  4 active torsions:
REMARK  status: ('A' for Active; 'I' for Inactive)
REMARK    1  A    between atoms: O1_2  and  C2_3 
REMARK    2  A    between atoms: C2_3  and  C3_4 
REMARK    3  A    between atoms: C5_6  and  N1_7 
REMARK    4  A    between atoms: N1_7  and  C6_10 
ROOT
HETATM    1  N1  UNL     1      -0.429   0.055  -1.030  1.00  0.00    -0.066 N 
ATOM      2  H11 UNL     1      -0.296   0.020  -2.041  1.00  0.00     0.278 HD
ATOM      3  H12 UNL     1      -0.411   1.066  -0.893  1.00  0.00     0.278 HD
ENDROOT
BRANCH   1   4
HETATM    4  C5  UNL     1       0.664  -0.569  -0.352  1.00  0.00     0.193 A 
HETATM    5  C3  UNL     1       2.066  -0.195  -0.546  1.00  0.00     0.042 A 
HETATM    6  C4  UNL     1       1.530  -1.428  -1.261  1.00  0.00     0.042 A 
BRANCH   5   7
HETATM    7  C2  UNL     1       3.103  -0.540   0.490  1.00  0.00     0.173 C 
BRANCH   7   8
HETATM    8  O1  UNL     1       3.620   0.537   1.166  1.00  0.00    -0.396 OA
HETATM    9  C1  UNL     1       4.259   1.479   0.406  1.00  0.00     0.201 C 
ENDBRANCH   7   8
ENDBRANCH   5   7
ENDBRANCH   1   4
BRANCH   1  10
HETATM   10  C6  UNL     1      -1.715  -0.489  -0.663  1.00  0.00     0.186 C 
HETATM   11  C7  UNL     1      -2.046  -0.292   0.786  1.00  0.00     0.033 C 
HETATM   12  C8  UNL     1      -3.216   0.678   0.779  1.00  0.00     0.002 C 
HETATM   13  C9  UNL     1      -3.964   0.218  -0.469  1.00  0.00     0.002 C 
HETATM   14  C10 UNL     1      -2.807   0.145  -1.473  1.00  0.00     0.033 C 
ENDBRANCH   1  10
TORSDOF 4
