REMARK  10 active torsions:
REMARK  status: ('A' for Active; 'I' for Inactive)
REMARK    1  A    between atoms: O1_2  and  C2_3 
REMARK    2  A    between atoms: C4_5  and  C5_6 
REMARK    3  A    between atoms: C5_6  and  O2_7 
REMARK    4  A    between atoms: C5_6  and  N1_9 
REMARK    5  A    between atoms: N1_9  and  C7_11 
REMARK    6  A    between atoms: C7_11  and  C8_12 
REMARK       I    between atoms: C8_12  and  N2_14 
REMARK    7  A    between atoms: N2_14  and  C9_16 
REMARK    8  A    between atoms: C15_25  and  S1_26 
REMARK    9  A    between atoms: S1_26  and  N4_29 
REMARK   10  A    between atoms: C18_32  and  O6_33 
ROOT
HETATM    1  C5  UNL     1       0.651   0.671   0.110  1.00  0.00     0.148 C 
ENDROOT
BRANCH   1   2
HETATM    2  C4  UNL     1      -0.718   0.270   0.186  1.00  0.00     0.019 A 
HETATM    3  C3  UNL     1      -1.146  -0.866   0.832  1.00  0.00     0.055 A 
HETATM    4  C2  UNL     1      -2.497  -1.233   0.892  1.00  0.00     0.104 A 
HETATM    5  C18 UNL     1      -3.398  -0.415   0.279  1.00  0.00     0.124 A 
HETATM    6  C15 UNL     1      -3.041   0.738  -0.385  1.00  0.00     0.111 A 
HETATM    7  C14 UNL     1      -1.716   1.066  -0.424  1.00  0.00     0.043 A 
BRANCH   4   8
HETATM    8  O1  UNL     1      -2.867  -2.382   1.553  1.00  0.00    -0.353 OA
HETATM    9  C1  UNL     1      -1.887  -3.183   2.164  1.00  0.00     0.210 C 
ENDBRANCH   4   8
BRANCH   5  10
HETATM   10  O6  UNL     1      -4.737  -0.779   0.339  1.00  0.00    -0.352 OA
HETATM   11  C19 UNL     1      -5.241  -1.608  -0.690  1.00  0.00     0.210 C 
ENDBRANCH   5  10
BRANCH   6  12
HETATM   12  S1  UNL     1      -4.271   1.741  -1.150  1.00  0.00     0.245 S 
HETATM   13  O4  UNL     1      -4.957   1.060  -2.272  1.00  0.00    -0.206 OA
HETATM   14  O5  UNL     1      -3.555   2.959  -1.717  1.00  0.00    -0.206 OA
BRANCH  12  15
HETATM   15  N4  UNL     1      -5.417   2.306  -0.029  1.00  0.00    -0.215 NA
HETATM   16  C16 UNL     1      -4.896   3.134   1.010  1.00  0.00     0.129 C 
HETATM   17  C17 UNL     1      -6.606   2.830  -0.616  1.00  0.00     0.129 C 
ENDBRANCH  12  15
ENDBRANCH   6  12
ENDBRANCH   1   2
BRANCH   1  18
HETATM   18  O2  UNL     1       0.852   1.776  -0.552  1.00  0.00    -0.346 OA
ATOM     19  H2  UNL     1       1.762   2.043  -0.603  1.00  0.00     0.219 HD
ENDBRANCH   1  18
BRANCH   1  20
HETATM   20  N1  UNL     1       1.807   0.092   0.616  1.00  0.00    -0.357 N 
HETATM   21  C6  UNL     1       1.995  -1.098   1.382  1.00  0.00     0.152 C 
BRANCH  20  22
HETATM   22  C7  UNL     1       3.104   0.805   0.324  1.00  0.00     0.227 C 
BRANCH  22  23
HETATM   23  C8  UNL     1       3.660   0.283  -0.939  1.00  0.00     0.241 C 
HETATM   24  O3  UNL     1       3.022  -0.628  -1.565  1.00  0.00    -0.271 OA
HETATM   25  N2  UNL     1       4.856   0.712  -1.523  1.00  0.00    -0.312 N 
ATOM     26  H2  UNL     1       4.810   1.480  -2.193  1.00  0.00     0.170 HD
BRANCH  25  27
HETATM   27  C9  UNL     1       6.014   0.201  -1.271  1.00  0.00     0.107 A 
HETATM   28  C10 UNL     1       6.122  -0.847  -0.367  1.00  0.00     0.051 A 
HETATM   29  C11 UNL     1       7.359  -1.398  -0.094  1.00  0.00     0.047 A 
HETATM   30  C12 UNL     1       8.497  -0.921  -0.709  1.00  0.00     0.131 A 
HETATM   31  F1  UNL     1       9.696  -1.468  -0.433  1.00  0.00    -0.205 F 
HETATM   32  C13 UNL     1       8.337   0.119  -1.598  1.00  0.00     0.132 A 
HETATM   33  N3  UNL     1       7.129   0.650  -1.858  1.00  0.00    -0.349 N 
ATOM     34  H3  UNL     1       7.061   1.420  -2.524  1.00  0.00     0.167 HD
ENDBRANCH  25  27
ENDBRANCH  22  23
ENDBRANCH  20  22
ENDBRANCH   1  20
TORSDOF 10
