REMARK  13 active torsions:
REMARK  status: ('A' for Active; 'I' for Inactive)
REMARK    1  A    between atoms: O1_2  and  C2_3 
REMARK    2  A    between atoms: C2_3  and  C3_4 
REMARK    3  A    between atoms: C3_4  and  N1_5 
REMARK    4  A    between atoms: N1_5  and  C4_6 
REMARK    5  A    between atoms: N1_5  and  N5_32 
REMARK    6  A    between atoms: C4_6  and  O2_7 
REMARK    7  A    between atoms: C4_6  and  C5_9 
REMARK    8  A    between atoms: C9_16  and  C10_17 
REMARK    9  A    between atoms: C10_17  and  C11_18 
REMARK   10  A    between atoms: C11_18  and  N3_19 
REMARK   11  A    between atoms: N4_24  and  C16_25 
REMARK   12  A    between atoms: C16_25  and  O4_26 
REMARK   13  A    between atoms: C16_25  and  C17_28 
ROOT
HETATM    1  C5  UNL     1      -1.495   1.064  -2.070  1.00  0.00     0.173 C 
HETATM    2  C6  UNL     1      -0.743   0.216  -3.054  1.00  0.00     0.093 C 
HETATM    3  C7  UNL     1       0.520  -0.090  -2.354  1.00  0.00     0.041 A 
HETATM    4  N2  UNL     1       1.451  -1.004  -2.717  1.00  0.00    -0.325 N 
ATOM      5  H2  UNL     1       1.333  -1.546  -3.573  1.00  0.00     0.169 HD
HETATM    6  C8  UNL     1       2.519  -1.189  -1.950  1.00  0.00     0.252 A 
HETATM    7  O3  UNL     1       3.432  -2.044  -2.247  1.00  0.00    -0.268 OA
HETATM    8  C9  UNL     1       2.658  -0.447  -0.804  1.00  0.00     0.014 A 
HETATM    9  C14 UNL     1       1.711   0.485  -0.431  1.00  0.00     0.044 A 
HETATM   10  C15 UNL     1       0.583   0.692  -1.225  1.00  0.00     0.060 A 
HETATM   11  N4  UNL     1      -0.507   1.564  -1.115  1.00  0.00    -0.316 N 
ENDROOT
BRANCH   1  12
HETATM   12  C4  UNL     1      -2.731   0.527  -1.598  1.00  0.00     0.152 C 
BRANCH  12  13
HETATM   13  N1  UNL     1      -3.081  -0.126  -0.416  1.00  0.00    -0.291 N 
BRANCH  13  14
HETATM   14  C3  UNL     1      -2.233  -0.534   0.675  1.00  0.00     0.171 C 
BRANCH  14  15
HETATM   15  C2  UNL     1      -1.664  -1.937   0.524  1.00  0.00     0.188 C 
BRANCH  15  16
HETATM   16  O1  UNL     1      -2.568  -2.951   0.471  1.00  0.00    -0.394 OA
HETATM   17  C1  UNL     1      -3.308  -3.209   1.586  1.00  0.00     0.201 C 
ENDBRANCH  15  16
ENDBRANCH  14  15
ENDBRANCH  13  14
BRANCH  13  18
HETATM   18  N5  UNL     1      -4.470  -0.417  -0.194  1.00  0.00    -0.236 NA
HETATM   19  C21 UNL     1      -5.089  -1.137  -1.245  1.00  0.00     0.136 C 
HETATM   20  C22 UNL     1      -5.096   0.840   0.136  1.00  0.00     0.136 C 
ENDBRANCH  13  18
ENDBRANCH  12  13
BRANCH  12  21
HETATM   21  O2  UNL     1      -3.726   0.676  -2.434  1.00  0.00    -0.347 OA
ATOM     22  H2  UNL     1      -3.488   1.121  -3.239  1.00  0.00     0.219 HD
ENDBRANCH  12  21
ENDBRANCH   1  12
BRANCH  11  23
HETATM   23  C16 UNL     1      -0.700   2.728  -0.354  1.00  0.00     0.126 C 
BRANCH  23  24
HETATM   24  O4  UNL     1      -1.928   3.210  -0.446  1.00  0.00    -0.349 OA
ATOM     25  H4  UNL     1      -2.059   3.998   0.069  1.00  0.00     0.219 HD
ENDBRANCH  23  24
BRANCH  23  26
HETATM   26  C17 UNL     1       0.128   3.535   0.514  1.00  0.00     0.014 C 
HETATM   27  C18 UNL     1      -0.618   4.905   0.698  1.00  0.00     0.023 C 
HETATM   28  C19 UNL     1       0.329   3.036   1.909  1.00  0.00     0.023 C 
HETATM   29  C20 UNL     1       1.459   3.967  -0.063  1.00  0.00     0.023 C 
ENDBRANCH  23  26
ENDBRANCH  11  23
BRANCH   8  30
HETATM   30  C10 UNL     1       3.861  -0.671   0.043  1.00  0.00     0.074 C 
BRANCH  30  31
HETATM   31  C11 UNL     1       3.683  -1.953   0.824  1.00  0.00     0.276 C 
BRANCH  31  32
HETATM   32  N3  UNL     1       4.816  -2.234   1.676  1.00  0.00     0.080 N 
HETATM   33  C12 UNL     1       5.963  -2.560   0.865  1.00  0.00     0.309 C 
HETATM   34  C13 UNL     1       4.490  -3.398   2.477  1.00  0.00     0.309 C 
ENDBRANCH  31  32
ENDBRANCH  30  31
ENDBRANCH   8  30
TORSDOF 13
