REMARK  3 active torsions:
REMARK  status: ('A' for Active; 'I' for Inactive)
REMARK    1  A    between atoms: C2_2  and  O2_4 
REMARK    2  A    between atoms: O2_4  and  C3_5 
REMARK    3  A    between atoms: C7_12  and  O3_13 
ROOT
HETATM    1  C3  UNL     1       0.937  -0.489  -0.054  1.00  0.00     0.300 C 
HETATM    2  C4  UNL     1       0.202   0.126   1.144  1.00  0.00     0.337 C 
HETATM    3  N1  UNL     1      -1.132  -0.403   0.913  1.00  0.00     0.130 N 
HETATM    4  C5  UNL     1      -2.067   0.635   1.284  1.00  0.00     0.357 C 
HETATM    5  C6  UNL     1      -3.179   0.478   0.256  1.00  0.00     0.299 C 
HETATM    6  F1  UNL     1      -3.966   1.590   0.191  1.00  0.00    -0.201 F 
HETATM    7  F2  UNL     1      -3.963  -0.610   0.502  1.00  0.00    -0.201 F 
HETATM    8  C7  UNL     1      -2.336   0.299  -1.012  1.00  0.00     0.251 C 
HETATM    9  C8  UNL     1      -1.229  -0.584  -0.513  1.00  0.00     0.396 C 
HETATM   10  O4  UNL     1       0.007  -0.277  -1.061  1.00  0.00    -0.322 OA
ENDROOT
BRANCH   1  11
HETATM   11  O2  UNL     1       2.139   0.212  -0.249  1.00  0.00    -0.288 OA
BRANCH  11  12
HETATM   12  C2  UNL     1       3.356  -0.437  -0.241  1.00  0.00     0.257 C 
HETATM   13  C1  UNL     1       4.661   0.236  -0.439  1.00  0.00     0.126 C 
HETATM   14  O1  UNL     1       3.373  -1.683  -0.055  1.00  0.00    -0.266 OA
ENDBRANCH  11  12
ENDBRANCH   1  11
BRANCH   8  15
HETATM   15  O3  UNL     1      -3.149  -0.327  -1.950  1.00  0.00    -0.385 OA
ATOM     16  H3  UNL     1      -2.627  -0.438  -2.736  1.00  0.00     0.210 HD
ENDBRANCH   8  15
TORSDOF 3
