REMARK  3 active torsions:
REMARK  status: ('A' for Active; 'I' for Inactive)
REMARK    1  A    between atoms: N1_2  and  C3_4 
REMARK    2  A    between atoms: C4_7  and  N3_8 
REMARK    3  A    between atoms: C9_17  and  N6_18 
ROOT
HETATM    1  C3  UNL     1       1.453  -0.428   0.220  1.00  0.00     0.684 A 
HETATM    2  N2  UNL     1       1.005  -1.579   0.759  1.00  0.00    -0.174 N 
ATOM      3  H2  UNL     1       1.688  -2.260   1.090  1.00  0.00     0.186 HD
HETATM    4  C4  UNL     1      -0.293  -1.867   0.879  1.00  0.00     0.146 A 
HETATM    5  C5  UNL     1      -1.180  -0.902   0.412  1.00  0.00     0.140 A 
HETATM    6  C6  UNL     1      -0.716   0.297  -0.148  1.00  0.00     0.172 A 
HETATM    7  N4  UNL     1       0.587   0.528  -0.242  1.00  0.00    -0.169 N 
HETATM    8  C7  UNL     1       1.101   1.739  -0.801  1.00  0.00     0.177 C 
HETATM    9  N5  UNL     1      -1.773   1.058  -0.521  1.00  0.00    -0.170 N 
HETATM   10  C8  UNL     1      -1.763   2.351  -1.134  1.00  0.00     0.177 C 
HETATM   11  C9  UNL     1      -2.868   0.328  -0.190  1.00  0.00     0.681 A 
HETATM   12  N7  UNL     1      -2.513  -0.825   0.359  1.00  0.00    -0.180 N 
HETATM   13  C10 UNL     1      -3.378  -1.881   0.847  1.00  0.00     0.176 C 
ENDROOT
BRANCH   1  14
HETATM   14  N1  UNL     1       2.847  -0.214   0.136  1.00  0.00    -0.226 N 
HETATM   15  C1  UNL     1       3.539   0.465   1.189  1.00  0.00     0.168 C 
HETATM   16  C2  UNL     1       3.583  -0.678  -1.001  1.00  0.00     0.168 C 
ENDBRANCH   1  14
BRANCH   4  17
HETATM   17  N3  UNL     1      -0.794  -2.935   1.377  1.00  0.00    -0.383 N 
ATOM     18  H32 UNL     1      -0.144  -3.642   1.719  1.00  0.00     0.157 HD
ATOM     19  H31 UNL     1      -1.786  -3.155   1.469  1.00  0.00     0.157 HD
ENDBRANCH   4  17
BRANCH  11  20
HETATM   20  N6  UNL     1      -4.078   0.775  -0.417  1.00  0.00    -0.234 N 
ATOM     21  H62 UNL     1      -4.351   1.662  -0.839  1.00  0.00     0.174 HD
ATOM     22  H61 UNL     1      -4.901   0.226  -0.168  1.00  0.00     0.174 HD
ENDBRANCH  11  20
TORSDOF 3
