REMARK  3 active torsions:
REMARK  status: ('A' for Active; 'I' for Inactive)
REMARK    1  A    between atoms: N1_1  and  C1_5 
REMARK    2  A    between atoms: C2_6  and  O1_7 
REMARK    3  A    between atoms: C8_14  and  O2_15 
ROOT
HETATM    1  C1  UNL     1       1.231  -0.641  -0.384  1.00  0.00     0.219 C 
HETATM    2  C2  UNL     1       1.339   0.686   0.346  1.00  0.00     0.155 C 
HETATM    3  C3  UNL     1       0.018   0.758   1.118  1.00  0.00     0.046 C 
HETATM    4  C4  UNL     1      -0.983   1.396   0.226  1.00  0.00     0.010 C 
HETATM    5  C5  UNL     1      -1.566   0.550  -0.828  1.00  0.00     0.001 C 
HETATM    6  C6  UNL     1      -1.238  -0.887  -0.802  1.00  0.00     0.009 C 
HETATM    7  C7  UNL     1      -0.046  -1.275  -0.000  1.00  0.00     0.048 C 
HETATM    8  C8  UNL     1      -0.235  -0.692   1.409  1.00  0.00     0.131 C 
ENDROOT
BRANCH   1   9
HETATM    9  N1  UNL     1       1.424  -0.415  -1.775  1.00  0.00    -0.072 N 
ATOM     10  H13 UNL     1       0.786   0.288  -2.148  1.00  0.00     0.274 HD
ATOM     11  H12 UNL     1       2.300   0.069  -1.974  1.00  0.00     0.274 HD
ATOM     12  H11 UNL     1       1.351  -1.306  -2.265  1.00  0.00     0.274 HD
ENDBRANCH   1   9
BRANCH   2  13
HETATM   13  O1  UNL     1       1.469   1.748  -0.536  1.00  0.00    -0.393 OA
ATOM     14  H1  UNL     1       1.537   2.578  -0.079  1.00  0.00     0.210 HD
ENDBRANCH   2  13
BRANCH   8  15
HETATM   15  O2  UNL     1      -1.465  -0.967   1.924  1.00  0.00    -0.395 OA
ATOM     16  H2  UNL     1      -1.625  -1.885   2.108  1.00  0.00     0.210 HD
ENDBRANCH   8  15
TORSDOF 3
