REMARK  5 active torsions:
REMARK  status: ('A' for Active; 'I' for Inactive)
REMARK    1  A    between atoms: N1_1  and  C1_5 
REMARK    2  A    between atoms: C1_5  and  N2_6 
REMARK    3  A    between atoms: C1_5  and  C2_10 
REMARK    4  A    between atoms: N3_11  and  N4_13 
REMARK    5  A    between atoms: N4_13  and  C3_15 
ROOT
HETATM    1  C2  UNL     1      -1.491  -0.785   0.061  1.00  0.00     0.141 C 
HETATM    2  N3  UNL     1      -0.686  -1.126  -0.877  1.00  0.00    -0.309 N 
ATOM      3  H3  UNL     1      -0.997  -1.095  -1.848  1.00  0.00     0.185 HD
ENDROOT
BRANCH   2   4
HETATM    4  N4  UNL     1       0.616  -1.540  -0.576  1.00  0.00    -0.272 N 
ATOM      5  H4  UNL     1       0.808  -2.539  -0.501  1.00  0.00     0.190 HD
BRANCH   4   6
HETATM    6  C3  UNL     1       1.687  -0.618  -0.369  1.00  0.00     0.190 C 
HETATM    7  N5  UNL     1       2.288  -0.457   0.765  1.00  0.00    -0.360 N 
HETATM    8  C4  UNL     1       3.321   0.529   0.689  1.00  0.00     0.142 C 
ATOM      9  H5  UNL     1       2.053  -0.972   1.613  1.00  0.00     0.162 HD
HETATM   10  C5  UNL     1       2.934   1.303  -0.571  1.00  0.00     0.142 C 
HETATM   11  N6  UNL     1       2.273   0.267  -1.338  1.00  0.00    -0.360 N 
ATOM     12  H6  UNL     1       2.232   0.183  -2.354  1.00  0.00     0.162 HD
ENDBRANCH   4   6
ENDBRANCH   2   4
BRANCH   1  13
HETATM   13  C1  UNL     1      -2.871  -0.344  -0.227  1.00  0.00     0.417 C 
BRANCH  13  14
HETATM   14  N1  UNL     1      -3.700  -0.645   0.899  1.00  0.00    -0.046 N 
ATOM     15  H13 UNL     1      -3.454  -0.047   1.688  1.00  0.00     0.277 HD
ATOM     16  H12 UNL     1      -4.655  -0.330   0.729  1.00  0.00     0.277 HD
ATOM     17  H11 UNL     1      -3.697  -1.624   1.184  1.00  0.00     0.277 HD
ENDBRANCH  13  14
BRANCH  13  18
HETATM   18  N2  UNL     1      -2.875   1.025  -0.625  1.00  0.00    -0.046 N 
ATOM     19  H23 UNL     1      -3.830   1.340  -0.795  1.00  0.00     0.277 HD
ATOM     20  H22 UNL     1      -2.629   1.623   0.164  1.00  0.00     0.277 HD
ATOM     21  H21 UNL     1      -2.284   1.240  -1.428  1.00  0.00     0.277 HD
ENDBRANCH  13  18
ENDBRANCH   1  13
TORSDOF 5
