REMARK  5 active torsions:
REMARK  status: ('A' for Active; 'I' for Inactive)
REMARK    1  A    between atoms: C1_4  and  C2_6 
REMARK    2  A    between atoms: C2_6  and  N3_7 
REMARK    3  A    between atoms: C2_6  and  C3_11 
REMARK    4  A    between atoms: C3_11  and  N4_12 
REMARK    5  A    between atoms: C3_11  and  C5_17 
ROOT
HETATM    1  C3  UNL     1      -0.124  -0.215   0.495  1.00  0.00     0.147 C 
ENDROOT
BRANCH   1   2
HETATM    2  C2  UNL     1      -1.611  -0.366   0.343  1.00  0.00     0.271 C 
BRANCH   2   3
HETATM    3  C1  UNL     1      -2.354   0.795   0.922  1.00  0.00     0.119 C 
HETATM    4  N1  UNL     1      -1.751   1.781   1.437  1.00  0.00    -0.389 N 
ATOM      5  H12 UNL     1      -2.258   2.573   1.832  1.00  0.00     0.157 HD
ATOM      6  H11 UNL     1      -0.732   1.803   1.467  1.00  0.00     0.157 HD
HETATM    7  N2  UNL     1      -3.761   0.764   0.881  1.00  0.00    -0.086 NA
ENDBRANCH   2   3
BRANCH   2   8
HETATM    8  N3  UNL     1      -1.982  -0.498  -1.064  1.00  0.00    -0.067 N 
ATOM      9  H33 UNL     1      -2.990  -0.572  -1.198  1.00  0.00     0.275 HD
ATOM     10  H32 UNL     1      -1.835   0.363  -1.590  1.00  0.00     0.275 HD
ATOM     11  H31 UNL     1      -1.475  -1.290  -1.459  1.00  0.00     0.275 HD
ENDBRANCH   2   8
ENDBRANCH   1   2
BRANCH   1  12
HETATM   12  N4  UNL     1       0.336   0.928  -0.213  1.00  0.00    -0.358 N 
HETATM   13  C4  UNL     1       1.186   1.804   0.137  1.00  0.00     0.197 C 
HETATM   14  N5  UNL     1       1.906   1.862   1.352  1.00  0.00    -0.067 NA
HETATM   15  N6  UNL     1       1.454   2.861  -0.801  1.00  0.00    -0.067 NA
ATOM     16  H4  UNL     1      -0.076   1.065  -1.136  1.00  0.00     0.162 HD
ENDBRANCH   1  12
BRANCH   1  17
HETATM   17  C5  UNL     1       0.552  -1.518   0.166  1.00  0.00     0.133 A 
HETATM   18  C6  UNL     1       2.015  -1.417   0.321  1.00  0.00     0.006 A 
HETATM   19  C7  UNL     1       2.589  -1.850  -0.770  1.00  0.00     0.072 A 
HETATM   20  C8  UNL     1       1.603  -2.283  -1.738  1.00  0.00     0.241 A 
HETATM   21  O1  UNL     1       1.796  -2.756  -2.909  1.00  0.00    -0.269 OA
HETATM   22  N7  UNL     1       0.340  -2.070  -1.104  1.00  0.00    -0.348 N 
ATOM     23  H7  UNL     1      -0.570  -2.285  -1.511  1.00  0.00     0.163 HD
ENDBRANCH   1  17
TORSDOF 5
