REMARK  4 active torsions:
REMARK  status: ('A' for Active; 'I' for Inactive)
REMARK    1  A    between atoms: C3_3  and  N1_4 
REMARK       I    between atoms: N1_4  and  C4_6 
REMARK       I    between atoms: C4_6  and  N2_8 
REMARK    2  A    between atoms: N2_8  and  N3_10 
REMARK       I    between atoms: N3_10  and  C5_12 
REMARK    3  A    between atoms: N5_14  and  N6_16 
REMARK    4  A    between atoms: C6_18  and  C7_19 
ROOT
HETATM    1  C1  UNL     1      -6.285  -1.409   0.574  1.00  0.00     0.014 C 
HETATM    2  C2  UNL     1      -5.450  -0.587   0.254  1.00  0.00    -0.098 C 
HETATM    3  C3  UNL     1      -4.447   0.414  -0.114  1.00  0.00     0.218 C 
ENDROOT
BRANCH   3   4
HETATM    4  N1  UNL     1      -3.137  -0.054   0.298  1.00  0.00    -0.331 N 
HETATM    5  C4  UNL     1      -1.973   0.733   0.058  1.00  0.00     0.335 C 
HETATM    6  O1  UNL     1      -2.061   1.852  -0.517  1.00  0.00    -0.246 OA
HETATM    7  N2  UNL     1      -0.688   0.293   0.452  1.00  0.00    -0.249 N 
ATOM      8  H2  UNL     1      -0.583  -0.607   0.920  1.00  0.00     0.192 HD
ATOM      9  H1  UNL     1      -3.048  -0.957   0.765  1.00  0.00     0.165 HD
BRANCH   7  10
HETATM   10  N3  UNL     1       0.436   1.080   0.206  1.00  0.00    -0.268 N 
HETATM   11  C5  UNL     1       1.421   0.710  -0.746  1.00  0.00     0.222 C 
HETATM   12  N4  UNL     1       1.090   0.576  -2.121  1.00  0.00    -0.061 NA
HETATM   13  N5  UNL     1       2.630   0.491  -0.371  1.00  0.00    -0.273 N 
ATOM     14  H5  UNL     1       3.344   0.224  -1.049  1.00  0.00     0.189 HD
ATOM     15  H3  UNL     1       0.554   1.949   0.727  1.00  0.00     0.190 HD
BRANCH  13  16
HETATM   16  N6  UNL     1       2.946   0.625   0.973  1.00  0.00    -0.305 N 
HETATM   17  C6  UNL     1       3.937   0.097   1.575  1.00  0.00     0.177 C 
ATOM     18  H6  UNL     1       2.323   1.204   1.536  1.00  0.00     0.186 HD
BRANCH  17  19
HETATM   19  C7  UNL     1       4.868  -0.739   0.843  1.00  0.00     0.271 C 
HETATM   20  N7  UNL     1       4.725  -1.003  -0.530  1.00  0.00    -0.057 NA
HETATM   21  O2  UNL     1       5.843  -1.242   1.495  1.00  0.00    -0.270 OA
ENDBRANCH  17  19
ENDBRANCH  13  16
ENDBRANCH   7  10
ENDBRANCH   3   4
TORSDOF 4
