REMARK  3 active torsions:
REMARK  status: ('A' for Active; 'I' for Inactive)
REMARK       I    between atoms: C1_2  and  N2_4 
REMARK    1  A    between atoms: N2_4  and  N3_6 
REMARK    2  A    between atoms: N3_6  and  C2_8 
REMARK    3  A    between atoms: N4_9  and  N5_11 
REMARK       I    between atoms: N7_18  and  C6_19 
ROOT
HETATM    1  N5  UNL     1      -0.894   0.022  -0.914  1.00  0.00    -0.270 N 
ATOM      2  H5  UNL     1      -1.537  -0.672  -1.294  1.00  0.00     0.190 HD
HETATM    3  C3  UNL     1      -1.371   0.912  -0.094  1.00  0.00     0.200 C 
HETATM    4  N6  UNL     1      -0.678   1.964   0.555  1.00  0.00    -0.359 N 
ATOM      5  H6  UNL     1       0.313   2.186   0.462  1.00  0.00     0.162 HD
HETATM    6  C4  UNL     1      -1.642   2.663   1.373  1.00  0.00     0.143 C 
HETATM    7  C5  UNL     1      -2.996   2.194   0.882  1.00  0.00     0.156 C 
HETATM    8  N7  UNL     1      -2.746   0.914   0.258  1.00  0.00    -0.271 N 
HETATM    9  C6  UNL     1      -3.706  -0.112   0.054  1.00  0.00     0.337 C 
HETATM   10  N8  UNL     1      -3.370  -1.345  -0.570  1.00  0.00    -0.039 NA
HETATM   11  O2  UNL     1      -4.895   0.045   0.426  1.00  0.00    -0.250 OA
ENDROOT
BRANCH   1  12
HETATM   12  N4  UNL     1       0.425  -0.040  -1.300  1.00  0.00    -0.292 N 
HETATM   13  C2  UNL     1       1.439  -0.152  -0.545  1.00  0.00     0.214 C 
ATOM     14  H4  UNL     1       0.608   0.009  -2.302  1.00  0.00     0.187 HD
BRANCH  13  15
HETATM   15  N3  UNL     1       2.725  -0.197  -1.157  1.00  0.00    -0.291 N 
ATOM     16  H3  UNL     1       3.088   0.648  -1.598  1.00  0.00     0.188 HD
BRANCH  15  17
HETATM   17  N2  UNL     1       3.510  -1.355  -1.177  1.00  0.00    -0.253 N 
HETATM   18  C1  UNL     1       3.926  -2.000   0.014  1.00  0.00     0.347 C 
HETATM   19  N1  UNL     1       4.717  -3.166  -0.090  1.00  0.00    -0.038 NA
HETATM   20  O1  UNL     1       3.596  -1.543   1.136  1.00  0.00    -0.249 OA
ATOM     21  H2  UNL     1       3.791  -1.747  -2.076  1.00  0.00     0.191 HD
ENDBRANCH  15  17
ENDBRANCH  13  15
ENDBRANCH   1  12
TORSDOF 3
