REMARK  9 active torsions:
REMARK  status: ('A' for Active; 'I' for Inactive)
REMARK    1  A    between atoms: C1_4  and  C2_5 
REMARK    2  A    between atoms: C2_5  and  O1_6 
REMARK    3  A    between atoms: C2_5  and  N2_8 
REMARK    4  A    between atoms: N2_8  and  C3_10 
REMARK    5  A    between atoms: C6_13  and  N3_14 
REMARK    6  A    between atoms: N3_14  and  C7_16 
REMARK    7  A    between atoms: C9_21  and  N5_22 
REMARK       I    between atoms: N6_25  and  C10_26 
REMARK       I    between atoms: C10_26  and  N7_28 
REMARK    8  A    between atoms: N7_28  and  N8_30 
REMARK    9  A    between atoms: C11_34  and  C12_35 
ROOT
HETATM    1  C7  UNL     1      -1.049  -0.188  -0.383  1.00  0.00     0.144 A 
HETATM    2  N4  UNL     1      -1.124   0.792   0.485  1.00  0.00    -0.319 N 
ATOM      3  H4  UNL     1      -0.339   1.227   0.970  1.00  0.00     0.169 HD
HETATM    4  C8  UNL     1      -2.419   1.121   0.622  1.00  0.00     0.176 A 
HETATM    5  S1  UNL     1      -3.445   2.167   1.487  1.00  0.00    -0.014 SA
HETATM    6  C9  UNL     1      -4.894   1.624   0.829  1.00  0.00     0.172 A 
HETATM    7  N6  UNL     1      -4.528   0.658  -0.031  1.00  0.00    -0.172 N 
HETATM    8  C10 UNL     1      -5.652   0.028  -0.708  1.00  0.00     0.362 C 
HETATM    9  O2  UNL     1      -5.456  -0.504  -1.800  1.00  0.00    -0.243 OA
HETATM   10  N7  UNL     1      -6.969  -0.022  -0.178  1.00  0.00    -0.256 N 
ATOM     11  H7  UNL     1      -7.212   0.382   0.727  1.00  0.00     0.191 HD
HETATM   12  N9  UNL     1      -3.248   0.393  -0.136  1.00  0.00    -0.210 N 
HETATM   13  C11 UNL     1      -2.383  -0.467  -0.792  1.00  0.00     0.179 A 
ENDROOT
BRANCH   1  14
HETATM   14  N3  UNL     1       0.189  -0.773  -0.722  1.00  0.00    -0.340 N 
ATOM     15  H3  UNL     1       0.204  -1.568  -1.360  1.00  0.00     0.167 HD
BRANCH  14  16
HETATM   16  C6  UNL     1       1.428  -0.278  -0.192  1.00  0.00     0.033 A 
HETATM   17  C5  UNL     1       2.382  -1.238   0.079  1.00  0.00     0.031 A 
HETATM   18  C4  UNL     1       3.613  -0.857   0.560  1.00  0.00     0.031 A 
HETATM   19  C3  UNL     1       3.866   0.489   0.760  1.00  0.00     0.030 A 
HETATM   20  C14 UNL     1       2.914   1.431   0.488  1.00  0.00     0.031 A 
HETATM   21  C13 UNL     1       1.661   1.050  -0.001  1.00  0.00     0.031 A 
BRANCH  19  22
HETATM   22  N2  UNL     1       5.124   0.902   1.243  1.00  0.00    -0.360 N 
ATOM     23  H2  UNL     1       5.265   1.877   1.506  1.00  0.00     0.162 HD
BRANCH  22  24
HETATM   24  C2  UNL     1       6.205  -0.022   1.370  1.00  0.00     0.257 C 
BRANCH  24  25
HETATM   25  C1  UNL     1       6.593  -0.511   0.030  1.00  0.00     0.106 C 
HETATM   26  N1  UNL     1       7.422  -1.489  -0.046  1.00  0.00    -0.408 N 
ATOM     27  H12 UNL     1       7.794  -1.907   0.807  1.00  0.00     0.155 HD
ATOM     28  H11 UNL     1       7.690  -1.826  -0.971  1.00  0.00     0.155 HD
ENDBRANCH  24  25
BRANCH  24  29
HETATM   29  O1  UNL     1       7.326   0.602   1.933  1.00  0.00    -0.372 OA
ATOM     30  H1  UNL     1       7.077   0.916   2.794  1.00  0.00     0.212 HD
ENDBRANCH  24  29
ENDBRANCH  22  24
ENDBRANCH  19  22
ENDBRANCH  14  16
ENDBRANCH   1  14
BRANCH  13  31
HETATM   31  C12 UNL     1      -2.577  -1.570  -1.687  1.00  0.00     0.233 C 
HETATM   32  O3  UNL     1      -1.556  -2.256  -2.112  1.00  0.00    -0.643 OA
HETATM   33  O4  UNL     1      -3.714  -2.068  -2.201  1.00  0.00    -0.643 OA
ENDBRANCH  13  31
BRANCH   6  34
HETATM   34  N5  UNL     1      -6.081   2.115   1.106  1.00  0.00    -0.378 N 
ATOM     35  H52 UNL     1      -6.359   2.848   1.759  1.00  0.00     0.158 HD
ATOM     36  H51 UNL     1      -6.960   1.786   0.707  1.00  0.00     0.158 HD
ENDBRANCH   6  34
BRANCH  10  37
HETATM   37  N8  UNL     1      -7.928  -0.681  -1.009  1.00  0.00    -0.341 N 
ATOM     38  H82 UNL     1      -7.670  -1.080  -1.912  1.00  0.00     0.177 HD
ATOM     39  H81 UNL     1      -8.874  -0.717  -0.628  1.00  0.00     0.177 HD
ENDBRANCH  10  37
TORSDOF 9
