REMARK  1 active torsions:
REMARK  status: ('A' for Active; 'I' for Inactive)
REMARK    1  A    between atoms: C10_12  and  O2_13 
ROOT
HETATM    1  C1  UNL     1      -4.176  -2.071   0.551  1.00  0.00     0.043 C 
HETATM    2  C2  UNL     1      -3.491  -0.705   0.746  1.00  0.00    -0.084 C 
HETATM    3  C3  UNL     1      -4.149   0.144   1.767  1.00  0.00     0.043 C 
HETATM    4  C4  UNL     1      -2.479  -0.449  -0.018  1.00  0.00    -0.062 C 
HETATM    5  C5  UNL     1      -2.020  -1.465  -1.049  1.00  0.00     0.042 C 
HETATM    6  C6  UNL     1      -0.835  -0.838  -1.709  1.00  0.00     0.020 C 
HETATM    7  C7  UNL     1       0.366  -1.585  -1.294  1.00  0.00     0.151 C 
HETATM    8  N1  UNL     1       0.096  -2.510  -0.165  1.00  0.00    -0.092 NA
HETATM    9  O1  UNL     1       0.435  -1.769   0.943  1.00  0.00    -0.277 OA
HETATM   10  C8  UNL     1       1.610  -1.265   0.596  1.00  0.00     0.196 C 
HETATM   11  C9  UNL     1       2.262  -0.110   1.210  1.00  0.00     0.086 C 
HETATM   12  C10 UNL     1       3.698  -0.252   0.683  1.00  0.00     0.128 C 
HETATM   13  C11 UNL     1       3.935  -1.348  -0.303  1.00  0.00     0.035 C 
HETATM   14  C12 UNL     1       2.903  -1.575  -1.368  1.00  0.00     0.048 C 
HETATM   15  C13 UNL     1       1.598  -0.896  -0.884  1.00  0.00     0.144 C 
HETATM   16  O3  UNL     1       1.803   0.363  -1.208  1.00  0.00    -0.224 OA
HETATM   17  O4  UNL     1       2.147   1.311  -0.499  1.00  0.00    -0.228 OA
HETATM   18  C14 UNL     1       1.731   1.230   0.866  1.00  0.00     0.107 C 
HETATM   19  C15 UNL     1       2.689   2.235   1.572  1.00  0.00     0.050 C 
HETATM   20  C16 UNL     1       0.447   1.775   0.992  1.00  0.00     0.121 C 
HETATM   21  C17 UNL     1      -0.935   1.317   0.956  1.00  0.00     0.258 C 
HETATM   22  F1  UNL     1      -1.676   2.544   1.079  1.00  0.00    -0.205 F 
HETATM   23  F2  UNL     1      -1.277   0.810   2.202  1.00  0.00    -0.205 F 
HETATM   24  C18 UNL     1      -1.582   0.700  -0.198  1.00  0.00     0.057 A 
HETATM   25  C19 UNL     1      -2.170   1.452  -1.365  1.00  0.00     0.006 A 
HETATM   26  C20 UNL     1      -2.107   2.934  -1.462  1.00  0.00     0.011 C 
HETATM   27  C21 UNL     1      -0.894   0.596  -1.431  1.00  0.00     0.016 A 
ENDROOT
BRANCH  12  28
HETATM   28  O2  UNL     1       4.311   0.866   0.229  1.00  0.00    -0.395 OA
ATOM     29  H2  UNL     1       5.199   0.778  -0.097  1.00  0.00     0.210 HD
ENDBRANCH  12  28
TORSDOF 1
