REMARK  5 active torsions:
REMARK  status: ('A' for Active; 'I' for Inactive)
REMARK    1  A    between atoms: N3_6  and  O1_8 
REMARK    2  A    between atoms: O1_8  and  C4_9 
REMARK    3  A    between atoms: C4_9  and  O2_10 
REMARK    4  A    between atoms: C4_9  and  C5_12 
REMARK    5  A    between atoms: C7_15  and  C8_16 
ROOT
HETATM    1  N1  UNL     1       6.965  -0.127  -1.551  1.00  0.00    -0.189 NA
HETATM    2  C1  UNL     1       5.968  -0.181  -0.965  1.00  0.00     0.131 C 
HETATM    3  C2  UNL     1       4.732  -0.225  -0.236  1.00  0.00     0.214 C 
HETATM    4  C3  UNL     1       4.451   0.814   0.707  1.00  0.00     0.131 C 
HETATM    5  N2  UNL     1       4.224   1.644   1.465  1.00  0.00    -0.189 NA
HETATM    6  N3  UNL     1       3.924  -1.206  -0.466  1.00  0.00    -0.244 N 
ATOM      7  H3  UNL     1       4.194  -1.909  -1.154  1.00  0.00     0.196 HD
ENDROOT
BRANCH   6   8
HETATM    8  O1  UNL     1       2.727  -1.344   0.170  1.00  0.00    -0.244 OA
BRANCH   8   9
HETATM    9  C4  UNL     1       1.474  -1.366  -0.479  1.00  0.00     0.317 C 
BRANCH   9  10
HETATM   10  O2  UNL     1       0.828  -2.588  -0.227  1.00  0.00    -0.367 OA
ATOM     11  H2  UNL     1      -0.015  -2.603  -0.664  1.00  0.00     0.212 HD
ENDBRANCH   9  10
BRANCH   9  12
HETATM   12  C5  UNL     1       0.616  -0.263   0.052  1.00  0.00     0.253 C 
HETATM   13  C6  UNL     1       0.416  -0.388   1.571  1.00  0.00     0.114 C 
HETATM   14  S1  UNL     1      -0.897   0.894   1.739  1.00  0.00    -0.129 SA
HETATM   15  C7  UNL     1      -1.266   1.038  -0.059  1.00  0.00     0.287 C 
HETATM   16  N4  UNL     1      -0.685  -0.191  -0.539  1.00  0.00    -0.048 N 
ATOM     17  H42 UNL     1      -0.676  -0.269  -1.556  1.00  0.00     0.279 HD
ATOM     18  H41 UNL     1      -1.261  -1.013  -0.359  1.00  0.00     0.279 HD
BRANCH  15  19
HETATM   19  C8  UNL     1      -2.732   1.108  -0.289  1.00  0.00     0.023 A 
HETATM   20  C9  UNL     1      -3.708   0.173  -0.084  1.00  0.00     0.018 A 
HETATM   21  C10 UNL     1      -4.966   0.519  -0.385  1.00  0.00     0.008 A 
HETATM   22  C11 UNL     1      -5.179   1.777  -0.874  1.00  0.00     0.050 A 
HETATM   23  S2  UNL     1      -3.606   2.442  -0.897  1.00  0.00    -0.103 SA
ENDBRANCH  15  19
ENDBRANCH   9  12
ENDBRANCH   8   9
ENDBRANCH   6   8
TORSDOF 5
