REMARK  1 active torsions:
REMARK  status: ('A' for Active; 'I' for Inactive)
REMARK    1  A    between atoms: C2_5  and  C3_6 
ROOT
HETATM    1  N1  UNL     1      -0.179  -2.095  -0.453  1.00  0.00    -0.394 N 
ATOM      2  H11 UNL     1       0.480  -2.862  -0.584  1.00  0.00     0.156 HD
ATOM      3  H12 UNL     1      -1.197  -2.114  -0.521  1.00  0.00     0.156 HD
HETATM    4  C1  UNL     1       0.380  -0.975  -0.166  1.00  0.00     0.113 C 
HETATM    5  C2  UNL     1      -0.514   0.066   0.012  1.00  0.00     0.102 C 
HETATM    6  C4  UNL     1      -0.182   1.404  -0.016  1.00  0.00     0.135 C 
HETATM    7  N3  UNL     1      -1.262   2.319   0.054  1.00  0.00    -0.082 NA
HETATM    8  N4  UNL     1       1.024   1.999  -0.101  1.00  0.00    -0.340 N 
ATOM      9  H4  UNL     1       1.021   3.019  -0.093  1.00  0.00     0.167 HD
HETATM   10  C5  UNL     1       2.249   1.405  -0.196  1.00  0.00     0.184 C 
HETATM   11  N5  UNL     1       2.601   0.110   0.023  1.00  0.00    -0.318 N 
ATOM     12  H5  UNL     1       3.571  -0.074   0.281  1.00  0.00     0.169 HD
HETATM   13  C6  UNL     1       1.777  -0.949  -0.072  1.00  0.00     0.273 C 
HETATM   14  O2  UNL     1       2.326  -2.081  -0.079  1.00  0.00    -0.266 OA
ENDROOT
BRANCH   5  15
HETATM   15  C3  UNL     1      -1.906  -0.285   0.246  1.00  0.00     0.270 C 
HETATM   16  N2  UNL     1      -2.350  -1.630   0.294  1.00  0.00    -0.057 NA
HETATM   17  O1  UNL     1      -2.738   0.640   0.410  1.00  0.00    -0.271 OA
ENDBRANCH   5  15
TORSDOF 1
