REMARK  2 active torsions:
REMARK  status: ('A' for Active; 'I' for Inactive)
REMARK    1  A    between atoms: N1_2  and  C2_4 
REMARK       I    between atoms: N4_11  and  C4_12 
REMARK       I    between atoms: C4_12  and  N6_16 
REMARK    2  A    between atoms: N6_16  and  N7_18 
ROOT
HETATM    1  C2  UNL     1      -0.824   0.002  -0.099  1.00  0.00     0.718 A 
HETATM    2  N2  UNL     1      -1.904   0.802  -0.170  1.00  0.00    -0.127 N 
ATOM      3  H2  UNL     1      -2.854   0.529   0.081  1.00  0.00     0.205 HD
HETATM    4  N3  UNL     1      -1.543   2.013  -0.621  1.00  0.00    -0.236 N 
ATOM      5  H3  UNL     1      -2.165   2.807  -0.769  1.00  0.00     0.192 HD
HETATM    6  C3  UNL     1      -0.215   1.996  -0.844  1.00  0.00     0.377 A 
HETATM    7  O1  UNL     1       0.501   2.942  -1.271  1.00  0.00    -0.243 OA
HETATM    8  N4  UNL     1       0.217   0.764  -0.523  1.00  0.00     0.080 N 
HETATM    9  C4  UNL     1       1.539   0.295  -0.600  1.00  0.00     0.715 C 
HETATM   10  N5  UNL     1       2.071   0.024  -1.737  1.00  0.00    -0.232 N 
ATOM     11  H51 UNL     1       3.031  -0.317  -1.793  1.00  0.00     0.174 HD
ATOM     12  H52 UNL     1       1.492   0.165  -2.565  1.00  0.00     0.174 HD
HETATM   13  N6  UNL     1       2.345   0.098   0.553  1.00  0.00    -0.138 N 
ATOM     14  H6  UNL     1       2.766   0.913   0.998  1.00  0.00     0.205 HD
ENDROOT
BRANCH   1  15
HETATM   15  N1  UNL     1      -0.756  -1.230   0.285  1.00  0.00    -0.228 N 
HETATM   16  C1  UNL     1      -1.965  -1.895   0.707  1.00  0.00     0.165 C 
ATOM     17  H1  UNL     1       0.137  -1.724   0.290  1.00  0.00     0.177 HD
ENDBRANCH   1  15
BRANCH  13  18
HETATM   18  N7  UNL     1       2.585  -1.159   1.102  1.00  0.00    -0.331 N 
ATOM     19  H72 UNL     1       2.156  -1.963   0.644  1.00  0.00     0.177 HD
ATOM     20  H71 UNL     1       3.164  -1.300   1.930  1.00  0.00     0.177 HD
ENDBRANCH  13  18
TORSDOF 2
