REMARK  3 active torsions:
REMARK  status: ('A' for Active; 'I' for Inactive)
REMARK    1  A    between atoms: C3_5  and  C4_6 
REMARK    2  A    between atoms: C4_6  and  N2_7 
REMARK    3  A    between atoms: N2_7  and  N3_9 
ROOT
HETATM    1  N2  UNL     1       0.679  -1.590   0.372  1.00  0.00    -0.333 N 
ATOM      2  H2  UNL     1       0.009  -2.344   0.523  1.00  0.00     0.180 HD
ENDROOT
BRANCH   1   3
HETATM    3  C4  UNL     1       2.095  -1.847   0.453  1.00  0.00     0.169 C 
BRANCH   3   4
HETATM    4  C3  UNL     1       2.788  -1.534  -0.827  1.00  0.00     0.032 C 
HETATM    5  C2  UNL     1       3.742  -0.625  -0.850  1.00  0.00     0.078 C 
HETATM    6  N1  UNL     1       4.203   0.109   0.213  1.00  0.00    -0.354 N 
HETATM    7  S1  UNL     1       4.611  -0.207  -2.367  1.00  0.00    -0.034 SA
HETATM    8  C1  UNL     1       4.877   1.134   0.152  1.00  0.00     0.146 C 
ATOM      9  H1  UNL     1       3.963  -0.229   1.145  1.00  0.00     0.166 HD
HETATM   10  S2  UNL     1       5.268   1.678  -1.511  1.00  0.00    -0.046 SA
ENDBRANCH   3   4
ENDBRANCH   1   3
BRANCH   1  11
HETATM   11  N3  UNL     1       0.238  -0.311   0.088  1.00  0.00    -0.313 N 
HETATM   12  C5  UNL     1      -0.967   0.093   0.103  1.00  0.00     0.003 C 
HETATM   13  C6  UNL     1      -2.062  -0.822   0.445  1.00  0.00     0.054 C 
HETATM   14  C10 UNL     1      -1.275   1.500  -0.226  1.00  0.00     0.054 C 
HETATM   15  C7  UNL     1      -3.401  -0.360  -0.061  1.00  0.00     0.006 C 
HETATM   16  C8  UNL     1      -3.676   1.090   0.160  1.00  0.00     0.001 C 
HETATM   17  C9  UNL     1      -2.487   1.889   0.605  1.00  0.00     0.006 C 
ATOM     18  H3  UNL     1       0.950   0.377  -0.158  1.00  0.00     0.185 HD
ENDBRANCH   1  11
TORSDOF 3
