REMARK  6 active torsions:
REMARK  status: ('A' for Active; 'I' for Inactive)
REMARK    1  A    between atoms: C2_2  and  C3_3 
REMARK    2  A    between atoms: C3_3  and  C4_4 
REMARK    3  A    between atoms: C4_4  and  N1_5 
REMARK    4  A    between atoms: N1_5  and  C5_7 
REMARK    5  A    between atoms: C7_9  and  C8_10 
REMARK    6  A    between atoms: C11_13  and  C12_14 
ROOT
HETATM    1  C5  UNL     1      -2.964  -2.128   0.066  1.00  0.00     0.101 A 
HETATM    2  C6  UNL     1      -1.731  -1.512   0.057  1.00  0.00     0.060 A 
HETATM    3  C7  UNL     1      -0.589  -2.192  -0.353  1.00  0.00    -0.021 A 
HETATM    4  C20 UNL     1      -0.755  -3.498  -0.744  1.00  0.00     0.029 A 
HETATM    5  C21 UNL     1      -1.990  -4.120  -0.737  1.00  0.00     0.090 A 
HETATM    6  N2  UNL     1      -3.060  -3.433  -0.337  1.00  0.00    -0.353 N 
ATOM      7  H2  UNL     1      -3.972  -3.890  -0.331  1.00  0.00     0.166 HD
ENDROOT
BRANCH   3   8
HETATM    8  C8  UNL     1       0.666  -1.469  -0.333  1.00  0.00    -0.026 A 
HETATM    9  C9  UNL     1       1.893  -2.047  -0.101  1.00  0.00     0.013 A 
HETATM   10  C10 UNL     1       3.070  -1.323  -0.090  1.00  0.00     0.013 A 
HETATM   11  C11 UNL     1       3.035   0.038  -0.319  1.00  0.00    -0.026 A 
HETATM   12  C18 UNL     1       1.823   0.625  -0.552  1.00  0.00     0.013 A 
HETATM   13  C19 UNL     1       0.650  -0.109  -0.560  1.00  0.00     0.013 A 
BRANCH  11  14
HETATM   14  C12 UNL     1       4.249   0.851  -0.320  1.00  0.00    -0.026 A 
HETATM   15  C13 UNL     1       5.461   0.335  -0.734  1.00  0.00     0.012 A 
HETATM   16  C14 UNL     1       6.607   1.101  -0.734  1.00  0.00     0.001 A 
HETATM   17  C15 UNL     1       6.589   2.422  -0.318  1.00  0.00     0.000 A 
HETATM   18  C16 UNL     1       5.379   2.934   0.096  1.00  0.00     0.001 A 
HETATM   19  C17 UNL     1       4.235   2.162   0.093  1.00  0.00     0.012 A 
ENDBRANCH  11  14
ENDBRANCH   3   8
BRANCH   1  20
HETATM   20  N1  UNL     1      -4.036  -1.526   0.438  1.00  0.00    -0.376 N 
ATOM     21  H1  UNL     1      -4.921  -2.033   0.423  1.00  0.00     0.161 HD
BRANCH  20  22
HETATM   22  C4  UNL     1      -4.022  -0.158   0.874  1.00  0.00     0.121 C 
BRANCH  22  23
HETATM   23  C3  UNL     1      -4.044   0.812  -0.301  1.00  0.00     0.019 C 
BRANCH  23  24
HETATM   24  C2  UNL     1      -4.020   2.223   0.233  1.00  0.00    -0.003 C 
HETATM   25  C1  UNL     1      -5.217   2.489   1.112  1.00  0.00     0.005 C 
ENDBRANCH  23  24
ENDBRANCH  22  23
ENDBRANCH  20  22
ENDBRANCH   1  20
TORSDOF 6
