REMARK  3 active torsions:
REMARK  status: ('A' for Active; 'I' for Inactive)
REMARK    1  A    between atoms: C3_6  and  C4_7 
REMARK    2  A    between atoms: C4_7  and  O1_8 
REMARK    3  A    between atoms: C4_7  and  C5_10 
ROOT
HETATM    1  C5  UNL     1       1.264   0.119   0.554  1.00  0.00     0.148 A 
HETATM    2  N3  UNL     1       1.652   1.239  -0.082  1.00  0.00    -0.289 N 
ATOM      3  H3  UNL     1       0.927   1.879  -0.407  1.00  0.00     0.187 HD
HETATM    4  N4  UNL     1       2.915   1.565  -0.314  1.00  0.00    -0.251 N 
ATOM      5  H4  UNL     1       3.132   2.435  -0.801  1.00  0.00     0.191 HD
HETATM    6  C6  UNL     1       3.907   0.764   0.084  1.00  0.00     0.341 A 
HETATM    7  O2  UNL     1       5.140   0.980  -0.079  1.00  0.00    -0.245 OA
HETATM    8  N5  UNL     1       3.596  -0.411   0.738  1.00  0.00    -0.272 N 
ATOM      9  H5  UNL     1       4.338  -1.039   1.047  1.00  0.00     0.173 HD
HETATM   10  C7  UNL     1       2.299  -0.725   0.967  1.00  0.00     0.280 A 
HETATM   11  O3  UNL     1       2.028  -1.789   1.545  1.00  0.00    -0.265 OA
ENDROOT
BRANCH   1  12
HETATM   12  C4  UNL     1      -0.113  -0.220   1.008  1.00  0.00     0.101 C 
BRANCH  12  13
HETATM   13  C3  UNL     1      -1.029  -0.878   0.054  1.00  0.00     0.161 C 
HETATM   14  C2  UNL     1      -1.138  -0.422  -1.353  1.00  0.00     0.154 C 
HETATM   15  N2  UNL     1      -2.355   0.396  -1.324  1.00  0.00    -0.362 N 
HETATM   16  C1  UNL     1      -3.047   0.177  -0.280  1.00  0.00     0.184 C 
ATOM     17  H2  UNL     1      -2.615   1.060  -2.053  1.00  0.00     0.162 HD
HETATM   18  N1  UNL     1      -4.293   0.847  -0.015  1.00  0.00    -0.064 NA
HETATM   19  N6  UNL     1      -2.394  -0.772   0.521  1.00  0.00    -0.352 N 
ATOM     20  H6  UNL     1      -2.808  -1.294   1.294  1.00  0.00     0.163 HD
ENDBRANCH  12  13
BRANCH  12  21
HETATM   21  O1  UNL     1      -0.151  -0.743   2.275  1.00  0.00    -0.360 OA
ATOM     22  H1  UNL     1       0.438  -0.320   2.889  1.00  0.00     0.217 HD
ENDBRANCH  12  21
ENDBRANCH   1  12
TORSDOF 3
