REMARK  5 active torsions:
REMARK  status: ('A' for Active; 'I' for Inactive)
REMARK    1  A    between atoms: N1_1  and  N2_4 
REMARK    2  A    between atoms: N2_4  and  C1_6 
REMARK    3  A    between atoms: C2_11  and  C3_12 
REMARK    4  A    between atoms: C3_12  and  N5_13 
REMARK    5  A    between atoms: C3_12  and  C4_17 
ROOT
HETATM    1  C1  UNL     1       2.247  -0.384   0.209  1.00  0.00     0.179 A 
HETATM    2  N3  UNL     1       1.723  -1.579   0.501  1.00  0.00    -0.278 N 
ATOM      3  H3  UNL     1       2.326  -2.392   0.629  1.00  0.00     0.189 HD
HETATM    4  N4  UNL     1       0.467  -1.686   0.616  1.00  0.00    -0.293 N 
ATOM      5  H4  UNL     1       0.053  -2.592   0.838  1.00  0.00     0.187 HD
HETATM    6  C2  UNL     1      -0.314  -0.628   0.450  1.00  0.00     0.109 A 
HETATM    7  S1  UNL     1       0.841   0.587   0.107  1.00  0.00    -0.034 SA
ENDROOT
BRANCH   6   8
HETATM    8  C3  UNL     1      -1.814  -0.543   0.542  1.00  0.00     0.329 C 
BRANCH   8   9
HETATM    9  N5  UNL     1      -2.321  -1.689  -0.188  1.00  0.00    -0.061 N 
ATOM     10  H53 UNL     1      -1.974  -1.749  -1.145  1.00  0.00     0.275 HD
ATOM     11  H52 UNL     1      -1.942  -2.579   0.136  1.00  0.00     0.275 HD
ATOM     12  H51 UNL     1      -3.337  -1.631  -0.126  1.00  0.00     0.275 HD
ENDBRANCH   8   9
BRANCH   8  13
HETATM   13  C4  UNL     1      -2.258   0.690  -0.123  1.00  0.00     0.268 C 
HETATM   14  N6  UNL     1      -1.917   1.984   0.362  1.00  0.00    -0.060 NA
HETATM   15  O1  UNL     1      -2.966   0.648  -1.162  1.00  0.00    -0.274 OA
ENDBRANCH   8  13
ENDBRANCH   6   8
BRANCH   1  16
HETATM   16  N2  UNL     1       3.518  -0.087   0.052  1.00  0.00    -0.285 N 
ATOM     17  H2  UNL     1       4.249  -0.792   0.147  1.00  0.00     0.188 HD
BRANCH  16  18
HETATM   18  N1  UNL     1       3.817   1.252  -0.253  1.00  0.00    -0.343 N 
ATOM     19  H12 UNL     1       3.075   1.945  -0.344  1.00  0.00     0.176 HD
ATOM     20  H11 UNL     1       4.803   1.482  -0.375  1.00  0.00     0.176 HD
ENDBRANCH  16  18
ENDBRANCH   1  16
TORSDOF 5
