REMARK  1 active torsions:
REMARK  status: ('A' for Active; 'I' for Inactive)
REMARK    1  A    between atoms: C5_12  and  C6_13 
ROOT
HETATM    1  N1  UNL     1      -0.785   2.015   0.066  1.00  0.00    -0.081 NA
HETATM    2  C1  UNL     1       0.049   0.865   0.060  1.00  0.00     0.141 C 
HETATM    3  N2  UNL     1       1.375   1.094   0.085  1.00  0.00    -0.310 N 
ATOM      4  H2  UNL     1       1.654   2.073   0.018  1.00  0.00     0.170 HD
HETATM    5  C2  UNL     1       2.395   0.197   0.187  1.00  0.00     0.262 C 
HETATM    6  O1  UNL     1       3.520   0.624   0.555  1.00  0.00    -0.267 OA
HETATM    7  C3  UNL     1       2.272  -1.150  -0.088  1.00  0.00     0.165 C 
HETATM    8  N3  UNL     1       1.163  -1.921  -0.280  1.00  0.00    -0.327 N 
ATOM      9  H3  UNL     1       1.316  -2.837  -0.701  1.00  0.00     0.168 HD
HETATM   10  C4  UNL     1      -0.121  -1.606   0.026  1.00  0.00     0.265 C 
HETATM   11  O2  UNL     1      -0.899  -2.551   0.336  1.00  0.00    -0.267 OA
HETATM   12  C5  UNL     1      -0.657  -0.333   0.029  1.00  0.00     0.149 C 
ENDROOT
BRANCH  12  13
HETATM   13  C6  UNL     1      -2.091  -0.287  -0.003  1.00  0.00     0.218 C 
HETATM   14  O3  UNL     1      -2.721   0.822  -0.005  1.00  0.00    -0.644 OA
HETATM   15  O4  UNL     1      -2.845  -1.449  -0.035  1.00  0.00    -0.644 OA
ENDBRANCH  12  13
TORSDOF 1
