REMARK  5 active torsions:
REMARK  status: ('A' for Active; 'I' for Inactive)
REMARK    1  A    between atoms: N1_1  and  C1_4 
REMARK    2  A    between atoms: C1_4  and  N2_5 
REMARK    3  A    between atoms: C1_4  and  C2_10 
REMARK    4  A    between atoms: N2_5  and  N3_7 
REMARK    5  A    between atoms: C5_18  and  N6_19 
ROOT
HETATM    1  C2  UNL     1      -0.009  -0.033   0.033  1.00  0.00     0.117 A 
HETATM    2  N4  UNL     1      -0.057   1.195  -0.584  1.00  0.00    -0.347 N 
ATOM      3  H4  UNL     1       0.821   1.636  -0.857  1.00  0.00     0.167 HD
HETATM    4  C3  UNL     1      -1.188   1.832  -0.841  1.00  0.00     0.184 A 
HETATM    5  N5  UNL     1      -2.349   1.283  -0.497  1.00  0.00    -0.318 N 
ATOM      6  H5  UNL     1      -3.213   1.786  -0.701  1.00  0.00     0.169 HD
HETATM    7  C4  UNL     1      -2.421   0.094   0.107  1.00  0.00     0.281 A 
HETATM    8  O1  UNL     1      -3.489  -0.459   0.449  1.00  0.00    -0.265 OA
HETATM    9  C5  UNL     1      -1.203  -0.562   0.367  1.00  0.00     0.201 A 
ENDROOT
BRANCH   1  10
HETATM   10  C1  UNL     1       1.284  -0.645   0.293  1.00  0.00     0.143 C 
BRANCH  10  11
HETATM   11  N1  UNL     1       1.497  -1.723   0.844  1.00  0.00    -0.383 N 
ATOM     12  H12 UNL     1       2.404  -2.152   1.026  1.00  0.00     0.157 HD
ATOM     13  H11 UNL     1       0.667  -2.229   1.154  1.00  0.00     0.157 HD
ENDBRANCH  10  11
BRANCH  10  14
HETATM   14  N2  UNL     1       2.467   0.076  -0.149  1.00  0.00    -0.291 N 
ATOM     15  H2  UNL     1       2.879  -0.126  -1.060  1.00  0.00     0.188 HD
BRANCH  14  16
HETATM   16  N3  UNL     1       3.027   1.030   0.665  1.00  0.00    -0.344 N 
ATOM     17  H32 UNL     1       2.603   1.220   1.573  1.00  0.00     0.176 HD
ATOM     18  H31 UNL     1       3.857   1.536   0.355  1.00  0.00     0.176 HD
ENDBRANCH  14  16
ENDBRANCH  10  14
ENDBRANCH   1  10
BRANCH   9  19
HETATM   19  N6  UNL     1      -1.316  -1.821   0.987  1.00  0.00    -0.107 N 
HETATM   20  O2  UNL     1      -1.319  -2.866   0.261  1.00  0.00    -0.531 OA
HETATM   21  O3  UNL     1      -1.479  -2.039   2.327  1.00  0.00    -0.531 OA
ENDBRANCH   9  19
TORSDOF 5
