REMARK  5 active torsions:
REMARK  status: ('A' for Active; 'I' for Inactive)
REMARK       I    between atoms: N1_2  and  C2_4 
REMARK       I    between atoms: C2_4  and  N2_6 
REMARK    1  A    between atoms: N2_6  and  S1_8 
REMARK    2  A    between atoms: S1_8  and  N3_9 
REMARK    3  A    between atoms: S1_8  and  N4_13 
REMARK    4  A    between atoms: N4_13  and  C3_15 
REMARK    5  A    between atoms: C5_17  and  C6_18 
ROOT
HETATM    1  N4  UNL     1      -0.597   0.584  -0.938  1.00  0.00    -0.269 N 
ATOM      2  H4  UNL     1      -0.382   1.438  -1.453  1.00  0.00     0.180 HD
ENDROOT
BRANCH   1   3
HETATM    3  S1  UNL     1       0.732  -0.417  -0.790  1.00  0.00     0.201 S 
HETATM    4  O2  UNL     1       0.912  -1.261  -2.040  1.00  0.00    -0.206 OA
BRANCH   3   5
HETATM    5  N2  UNL     1       2.203   0.490  -0.528  1.00  0.00    -0.236 N 
HETATM    6  C2  UNL     1       3.408  -0.134  -0.119  1.00  0.00     0.329 C 
HETATM    7  N1  UNL     1       4.567   0.621   0.088  1.00  0.00    -0.347 N 
HETATM    8  O1  UNL     1       3.407  -1.392   0.054  1.00  0.00    -0.246 OA
HETATM    9  C1  UNL     1       5.807   0.003   0.507  1.00  0.00     0.151 C 
ATOM     10  H1  UNL     1       4.538   1.630  -0.060  1.00  0.00     0.163 HD
ATOM     11  H2  UNL     1       2.194   1.499  -0.674  1.00  0.00     0.183 HD
ENDBRANCH   3   5
BRANCH   3  12
HETATM   12  N3  UNL     1       0.594  -1.409   0.390  1.00  0.00    -0.328 N 
ATOM     13  H32 UNL     1       1.247  -1.504   1.167  1.00  0.00     0.168 HD
ATOM     14  H31 UNL     1      -0.264  -1.938   0.237  1.00  0.00     0.168 HD
ENDBRANCH   3  12
ENDBRANCH   1   3
BRANCH   1  15
HETATM   15  C3  UNL     1      -1.805   0.540  -0.566  1.00  0.00     0.130 A 
HETATM   16  C4  UNL     1      -2.400  -0.468   0.139  1.00  0.00     0.070 A 
HETATM   17  C5  UNL     1      -3.744  -0.400   0.506  1.00  0.00     0.074 A 
HETATM   18  C7  UNL     1      -4.470   0.709   0.140  1.00  0.00     0.273 A 
HETATM   19  O4  UNL     1      -5.694   0.772   0.472  1.00  0.00    -0.266 OA
HETATM   20  N5  UNL     1      -3.872   1.687  -0.551  1.00  0.00    -0.264 N 
HETATM   21  N6  UNL     1      -2.613   1.612  -0.888  1.00  0.00    -0.282 N 
ATOM     22  H5  UNL     1      -4.412   2.509  -0.820  1.00  0.00     0.190 HD
ATOM     23  H6  UNL     1      -2.206   2.384  -1.416  1.00  0.00     0.188 HD
BRANCH  17  24
HETATM   24  C6  UNL     1      -4.336  -1.477   1.258  1.00  0.00     0.275 C 
HETATM   25  O3  UNL     1      -3.705  -2.500   1.546  1.00  0.00    -0.301 OA
ENDBRANCH  17  24
ENDBRANCH   1  15
TORSDOF 5
