REMARK  4 active torsions:
REMARK  status: ('A' for Active; 'I' for Inactive)
REMARK    1  A    between atoms: C2_2  and  C4_4 
REMARK    2  A    between atoms: C4_4  and  N1_5 
REMARK    3  A    between atoms: C4_4  and  C12_22 
REMARK       I    between atoms: N1_5  and  C5_7 
REMARK    4  A    between atoms: C5_7  and  C6_9 
ROOT
HETATM    1  C6  UNL     1       1.233  -0.025   0.261  1.00  0.00     0.100 A 
HETATM    2  S1  UNL     1       1.721  -0.004  -1.371  1.00  0.00    -0.064 SA
HETATM    3  C7  UNL     1       3.357  -0.403  -1.609  1.00  0.00     0.094 A 
HETATM    4  N2  UNL     1       3.949  -0.451  -2.769  1.00  0.00    -0.392 N 
ATOM      5  H21 UNL     1       4.930  -0.690  -2.912  1.00  0.00     0.156 HD
ATOM      6  H22 UNL     1       3.436  -0.242  -3.626  1.00  0.00     0.156 HD
HETATM    7  C8  UNL     1       4.053  -0.687  -0.446  1.00  0.00     0.102 A 
HETATM    8  N3  UNL     1       5.453  -1.033  -0.608  1.00  0.00    -0.098 NA
HETATM    9  C9  UNL     1       3.525  -0.665   0.816  1.00  0.00     0.097 A 
HETATM   10  C10 UNL     1       4.428  -0.996   1.915  1.00  0.00     0.103 C 
HETATM   11  N4  UNL     1       5.145  -1.278   2.805  1.00  0.00    -0.191 NA
HETATM   12  C11 UNL     1       2.229  -0.362   1.153  1.00  0.00     0.091 A 
HETATM   13  N5  UNL     1       1.837  -0.386   2.539  1.00  0.00    -0.099 NA
ENDROOT
BRANCH   1  14
HETATM   14  C5  UNL     1      -0.143   0.288   0.708  1.00  0.00     0.261 C 
HETATM   15  N1  UNL     1      -1.160   0.631  -0.189  1.00  0.00    -0.342 N 
ATOM     16  H1  UNL     1      -0.963   0.671  -1.189  1.00  0.00     0.163 HD
HETATM   17  O1  UNL     1      -0.366   0.235   1.943  1.00  0.00    -0.267 OA
BRANCH  15  18
HETATM   18  C4  UNL     1      -2.487   0.928   0.294  1.00  0.00     0.189 C 
BRANCH  18  19
HETATM   19  C2  UNL     1      -3.504  -0.010  -0.346  1.00  0.00     0.011 C 
HETATM   20  C1  UNL     1      -3.436   0.198  -1.829  1.00  0.00     0.012 C 
HETATM   21  C3  UNL     1      -3.169  -1.425   0.070  1.00  0.00     0.012 C 
ENDBRANCH  18  19
BRANCH  18  22
HETATM   22  C12 UNL     1      -2.860   2.342  -0.025  1.00  0.00     0.197 C 
HETATM   23  O2  UNL     1      -2.062   3.069  -0.626  1.00  0.00    -0.646 OA
HETATM   24  O3  UNL     1      -4.089   2.842   0.346  1.00  0.00    -0.646 OA
ENDBRANCH  18  22
ENDBRANCH  15  18
ENDBRANCH   1  14
TORSDOF 4
