REMARK  16 active torsions:
REMARK  status: ('A' for Active; 'I' for Inactive)
REMARK    1  A    between atoms: C2_2  and  C3_3 
REMARK    2  A    between atoms: C2_2  and  C10_14 
REMARK    3  A    between atoms: C3_3  and  C4_4 
REMARK    4  A    between atoms: C7_7  and  O1_8 
REMARK    5  A    between atoms: C8_10  and  O2_11 
REMARK    6  A    between atoms: C10_14  and  O3_15 
REMARK    7  A    between atoms: C10_14  and  N1_17 
REMARK    8  A    between atoms: N1_17  and  C11_20 
REMARK    9  A    between atoms: C12_22  and  O5_23 
REMARK   10  A    between atoms: C12_22  and  C13_25 
REMARK   11  A    between atoms: C13_25  and  O7_27 
REMARK   12  A    between atoms: O7_27  and  C14_28 
REMARK   13  A    between atoms: C14_28  and  N3_31 
REMARK   14  A    between atoms: C14_28  and  C16_35 
REMARK   15  A    between atoms: N3_31  and  N4_32 
REMARK       I    between atoms: C16_35  and  N5_37 
REMARK   16  A    between atoms: N5_37  and  C17_39 
ROOT
HETATM    1  C14 UNL     1      -4.184  -0.901   0.886  1.00  0.00     0.329 C 
HETATM    2  C15 UNL     1      -4.100  -1.976  -0.123  1.00  0.00     0.129 C 
HETATM    3  N2  UNL     1      -4.021  -2.839  -0.906  1.00  0.00    -0.192 NA
ENDROOT
BRANCH   1   4
HETATM    4  O7  UNL     1      -3.396   0.178   0.424  1.00  0.00    -0.264 OA
BRANCH   4   5
HETATM    5  C13 UNL     1      -2.040  -0.013   0.093  1.00  0.00     0.329 C 
HETATM    6  O6  UNL     1      -1.608  -1.185   0.216  1.00  0.00    -0.258 OA
BRANCH   5   7
HETATM    7  C12 UNL     1      -1.218   1.131  -0.372  1.00  0.00     0.275 C 
HETATM    8  O4  UNL     1       0.063   1.156   0.063  1.00  0.00    -0.304 OA
HETATM    9  C11 UNL     1       0.889   0.175  -0.444  1.00  0.00     0.402 C 
HETATM   10  C22 UNL     1       0.503  -0.338  -1.775  1.00  0.00     0.205 C 
HETATM   11  C21 UNL     1      -0.487   0.397  -2.542  1.00  0.00     0.057 C 
HETATM   12  O9  UNL     1       1.001  -1.387  -2.267  1.00  0.00    -0.288 OA
HETATM   13  C20 UNL     1      -1.348   1.130  -1.877  1.00  0.00     0.056 C 
BRANCH   9  14
HETATM   14  N1  UNL     1       2.265   0.621  -0.568  1.00  0.00    -0.011 N 
ATOM     15  H12 UNL     1       2.343   1.355  -1.272  1.00  0.00     0.284 HD
ATOM     16  H11 UNL     1       2.838  -0.099  -1.008  1.00  0.00     0.284 HD
BRANCH  14  17
HETATM   17  C10 UNL     1       2.847   1.043   0.665  1.00  0.00     0.352 C 
BRANCH  17  18
HETATM   18  C2  UNL     1       4.300   0.635   0.623  1.00  0.00    -0.030 C 
HETATM   19  C1  UNL     1       5.256   1.536   0.660  1.00  0.00     0.019 C 
BRANCH  18  20
HETATM   20  C3  UNL     1       4.634  -0.802   0.518  1.00  0.00     0.076 C 
BRANCH  20  21
HETATM   21  C4  UNL     1       6.126  -0.960   0.474  1.00  0.00    -0.051 A 
HETATM   22  C5  UNL     1       6.799  -1.080   1.683  1.00  0.00     0.010 A 
HETATM   23  C6  UNL     1       8.154  -1.229   1.716  1.00  0.00     0.040 A 
HETATM   24  C7  UNL     1       8.826  -1.254   0.519  1.00  0.00     0.098 A 
HETATM   25  C8  UNL     1       8.179  -1.137  -0.687  1.00  0.00     0.099 A 
HETATM   26  C9  UNL     1       6.801  -0.987  -0.712  1.00  0.00     0.046 A 
BRANCH  24  27
HETATM   27  O1  UNL     1      10.220  -1.402   0.498  1.00  0.00    -0.358 OA
ATOM     28  H1  UNL     1      10.685  -1.419  -0.330  1.00  0.00     0.217 HD
ENDBRANCH  24  27
BRANCH  25  29
HETATM   29  O2  UNL     1       8.866  -1.162  -1.891  1.00  0.00    -0.358 OA
ATOM     30  H2  UNL     1       8.419  -1.081  -2.725  1.00  0.00     0.217 HD
ENDBRANCH  25  29
ENDBRANCH  20  21
ENDBRANCH  18  20
ENDBRANCH  17  18
BRANCH  17  31
HETATM   31  O3  UNL     1       2.793   2.428   0.815  1.00  0.00    -0.366 OA
ATOM     32  H3  UNL     1       1.879   2.685   0.841  1.00  0.00     0.212 HD
ENDBRANCH  17  31
ENDBRANCH  14  17
ENDBRANCH   9  14
BRANCH   7  33
HETATM   33  O5  UNL     1      -1.877   2.306   0.091  1.00  0.00    -0.354 OA
ATOM     34  H5  UNL     1      -2.776   2.288  -0.214  1.00  0.00     0.214 HD
ENDBRANCH   7  33
ENDBRANCH   5   7
ENDBRANCH   4   5
ENDBRANCH   1   4
BRANCH   1  35
HETATM   35  N3  UNL     1      -3.799  -1.281   2.192  1.00  0.00    -0.084 NA
BRANCH  35  36
HETATM   36  N4  UNL     1      -3.939  -0.289   3.144  1.00  0.00    -0.344 N 
ATOM     37  H42 UNL     1      -4.293   0.638   2.907  1.00  0.00     0.172 HD
ATOM     38  H41 UNL     1      -3.661  -0.563   4.086  1.00  0.00     0.172 HD
ENDBRANCH  35  36
ENDBRANCH   1  35
BRANCH   1  39
HETATM   39  C16 UNL     1      -5.637  -0.475   0.820  1.00  0.00     0.293 C 
HETATM   40  O8  UNL     1      -6.330  -0.522   1.836  1.00  0.00    -0.267 OA
HETATM   41  N5  UNL     1      -6.168  -0.030  -0.419  1.00  0.00    -0.303 N 
ATOM     42  H5  UNL     1      -5.547  -0.008  -1.228  1.00  0.00     0.171 HD
BRANCH  41  43
HETATM   43  C17 UNL     1      -7.493   0.380  -0.594  1.00  0.00     0.142 C 
HETATM   44  N6  UNL     1      -8.044   0.794  -1.654  1.00  0.00    -0.370 N 
HETATM   45  C18 UNL     1      -9.393   1.165  -1.625  1.00  0.00     0.132 C 
ATOM     46  H6  UNL     1      -7.511   0.857  -2.521  1.00  0.00     0.161 HD
HETATM   47  C19 UNL     1     -10.153   0.383  -0.549  1.00  0.00     0.102 C 
HETATM   48  S1  UNL     1      -8.756   0.380   0.673  1.00  0.00    -0.092 SA
ENDBRANCH  41  43
ENDBRANCH   1  39
TORSDOF 16
