REMARK  13 active torsions:
REMARK  status: ('A' for Active; 'I' for Inactive)
REMARK    1  A    between atoms: C2_2  and  C3_4 
REMARK    2  A    between atoms: C3_4  and  N1_6 
REMARK    3  A    between atoms: N1_6  and  C5_8 
REMARK    4  A    between atoms: N3_12  and  C7_14 
REMARK    5  A    between atoms: C7_14  and  C8_15 
REMARK    6  A    between atoms: C11_18  and  C12_19 
REMARK    7  A    between atoms: C12_19  and  O2_20 
REMARK    8  A    between atoms: C12_19  and  N4_22 
REMARK    9  A    between atoms: C14_28  and  N7_29 
REMARK   10  A    between atoms: N12_45  and  C20_46 
REMARK   11  A    between atoms: C20_46  and  C21_47 
REMARK   12  A    between atoms: C21_47  and  O3_48 
REMARK   13  A    between atoms: C21_47  and  O4_50 
ROOT
HETATM    1  C5  UNL     1      -3.965  -0.452  -0.763  1.00  0.00     0.682 A 
HETATM    2  N2  UNL     1      -2.686  -0.597  -1.142  1.00  0.00    -0.174 N 
ATOM      3  H2  UNL     1      -2.355  -1.513  -1.444  1.00  0.00     0.186 HD
HETATM    4  C6  UNL     1      -1.818   0.459  -1.131  1.00  0.00     0.151 A 
HETATM    5  N3  UNL     1      -0.643   0.240  -1.503  1.00  0.00    -0.348 N 
ATOM      6  H3  UNL     1      -0.495  -0.733  -1.772  1.00  0.00     0.167 HD
HETATM    7  C18 UNL     1      -2.272   1.686  -0.724  1.00  0.00     0.123 A 
HETATM    8  N11 UNL     1      -1.736   2.912  -0.584  1.00  0.00    -0.346 N 
ATOM      9  H11 UNL     1      -0.766   3.150  -0.790  1.00  0.00     0.167 HD
HETATM   10  C19 UNL     1      -2.660   3.778  -0.134  1.00  0.00     0.185 A 
HETATM   11  N12 UNL     1      -3.830   3.133   0.033  1.00  0.00    -0.322 N 
HETATM   12  C22 UNL     1      -3.609   1.854  -0.324  1.00  0.00     0.155 A 
HETATM   13  N13 UNL     1      -4.395   0.764  -0.365  1.00  0.00    -0.174 N 
ATOM     14  H13 UNL     1      -5.369   0.861  -0.080  1.00  0.00     0.186 HD
ENDROOT
BRANCH   5  15
HETATM   15  C7  UNL     1       0.519   1.014  -1.638  1.00  0.00     0.119 C 
BRANCH  15  16
HETATM   16  C8  UNL     1       1.593   0.638  -0.654  1.00  0.00     0.047 A 
HETATM   17  C9  UNL     1       2.476  -0.361  -0.976  1.00  0.00     0.031 A 
HETATM   18  C10 UNL     1       3.472  -0.738  -0.111  1.00  0.00     0.015 A 
HETATM   19  C11 UNL     1       3.560  -0.085   1.088  1.00  0.00     0.007 A 
HETATM   20  C17 UNL     1       2.663   0.922   1.400  1.00  0.00     0.100 A 
HETATM   21  N10 UNL     1       1.689   1.273   0.525  1.00  0.00    -0.364 N 
ATOM     22  H10 UNL     1       1.032   2.016   0.761  1.00  0.00     0.165 HD
BRANCH  19  23
HETATM   23  C12 UNL     1       4.634  -0.478   2.041  1.00  0.00     0.280 C 
BRANCH  23  24
HETATM   24  O2  UNL     1       5.255   0.668   2.580  1.00  0.00    -0.370 OA
ATOM     25  H2  UNL     1       5.940   0.417   3.188  1.00  0.00     0.212 HD
ENDBRANCH  23  24
BRANCH  23  26
HETATM   26  N4  UNL     1       5.661  -1.259   1.364  1.00  0.00    -0.226 N 
HETATM   27  N5  UNL     1       5.867  -2.551   1.473  1.00  0.00    -0.236 N 
HETATM   28  N6  UNL     1       6.892  -2.922   0.709  1.00  0.00    -0.279 N 
ATOM     29  H5  UNL     1       5.320  -3.181   2.060  1.00  0.00     0.208 HD
HETATM   30  C13 UNL     1       7.381  -1.847   0.076  1.00  0.00     0.139 A 
ATOM     31  H6  UNL     1       7.249  -3.873   0.620  1.00  0.00     0.189 HD
HETATM   32  C14 UNL     1       8.406  -1.623  -0.816  1.00  0.00     0.132 A 
HETATM   33  C16 UNL     1       6.584  -0.788   0.503  1.00  0.00     0.159 A 
HETATM   34  N8  UNL     1       8.647  -0.383  -1.282  1.00  0.00    -0.337 N 
HETATM   35  C15 UNL     1       7.867   0.627  -0.857  1.00  0.00     0.183 A 
ATOM     36  H8  UNL     1       9.405  -0.213  -1.943  1.00  0.00     0.168 HD
HETATM   37  N9  UNL     1       6.862   0.416   0.015  1.00  0.00    -0.335 N 
ATOM     38  H9  UNL     1       6.294   1.210   0.311  1.00  0.00     0.168 HD
BRANCH  32  39
HETATM   39  N7  UNL     1       9.156  -2.614  -1.219  1.00  0.00    -0.383 N 
ATOM     40  H72 UNL     1       8.973  -3.553  -0.866  1.00  0.00     0.157 HD
ATOM     41  H71 UNL     1       9.915  -2.448  -1.880  1.00  0.00     0.157 HD
ENDBRANCH  32  39
ENDBRANCH  23  26
ENDBRANCH  19  23
ENDBRANCH  15  16
ENDBRANCH   5  15
BRANCH   1  42
HETATM   42  N1  UNL     1      -4.835  -1.405  -0.748  1.00  0.00    -0.215 N 
ATOM     43  H1  UNL     1      -5.789  -1.208  -0.446  1.00  0.00     0.178 HD
BRANCH  42  44
HETATM   44  C3  UNL     1      -4.479  -2.750  -1.153  1.00  0.00     0.164 C 
HETATM   45  C4  UNL     1      -5.754  -3.523  -1.531  1.00  0.00     0.041 C 
BRANCH  44  46
HETATM   46  C2  UNL     1      -3.739  -3.470  -0.085  1.00  0.00     0.145 C 
HETATM   47  C1  UNL     1      -3.442  -2.843   1.214  1.00  0.00     0.093 C 
HETATM   48  O1  UNL     1      -3.364  -4.610  -0.287  1.00  0.00    -0.296 OA
ENDBRANCH  44  46
ENDBRANCH  42  44
ENDBRANCH   1  42
BRANCH  11  49
HETATM   49  C20 UNL     1      -5.099   3.656   0.499  1.00  0.00     0.191 C 
BRANCH  49  50
HETATM   50  C21 UNL     1      -5.211   3.560   1.984  1.00  0.00     0.272 C 
BRANCH  50  51
HETATM   51  O3  UNL     1      -6.467   4.085   2.352  1.00  0.00    -0.370 OA
ATOM     52  H3  UNL     1      -6.538   4.024   3.297  1.00  0.00     0.212 HD
ENDBRANCH  50  51
BRANCH  50  53
HETATM   53  O4  UNL     1      -5.092   2.267   2.464  1.00  0.00    -0.370 OA
ATOM     54  H4  UNL     1      -5.163   2.206   3.409  1.00  0.00     0.212 HD
ENDBRANCH  50  53
ENDBRANCH  49  50
ENDBRANCH  11  49
TORSDOF 13
