REMARK  3 active torsions:
REMARK  status: ('A' for Active; 'I' for Inactive)
REMARK       I    between atoms: C1_2  and  N1_3 
REMARK    1  A    between atoms: C1_2  and  C13_16 
REMARK    2  A    between atoms: N1_3  and  C2_5 
REMARK    3  A    between atoms: C2_5  and  C3_6 
ROOT
HETATM    1  C3  UNL     1      -0.463   0.022   0.658  1.00  0.00    -0.007 C 
HETATM    2  C4  UNL     1      -0.692   1.180  -0.222  1.00  0.00     0.019 C 
HETATM    3  C5  UNL     1      -2.123   1.236  -0.758  1.00  0.00    -0.013 C 
HETATM    4  C6  UNL     1      -2.276   0.002  -1.627  1.00  0.00     0.009 C 
HETATM    5  C7  UNL     1      -1.999  -1.236  -0.832  1.00  0.00    -0.013 C 
HETATM    6  C8  UNL     1      -3.100  -1.319   0.234  1.00  0.00     0.009 C 
HETATM    7  C9  UNL     1      -2.947  -0.094   1.085  1.00  0.00    -0.013 C 
HETATM    8  C10 UNL     1      -3.162   1.187   0.308  1.00  0.00     0.009 C 
HETATM    9  C11 UNL     1      -1.594   0.011   1.716  1.00  0.00     0.019 C 
HETATM   10  C12 UNL     1      -0.688  -1.265  -0.133  1.00  0.00     0.019 C 
ENDROOT
BRANCH   1  11
HETATM   11  C2  UNL     1       0.789  -0.014   1.437  1.00  0.00     0.073 C 
BRANCH  11  12
HETATM   12  N1  UNL     1       2.050  -0.021   0.854  1.00  0.00    -0.340 N 
HETATM   13  C1  UNL     1       2.754   0.916   0.091  1.00  0.00     0.225 C 
HETATM   14  O1  UNL     1       2.279   2.027  -0.184  1.00  0.00    -0.273 OA
ATOM     15  H1  UNL     1       2.567  -0.885   1.015  1.00  0.00     0.167 HD
BRANCH  13  16
HETATM   16  C13 UNL     1       4.129   0.651  -0.450  1.00  0.00     0.078 A 
HETATM   17  C14 UNL     1       4.583  -0.728  -0.691  1.00  0.00     0.015 A 
HETATM   18  C15 UNL     1       5.090  -0.033   0.521  1.00  0.00     0.015 A 
ENDBRANCH  13  16
ENDBRANCH  11  12
ENDBRANCH   1  11
TORSDOF 3
