REMARK  11 active torsions:
REMARK  status: ('A' for Active; 'I' for Inactive)
REMARK    1  A    between atoms: C2_2  and  C3_3 
REMARK    2  A    between atoms: C3_3  and  C4_4 
REMARK    3  A    between atoms: C4_4  and  S1_5 
REMARK    4  A    between atoms: S1_5  and  N1_8 
REMARK    5  A    between atoms: C7_11  and  C8_12 
REMARK    6  A    between atoms: C7_11  and  C20_31 
REMARK    7  A    between atoms: C8_12  and  N2_13 
REMARK    8  A    between atoms: C12_20  and  C14_23 
REMARK    9  A    between atoms: C15_24  and  C16_25 
REMARK   10  A    between atoms: C20_31  and  O4_32 
REMARK   11  A    between atoms: N5_34  and  O5_36 
ROOT
HETATM    1  N2  UNL     1       2.776  -2.003   0.248  1.00  0.00    -0.313 N 
HETATM    2  C9  UNL     1       2.790  -3.139   1.162  1.00  0.00     0.294 C 
HETATM    3  O3  UNL     1       2.139  -4.211   1.055  1.00  0.00    -0.266 OA
HETATM    4  C10 UNL     1       3.716  -2.834   2.272  1.00  0.00     0.326 C 
HETATM    5  F1  UNL     1       3.056  -2.851   3.467  1.00  0.00    -0.195 F 
HETATM    6  F2  UNL     1       4.829  -3.666   2.298  1.00  0.00    -0.195 F 
HETATM    7  C11 UNL     1       4.135  -1.374   2.015  1.00  0.00     0.150 C 
HETATM    8  C12 UNL     1       4.030  -1.353   0.511  1.00  0.00     0.195 C 
HETATM    9  C13 UNL     1       5.085  -2.287   0.017  1.00  0.00     0.105 C 
HETATM   10  N3  UNL     1       5.913  -3.004  -0.394  1.00  0.00    -0.193 NA
ENDROOT
BRANCH   8  11
HETATM   11  C14 UNL     1       4.167  -0.077  -0.104  1.00  0.00    -0.052 C 
HETATM   12  C15 UNL     1       4.324   1.019  -0.632  1.00  0.00    -0.045 C 
BRANCH  12  13
HETATM   13  C16 UNL     1       4.534   2.300  -1.249  1.00  0.00     0.086 A 
HETATM   14  C17 UNL     1       4.888   2.584  -2.552  1.00  0.00     0.040 A 
HETATM   15  C18 UNL     1       4.984   3.952  -2.729  1.00  0.00     0.020 A 
HETATM   16  C19 UNL     1       4.678   4.490  -1.492  1.00  0.00     0.089 A 
HETATM   17  N4  UNL     1       4.416   3.486  -0.639  1.00  0.00    -0.359 N 
ATOM     18  H4  UNL     1       4.162   3.610   0.341  1.00  0.00     0.166 HD
ENDBRANCH  12  13
ENDBRANCH   8  11
BRANCH   1  19
HETATM   19  C8  UNL     1       1.725  -1.820  -0.674  1.00  0.00     0.147 C 
BRANCH  19  20
HETATM   20  C7  UNL     1       0.454  -1.149  -0.253  1.00  0.00     0.045 C 
HETATM   21  C6  UNL     1      -0.450  -1.104  -1.486  1.00  0.00     0.035 C 
HETATM   22  C5  UNL     1      -1.646  -0.209  -1.301  1.00  0.00     0.108 C 
HETATM   23  N1  UNL     1      -1.729   0.288   0.030  1.00  0.00    -0.211 NA
HETATM   24  C22 UNL     1      -0.585   1.047   0.406  1.00  0.00     0.108 C 
HETATM   25  C21 UNL     1       0.698   0.264   0.170  1.00  0.00     0.035 C 
BRANCH  23  26
HETATM   26  S1  UNL     1      -3.220   1.066   0.392  1.00  0.00     0.211 S 
HETATM   27  O1  UNL     1      -3.177   1.588   1.781  1.00  0.00    -0.211 OA
HETATM   28  O2  UNL     1      -3.360   2.197  -0.607  1.00  0.00    -0.211 OA
BRANCH  26  29
HETATM   29  C4  UNL     1      -4.501  -0.121   0.208  1.00  0.00     0.157 C 
BRANCH  29  30
HETATM   30  C3  UNL     1      -5.877   0.362   0.492  1.00  0.00     0.016 C 
BRANCH  30  31
HETATM   31  C2  UNL     1      -6.373   1.484  -0.350  1.00  0.00    -0.004 C 
HETATM   32  C1  UNL     1      -7.791   1.799   0.107  1.00  0.00     0.005 C 
ENDBRANCH  30  31
ENDBRANCH  29  30
ENDBRANCH  26  29
ENDBRANCH  23  26
BRANCH  20  33
HETATM   33  C20 UNL     1      -0.218  -1.867   0.864  1.00  0.00     0.145 C 
HETATM   34  N5  UNL     1      -1.154  -2.692   0.822  1.00  0.00    -0.250 N 
ATOM     35  H5  UNL     1      -1.424  -3.033   1.745  1.00  0.00     0.196 HD
BRANCH  33  36
HETATM   36  O4  UNL     1       0.281  -1.569   2.132  1.00  0.00    -0.347 OA
ATOM     37  H4  UNL     1      -0.148  -2.027   2.845  1.00  0.00     0.219 HD
ENDBRANCH  33  36
BRANCH  34  38
HETATM   38  O5  UNL     1      -1.879  -3.226  -0.160  1.00  0.00    -0.288 OA
ATOM     39  H5  UNL     1      -2.591  -3.854  -0.192  1.00  0.00     0.244 HD
ENDBRANCH  34  38
ENDBRANCH  20  33
ENDBRANCH  19  20
ENDBRANCH   1  19
TORSDOF 11
