REMARK  8 active torsions:
REMARK  status: ('A' for Active; 'I' for Inactive)
REMARK    1  A    between atoms: C4_6  and  C5_7 
REMARK    2  A    between atoms: C5_7  and  N1_8 
REMARK    3  A    between atoms: C5_7  and  C15_23 
REMARK       I    between atoms: N1_8  and  C6_10 
REMARK    4  A    between atoms: C6_10  and  C7_12 
REMARK    5  A    between atoms: C7_12  and  N2_14 
REMARK       I    between atoms: N2_14  and  C9_16 
REMARK    6  A    between atoms: C9_16  and  C10_18 
REMARK    7  A    between atoms: C17_27  and  C18_28 
REMARK       I    between atoms: C18_28  and  N3_30 
REMARK    8  A    between atoms: N3_30  and  C19_32 
ROOT
HETATM    1  C5  UNL     1       0.116  -2.803   0.672  1.00  0.00     0.162 C 
ENDROOT
BRANCH   1   2
HETATM    2  C4  UNL     1      -1.255  -2.524   0.122  1.00  0.00     0.152 C 
HETATM    3  O2  UNL     1      -1.908  -3.617  -0.356  1.00  0.00    -0.351 OA
HETATM    4  C3  UNL     1      -3.122  -3.424  -0.934  1.00  0.00     0.293 C 
HETATM    5  O1  UNL     1      -4.101  -3.883  -0.052  1.00  0.00    -0.329 OA
HETATM    6  C23 UNL     1      -3.526  -1.998  -1.126  1.00  0.00     0.193 C 
HETATM    7  C2  UNL     1      -4.574  -2.787   0.637  1.00  0.00     0.259 C 
HETATM    8  C1  UNL     1      -6.078  -2.854   0.660  1.00  0.00     0.071 C 
HETATM    9  O6  UNL     1      -4.070  -1.644   0.078  1.00  0.00    -0.351 OA
HETATM   10  C17 UNL     1      -2.420  -1.143  -1.631  1.00  0.00     0.114 C 
HETATM   11  C16 UNL     1      -1.209  -1.325  -0.792  1.00  0.00     0.051 C 
BRANCH  10  12
HETATM   12  C18 UNL     1      -2.779   0.283  -1.677  1.00  0.00     0.225 C 
HETATM   13  O5  UNL     1      -2.839   0.858  -2.791  1.00  0.00    -0.273 OA
HETATM   14  N3  UNL     1      -3.063   1.047  -0.510  1.00  0.00    -0.353 N 
ATOM     15  H3  UNL     1      -3.016   0.588   0.400  1.00  0.00     0.163 HD
BRANCH  14  16
HETATM   16  C19 UNL     1      -3.414   2.442  -0.563  1.00  0.00     0.022 C 
HETATM   17  C20 UNL     1      -4.664   2.710  -1.366  1.00  0.00     0.037 C 
HETATM   18  C21 UNL     1      -2.291   3.290  -1.165  1.00  0.00     0.037 C 
HETATM   19  C22 UNL     1      -3.677   2.932   0.843  1.00  0.00     0.037 C 
ENDBRANCH  14  16
ENDBRANCH  10  12
ENDBRANCH   1   2
BRANCH   1  20
HETATM   20  N1  UNL     1       0.722  -1.568   1.150  1.00  0.00    -0.348 N 
HETATM   21  C6  UNL     1       1.923  -1.045   0.667  1.00  0.00     0.240 C 
HETATM   22  O3  UNL     1       2.547  -1.655  -0.237  1.00  0.00    -0.271 OA
ATOM     23  H1  UNL     1       0.238  -1.052   1.885  1.00  0.00     0.163 HD
BRANCH  21  24
HETATM   24  C7  UNL     1       2.450   0.225   1.227  1.00  0.00     0.172 C 
HETATM   25  C8  UNL     1       2.630   0.055   2.720  1.00  0.00     0.042 C 
BRANCH  24  26
HETATM   26  N2  UNL     1       3.710   0.601   0.597  1.00  0.00    -0.348 N 
HETATM   27  C9  UNL     1       3.866   1.849  -0.062  1.00  0.00     0.222 C 
HETATM   28  O4  UNL     1       2.883   2.630  -0.092  1.00  0.00    -0.273 OA
ATOM     29  H2  UNL     1       4.497  -0.047   0.630  1.00  0.00     0.163 HD
BRANCH  27  30
HETATM   30  C10 UNL     1       5.122   2.240  -0.698  1.00  0.00     0.078 C 
HETATM   31  C11 UNL     1       6.285   2.297   0.271  1.00  0.00     0.014 C 
HETATM   32  C12 UNL     1       7.452   2.468  -0.710  1.00  0.00     0.001 C 
HETATM   33  C13 UNL     1       7.058   1.587  -1.876  1.00  0.00     0.001 C 
HETATM   34  C14 UNL     1       5.621   1.218  -1.699  1.00  0.00     0.014 C 
ENDBRANCH  27  30
ENDBRANCH  24  26
ENDBRANCH  21  24
ENDBRANCH   1  20
BRANCH   1  35
HETATM   35  C15 UNL     1       0.118  -3.788   1.808  1.00  0.00     0.290 C 
HETATM   36  F1  UNL     1      -0.630  -3.365   2.884  1.00  0.00    -0.231 F 
HETATM   37 CL1  UNL     1      -0.387  -5.391   1.220  1.00  0.00    -0.087 Cl
ENDBRANCH   1  35
TORSDOF 8
