REMARK  5 active torsions:
REMARK  status: ('A' for Active; 'I' for Inactive)
REMARK    1  A    between atoms: C2_2  and  C3_3 
REMARK    2  A    between atoms: C3_3  and  N1_4 
REMARK    3  A    between atoms: N1_4  and  C4_6 
REMARK    4  A    between atoms: C4_6  and  C5_7 
REMARK    5  A    between atoms: C6_10  and  N3_11 
ROOT
HETATM    1  C5  UNL     1       1.245   0.099  -0.226  1.00  0.00     0.130 A 
HETATM    2  N2  UNL     1       2.143   0.899   0.374  1.00  0.00    -0.177 N 
ATOM      3  H2  UNL     1       2.000   1.879   0.619  1.00  0.00     0.185 HD
HETATM    4  C6  UNL     1       3.249   0.195   0.594  1.00  0.00     0.691 A 
HETATM    5  N4  UNL     1       3.076  -1.063   0.138  1.00  0.00    -0.131 N 
ATOM      6  H4  UNL     1       3.749  -1.829   0.168  1.00  0.00     0.205 HD
HETATM    7  N5  UNL     1       1.846  -1.094  -0.357  1.00  0.00    -0.273 N 
ATOM      8  H5  UNL     1       1.414  -1.915  -0.781  1.00  0.00     0.189 HD
ENDROOT
BRANCH   1   9
HETATM    9  C4  UNL     1      -0.152   0.487  -0.658  1.00  0.00     0.197 C 
BRANCH   9  10
HETATM   10  N1  UNL     1      -0.994  -0.616  -0.392  1.00  0.00    -0.392 N 
ATOM     11  H1  UNL     1      -0.609  -1.473   0.006  1.00  0.00     0.159 HD
BRANCH  10  12
HETATM   12  C3  UNL     1      -2.366  -0.523  -0.680  1.00  0.00     0.082 C 
BRANCH  12  13
HETATM   13  C2  UNL     1      -3.211   0.332   0.131  1.00  0.00     0.006 C 
HETATM   14  C1  UNL     1      -2.863   1.055   1.177  1.00  0.00     0.012 C 
ENDBRANCH  12  13
ENDBRANCH  10  12
ENDBRANCH   9  10
ENDBRANCH   1   9
BRANCH   4  15
HETATM   15  N3  UNL     1       4.362   0.564   1.148  1.00  0.00    -0.233 N 
ATOM     16  H32 UNL     1       4.493   1.515   1.493  1.00  0.00     0.174 HD
ATOM     17  H31 UNL     1       5.211   0.024   1.317  1.00  0.00     0.174 HD
ENDBRANCH   4  15
TORSDOF 5
