REMARK  4 active torsions:
REMARK  status: ('A' for Active; 'I' for Inactive)
REMARK    1  A    between atoms: C2_2  and  C3_3 
REMARK    2  A    between atoms: C3_3  and  N1_4 
REMARK    3  A    between atoms: N1_4  and  C4_7 
REMARK    4  A    between atoms: C4_7  and  C5_8 
ROOT
HETATM    1  C5  UNL     1       1.362  -0.484   0.147  1.00  0.00     0.235 C 
HETATM    2  C6  UNL     1       2.525  -1.295  -0.365  1.00  0.00     0.202 C 
HETATM    3  O1  UNL     1       3.542  -1.196   0.580  1.00  0.00    -0.387 OA
HETATM    4  C7  UNL     1       3.945   0.098   0.819  1.00  0.00     0.195 C 
HETATM    5  C8  UNL     1       2.843   1.079   0.991  1.00  0.00     0.259 C 
HETATM    6  N2  UNL     1       1.755   0.910   0.042  1.00  0.00    -0.065 N 
ATOM      7  H21 UNL     1       0.985   1.565   0.180  1.00  0.00     0.277 HD
ATOM      8  H22 UNL     1       1.990   1.199  -0.907  1.00  0.00     0.277 HD
ENDROOT
BRANCH   1   9
HETATM    9  C4  UNL     1       0.081  -0.771  -0.587  1.00  0.00     0.267 C 
BRANCH   9  10
HETATM   10  N1  UNL     1      -0.967   0.044  -0.033  1.00  0.00    -0.073 N 
ATOM     11  H12 UNL     1      -0.714   1.032  -0.044  1.00  0.00     0.277 HD
ATOM     12  H11 UNL     1      -1.047  -0.089   0.975  1.00  0.00     0.277 HD
BRANCH  10  13
HETATM   13  C3  UNL     1      -2.239  -0.185  -0.700  1.00  0.00     0.232 C 
BRANCH  13  14
HETATM   14  C2  UNL     1      -3.324   0.681  -0.102  1.00  0.00     0.023 C 
HETATM   15  C1  UNL     1      -4.615   0.397  -0.835  1.00  0.00     0.007 C 
ENDBRANCH  13  14
ENDBRANCH  10  13
ENDBRANCH   9  10
ENDBRANCH   1   9
TORSDOF 4
