REMARK  9 active torsions:
REMARK  status: ('A' for Active; 'I' for Inactive)
REMARK    1  A    between atoms: C2_2  and  C3_5 
REMARK    2  A    between atoms: C3_5  and  C6_8 
REMARK    3  A    between atoms: C6_8  and  N1_9 
REMARK    4  A    between atoms: C6_8  and  C7_13 
REMARK       I    between atoms: C7_13  and  N2_15 
REMARK    5  A    between atoms: N2_15  and  C8_17 
REMARK    6  A    between atoms: C15_24  and  C16_25 
REMARK       I    between atoms: C16_25  and  N3_27 
REMARK    7  A    between atoms: N4_30  and  C19_31 
REMARK    8  A    between atoms: C19_31  and  C20_32 
REMARK    9  A    between atoms: C20_32  and  O3_33 
ROOT
HETATM    1  C8  UNL     1      -1.267   0.120  -1.105  1.00  0.00     0.092 C 
HETATM    2  C9  UNL     1      -0.548   0.144   0.213  1.00  0.00     0.010 C 
HETATM    3  C10 UNL     1      -0.579  -1.142   0.953  1.00  0.00     0.011 C 
HETATM    4  C11 UNL     1      -0.168  -2.271   0.067  1.00  0.00    -0.013 C 
HETATM    5  C12 UNL     1      -0.873  -2.283  -1.270  1.00  0.00     0.011 C 
HETATM    6  C13 UNL     1      -0.630  -0.972  -1.933  1.00  0.00     0.010 C 
HETATM    7  C14 UNL     1       0.828  -0.709  -2.218  1.00  0.00     0.026 C 
HETATM    8  C15 UNL     1       1.536  -0.668  -0.837  1.00  0.00     0.042 C 
HETATM    9  C23 UNL     1       1.312  -2.035  -0.272  1.00  0.00     0.024 C 
HETATM   10  C24 UNL     1       0.909   0.466  -0.116  1.00  0.00     0.026 C 
ENDROOT
BRANCH   1  11
HETATM   11  N2  UNL     1      -2.670  -0.068  -1.052  1.00  0.00    -0.354 N 
HETATM   12  C7  UNL     1      -3.640   0.821  -1.600  1.00  0.00     0.249 C 
HETATM   13  O1  UNL     1      -3.145   1.837  -2.174  1.00  0.00    -0.271 OA
ATOM     14  H2  UNL     1      -3.014  -0.907  -0.584  1.00  0.00     0.162 HD
BRANCH  12  15
HETATM   15  C6  UNL     1      -5.086   0.661  -1.558  1.00  0.00     0.288 C 
BRANCH  15  16
HETATM   16  C3  UNL     1      -5.760   1.151  -0.293  1.00  0.00     0.055 C 
HETATM   17  C4  UNL     1      -5.662   2.654  -0.220  1.00  0.00     0.023 C 
HETATM   18  C5  UNL     1      -7.262   0.876  -0.534  1.00  0.00     0.023 C 
BRANCH  16  19
HETATM   19  C2  UNL     1      -5.407   0.437   0.952  1.00  0.00     0.249 C 
HETATM   20  C1  UNL     1      -6.366   0.888   2.071  1.00  0.00     0.091 C 
HETATM   21  F1  UNL     1      -4.151   0.787   1.455  1.00  0.00    -0.206 F 
HETATM   22  F2  UNL     1      -5.596  -0.901   0.826  1.00  0.00    -0.206 F 
ENDBRANCH  16  19
ENDBRANCH  15  16
BRANCH  15  23
HETATM   23  N1  UNL     1      -5.642   1.573  -2.598  1.00  0.00    -0.066 N 
ATOM     24  H13 UNL     1      -6.661   1.604  -2.640  1.00  0.00     0.275 HD
ATOM     25  H12 UNL     1      -5.519   2.567  -2.405  1.00  0.00     0.275 HD
ATOM     26  H11 UNL     1      -5.188   1.243  -3.450  1.00  0.00     0.275 HD
ENDBRANCH  15  23
ENDBRANCH  12  15
ENDBRANCH   1  11
BRANCH   8  27
HETATM   27  C16 UNL     1       2.967  -0.512  -1.108  1.00  0.00     0.228 C 
HETATM   28  O2  UNL     1       3.324  -0.585  -2.339  1.00  0.00    -0.273 OA
HETATM   29  N3  UNL     1       4.010  -0.291  -0.179  1.00  0.00    -0.348 N 
HETATM   30  C17 UNL     1       5.360  -0.170  -0.724  1.00  0.00     0.156 C 
HETATM   31  C22 UNL     1       3.879  -0.157   1.247  1.00  0.00     0.156 C 
HETATM   32  C18 UNL     1       6.242  -1.106   0.047  1.00  0.00     0.292 C 
HETATM   33  N4  UNL     1       6.266  -0.760   1.463  1.00  0.00     0.093 N 
HETATM   34  C21 UNL     1       4.986  -0.787   2.054  1.00  0.00     0.292 C 
BRANCH  33  35
HETATM   35  C19 UNL     1       7.114   0.343   1.736  1.00  0.00     0.298 C 
BRANCH  35  36
HETATM   36  C20 UNL     1       7.187   0.770   3.176  1.00  0.00     0.194 C 
BRANCH  36  37
HETATM   37  O3  UNL     1       7.640  -0.235   4.025  1.00  0.00    -0.399 OA
ATOM     38  H3  UNL     1       7.686   0.035   4.935  1.00  0.00     0.209 HD
ENDBRANCH  36  37
ENDBRANCH  35  36
ENDBRANCH  33  35
ENDBRANCH   8  27
TORSDOF 9
