REMARK  8 active torsions:
REMARK  status: ('A' for Active; 'I' for Inactive)
REMARK    1  A    between atoms: N1_1  and  C1_5 
REMARK    2  A    between atoms: C1_5  and  C2_6 
REMARK    3  A    between atoms: C2_6  and  S1_7 
REMARK    4  A    between atoms: S1_7  and  C3_9 
REMARK    5  A    between atoms: C7_15  and  N3_16 
REMARK    6  A    between atoms: N3_16  and  N4_18 
REMARK    7  A    between atoms: N4_18  and  N5_19 
REMARK    8  A    between atoms: N4_18  and  N6_22 
ROOT
HETATM    1  C3  UNL     1      -1.872  -0.880  -0.341  1.00  0.00     0.032 A 
HETATM    2  C4  UNL     1      -1.712  -0.097  -1.465  1.00  0.00     0.023 A 
HETATM    3  C5  UNL     1      -0.491   0.443  -1.823  1.00  0.00     0.032 A 
HETATM    4  C6  UNL     1       0.630   0.204  -1.043  1.00  0.00     0.065 A 
HETATM    5  N2  UNL     1       1.839   0.712  -1.357  1.00  0.00    -0.190 N 
ATOM      6  H2  UNL     1       1.935   1.289  -2.193  1.00  0.00     0.184 HD
HETATM    7  C7  UNL     1       2.914   0.478  -0.600  1.00  0.00     0.699 A 
HETATM    8  N7  UNL     1       2.773  -0.288   0.504  1.00  0.00    -0.154 N 
ATOM      9  H7  UNL     1       3.590  -0.471   1.086  1.00  0.00     0.187 HD
HETATM   10  C8  UNL     1       1.583  -0.819   0.861  1.00  0.00     0.272 A 
HETATM   11  O2  UNL     1       1.468  -1.531   1.893  1.00  0.00    -0.267 OA
HETATM   12  C9  UNL     1       0.480  -0.573   0.075  1.00  0.00     0.061 A 
HETATM   13  C10 UNL     1      -0.745  -1.106   0.422  1.00  0.00     0.040 A 
ENDROOT
BRANCH   7  14
HETATM   14  N3  UNL     1       4.198   1.008  -0.921  1.00  0.00    -0.115 N 
ATOM     15  H3  UNL     1       4.308   1.586  -1.754  1.00  0.00     0.203 HD
BRANCH  14  16
HETATM   16  N4  UNL     1       5.293   0.751  -0.123  1.00  0.00    -0.039 NA
BRANCH  16  17
HETATM   17  N5  UNL     1       5.028   0.832   1.241  1.00  0.00    -0.327 NA
ATOM     18  H52 UNL     1       4.570   1.724   1.425  1.00  0.00     0.174 HD
ATOM     19  H51 UNL     1       5.838   0.642   1.831  1.00  0.00     0.174 HD
ENDBRANCH  16  17
BRANCH  16  20
HETATM   20  N6  UNL     1       5.914  -0.458  -0.372  1.00  0.00    -0.327 NA
ATOM     21  H62 UNL     1       6.108  -0.517  -1.372  1.00  0.00     0.174 HD
ATOM     22  H61 UNL     1       6.724  -0.648   0.218  1.00  0.00     0.174 HD
ENDBRANCH  16  20
ENDBRANCH  14  16
ENDBRANCH   7  14
BRANCH   1  23
HETATM   23  S1  UNL     1      -3.369  -1.582   0.158  1.00  0.00     0.051 S 
HETATM   24  O1  UNL     1      -4.284  -2.169  -1.095  1.00  0.00    -0.253 OA
BRANCH  23  25
HETATM   25  C2  UNL     1      -4.295  -0.528   1.239  1.00  0.00     0.141 C 
BRANCH  25  26
HETATM   26  C1  UNL     1      -4.851   0.668   0.514  1.00  0.00     0.242 C 
BRANCH  26  27
HETATM   27  N1  UNL     1      -5.591   1.478   1.459  1.00  0.00    -0.079 N 
ATOM     28  H13 UNL     1      -6.312   0.947   1.948  1.00  0.00     0.274 HD
ATOM     29  H12 UNL     1      -5.033   1.738   2.272  1.00  0.00     0.274 HD
ATOM     30  H11 UNL     1      -5.968   2.289   0.968  1.00  0.00     0.274 HD
ENDBRANCH  26  27
ENDBRANCH  25  26
ENDBRANCH  23  25
ENDBRANCH   1  23
TORSDOF 8
