REMARK  6 active torsions:
REMARK  status: ('A' for Active; 'I' for Inactive)
REMARK    1  A    between atoms: N1_1  and  C1_5 
REMARK    2  A    between atoms: C1_5  and  C2_6 
REMARK    3  A    between atoms: C2_6  and  C3_7 
REMARK    4  A    between atoms: C3_7  and  N2_8 
REMARK    5  A    between atoms: C4_10  and  C5_11 
REMARK    6  A    between atoms: N6_21  and  C9_23 
ROOT
HETATM    1  C5  UNL     1       0.125   1.293   0.410  1.00  0.00     0.074 C 
HETATM    2  C6  UNL     1       0.365   2.644   0.262  1.00  0.00     0.136 C 
HETATM    3  N3  UNL     1       1.713   2.950  -0.029  1.00  0.00    -0.082 NA
HETATM    4  N4  UNL     1      -0.530   3.641   0.365  1.00  0.00    -0.296 N 
ATOM      5  H4  UNL     1      -0.168   4.570   0.148  1.00  0.00     0.171 HD
HETATM    6  C7  UNL     1      -1.847   3.602   0.715  1.00  0.00     0.327 C 
HETATM    7  O1  UNL     1      -2.340   4.665   1.158  1.00  0.00    -0.247 OA
HETATM    8  N5  UNL     1      -2.678   2.532   0.632  1.00  0.00    -0.291 N 
ATOM      9  H5  UNL     1      -3.672   2.737   0.731  1.00  0.00     0.172 HD
HETATM   10  C8  UNL     1      -2.360   1.206   0.432  1.00  0.00     0.157 C 
HETATM   11  N6  UNL     1      -3.270   0.450   0.025  1.00  0.00    -0.365 N 
ATOM     12  H6  UNL     1      -4.183   0.880  -0.126  1.00  0.00     0.161 HD
HETATM   13  C12 UNL     1      -1.111   0.680   0.653  1.00  0.00     0.230 C 
HETATM   14  O2  UNL     1      -1.092  -0.479   1.125  1.00  0.00    -0.283 OA
ENDROOT
BRANCH   1  15
HETATM   15  C4  UNL     1       1.242   0.387   0.313  1.00  0.00     0.102 C 
HETATM   16  N2  UNL     1       1.052  -0.871   0.446  1.00  0.00    -0.398 N 
ATOM     17  H2  UNL     1       0.113  -1.229   0.620  1.00  0.00     0.158 HD
BRANCH  16  18
HETATM   18  C3  UNL     1       2.159  -1.777   0.351  1.00  0.00     0.120 C 
BRANCH  18  19
HETATM   19  C2  UNL     1       3.427  -1.033   0.049  1.00  0.00     0.047 C 
BRANCH  19  20
HETATM   20  C1  UNL     1       4.577  -2.047  -0.043  1.00  0.00     0.231 C 
BRANCH  20  21
HETATM   21  N1  UNL     1       5.822  -1.377  -0.332  1.00  0.00    -0.079 N 
ATOM     22  H13 UNL     1       5.756  -0.801  -1.172  1.00  0.00     0.274 HD
ATOM     23  H12 UNL     1       6.021  -0.639   0.344  1.00  0.00     0.274 HD
ATOM     24  H11 UNL     1       6.586  -2.050  -0.393  1.00  0.00     0.274 HD
ENDBRANCH  20  21
ENDBRANCH  19  20
ENDBRANCH  18  19
ENDBRANCH  16  18
ENDBRANCH   1  15
BRANCH  11  25
HETATM   25  C9  UNL     1      -3.175  -0.928  -0.248  1.00  0.00     0.134 C 
HETATM   26  C10 UNL     1      -4.438  -1.355  -1.042  1.00  0.00     0.259 C 
HETATM   27  N7  UNL     1      -5.102  -1.440   0.245  1.00  0.00    -0.071 N 
HETATM   28  C11 UNL     1      -3.799  -1.884   0.769  1.00  0.00     0.259 C 
ATOM     29  H72 UNL     1      -5.601  -0.646   0.646  1.00  0.00     0.277 HD
ATOM     30  H71 UNL     1      -5.950  -1.991   0.377  1.00  0.00     0.277 HD
ENDBRANCH  11  25
TORSDOF 6
