REMARK  7 active torsions:
REMARK  status: ('A' for Active; 'I' for Inactive)
REMARK    1  A    between atoms: S1_2  and  N1_5 
REMARK    2  A    between atoms: N1_5  and  N2_7 
REMARK    3  A    between atoms: N2_7  and  C2_9 
REMARK    4  A    between atoms: C2_9  and  C3_10 
REMARK    5  A    between atoms: C3_10  and  N3_11 
REMARK    6  A    between atoms: N3_11  and  C4_13 
REMARK    7  A    between atoms: C5_16  and  N5_17 
ROOT
HETATM    1  C4  UNL     1      -1.710   0.172  -0.005  1.00  0.00     0.147 A 
HETATM    2  N4  UNL     1      -2.138   1.379  -0.400  1.00  0.00    -0.175 N 
ATOM      3  H4  UNL     1      -1.471   2.103  -0.666  1.00  0.00     0.186 HD
HETATM    4  C5  UNL     1      -3.478   1.624  -0.441  1.00  0.00     0.679 A 
HETATM    5  N6  UNL     1      -4.355   0.663  -0.089  1.00  0.00    -0.174 N 
ATOM      6  H6  UNL     1      -5.353   0.869  -0.128  1.00  0.00     0.186 HD
HETATM    7  C6  UNL     1      -3.958  -0.562   0.313  1.00  0.00     0.152 A 
HETATM    8  N7  UNL     1      -4.579  -1.690   0.714  1.00  0.00    -0.336 N 
ATOM      9  H7  UNL     1      -5.588  -1.817   0.788  1.00  0.00     0.168 HD
HETATM   10  C7  UNL     1      -3.649  -2.621   1.000  1.00  0.00     0.182 A 
HETATM   11  N8  UNL     1      -2.433  -2.102   0.786  1.00  0.00    -0.346 N 
ATOM     12  H8  UNL     1      -1.540  -2.577   0.918  1.00  0.00     0.167 HD
HETATM   13  C8  UNL     1      -2.609  -0.834   0.363  1.00  0.00     0.123 A 
ENDROOT
BRANCH   1  14
HETATM   14  N3  UNL     1      -0.453  -0.073   0.039  1.00  0.00    -0.372 N 
ATOM     15  H3  UNL     1      -0.142  -0.996   0.342  1.00  0.00     0.161 HD
BRANCH  14  16
HETATM   16  C3  UNL     1       0.527   0.899  -0.320  1.00  0.00     0.142 C 
BRANCH  16  17
HETATM   17  C2  UNL     1       1.913   0.365   0.070  1.00  0.00     0.159 C 
BRANCH  17  18
HETATM   18  N2  UNL     1       2.862   1.356  -0.302  1.00  0.00    -0.326 N 
ATOM     19  H2  UNL     1       2.580   2.231  -0.743  1.00  0.00     0.180 HD
BRANCH  18  20
HETATM   20  N1  UNL     1       4.172   1.072  -0.036  1.00  0.00    -0.232 N 
ATOM     21  H1  UNL     1       4.802   1.749   0.394  1.00  0.00     0.199 HD
BRANCH  20  22
HETATM   22  S1  UNL     1       4.679  -0.497  -0.475  1.00  0.00     0.239 S 
HETATM   23  C1  UNL     1       4.457  -1.673   0.848  1.00  0.00     0.187 C 
HETATM   24  O1  UNL     1       4.070  -0.986  -1.750  1.00  0.00    -0.205 OA
HETATM   25  O2  UNL     1       6.181  -0.429  -0.722  1.00  0.00    -0.205 OA
ENDBRANCH  20  22
ENDBRANCH  18  20
ENDBRANCH  17  18
ENDBRANCH  16  17
ENDBRANCH  14  16
ENDBRANCH   1  14
BRANCH   4  26
HETATM   26  N5  UNL     1      -3.848   2.805  -0.829  1.00  0.00    -0.234 N 
ATOM     27  H52 UNL     1      -3.184   3.532  -1.095  1.00  0.00     0.174 HD
ATOM     28  H51 UNL     1      -4.851   2.988  -0.860  1.00  0.00     0.174 HD
ENDBRANCH   4  26
TORSDOF 7
