REMARK  5 active torsions:
REMARK  status: ('A' for Active; 'I' for Inactive)
REMARK    1  A    between atoms: C6_6  and  C7_7 
REMARK    2  A    between atoms: N1_8  and  N2_10 
REMARK       I    between atoms: N2_10  and  C8_12 
REMARK    3  A    between atoms: C8_12  and  C9_14 
REMARK    4  A    between atoms: C9_14  and  N3_15 
REMARK    5  A    between atoms: C9_14  and  C10_19 
ROOT
HETATM    1  N2  UNL     1       1.666   0.244  -0.735  1.00  0.00    -0.268 N 
ATOM      2  H2  UNL     1       2.065   0.308  -1.672  1.00  0.00     0.190 HD
HETATM    3  C8  UNL     1       2.520   0.185   0.392  1.00  0.00     0.271 C 
HETATM    4  O1  UNL     1       2.088   0.106   1.573  1.00  0.00    -0.269 OA
ENDROOT
BRANCH   1   5
HETATM    5  N1  UNL     1       0.287   0.215  -0.571  1.00  0.00    -0.308 N 
HETATM    6  C7  UNL     1      -0.249  -0.849  -0.102  1.00  0.00     0.118 C 
ATOM      7  H1  UNL     1      -0.285   1.022  -0.818  1.00  0.00     0.186 HD
BRANCH   6   8
HETATM    8  C6  UNL     1      -1.694  -0.879   0.070  1.00  0.00    -0.019 A 
HETATM    9  C5  UNL     1      -2.329  -1.995   0.569  1.00  0.00     0.013 A 
HETATM   10  C4  UNL     1      -3.688  -2.028   0.733  1.00  0.00     0.001 A 
HETATM   11  C3  UNL     1      -4.458  -0.916   0.390  1.00  0.00     0.007 A 
HETATM   12  C2  UNL     1      -3.856   0.219  -0.113  1.00  0.00    -0.061 A 
HETATM   13  C1  UNL     1      -4.702   1.393  -0.470  1.00  0.00     0.048 C 
HETATM   14  C11 UNL     1      -2.496   0.201  -0.257  1.00  0.00     0.019 A 
ENDBRANCH   6   8
ENDBRANCH   1   5
BRANCH   3  15
HETATM   15  C9  UNL     1       3.988   0.218   0.184  1.00  0.00     0.314 C 
BRANCH  15  16
HETATM   16  N3  UNL     1       4.672   0.149   1.448  1.00  0.00    -0.062 N 
ATOM     17  H33 UNL     1       4.362   0.879   2.089  1.00  0.00     0.275 HD
ATOM     18  H32 UNL     1       4.383  -0.663   1.993  1.00  0.00     0.275 HD
ATOM     19  H31 UNL     1       5.682   0.172   1.305  1.00  0.00     0.275 HD
ENDBRANCH  15  16
BRANCH  15  20
HETATM   20  C10 UNL     1       4.342   1.409  -0.602  1.00  0.00     0.095 C 
HETATM   21  N4  UNL     1       5.326   1.369  -1.416  1.00  0.00    -0.409 N 
ATOM     22  H42 UNL     1       5.856   0.502  -1.509  1.00  0.00     0.155 HD
ATOM     23  H41 UNL     1       5.572   2.195  -1.961  1.00  0.00     0.155 HD
ENDBRANCH  15  20
ENDBRANCH   3  15
TORSDOF 5
