REMARK  7 active torsions:
REMARK  status: ('A' for Active; 'I' for Inactive)
REMARK    1  A    between atoms: N2_5  and  C4_6 
REMARK    2  A    between atoms: C5_9  and  N4_10 
REMARK    3  A    between atoms: N4_10  and  C6_12 
REMARK    4  A    between atoms: C11_17  and  C12_18 
REMARK    5  A    between atoms: C13_19  and  C14_20 
REMARK    6  A    between atoms: C18_26  and  N6_27 
REMARK    7  A    between atoms: N9_38  and  C25_40 
ROOT
HETATM    1  N4  UNL     1      -0.457   0.628   2.862  1.00  0.00    -0.189 N 
ATOM      2  H4  UNL     1       0.274   1.306   3.075  1.00  0.00     0.184 HD
ENDROOT
BRANCH   1   3
HETATM    3  C5  UNL     1      -1.369   0.890   1.976  1.00  0.00     0.711 A 
HETATM    4  N3  UNL     1      -2.346  -0.014   1.688  1.00  0.00    -0.021 N 
HETATM    5  C4  UNL     1      -3.293   0.246   0.773  1.00  0.00     0.709 A 
ATOM      6  H3  UNL     1      -2.358  -0.908   2.178  1.00  0.00     0.203 HD
HETATM    7  N10 UNL     1      -3.289   1.419   0.120  1.00  0.00    -0.021 N 
HETATM    8  C24 UNL     1      -2.327   2.358   0.375  1.00  0.00     0.711 A 
ATOM      9  H10 UNL     1      -4.011   1.612  -0.574  1.00  0.00     0.203 HD
HETATM   10  N8  UNL     1      -1.403   2.047   1.300  1.00  0.00    -0.021 N 
HETATM   11  N9  UNL     1      -2.304   3.494  -0.242  1.00  0.00    -0.191 N 
ATOM     12  H8  UNL     1      -0.679   2.737   1.501  1.00  0.00     0.203 HD
ATOM     13  H9  UNL     1      -1.561   4.152  -0.007  1.00  0.00     0.184 HD
BRANCH   5  14
HETATM   14  N2  UNL     1      -4.309  -0.696   0.475  1.00  0.00    -0.213 N 
HETATM   15  C3  UNL     1      -5.351  -0.481  -0.506  1.00  0.00     0.171 C 
HETATM   16  C2  UNL     1      -5.757  -1.815  -1.082  1.00  0.00     0.292 C 
HETATM   17  N1  UNL     1      -6.291  -2.728  -0.116  1.00  0.00     0.087 N 
HETATM   18  C1  UNL     1      -6.158  -4.114  -0.523  1.00  0.00     0.310 C 
HETATM   19  C32 UNL     1      -5.763  -2.523   1.215  1.00  0.00     0.292 C 
HETATM   20  C31 UNL     1      -4.349  -1.981   1.180  1.00  0.00     0.171 C 
ENDBRANCH   5  14
BRANCH  11  21
HETATM   21  C25 UNL     1      -3.238   3.875  -1.214  1.00  0.00     0.049 A 
HETATM   22  C26 UNL     1      -3.088   3.441  -2.513  1.00  0.00     0.030 A 
HETATM   23  C27 UNL     1      -4.026   3.836  -3.443  1.00  0.00     0.002 A 
HETATM   24  C28 UNL     1      -5.103   4.643  -3.135  1.00  0.00     0.000 A 
HETATM   25  C29 UNL     1      -5.231   5.063  -1.835  1.00  0.00     0.002 A 
HETATM   26  C30 UNL     1      -4.309   4.685  -0.883  1.00  0.00     0.030 A 
ENDBRANCH  11  21
ENDBRANCH   1   3
BRANCH   1  27
HETATM   27  C6  UNL     1      -0.502  -0.622   3.525  1.00  0.00     0.068 A 
HETATM   28  C7  UNL     1      -1.563  -0.977   4.358  1.00  0.00     0.031 A 
HETATM   29  C8  UNL     1      -1.595  -2.200   4.999  1.00  0.00     0.002 A 
HETATM   30  C9  UNL     1      -0.556  -3.085   4.809  1.00  0.00     0.002 A 
HETATM   31  C10 UNL     1       0.490  -2.730   3.986  1.00  0.00     0.023 A 
HETATM   32  C11 UNL     1       0.534  -1.499   3.334  1.00  0.00     0.045 A 
BRANCH  32  33
HETATM   33  C12 UNL     1       1.621  -1.125   2.475  1.00  0.00    -0.058 C 
HETATM   34  C13 UNL     1       2.548  -0.828   1.751  1.00  0.00    -0.043 C 
BRANCH  34  35
HETATM   35  C14 UNL     1       3.660  -0.494   0.905  1.00  0.00     0.087 A 
HETATM   36  C15 UNL     1       3.485   0.321  -0.201  1.00  0.00     0.041 A 
HETATM   37  C16 UNL     1       4.536   0.658  -1.031  1.00  0.00     0.035 A 
HETATM   38  C17 UNL     1       5.807   0.182  -0.772  1.00  0.00     0.060 A 
HETATM   39  N5  UNL     1       6.861   0.483  -1.552  1.00  0.00    -0.341 N 
HETATM   40  C23 UNL     1       5.955  -0.630   0.340  1.00  0.00     0.060 A 
HETATM   41  C18 UNL     1       8.112   0.025  -1.312  1.00  0.00     0.102 A 
ATOM     42  H5  UNL     1       6.710   1.084  -2.362  1.00  0.00     0.167 HD
HETATM   43  C21 UNL     1       8.303  -0.786  -0.215  1.00  0.00     0.051 A 
HETATM   44  C22 UNL     1       7.236  -1.101   0.589  1.00  0.00     0.035 A 
HETATM   45  N7  UNL     1       4.904  -0.938   1.129  1.00  0.00    -0.347 N 
ATOM     46  H7  UNL     1       5.065  -1.539   1.937  1.00  0.00     0.167 HD
BRANCH  41  47
HETATM   47  N6  UNL     1       9.205   0.371  -2.169  1.00  0.00    -0.376 N 
HETATM   48  C19 UNL     1      10.511  -0.140  -1.873  1.00  0.00     0.150 C 
HETATM   49  C20 UNL     1       9.027   1.218  -3.320  1.00  0.00     0.150 C 
ENDBRANCH  41  47
ENDBRANCH  34  35
ENDBRANCH  32  33
ENDBRANCH   1  27
TORSDOF 7
