REMARK  10 active torsions:
REMARK  status: ('A' for Active; 'I' for Inactive)
REMARK    1  A    between atoms: C2_2  and  C5_5 
REMARK    2  A    between atoms: C5_5  and  N1_6 
REMARK    3  A    between atoms: C5_5  and  C17_20 
REMARK       I    between atoms: N1_6  and  C6_8 
REMARK    4  A    between atoms: C6_8  and  C7_10 
REMARK    5  A    between atoms: C17_20  and  O2_21 
REMARK    6  A    between atoms: C17_20  and  C18_23 
REMARK    7  A    between atoms: C18_23  and  C19_26 
REMARK    8  A    between atoms: C19_26  and  O3_27 
REMARK    9  A    between atoms: C19_26  and  C20_29 
REMARK       I    between atoms: C20_29  and  N2_31 
REMARK   10  A    between atoms: C24_35  and  C25_36 
ROOT
HETATM    1  C5  UNL     1      -0.345  -1.999  -0.670  1.00  0.00     0.126 C 
ENDROOT
BRANCH   1   2
HETATM    2  C2  UNL     1      -0.663  -3.020   0.322  1.00  0.00    -0.028 C 
HETATM    3  C1  UNL     1      -0.062  -4.348   0.353  1.00  0.00     0.016 C 
HETATM    4  C3  UNL     1      -0.443  -2.409   1.722  1.00  0.00     0.016 C 
HETATM    5  C4  UNL     1      -2.202  -3.261   0.294  1.00  0.00     0.016 C 
ENDBRANCH   1   2
BRANCH   1   6
HETATM    6  N1  UNL     1      -1.250  -0.845  -0.276  1.00  0.00    -0.352 N 
HETATM    7  C6  UNL     1      -2.267  -0.392  -1.115  1.00  0.00     0.226 C 
HETATM    8  O1  UNL     1      -2.478  -0.933  -2.249  1.00  0.00    -0.273 OA
ATOM      9  H1  UNL     1      -1.110  -0.390   0.626  1.00  0.00     0.163 HD
BRANCH   7  10
HETATM   10  C7  UNL     1      -3.129   0.722  -0.719  1.00  0.00     0.042 C 
HETATM   11  C8  UNL     1      -4.134   1.001  -1.813  1.00  0.00     0.024 C 
HETATM   12  C9  UNL     1      -5.092   2.092  -1.457  1.00  0.00    -0.013 C 
HETATM   13  C10 UNL     1      -4.314   3.368  -1.264  1.00  0.00     0.009 C 
HETATM   14  C14 UNL     1      -5.814   1.690  -0.196  1.00  0.00     0.009 C 
HETATM   15  C11 UNL     1      -3.292   3.118  -0.183  1.00  0.00    -0.013 C 
HETATM   16  C12 UNL     1      -4.047   2.861   1.106  1.00  0.00     0.009 C 
HETATM   17  C16 UNL     1      -2.339   2.016  -0.532  1.00  0.00     0.024 C 
HETATM   18  C13 UNL     1      -4.802   1.557   0.910  1.00  0.00    -0.013 C 
HETATM   19  C15 UNL     1      -3.823   0.473   0.614  1.00  0.00     0.024 C 
ENDBRANCH   7  10
ENDBRANCH   1   6
BRANCH   1  20
HETATM   20  C17 UNL     1       0.987  -1.353  -0.759  1.00  0.00     0.217 C 
BRANCH  20  21
HETATM   21  O2  UNL     1       0.745  -0.264  -1.726  1.00  0.00    -0.387 OA
ATOM     22  H2  UNL     1       1.598   0.150  -1.783  1.00  0.00     0.210 HD
ENDBRANCH  20  21
BRANCH  20  23
HETATM   23  C18 UNL     1       2.073  -2.097  -1.486  1.00  0.00     0.304 C 
HETATM   24  F1  UNL     1       2.422  -3.311  -1.031  1.00  0.00    -0.200 F 
HETATM   25  F2  UNL     1       1.744  -2.187  -2.837  1.00  0.00    -0.200 F 
BRANCH  23  26
HETATM   26  C19 UNL     1       3.402  -1.300  -1.493  1.00  0.00     0.285 C 
BRANCH  26  27
HETATM   27  O3  UNL     1       3.306  -0.098  -2.104  1.00  0.00    -0.380 OA
ATOM     28  H3  UNL     1       4.121   0.391  -2.108  1.00  0.00     0.210 HD
ENDBRANCH  26  27
BRANCH  26  29
HETATM   29  C20 UNL     1       4.078  -1.364  -0.198  1.00  0.00     0.255 C 
HETATM   30  O4  UNL     1       4.033  -2.497   0.405  1.00  0.00    -0.270 OA
HETATM   31  N2  UNL     1       4.753  -0.324   0.419  1.00  0.00    -0.337 N 
HETATM   32  C21 UNL     1       5.413  -0.477   1.737  1.00  0.00     0.127 C 
HETATM   33  C24 UNL     1       5.028   1.031   0.059  1.00  0.00     0.176 C 
HETATM   34  C22 UNL     1       6.810   0.046   1.382  1.00  0.00     0.022 C 
HETATM   35  C23 UNL     1       6.449   1.285   0.603  1.00  0.00     0.036 C 
BRANCH  33  36
HETATM   36  C25 UNL     1       4.122   1.938   0.789  1.00  0.00     0.254 C 
HETATM   37  N3  UNL     1       4.218   3.354   0.717  1.00  0.00    -0.060 NA
HETATM   38  O5  UNL     1       3.217   1.476   1.513  1.00  0.00    -0.275 OA
ENDBRANCH  33  36
ENDBRANCH  26  29
ENDBRANCH  23  26
ENDBRANCH  20  23
ENDBRANCH   1  20
TORSDOF 10
