REMARK  10 active torsions:
REMARK  status: ('A' for Active; 'I' for Inactive)
REMARK    1  A    between atoms: C2_2  and  C3_3 
REMARK    2  A    between atoms: C3_3  and  C5_5 
REMARK    3  A    between atoms: C5_5  and  C6_6 
REMARK    4  A    between atoms: C5_5  and  N1_9 
REMARK    5  A    between atoms: C5_5  and  C13_18 
REMARK    6  A    between atoms: C6_6  and  O1_7 
REMARK    7  A    between atoms: C13_18  and  O2_19 
REMARK    8  A    between atoms: C13_18  and  N3_21 
REMARK    9  A    between atoms: C16_24  and  N4_25 
REMARK       I    between atoms: N5_28  and  C19_29 
REMARK   10  A    between atoms: C21_35  and  C22_36 
ROOT
HETATM    1  N3  UNL     1       0.244   0.717  -1.376  1.00  0.00    -0.363 N 
HETATM    2  C14 UNL     1       1.041   1.897  -1.910  1.00  0.00     0.127 C 
HETATM    3  C15 UNL     1       2.308   2.049  -1.069  1.00  0.00     0.055 C 
HETATM    4  C16 UNL     1       3.081   0.772  -1.143  1.00  0.00     0.227 C 
HETATM    5  C23 UNL     1       2.237  -0.292  -0.500  1.00  0.00     0.055 C 
HETATM    6  C24 UNL     1       1.016  -0.468  -1.440  1.00  0.00     0.127 C 
ENDROOT
BRANCH   1   7
HETATM    7  C13 UNL     1      -1.021   1.036  -0.939  1.00  0.00     0.145 C 
BRANCH   7   8
HETATM    8  C5  UNL     1      -2.129   0.179  -0.356  1.00  0.00     0.119 C 
BRANCH   8   9
HETATM    9  C3  UNL     1      -2.459  -0.844  -1.381  1.00  0.00     0.020 C 
HETATM   10  C4  UNL     1      -3.040  -0.241  -2.670  1.00  0.00     0.013 C 
BRANCH   9  11
HETATM   11  C2  UNL     1      -3.330  -1.982  -0.970  1.00  0.00     0.002 C 
HETATM   12  C1  UNL     1      -3.362  -3.067  -2.056  1.00  0.00     0.005 C 
ENDBRANCH   9  11
ENDBRANCH   8   9
BRANCH   8  13
HETATM   13  C6  UNL     1      -1.459  -0.530   0.801  1.00  0.00     0.204 C 
BRANCH  13  14
HETATM   14  O1  UNL     1      -0.874   0.311   1.728  1.00  0.00    -0.398 OA
ATOM     15  H1  UNL     1      -0.453  -0.134   2.454  1.00  0.00     0.209 HD
ENDBRANCH  13  14
ENDBRANCH   8  13
BRANCH   8  16
HETATM   16  N1  UNL     1      -3.160   1.012  -0.044  1.00  0.00    -0.378 N 
HETATM   17  C7  UNL     1      -4.381   0.945   0.530  1.00  0.00    -0.014 C 
HETATM   18  C8  UNL     1      -4.497   0.404   1.952  1.00  0.00     0.082 C 
HETATM   19  C12 UNL     1      -5.675   0.759  -0.157  1.00  0.00     0.082 C 
HETATM   20  C9  UNL     1      -5.741   1.037   2.547  1.00  0.00     0.277 C 
HETATM   21  N2  UNL     1      -6.878   0.372   1.955  1.00  0.00     0.084 N 
HETATM   22  C10 UNL     1      -7.216  -0.748   2.814  1.00  0.00     0.309 C 
HETATM   23  C11 UNL     1      -6.644  -0.118   0.640  1.00  0.00     0.277 C 
ATOM     24  H1  UNL     1      -2.948   1.969  -0.327  1.00  0.00     0.160 HD
ENDBRANCH   8  16
ENDBRANCH   7   8
BRANCH   7  25
HETATM   25  O2  UNL     1      -1.314   2.301  -1.044  1.00  0.00    -0.347 OA
ATOM     26  H2  UNL     1      -0.620   2.838  -1.409  1.00  0.00     0.219 HD
ENDBRANCH   7  25
ENDBRANCH   1   7
BRANCH   4  27
HETATM   27  N4  UNL     1       4.436   0.827  -0.691  1.00  0.00     0.110 N 
HETATM   28  C17 UNL     1       5.057  -0.429  -1.119  1.00  0.00     0.293 C 
HETATM   29  C18 UNL     1       6.560  -0.368  -0.909  1.00  0.00     0.156 C 
HETATM   30  N5  UNL     1       6.747  -0.173   0.516  1.00  0.00    -0.352 N 
HETATM   31  C19 UNL     1       8.044  -0.193   1.042  1.00  0.00     0.184 C 
HETATM   32  C20 UNL     1       5.547   0.029   1.304  1.00  0.00     0.170 C 
HETATM   33  N6  UNL     1       9.057  -0.235   0.240  1.00  0.00    -0.374 N 
HETATM   34  N7  UNL     1       8.333  -0.168   2.438  1.00  0.00    -0.064 NA
ATOM     35  H62 UNL     1       8.850  -0.253  -0.759  1.00  0.00     0.158 HD
ATOM     36  H61 UNL     1      10.002  -0.250   0.623  1.00  0.00     0.158 HD
HETATM   37  C21 UNL     1       4.637   1.099   0.683  1.00  0.00     0.347 C 
BRANCH  37  38
HETATM   38  C22 UNL     1       5.326   2.418   0.985  1.00  0.00     0.419 C 
HETATM   39  F1  UNL     1       6.583   2.496   0.416  1.00  0.00    -0.169 F 
HETATM   40  F2  UNL     1       4.549   3.516   0.676  1.00  0.00    -0.169 F 
HETATM   41  F3  UNL     1       5.564   2.529   2.365  1.00  0.00    -0.169 F 
ENDBRANCH  37  38
ENDBRANCH   4  27
TORSDOF 10
