REMARK  9 active torsions:
REMARK  status: ('A' for Active; 'I' for Inactive)
REMARK    1  A    between atoms: S1_2  and  C2_4 
REMARK    2  A    between atoms: C2_4  and  C3_5 
REMARK    3  A    between atoms: C3_5  and  C4_6 
REMARK    4  A    between atoms: C10_16  and  O2_17 
REMARK    5  A    between atoms: C11_19  and  C12_20 
REMARK    6  A    between atoms: C12_20  and  C13_21 
REMARK    7  A    between atoms: C16_26  and  C17_27 
REMARK    8  A    between atoms: C17_27  and  C18_28 
REMARK    9  A    between atoms: C19_31  and  O5_32 
ROOT
HETATM    1  C4  UNL     1       3.053   0.213   1.313  1.00  0.00     0.049 C 
HETATM    2  C5  UNL     1       3.621   1.518   0.935  1.00  0.00     0.143 C 
HETATM    3  C6  UNL     1       2.716   2.716   1.380  1.00  0.00     0.249 C 
HETATM    4  F1  UNL     1       3.384   3.885   1.183  1.00  0.00    -0.206 F 
HETATM    5  F2  UNL     1       2.458   2.471   2.718  1.00  0.00    -0.206 F 
HETATM    6  C7  UNL     1       1.463   2.568   0.586  1.00  0.00     0.081 C 
HETATM    7  C8  UNL     1       0.415   3.608   0.764  1.00  0.00     0.025 C 
HETATM    8  C9  UNL     1      -0.848   3.128   0.019  1.00  0.00     0.121 C 
HETATM    9  N1  UNL     1      -0.736   1.732  -0.315  1.00  0.00    -0.373 N 
ATOM     10  H1  UNL     1       0.110   1.487  -0.829  1.00  0.00     0.161 HD
HETATM   11  C10 UNL     1      -1.593   0.648  -0.054  1.00  0.00     0.134 C 
HETATM   12  C11 UNL     1      -2.892   0.301  -0.617  1.00  0.00     0.156 C 
HETATM   13  N2  UNL     1      -2.824  -1.185  -0.809  1.00  0.00    -0.377 N 
ATOM     14  H2  UNL     1      -3.000  -1.873  -0.077  1.00  0.00     0.160 HD
HETATM   15  C16 UNL     1      -2.480  -1.504  -2.153  1.00  0.00     0.067 C 
HETATM   16  C19 UNL     1      -1.129  -1.283  -2.625  1.00  0.00     0.159 C 
HETATM   17  N3  UNL     1       0.055  -2.020  -2.534  1.00  0.00    -0.369 N 
ATOM     18  H3  UNL     1       0.339  -2.470  -3.404  1.00  0.00     0.161 HD
HETATM   19  C20 UNL     1       0.947  -2.255  -1.422  1.00  0.00     0.123 C 
HETATM   20  C21 UNL     1       2.346  -1.731  -1.631  1.00  0.00     0.046 C 
HETATM   21  C22 UNL     1       2.620  -0.418  -0.916  1.00  0.00     0.176 C 
HETATM   22  O6  UNL     1       2.214  -0.381   0.368  1.00  0.00    -0.355 OA
ENDROOT
BRANCH   1  23
HETATM   23  C3  UNL     1       3.933  -0.825   1.926  1.00  0.00     0.018 C 
BRANCH  23  24
HETATM   24  C2  UNL     1       5.051  -1.397   1.250  1.00  0.00     0.138 C 
BRANCH  24  25
HETATM   25  S1  UNL     1       6.282  -0.142   0.874  1.00  0.00     0.014 S 
HETATM   26  C1  UNL     1       6.802   0.425  -0.092  1.00  0.00     0.127 C 
HETATM   27  O1  UNL     1       6.341  -0.171   2.437  1.00  0.00    -0.258 OA
ENDBRANCH  24  25
ENDBRANCH  23  24
ENDBRANCH   1  23
BRANCH  16  28
HETATM   28  O5  UNL     1      -0.953  -0.163  -3.282  1.00  0.00    -0.345 OA
ATOM     29  H5  UNL     1      -0.067  -0.018  -3.592  1.00  0.00     0.219 HD
ENDBRANCH  16  28
BRANCH  11  30
HETATM   30  O2  UNL     1      -1.163  -0.199   0.835  1.00  0.00    -0.348 OA
ATOM     31  H2  UNL     1      -1.742  -0.931   1.011  1.00  0.00     0.219 HD
ENDBRANCH  11  30
BRANCH  15  32
HETATM   32  C17 UNL     1      -3.127  -2.812  -2.541  1.00  0.00     0.174 C 
BRANCH  32  33
HETATM   33  C18 UNL     1      -2.797  -3.975  -1.750  1.00  0.00     0.178 C 
HETATM   34  O3  UNL     1      -2.085  -3.941  -0.737  1.00  0.00    -0.648 OA
HETATM   35  O4  UNL     1      -3.297  -5.214  -2.127  1.00  0.00    -0.648 OA
ENDBRANCH  32  33
ENDBRANCH  15  32
BRANCH  12  36
HETATM   36  C12 UNL     1      -4.116   0.749   0.043  1.00  0.00     0.037 C 
BRANCH  36  37
HETATM   37  C13 UNL     1      -4.464   0.377   1.421  1.00  0.00    -0.020 C 
HETATM   38  C14 UNL     1      -5.873   0.973   1.777  1.00  0.00     0.009 C 
HETATM   39  C15 UNL     1      -3.493   0.992   2.433  1.00  0.00     0.009 C 
ENDBRANCH  36  37
ENDBRANCH  12  36
TORSDOF 9
