REMARK  7 active torsions:
REMARK  status: ('A' for Active; 'I' for Inactive)
REMARK    1  A    between atoms: C2_2  and  C4_4 
REMARK    2  A    between atoms: C4_4  and  C5_5 
REMARK    3  A    between atoms: N2_9  and  C7_11 
REMARK    4  A    between atoms: C7_11  and  C8_12 
REMARK    5  A    between atoms: C9_15  and  N3_16 
REMARK    6  A    between atoms: C10_20  and  C11_21 
REMARK    7  A    between atoms: C16_33  and  C17_34 
ROOT
HETATM    1  C5  UNL     1       0.785   0.888   0.019  1.00  0.00     0.183 C 
HETATM    2  N1  UNL     1       1.584  -0.151   0.751  1.00  0.00    -0.364 N 
ATOM      3  H1  UNL     1       1.502  -0.216   1.766  1.00  0.00     0.161 HD
HETATM    4  C6  UNL     1       2.443  -1.038   0.075  1.00  0.00     0.107 C 
HETATM    5  N2  UNL     1       3.541  -1.399   0.618  1.00  0.00    -0.376 N 
ATOM      6  H2  UNL     1       4.148  -2.044   0.112  1.00  0.00     0.160 HD
HETATM    7  C9  UNL     1       2.130  -1.589  -1.279  1.00  0.00     0.279 C 
HETATM    8  C10 UNL     1       1.120  -2.684  -1.198  1.00  0.00     0.183 C 
HETATM    9  N4  UNL     1      -0.105  -2.242  -1.821  1.00  0.00    -0.346 N 
ATOM     10  H4  UNL     1       0.006  -1.500  -2.512  1.00  0.00     0.163 HD
HETATM   11  C12 UNL     1      -1.408  -2.669  -1.626  1.00  0.00     0.240 C 
HETATM   12  O2  UNL     1      -2.049  -3.077  -2.679  1.00  0.00    -0.271 OA
HETATM   13  C13 UNL     1      -2.211  -2.739  -0.389  1.00  0.00     0.172 C 
HETATM   14  C14 UNL     1      -1.435  -2.854   0.882  1.00  0.00     0.042 C 
HETATM   15  N5  UNL     1      -3.276  -1.756  -0.312  1.00  0.00    -0.346 N 
ATOM     16  H5  UNL     1      -4.117  -2.088   0.161  1.00  0.00     0.163 HD
HETATM   17  C15 UNL     1      -3.359  -0.453  -0.762  1.00  0.00     0.248 C 
HETATM   18  O3  UNL     1      -4.251  -0.201  -1.664  1.00  0.00    -0.271 OA
HETATM   19  C16 UNL     1      -2.583   0.755  -0.384  1.00  0.00     0.227 C 
HETATM   20  O4  UNL     1      -1.666   0.581   0.620  1.00  0.00    -0.304 OA
HETATM   21  C20 UNL     1      -0.423   1.008   0.875  1.00  0.00     0.282 C 
HETATM   22  O5  UNL     1      -0.210   1.597   1.997  1.00  0.00    -0.263 OA
ENDROOT
BRANCH   5  23
HETATM   23  C7  UNL     1       3.955  -0.934   1.910  1.00  0.00     0.157 C 
BRANCH  23  24
HETATM   24  C8  UNL     1       4.024  -2.058   2.929  1.00  0.00     0.196 C 
HETATM   25 CL1  UNL     1       5.222  -3.238   2.298  1.00  0.00    -0.106 Cl
HETATM   26 CL2  UNL     1       2.452  -2.850   3.130  1.00  0.00    -0.106 Cl
ENDBRANCH  23  24
ENDBRANCH   5  23
BRANCH   7  27
HETATM   27  N3  UNL     1       3.360  -2.107  -1.836  1.00  0.00    -0.066 N 
ATOM     28  H33 UNL     1       4.110  -1.416  -1.852  1.00  0.00     0.275 HD
ATOM     29  H32 UNL     1       3.816  -2.786  -1.227  1.00  0.00     0.275 HD
ATOM     30  H31 UNL     1       3.146  -2.483  -2.760  1.00  0.00     0.275 HD
ENDBRANCH   7  27
BRANCH   1  31
HETATM   31  C4  UNL     1       1.647   2.109   0.105  1.00  0.00     0.039 C 
BRANCH  31  32
HETATM   32  C2  UNL     1       1.228   3.345  -0.564  1.00  0.00    -0.020 C 
HETATM   33  C1  UNL     1       2.339   4.408  -0.314  1.00  0.00     0.009 C 
HETATM   34  C3  UNL     1      -0.001   3.967   0.028  1.00  0.00     0.009 C 
ENDBRANCH  31  32
ENDBRANCH   1  31
BRANCH   8  35
HETATM   35  C11 UNL     1       1.662  -3.860  -1.988  1.00  0.00     0.258 C 
HETATM   36  O1  UNL     1       1.069  -4.265  -2.962  1.00  0.00    -0.305 OA
ENDBRANCH   8  35
BRANCH  19  37
HETATM   37  C17 UNL     1      -3.591   1.798   0.150  1.00  0.00     0.016 C 
HETATM   38  C18 UNL     1      -4.615   2.193  -0.849  1.00  0.00     0.012 C 
HETATM   39  C19 UNL     1      -4.223   1.268   1.434  1.00  0.00     0.012 C 
ENDBRANCH  19  37
TORSDOF 7
