REMARK  9 active torsions:
REMARK  status: ('A' for Active; 'I' for Inactive)
REMARK       I    between atoms: C2_2  and  N1_4 
REMARK    1  A    between atoms: N1_4  and  C3_6 
REMARK    2  A    between atoms: C6_9  and  N2_10 
REMARK    3  A    between atoms: N2_10  and  C7_11 
REMARK    4  A    between atoms: N2_10  and  C18_30 
REMARK    5  A    between atoms: C7_11  and  O2_12 
REMARK    6  A    between atoms: C7_11  and  C8_14 
REMARK    7  A    between atoms: C13_20  and  C14_21 
REMARK       I    between atoms: C14_21  and  N3_23 
REMARK    8  A    between atoms: N3_23  and  C15_24 
REMARK    9  A    between atoms: C15_24  and  C17_26 
ROOT
HETATM    1  N2  UNL     1       0.861  -0.922  -0.074  1.00  0.00    -0.355 N 
ENDROOT
BRANCH   1   2
HETATM    2  C6  UNL     1       2.092  -0.213   0.324  1.00  0.00     0.086 C 
HETATM    3  C5  UNL     1       2.830   0.408  -0.812  1.00  0.00     0.027 C 
HETATM    4  C4  UNL     1       3.700   1.551  -0.318  1.00  0.00     0.027 C 
HETATM    5  C3  UNL     1       4.300   1.256   1.025  1.00  0.00     0.084 C 
HETATM    6  C24 UNL     1       3.251   0.993   2.083  1.00  0.00     0.027 C 
HETATM    7  C23 UNL     1       1.873   0.783   1.416  1.00  0.00     0.027 C 
BRANCH   5   8
HETATM    8  N1  UNL     1       5.066   2.421   1.449  1.00  0.00    -0.357 N 
HETATM    9  C2  UNL     1       6.449   2.260   1.821  1.00  0.00     0.213 C 
HETATM   10  C1  UNL     1       7.225   3.420   2.237  1.00  0.00     0.117 C 
HETATM   11  O1  UNL     1       7.008   1.135   1.793  1.00  0.00    -0.274 OA
ATOM     12  H1  UNL     1       4.628   3.341   1.482  1.00  0.00     0.162 HD
ENDBRANCH   5   8
ENDBRANCH   1   2
BRANCH   1  13
HETATM   13  C7  UNL     1      -0.176  -0.175  -0.613  1.00  0.00     0.121 C 
BRANCH  13  14
HETATM   14  O2  UNL     1       0.094   1.123  -0.682  1.00  0.00    -0.349 OA
ATOM     15  H2  UNL     1      -0.616   1.635  -1.051  1.00  0.00     0.219 HD
ENDBRANCH  13  14
BRANCH  13  16
HETATM   16  C8  UNL     1      -1.487  -0.461  -1.123  1.00  0.00     0.106 C 
HETATM   17  C9  UNL     1      -1.672  -1.123  -2.429  1.00  0.00     0.134 C 
HETATM   18  C10 UNL     1      -2.943  -1.996  -2.302  1.00  0.00     0.035 C 
HETATM   19  O3  UNL     1      -2.220  -0.163  -3.320  1.00  0.00    -0.379 OA
HETATM   20  C11 UNL     1      -3.947  -0.905  -2.001  1.00  0.00     0.035 C 
HETATM   21  C12 UNL     1      -3.226   0.347  -2.465  1.00  0.00     0.137 C 
HETATM   22  C13 UNL     1      -2.348   0.800  -1.323  1.00  0.00     0.136 C 
BRANCH  22  23
HETATM   23  C14 UNL     1      -3.168   1.090  -0.067  1.00  0.00     0.294 C 
HETATM   24  O4  UNL     1      -2.698   0.444   0.937  1.00  0.00    -0.257 OA
HETATM   25  N3  UNL     1      -4.203   1.909  -0.099  1.00  0.00    -0.400 NA
BRANCH  25  26
HETATM   26  C15 UNL     1      -5.310   2.781  -0.117  1.00  0.00     0.270 C 
HETATM   27  C16 UNL     1      -5.471   3.563   1.186  1.00  0.00     0.057 C 
BRANCH  26  28
HETATM   28  C17 UNL     1      -6.580   2.114  -0.528  1.00  0.00     0.419 C 
HETATM   29  F1  UNL     1      -7.611   3.052  -0.477  1.00  0.00    -0.168 F 
HETATM   30  F2  UNL     1      -6.906   1.044   0.235  1.00  0.00    -0.168 F 
HETATM   31  F3  UNL     1      -6.530   1.724  -1.866  1.00  0.00    -0.168 F 
ENDBRANCH  26  28
ENDBRANCH  25  26
ENDBRANCH  22  23
ENDBRANCH  13  16
ENDBRANCH   1  13
BRANCH   1  32
HETATM   32  C18 UNL     1       0.901  -2.342   0.130  1.00  0.00     0.089 C 
HETATM   33  C19 UNL     1      -0.227  -2.970   0.850  1.00  0.00     0.044 C 
HETATM   34  C20 UNL     1       0.228  -4.409   1.171  1.00  0.00     0.115 C 
HETATM   35  N4  UNL     1       1.548  -4.685   0.675  1.00  0.00    -0.421 N 
HETATM   36  C21 UNL     1       1.744  -4.486  -0.724  1.00  0.00     0.115 C 
ATOM     37  H4  UNL     1       2.300  -5.004   1.286  1.00  0.00     0.153 HD
HETATM   38  C22 UNL     1       1.176  -3.139  -1.156  1.00  0.00     0.044 C 
ENDBRANCH   1  32
TORSDOF 9
