REMARK  4 active torsions:
REMARK  status: ('A' for Active; 'I' for Inactive)
REMARK    1  A    between atoms: N1_1  and  C1_4 
REMARK    2  A    between atoms: C2_7  and  N3_8 
REMARK    3  A    between atoms: N3_8  and  N4_10 
REMARK    4  A    between atoms: N4_10  and  N5_11 
ROOT
HETATM    1  C1  UNL     1      -1.426  -1.125   0.480  1.00  0.00     0.145 A 
HETATM    2  N2  UNL     1      -0.150  -1.581   0.617  1.00  0.00    -0.173 N 
ATOM      3  H2  UNL     1       0.021  -2.526   0.960  1.00  0.00     0.186 HD
HETATM    4  C2  UNL     1       0.882  -0.783   0.300  1.00  0.00     0.698 A 
HETATM    5  N6  UNL     1       0.613   0.474  -0.156  1.00  0.00    -0.173 N 
ATOM      6  H6  UNL     1       1.400   1.076  -0.397  1.00  0.00     0.186 HD
HETATM    7  C3  UNL     1      -0.615   0.960  -0.305  1.00  0.00     0.152 A 
HETATM    8  N7  UNL     1      -1.144   2.137  -0.725  1.00  0.00    -0.336 N 
ATOM      9  H7  UNL     1      -0.600   2.943  -1.034  1.00  0.00     0.168 HD
HETATM   10  C4  UNL     1      -2.486   2.091  -0.676  1.00  0.00     0.182 A 
HETATM   11  N8  UNL     1      -2.796   0.867  -0.220  1.00  0.00    -0.346 N 
ATOM     12  H8  UNL     1      -3.747   0.527  -0.074  1.00  0.00     0.167 HD
HETATM   13  C5  UNL     1      -1.682   0.148   0.018  1.00  0.00     0.122 A 
ENDROOT
BRANCH   4  14
HETATM   14  N3  UNL     1       2.248  -1.218   0.427  1.00  0.00    -0.116 N 
ATOM     15  H3  UNL     1       2.453  -2.158   0.767  1.00  0.00     0.203 HD
BRANCH  14  16
HETATM   16  N4  UNL     1       3.287  -0.364   0.089  1.00  0.00    -0.015 NA
BRANCH  16  17
HETATM   17  N5  UNL     1       3.075   0.948   0.506  1.00  0.00    -0.328 N 
ATOM     18  H52 UNL     1       2.235   1.236   1.008  1.00  0.00     0.174 HD
ATOM     19  H51 UNL     1       3.839   1.576   0.257  1.00  0.00     0.174 HD
ENDBRANCH  16  17
ENDBRANCH  14  16
ENDBRANCH   4  14
BRANCH   1  20
HETATM   20  N1  UNL     1      -2.399  -1.899   0.787  1.00  0.00    -0.383 N 
ATOM     21  H12 UNL     1      -2.210  -2.841   1.129  1.00  0.00     0.157 HD
ATOM     22  H11 UNL     1      -3.355  -1.557   0.684  1.00  0.00     0.157 HD
ENDBRANCH   1  20
TORSDOF 4
