REMARK  3 active torsions:
REMARK  status: ('A' for Active; 'I' for Inactive)
REMARK    1  A    between atoms: N3_7  and  N4_9 
REMARK       I    between atoms: N4_9  and  C4_11 
REMARK    2  A    between atoms: C5_16  and  N7_17 
REMARK    3  A    between atoms: N7_17  and  N8_19 
ROOT
HETATM    1  C1  UNL     1      -3.798   1.434   0.462  1.00  0.00     0.200 C 
HETATM    2  N1  UNL     1      -2.510   0.777   0.384  1.00  0.00    -0.237 N 
HETATM    3  N2  UNL     1      -1.441   1.446   0.787  1.00  0.00    -0.293 N 
ATOM      4  H2  UNL     1      -1.564   2.397   1.136  1.00  0.00     0.187 HD
HETATM    5  C2  UNL     1      -0.199   0.928   0.757  1.00  0.00     0.143 A 
HETATM    6  C3  UNL     1      -0.107  -0.380   0.266  1.00  0.00     0.111 A 
HETATM    7  N3  UNL     1       1.056  -0.911   0.220  1.00  0.00    -0.293 N 
ATOM      8  H3  UNL     1       1.140  -1.864  -0.135  1.00  0.00     0.187 HD
HETATM    9  C5  UNL     1      -1.212  -1.072  -0.150  1.00  0.00     0.165 A 
HETATM   10  N9  UNL     1      -2.404  -0.474  -0.082  1.00  0.00    -0.266 N 
ATOM     11  H9  UNL     1      -3.239  -0.973  -0.387  1.00  0.00     0.190 HD
ENDROOT
BRANCH   7  12
HETATM   12  N4  UNL     1       2.207  -0.258   0.628  1.00  0.00    -0.273 N 
HETATM   13  C4  UNL     1       3.179   0.287  -0.248  1.00  0.00     0.200 C 
HETATM   14  N5  UNL     1       4.303  -0.331  -0.341  1.00  0.00    -0.372 N 
HETATM   15  N6  UNL     1       2.964   1.465  -1.011  1.00  0.00    -0.062 NA
ATOM     16  H52 UNL     1       4.457  -1.177   0.207  1.00  0.00     0.158 HD
ATOM     17  H51 UNL     1       5.002   0.061  -0.971  1.00  0.00     0.158 HD
ATOM     18  H4  UNL     1       2.367  -0.162   1.631  1.00  0.00     0.189 HD
ENDBRANCH   7  12
BRANCH   9  19
HETATM   19  N7  UNL     1      -1.131  -2.247  -0.591  1.00  0.00    -0.289 N 
ATOM     20  H7  UNL     1      -2.011  -2.677  -0.876  1.00  0.00     0.188 HD
BRANCH  19  21
HETATM   21  N8  UNL     1      -0.009  -3.026  -0.738  1.00  0.00    -0.344 N 
ATOM     22  H82 UNL     1       0.861  -2.579  -0.448  1.00  0.00     0.176 HD
ATOM     23  H81 UNL     1       0.057  -3.979  -1.096  1.00  0.00     0.176 HD
ENDBRANCH  19  21
ENDBRANCH   9  19
TORSDOF 3
