REMARK  6 active torsions:
REMARK  status: ('A' for Active; 'I' for Inactive)
REMARK    1  A    between atoms: N1_1  and  C1_5 
REMARK    2  A    between atoms: C1_5  and  C2_6 
REMARK    3  A    between atoms: C2_6  and  C3_7 
REMARK    4  A    between atoms: C3_7  and  N2_8 
REMARK       I    between atoms: C4_10  and  N4_12 
REMARK    5  A    between atoms: N4_12  and  C5_14 
REMARK    6  A    between atoms: C7_18  and  N7_19 
ROOT
HETATM    1  N2  UNL     1       1.196  -1.294  -0.144  1.00  0.00    -0.365 N 
ATOM      2  H2  UNL     1       1.513  -2.263  -0.115  1.00  0.00     0.162 HD
HETATM    3  C4  UNL     1       0.071  -1.078  -0.694  1.00  0.00     0.185 C 
HETATM    4  N3  UNL     1      -0.665  -2.158  -1.223  1.00  0.00    -0.064 NA
HETATM    5  N4  UNL     1      -0.476   0.222  -0.796  1.00  0.00    -0.343 N 
ATOM      6  H4  UNL     1       0.157   0.992  -1.013  1.00  0.00     0.164 HD
ENDROOT
BRANCH   1   7
HETATM    7  C3  UNL     1       2.063  -0.317   0.438  1.00  0.00     0.124 C 
BRANCH   7   8
HETATM    8  C2  UNL     1       3.483  -0.661   0.054  1.00  0.00     0.047 C 
BRANCH   8   9
HETATM    9  C1  UNL     1       4.405   0.349   0.652  1.00  0.00     0.231 C 
BRANCH   9  10
HETATM   10  N1  UNL     1       4.069   1.659   0.154  1.00  0.00    -0.079 N 
ATOM     11  H13 UNL     1       4.066   1.695  -0.865  1.00  0.00     0.274 HD
ATOM     12  H12 UNL     1       3.088   1.891   0.311  1.00  0.00     0.274 HD
ATOM     13  H11 UNL     1       4.699   2.349   0.563  1.00  0.00     0.274 HD
ENDBRANCH   9  10
ENDBRANCH   8   9
ENDBRANCH   7   8
ENDBRANCH   1   7
BRANCH   5  14
HETATM   14  C5  UNL     1      -1.862   0.525  -0.614  1.00  0.00     0.226 C 
HETATM   15  N5  UNL     1      -2.729  -0.190  -1.516  1.00  0.00    -0.121 NA
HETATM   16  N6  UNL     1      -3.783  -0.714  -0.800  1.00  0.00    -0.144 NA
HETATM   17  C6  UNL     1      -3.845  -0.009   0.469  1.00  0.00     0.166 C 
HETATM   18  C7  UNL     1      -2.366   0.149   0.762  1.00  0.00     0.238 C 
BRANCH  18  19
HETATM   19  N7  UNL     1      -2.094   1.163   1.742  1.00  0.00    -0.070 N 
ATOM     20  H73 UNL     1      -1.101   1.395   1.765  1.00  0.00     0.274 HD
ATOM     21  H72 UNL     1      -2.466   2.066   1.449  1.00  0.00     0.274 HD
ATOM     22  H71 UNL     1      -2.434   0.909   2.670  1.00  0.00     0.274 HD
ENDBRANCH  18  19
ENDBRANCH   5  14
TORSDOF 6
