REMARK  5 active torsions:
REMARK  status: ('A' for Active; 'I' for Inactive)
REMARK    1  A    between atoms: C2_5  and  C3_6 
REMARK    2  A    between atoms: C3_6  and  N4_9 
REMARK    3  A    between atoms: C5_11  and  C6_12 
REMARK    4  A    between atoms: C7_17  and  N7_18 
REMARK    5  A    between atoms: C9_25  and  N9_26 
ROOT
HETATM    1  C3  UNL     1      -0.814  -1.891   1.420  1.00  0.00     0.245 C 
HETATM    2  C4  UNL     1      -0.643  -3.254   1.000  1.00  0.00     0.091 C 
HETATM    3  N3  UNL     1      -0.488  -4.353   0.675  1.00  0.00    -0.195 NA
ENDROOT
BRANCH   1   4
HETATM    4  C2  UNL     1      -1.834  -1.184   0.628  1.00  0.00     0.108 A 
HETATM    5  N2  UNL     1      -2.006   0.155   0.728  1.00  0.00    -0.282 N 
HETATM    6  N1  UNL     1      -2.975   0.541  -0.079  1.00  0.00    -0.237 N 
ATOM      7  H2  UNL     1      -1.467   0.772   1.336  1.00  0.00     0.188 HD
HETATM    8  C1  UNL     1      -3.467   1.907  -0.265  1.00  0.00     0.200 C 
HETATM    9  N10 UNL     1      -3.435  -0.529  -0.703  1.00  0.00    -0.268 N 
HETATM   10  C9  UNL     1      -2.750  -1.615  -0.288  1.00  0.00     0.142 A 
ATOM     11  H10 UNL     1      -4.189  -0.533  -1.390  1.00  0.00     0.190 HD
BRANCH  10  12
HETATM   12  N9  UNL     1      -2.893  -2.843  -0.653  1.00  0.00    -0.383 N 
ATOM     13  H92 UNL     1      -2.375  -3.664  -0.339  1.00  0.00     0.157 HD
ATOM     14  H91 UNL     1      -3.577  -3.165  -1.337  1.00  0.00     0.157 HD
ENDBRANCH  10  12
ENDBRANCH   1   4
BRANCH   1  15
HETATM   15  N4  UNL     1       0.407  -1.133   1.358  1.00  0.00    -0.375 N 
HETATM   16  C5  UNL     1       0.753  -0.575   0.254  1.00  0.00     0.121 C 
ATOM     17  H4  UNL     1       0.995  -1.039   2.186  1.00  0.00     0.160 HD
BRANCH  16  18
HETATM   18  C6  UNL     1       1.981   0.198   0.161  1.00  0.00     0.132 A 
HETATM   19  N5  UNL     1       2.747   0.308   1.278  1.00  0.00    -0.280 N 
HETATM   20  N6  UNL     1       3.857   1.002   1.206  1.00  0.00    -0.132 N 
ATOM     21  H5  UNL     1       2.465  -0.138   2.151  1.00  0.00     0.188 HD
HETATM   22  C7  UNL     1       4.243   1.602   0.047  1.00  0.00     0.693 A 
ATOM     23  H6  UNL     1       4.443   1.094   2.036  1.00  0.00     0.205 HD
HETATM   24  N8  UNL     1       3.508   1.511  -1.072  1.00  0.00    -0.153 N 
HETATM   25  C8  UNL     1       2.373   0.805  -1.010  1.00  0.00     0.289 A 
ATOM     26  H8  UNL     1       3.803   1.963  -1.937  1.00  0.00     0.187 HD
HETATM   27  O1  UNL     1       1.635   0.677  -2.017  1.00  0.00    -0.265 OA
BRANCH  22  28
HETATM   28  N7  UNL     1       5.350   2.256   0.095  1.00  0.00    -0.233 N 
ATOM     29  H72 UNL     1       5.909   2.325   0.946  1.00  0.00     0.174 HD
ATOM     30  H71 UNL     1       5.639   2.706  -0.774  1.00  0.00     0.174 HD
ENDBRANCH  22  28
ENDBRANCH  16  18
ENDBRANCH   1  15
TORSDOF 5
