REMARK  3 active torsions:
REMARK  status: ('A' for Active; 'I' for Inactive)
REMARK    1  A    between atoms: N1_1  and  N2_4 
REMARK       I    between atoms: N2_4  and  C1_6 
REMARK    2  A    between atoms: N4_8  and  C2_10 
REMARK    3  A    between atoms: C2_10  and  C3_11 
ROOT
HETATM    1  C2  UNL     1      -0.688  -0.535   0.576  1.00  0.00     0.249 C 
HETATM    2  C4  UNL     1      -1.920   0.080   1.207  1.00  0.00     0.269 C 
HETATM    3  O2  UNL     1      -2.338  -0.309   2.320  1.00  0.00    -0.269 OA
HETATM    4  N5  UNL     1      -2.538   1.110   0.441  1.00  0.00    -0.301 N 
ATOM      5  H5  UNL     1      -3.028   1.868   0.915  1.00  0.00     0.171 HD
HETATM    6  C5  UNL     1      -2.477   1.089  -0.980  1.00  0.00     0.181 C 
HETATM    7  S1  UNL     1      -3.164   2.238  -1.904  1.00  0.00    -0.040 SA
HETATM    8  N6  UNL     1      -1.782   0.011  -1.594  1.00  0.00    -0.301 N 
ATOM      9  H6  UNL     1      -1.711  -0.047  -2.610  1.00  0.00     0.171 HD
HETATM   10  C6  UNL     1      -1.178  -1.001  -0.758  1.00  0.00     0.269 C 
HETATM   11  O3  UNL     1      -1.084  -2.169  -1.140  1.00  0.00    -0.269 OA
ENDROOT
BRANCH   1  12
HETATM   12  N4  UNL     1       0.329   0.468   0.407  1.00  0.00    -0.332 N 
HETATM   13  C1  UNL     1       1.411   0.200  -0.201  1.00  0.00     0.204 C 
HETATM   14  N2  UNL     1       2.413   1.203  -0.363  1.00  0.00    -0.280 N 
HETATM   15  N3  UNL     1       1.664  -1.072  -0.733  1.00  0.00    -0.062 NA
ATOM     16  H2  UNL     1       2.363   1.790  -1.196  1.00  0.00     0.189 HD
ATOM     17  H4  UNL     1       0.179   1.405   0.780  1.00  0.00     0.164 HD
BRANCH  14  18
HETATM   18  N1  UNL     1       3.438   1.437   0.517  1.00  0.00    -0.343 N 
ATOM     19  H12 UNL     1       3.472   0.841   1.344  1.00  0.00     0.176 HD
ATOM     20  H11 UNL     1       4.154   2.154   0.401  1.00  0.00     0.176 HD
ENDBRANCH  14  18
ENDBRANCH   1  12
BRANCH   1  21
HETATM   21  C3  UNL     1      -0.252  -1.623   1.449  1.00  0.00     0.282 C 
HETATM   22  O1  UNL     1      -1.004  -2.551   1.656  1.00  0.00    -0.303 OA
ENDBRANCH   1  21
TORSDOF 3
