REMARK  5 active torsions:
REMARK  status: ('A' for Active; 'I' for Inactive)
REMARK    1  A    between atoms: N2_4  and  C1_6 
REMARK    2  A    between atoms: C2_9  and  N4_10 
REMARK    3  A    between atoms: C4_17  and  C5_18 
REMARK    4  A    between atoms: C5_18  and  N7_22 
REMARK    5  A    between atoms: C6_24  and  C7_25 
ROOT
HETATM    1  C1  UNL     1       0.060   0.047  -1.559  1.00  0.00     0.154 A 
HETATM    2  N3  UNL     1       0.259  -0.353  -2.850  1.00  0.00    -0.174 N 
ATOM      3  H3  UNL     1       0.670   0.293  -3.524  1.00  0.00     0.186 HD
HETATM    4  C2  UNL     1      -0.082  -1.586  -3.234  1.00  0.00     0.680 A 
HETATM    5  N5  UNL     1      -0.626  -2.480  -2.389  1.00  0.00    -0.155 N 
ATOM      6  H5  UNL     1      -0.875  -3.414  -2.713  1.00  0.00     0.187 HD
HETATM    7  C3  UNL     1      -0.835  -2.122  -1.113  1.00  0.00     0.277 A 
HETATM    8  O1  UNL     1      -1.342  -2.902  -0.253  1.00  0.00    -0.266 OA
HETATM    9  C4  UNL     1      -0.489  -0.845  -0.690  1.00  0.00     0.122 A 
ENDROOT
BRANCH   9  10
HETATM   10  C5  UNL     1      -0.719  -0.452   0.713  1.00  0.00     0.118 C 
HETATM   11  N6  UNL     1      -1.238  -1.301   1.523  1.00  0.00    -0.385 N 
ATOM     12  H62 UNL     1      -1.477  -2.227   1.168  1.00  0.00     0.157 HD
ATOM     13  H61 UNL     1      -1.397  -1.029   2.493  1.00  0.00     0.157 HD
BRANCH  10  14
HETATM   14  N7  UNL     1      -0.389   0.828   1.204  1.00  0.00    -0.347 N 
HETATM   15  C6  UNL     1       0.110   0.945   2.381  1.00  0.00     0.160 C 
ATOM     16  H7  UNL     1      -0.546   1.655   0.628  1.00  0.00     0.167 HD
BRANCH  15  17
HETATM   17  C7  UNL     1       0.467   2.254   2.931  1.00  0.00     0.270 C 
HETATM   18  N8  UNL     1       1.014   2.313   4.238  1.00  0.00    -0.057 NA
HETATM   19  O2  UNL     1       0.281   3.278   2.236  1.00  0.00    -0.270 OA
ENDBRANCH  15  17
ENDBRANCH  10  14
ENDBRANCH   9  10
BRANCH   1  20
HETATM   20  N2  UNL     1       0.434   1.368  -1.180  1.00  0.00    -0.291 N 
HETATM   21  N1  UNL     1       1.638   1.699  -1.012  1.00  0.00    -0.344 N 
ATOM     22  H12 UNL     1       2.354   0.987  -1.156  1.00  0.00     0.176 HD
ATOM     23  H11 UNL     1       1.906   2.645  -0.741  1.00  0.00     0.176 HD
ATOM     24  H2  UNL     1      -0.295   2.067  -1.040  1.00  0.00     0.188 HD
ENDBRANCH   1  20
BRANCH   4  25
HETATM   25  N4  UNL     1       0.103  -1.981  -4.470  1.00  0.00    -0.234 N 
ATOM     26  H42 UNL     1       0.516  -1.303  -5.111  1.00  0.00     0.174 HD
ATOM     27  H41 UNL     1      -0.157  -2.923  -4.763  1.00  0.00     0.174 HD
ENDBRANCH   4  25
TORSDOF 5
