REMARK  5 active torsions:
REMARK  status: ('A' for Active; 'I' for Inactive)
REMARK    1  A    between atoms: C1_2  and  C2_4 
REMARK    2  A    between atoms: N2_6  and  N3_7 
REMARK    3  A    between atoms: N3_7  and  N4_8 
REMARK    4  A    between atoms: N3_7  and  N5_11 
REMARK    5  A    between atoms: N8_19  and  O2_20 
ROOT
HETATM    1  C2  UNL     1       1.735  -0.281  -0.037  1.00  0.00     0.099 A 
HETATM    2  C3  UNL     1       0.534  -0.936   0.088  1.00  0.00     0.143 A 
HETATM    3  N2  UNL     1      -0.622  -0.288   0.300  1.00  0.00    -0.211 N 
HETATM    4  C4  UNL     1      -0.652   1.056   0.401  1.00  0.00     0.181 A 
HETATM    5  N6  UNL     1      -1.600   1.983   0.602  1.00  0.00    -0.265 N 
ATOM      6  H6  UNL     1      -2.593   1.786   0.731  1.00  0.00     0.190 HD
HETATM    7  N7  UNL     1      -1.060   3.186   0.608  1.00  0.00    -0.214 N 
ATOM      8  H7  UNL     1      -1.584   4.051   0.744  1.00  0.00     0.211 HD
HETATM    9  N8  UNL     1       0.250   3.129   0.415  1.00  0.00    -0.141 N 
HETATM   10  C5  UNL     1       0.597   1.833   0.278  1.00  0.00     0.180 A 
HETATM   11  C6  UNL     1       1.750   1.109   0.061  1.00  0.00     0.223 A 
HETATM   12  O3  UNL     1       2.834   1.740  -0.048  1.00  0.00    -0.285 OA
ENDROOT
BRANCH   3  13
HETATM   13  N3  UNL     1      -1.805  -1.013   0.423  1.00  0.00    -0.136 N 
BRANCH  13  14
HETATM   14  N4  UNL     1      -2.326  -1.176   1.723  1.00  0.00    -0.309 N 
ATOM     15  H42 UNL     1      -1.837  -0.762   2.517  1.00  0.00     0.180 HD
ATOM     16  H41 UNL     1      -3.192  -1.707   1.813  1.00  0.00     0.180 HD
ENDBRANCH  13  14
BRANCH  13  17
HETATM   17  N5  UNL     1      -2.474  -1.579  -0.663  1.00  0.00    -0.309 N 
ATOM     18  H52 UNL     1      -2.097  -1.461  -1.603  1.00  0.00     0.180 HD
ATOM     19  H51 UNL     1      -3.340  -2.110  -0.573  1.00  0.00     0.180 HD
ENDBRANCH  13  17
ENDBRANCH   3  13
BRANCH   1  20
HETATM   20  C1  UNL     1       2.974  -0.996  -0.296  1.00  0.00     0.270 C 
HETATM   21  N1  UNL     1       3.052  -2.387  -0.532  1.00  0.00    -0.057 NA
HETATM   22  O1  UNL     1       4.071  -0.344  -0.318  1.00  0.00    -0.271 OA
ENDBRANCH   1  20
BRANCH   9  23
HETATM   23  O2  UNL     1       1.159   4.177   0.357  1.00  0.00    -0.266 OA
ATOM     24  H2  UNL     1       2.098   4.136   0.219  1.00  0.00     0.247 HD
ENDBRANCH   9  23
TORSDOF 5
