REMARK  9 active torsions:
REMARK  status: ('A' for Active; 'I' for Inactive)
REMARK    1  A    between atoms: O1_2  and  C2_3 
REMARK    2  A    between atoms: C2_3  and  C3_5 
REMARK    3  A    between atoms: C3_5  and  N1_6 
REMARK    4  A    between atoms: C3_5  and  C16_27 
REMARK       I    between atoms: N1_6  and  C4_8 
REMARK    5  A    between atoms: C4_8  and  C5_10 
REMARK    6  A    between atoms: C5_10  and  N2_11 
REMARK    7  A    between atoms: C5_10  and  C10_20 
REMARK    8  A    between atoms: N2_11  and  C6_12 
REMARK    9  A    between atoms: C16_27  and  O5_29 
ROOT
HETATM    1  C5  UNL     1      -1.059   0.463   0.710  1.00  0.00     0.293 C 
ENDROOT
BRANCH   1   2
HETATM    2  C4  UNL     1       0.189   0.544  -0.233  1.00  0.00     0.262 C 
HETATM    3  N1  UNL     1       1.447   0.356   0.317  1.00  0.00    -0.320 N 
ATOM      4  H1  UNL     1       1.484   0.211   1.326  1.00  0.00     0.169 HD
HETATM    5  O3  UNL     1      -0.083   0.744  -1.412  1.00  0.00    -0.269 OA
BRANCH   3   6
HETATM    6  C3  UNL     1       2.703   0.343  -0.376  1.00  0.00     0.116 C 
BRANCH   6   7
HETATM    7  C2  UNL     1       3.767   0.533   0.591  1.00  0.00     0.308 C 
HETATM    8  O2  UNL     1       4.216   1.532   1.142  1.00  0.00    -0.258 OA
BRANCH   7   9
HETATM    9  O1  UNL     1       4.360  -0.750   1.031  1.00  0.00    -0.322 OA
HETATM   10  C1  UNL     1       5.288  -0.687   2.052  1.00  0.00     0.213 C 
ENDBRANCH   7   9
ENDBRANCH   6   7
BRANCH   6  11
HETATM   11  C16 UNL     1       2.832  -0.640  -1.468  1.00  0.00     0.170 C 
HETATM   12  C17 UNL     1       4.188  -0.411  -2.199  1.00  0.00     0.046 C 
BRANCH  11  13
HETATM   13  O5  UNL     1       2.663  -1.928  -1.112  1.00  0.00    -0.390 OA
ATOM     14  H5  UNL     1       2.746  -2.561  -1.815  1.00  0.00     0.210 HD
ENDBRANCH  11  13
ENDBRANCH   6  11
ENDBRANCH   3   6
ENDBRANCH   1   2
BRANCH   1  15
HETATM   15  N2  UNL     1      -1.697  -0.685   0.449  1.00  0.00    -0.409 NA
BRANCH  15  16
HETATM   16  C6  UNL     1      -2.363  -1.619   0.171  1.00  0.00     0.190 A 
HETATM   17  C7  UNL     1      -2.011  -2.971   0.342  1.00  0.00     0.091 A 
HETATM   18  C8  UNL     1      -2.998  -3.770  -0.175  1.00  0.00     0.026 A 
HETATM   19  C9  UNL     1      -3.018  -5.267  -0.251  1.00  0.00     0.070 C 
HETATM   20  N3  UNL     1      -3.922  -2.952  -0.635  1.00  0.00    -0.303 N 
HETATM   21  N4  UNL     1      -3.577  -1.672  -0.446  1.00  0.00    -0.274 N 
ATOM     22  H3  UNL     1      -4.789  -3.255  -1.078  1.00  0.00     0.186 HD
ATOM     23  H4  UNL     1      -4.135  -0.864  -0.721  1.00  0.00     0.189 HD
ENDBRANCH  15  16
ENDBRANCH   1  15
BRANCH   1  24
HETATM   24  C10 UNL     1      -1.730   1.796   0.501  1.00  0.00     0.018 A 
HETATM   25  C11 UNL     1      -3.020   2.085   0.123  1.00  0.00     0.045 A 
HETATM   26  C12 UNL     1      -3.153   3.437  -0.016  1.00  0.00     0.050 A 
HETATM   27  C13 UNL     1      -4.374   4.238  -0.418  1.00  0.00     0.076 C 
HETATM   28  O4  UNL     1      -1.982   3.949   0.263  1.00  0.00    -0.320 OA
HETATM   29  C14 UNL     1      -1.101   3.012   0.578  1.00  0.00     0.059 A 
HETATM   30  C15 UNL     1       0.329   3.314   0.950  1.00  0.00     0.077 C 
ENDBRANCH   1  24
TORSDOF 9
