REMARK  7 active torsions:
REMARK  status: ('A' for Active; 'I' for Inactive)
REMARK    1  A    between atoms: C5_5  and  C6_6 
REMARK       I    between atoms: C6_6  and  N1_8 
REMARK    2  A    between atoms: N1_8  and  C7_10 
REMARK    3  A    between atoms: C7_10  and  C8_11 
REMARK    4  A    between atoms: C8_11  and  N3_14 
REMARK    5  A    between atoms: N3_14  and  C10_16 
REMARK    6  A    between atoms: C10_16  and  C11_17 
REMARK    7  A    between atoms: C10_16  and  C13_26 
ROOT
HETATM    1  C8  UNL     1      -0.343  -0.498   1.171  1.00  0.00     0.225 C 
HETATM    2  C9  UNL     1       0.031  -1.294   2.362  1.00  0.00     0.089 C 
HETATM    3  N2  UNL     1       0.269  -1.915   3.321  1.00  0.00    -0.195 NA
ENDROOT
BRANCH   1   4
HETATM    4  C7  UNL     1       0.562  -0.764   0.019  1.00  0.00     0.103 C 
BRANCH   4   5
HETATM    5  N1  UNL     1       1.918  -0.459   0.091  1.00  0.00    -0.332 N 
HETATM    6  C6  UNL     1       3.017  -0.903   0.821  1.00  0.00     0.279 C 
HETATM    7  O1  UNL     1       3.048  -1.806   1.689  1.00  0.00    -0.265 OA
ATOM      8  H1  UNL     1       2.173   0.283  -0.561  1.00  0.00     0.168 HD
BRANCH   6   9
HETATM    9  C5  UNL     1       4.333  -0.244   0.562  1.00  0.00     0.143 A 
HETATM   10  C4  UNL     1       5.513  -0.550   1.172  1.00  0.00     0.045 A 
HETATM   11  C3  UNL     1       6.453   0.301   0.630  1.00  0.00     0.035 A 
HETATM   12  C2  UNL     1       5.811   1.090  -0.285  1.00  0.00     0.050 A 
HETATM   13  C1  UNL     1       6.345   2.170  -1.152  1.00  0.00     0.076 C 
HETATM   14  O3  UNL     1       4.553   0.720  -0.282  1.00  0.00    -0.310 OA
ENDBRANCH   6   9
ENDBRANCH   4   5
ENDBRANCH   1   4
BRANCH   1  15
HETATM   15  N3  UNL     1      -1.672  -0.855   0.875  1.00  0.00    -0.390 N 
ATOM     16  H3  UNL     1      -2.084  -1.600   1.438  1.00  0.00     0.155 HD
BRANCH  15  17
HETATM   17  C10 UNL     1      -2.474  -0.298  -0.101  1.00  0.00     0.151 C 
BRANCH  17  18
HETATM   18  C11 UNL     1      -3.668  -1.220  -0.296  1.00  0.00     0.123 A 
HETATM   19  N4  UNL     1      -3.570  -2.519  -0.689  1.00  0.00    -0.294 N 
HETATM   20  C12 UNL     1      -4.813  -3.043  -0.726  1.00  0.00     0.340 A 
ATOM     21  H4  UNL     1      -2.706  -3.012  -0.916  1.00  0.00     0.172 HD
HETATM   22  O2  UNL     1      -5.116  -4.221  -1.045  1.00  0.00    -0.245 OA
HETATM   23  N5  UNL     1      -5.677  -2.078  -0.358  1.00  0.00    -0.250 N 
HETATM   24  N6  UNL     1      -4.949  -0.971  -0.100  1.00  0.00    -0.283 N 
ATOM     25  H5  UNL     1      -6.691  -2.167  -0.287  1.00  0.00     0.192 HD
ATOM     26  H6  UNL     1      -5.332  -0.075   0.202  1.00  0.00     0.188 HD
ENDBRANCH  17  18
BRANCH  17  27
HETATM   27  C13 UNL     1      -2.899   1.109   0.077  1.00  0.00     0.007 C 
HETATM   28  C14 UNL     1      -1.818   2.142   0.180  1.00  0.00     0.012 C 
HETATM   29  C15 UNL     1      -3.819   1.540  -1.097  1.00  0.00     0.012 C 
ENDBRANCH  17  27
ENDBRANCH  15  17
ENDBRANCH   1  15
TORSDOF 7
