REMARK  8 active torsions:
REMARK  status: ('A' for Active; 'I' for Inactive)
REMARK    1  A    between atoms: C2_2  and  C4_4 
REMARK    2  A    between atoms: C4_4  and  N1_5 
REMARK    3  A    between atoms: C4_4  and  C5_13 
REMARK    4  A    between atoms: N1_5  and  S1_7 
REMARK    5  A    between atoms: S1_7  and  N2_8 
REMARK    6  A    between atoms: C7_15  and  C8_16 
REMARK    7  A    between atoms: C9_17  and  C10_18 
REMARK    8  A    between atoms: C14_29  and  N7_30 
ROOT
HETATM    1  C5  UNL     1      -1.466  -0.404  -0.413  1.00  0.00     0.102 A 
HETATM    2  C6  UNL     1      -0.128  -0.761  -0.433  1.00  0.00     0.069 A 
HETATM    3  C7  UNL     1       0.308  -0.737  -1.740  1.00  0.00     0.073 A 
HETATM    4  N8  UNL     1      -0.772  -0.371  -2.453  1.00  0.00    -0.260 N 
ATOM      5  H8  UNL     1      -0.791  -0.257  -3.466  1.00  0.00     0.195 HD
HETATM    6  O3  UNL     1      -1.787  -0.184  -1.665  1.00  0.00    -0.240 OA
ENDROOT
BRANCH   3   7
HETATM    7  C8  UNL     1       1.627  -1.034  -2.276  1.00  0.00     0.066 A 
HETATM    8  C9  UNL     1       2.801  -0.347  -1.987  1.00  0.00     0.077 A 
HETATM    9  N5  UNL     1       3.763  -0.955  -2.694  1.00  0.00    -0.297 N 
HETATM   10  N6  UNL     1       3.310  -1.959  -3.401  1.00  0.00    -0.285 N 
ATOM     11  H5  UNL     1       4.741  -0.667  -2.683  1.00  0.00     0.187 HD
HETATM   12  C14 UNL     1       1.990  -2.027  -3.158  1.00  0.00     0.128 A 
ATOM     13  H6  UNL     1       3.851  -2.568  -4.014  1.00  0.00     0.188 HD
BRANCH   8  14
HETATM   14  C10 UNL     1       2.946   0.803  -1.090  1.00  0.00     0.027 A 
HETATM   15  C11 UNL     1       2.385   2.053  -1.182  1.00  0.00     0.122 A 
HETATM   16  N3  UNL     1       2.817   2.753  -0.125  1.00  0.00    -0.310 N 
HETATM   17  N4  UNL     1       3.616   2.049   0.648  1.00  0.00    -0.307 N 
ATOM     18  H3  UNL     1       2.556   3.722   0.060  1.00  0.00     0.186 HD
HETATM   19  C12 UNL     1       4.284   2.461   1.886  1.00  0.00     0.177 C 
HETATM   20  C13 UNL     1       3.705   0.827   0.055  1.00  0.00     0.124 A 
ENDBRANCH   8  14
BRANCH  12  21
HETATM   21  N7  UNL     1       1.188  -2.921  -3.695  1.00  0.00    -0.384 N 
ATOM     22  H72 UNL     1       0.186  -2.973  -3.511  1.00  0.00     0.157 HD
ATOM     23  H71 UNL     1       1.457  -3.657  -4.348  1.00  0.00     0.157 HD
ENDBRANCH  12  21
ENDBRANCH   3   7
BRANCH   1  24
HETATM   24  C4  UNL     1      -2.369  -0.289   0.766  1.00  0.00     0.157 C 
BRANCH  24  25
HETATM   25  C2  UNL     1      -3.313  -1.445   0.875  1.00  0.00     0.007 C 
HETATM   26  C1  UNL     1      -4.156  -1.316   2.115  1.00  0.00     0.012 C 
HETATM   27  C3  UNL     1      -2.605  -2.777   0.875  1.00  0.00     0.012 C 
ENDBRANCH  24  25
BRANCH  24  28
HETATM   28  N1  UNL     1      -3.168   0.922   0.702  1.00  0.00    -0.291 N 
ATOM     29  H1  UNL     1      -3.827   1.122  -0.051  1.00  0.00     0.174 HD
BRANCH  28  30
HETATM   30  S1  UNL     1      -2.890   1.979   2.021  1.00  0.00     0.313 S 
HETATM   31  O1  UNL     1      -4.094   2.797   2.314  1.00  0.00    -0.183 OA
HETATM   32  O2  UNL     1      -2.424   1.173   3.219  1.00  0.00    -0.183 OA
BRANCH  30  33
HETATM   33  N2  UNL     1      -1.616   3.059   1.553  1.00  0.00    -0.312 N 
ATOM     34  H22 UNL     1      -1.132   3.053   0.655  1.00  0.00     0.170 HD
ATOM     35  H21 UNL     1      -1.450   3.688   2.338  1.00  0.00     0.170 HD
ENDBRANCH  30  33
ENDBRANCH  28  30
ENDBRANCH  24  28
ENDBRANCH   1  24
TORSDOF 8
