REMARK  10 active torsions:
REMARK  status: ('A' for Active; 'I' for Inactive)
REMARK    1  A    between atoms: C4_7  and  N3_8 
REMARK    2  A    between atoms: N3_8  and  C5_10 
REMARK    3  A    between atoms: C5_10  and  C6_11 
REMARK    4  A    between atoms: C6_11  and  C7_12 
REMARK    5  A    between atoms: C8_13  and  C9_14 
REMARK    6  A    between atoms: C11_19  and  N6_20 
REMARK    7  A    between atoms: N6_20  and  C12_22 
REMARK    8  A    between atoms: C12_22  and  C13_23 
REMARK    9  A    between atoms: C13_23  and  C14_24 
REMARK   10  A    between atoms: C16_28  and  N8_29 
ROOT
HETATM    1  C1  UNL     1      -2.337   0.459  -4.369  1.00  0.00     0.158 C 
HETATM    2  N1  UNL     1      -1.306  -0.107  -3.525  1.00  0.00    -0.331 N 
HETATM    3  C2  UNL     1      -0.406  -1.016  -3.931  1.00  0.00     0.184 A 
HETATM    4  N2  UNL     1       0.413  -1.329  -2.886  1.00  0.00    -0.346 N 
ATOM      5  H2  UNL     1       1.186  -1.994  -2.916  1.00  0.00     0.167 HD
HETATM    6  C3  UNL     1       0.035  -0.618  -1.811  1.00  0.00     0.123 A 
HETATM    7  C4  UNL     1       0.524  -0.562  -0.517  1.00  0.00     0.147 A 
HETATM    8  N5  UNL     1      -0.105   0.276   0.325  1.00  0.00    -0.175 N 
ATOM      9  H5  UNL     1       0.227   0.344   1.287  1.00  0.00     0.186 HD
HETATM   10  C11 UNL     1      -1.169   1.038  -0.056  1.00  0.00     0.681 A 
HETATM   11  N9  UNL     1      -1.614   0.953  -1.326  1.00  0.00    -0.174 N 
ATOM     12  H9  UNL     1      -2.410   1.524  -1.610  1.00  0.00     0.186 HD
HETATM   13  C17 UNL     1      -1.040   0.139  -2.230  1.00  0.00     0.154 A 
ENDROOT
BRANCH  10  14
HETATM   14  N6  UNL     1      -1.731   1.824   0.798  1.00  0.00    -0.226 N 
ATOM     15  H6  UNL     1      -1.384   1.879   1.756  1.00  0.00     0.177 HD
BRANCH  14  16
HETATM   16  C12 UNL     1      -2.844   2.616   0.386  1.00  0.00     0.143 C 
BRANCH  16  17
HETATM   17  C13 UNL     1      -3.762   2.987   1.533  1.00  0.00     0.068 C 
BRANCH  17  18
HETATM   18  C14 UNL     1      -4.268   1.695   2.123  1.00  0.00     0.003 A 
HETATM   19  C15 UNL     1      -5.122   1.509   3.178  1.00  0.00     0.105 A 
HETATM   20  N7  UNL     1      -5.420   0.288   3.511  1.00  0.00    -0.346 N 
HETATM   21  C16 UNL     1      -4.885  -0.716   2.819  1.00  0.00     0.142 A 
ATOM     22  H7  UNL     1      -6.053   0.102   4.289  1.00  0.00     0.167 HD
HETATM   23  S1  UNL     1      -3.927   0.089   1.656  1.00  0.00    -0.058 SA
BRANCH  21  24
HETATM   24  N8  UNL     1      -5.063  -2.009   3.003  1.00  0.00    -0.380 N 
ATOM     25  H82 UNL     1      -5.635  -2.490   3.697  1.00  0.00     0.158 HD
ATOM     26  H81 UNL     1      -4.653  -2.778   2.473  1.00  0.00     0.158 HD
ENDBRANCH  21  24
ENDBRANCH  17  18
ENDBRANCH  16  17
ENDBRANCH  14  16
ENDBRANCH  10  14
BRANCH   7  27
HETATM   27  N3  UNL     1       1.631  -1.343  -0.090  1.00  0.00    -0.373 N 
ATOM     28  H3  UNL     1       2.100  -1.975  -0.739  1.00  0.00     0.161 HD
BRANCH  27  29
HETATM   29  C5  UNL     1       2.079  -1.230   1.268  1.00  0.00     0.133 C 
BRANCH  29  30
HETATM   30  C6  UNL     1       3.248  -2.104   1.587  1.00  0.00     0.114 C 
BRANCH  30  31
HETATM   31  C7  UNL     1       4.373  -1.743   0.722  1.00  0.00    -0.100 C 
HETATM   32  C8  UNL     1       5.296  -1.455  -0.010  1.00  0.00    -0.077 C 
BRANCH  32  33
HETATM   33  C9  UNL     1       6.378  -1.121  -0.893  1.00  0.00     0.079 C 
HETATM   34  C10 UNL     1       7.531  -0.655  -0.454  1.00  0.00     0.109 C 
HETATM   35  N4  UNL     1       8.586  -0.331  -1.334  1.00  0.00    -0.115 NA
ENDBRANCH  32  33
ENDBRANCH  30  31
ENDBRANCH  29  30
ENDBRANCH  27  29
ENDBRANCH   7  27
TORSDOF 10
