REMARK  13 active torsions:
REMARK  status: ('A' for Active; 'I' for Inactive)
REMARK    1  A    between atoms: O1_2  and  C2_3 
REMARK    2  A    between atoms: C2_3  and  C3_4 
REMARK    3  A    between atoms: C3_4  and  N1_5 
REMARK    4  A    between atoms: N1_5  and  C4_7 
REMARK    5  A    between atoms: C4_7  and  C5_8 
REMARK    6  A    between atoms: C5_8  and  N2_9 
REMARK    7  A    between atoms: N2_9  and  O2_11 
REMARK    8  A    between atoms: O2_11  and  C6_12 
REMARK    9  A    between atoms: C6_12  and  C7_13 
REMARK   10  A    between atoms: C8_14  and  C9_15 
REMARK   11  A    between atoms: C30_39  and  C31_40 
REMARK   12  A    between atoms: C31_40  and  N4_41 
REMARK   13  A    between atoms: C31_40  and  O4_45 
ROOT
HETATM    1  C9  UNL     1      -0.103  -0.496  -0.580  1.00  0.00     0.053 C 
HETATM    2  C10 UNL     1      -0.313  -0.872   0.807  1.00  0.00     0.141 C 
HETATM    3  O3  UNL     1       0.429  -1.304   1.579  1.00  0.00    -0.297 OA
HETATM    4  C11 UNL     1      -1.725  -0.639   1.326  1.00  0.00     0.085 C 
HETATM    5  C12 UNL     1      -2.820  -1.002   0.384  1.00  0.00     0.006 C 
HETATM    6  C13 UNL     1      -4.185  -0.777   0.828  1.00  0.00    -0.001 C 
HETATM    7  C14 UNL     1      -4.279  -0.769   2.359  1.00  0.00     0.034 C 
HETATM    8  C15 UNL     1      -5.747  -0.862   2.704  1.00  0.00    -0.001 C 
HETATM    9  C16 UNL     1      -6.536   0.034   2.081  1.00  0.00     0.010 C 
HETATM   10  N3  UNL     1      -7.963   0.281   2.106  1.00  0.00    -0.393 N 
ATOM     11  H3  UNL     1      -8.614   0.066   2.861  1.00  0.00     0.159 HD
HETATM   12  C17 UNL     1      -8.276   0.912   0.804  1.00  0.00     0.120 C 
HETATM   13  C18 UNL     1      -7.023   1.779   0.611  1.00  0.00     0.035 C 
HETATM   14  C19 UNL     1      -5.876   1.017   1.192  1.00  0.00     0.003 C 
HETATM   15  C20 UNL     1      -5.038   1.998   2.025  1.00  0.00     0.022 C 
HETATM   16  C21 UNL     1      -5.029   0.276   0.163  1.00  0.00     0.004 C 
HETATM   17  C22 UNL     1      -4.362   1.281  -0.717  1.00  0.00     0.007 C 
HETATM   18  C23 UNL     1      -2.887   1.012  -0.927  1.00  0.00     0.011 C 
HETATM   19  C24 UNL     1      -2.572  -0.439  -1.011  1.00  0.00    -0.031 C 
HETATM   20  C25 UNL     1      -3.596  -1.031  -1.948  1.00  0.00     0.016 C 
HETATM   21  C26 UNL     1      -1.245  -0.894  -1.418  1.00  0.00    -0.018 C 
HETATM   22  C27 UNL     1      -1.333  -2.425  -1.474  1.00  0.00     0.018 C 
HETATM   23  C28 UNL     1      -0.761  -0.504  -2.783  1.00  0.00     0.012 C 
HETATM   24  C29 UNL     1       0.671  -1.039  -2.713  1.00  0.00     0.011 C 
HETATM   25  C30 UNL     1       1.059  -1.134  -1.265  1.00  0.00     0.062 C 
ENDROOT
BRANCH   1  26
HETATM   26  C8  UNL     1       0.249   0.978  -0.564  1.00  0.00    -0.010 C 
HETATM   27  C7  UNL     1       1.541   1.514  -0.283  1.00  0.00    -0.001 C 
BRANCH  27  28
HETATM   28  C6  UNL     1       2.545   1.221   0.745  1.00  0.00     0.228 C 
BRANCH  28  29
HETATM   29  O2  UNL     1       3.551   2.249   0.344  1.00  0.00    -0.281 OA
BRANCH  29  30
HETATM   30  N2  UNL     1       4.607   1.712   0.064  1.00  0.00    -0.301 N 
ATOM     31  H2  UNL     1       4.612   1.796  -0.953  1.00  0.00     0.187 HD
BRANCH  30  32
HETATM   32  C5  UNL     1       5.779   1.071   0.284  1.00  0.00     0.165 C 
BRANCH  32  33
HETATM   33  C4  UNL     1       6.456   0.825  -1.122  1.00  0.00     0.135 C 
BRANCH  33  34
HETATM   34  N1  UNL     1       7.495  -0.111  -1.035  1.00  0.00    -0.418 N 
ATOM     35  H1  UNL     1       7.366  -1.047  -1.419  1.00  0.00     0.153 HD
BRANCH  34  36
HETATM   36  C3  UNL     1       8.722   0.232  -0.419  1.00  0.00     0.140 C 
BRANCH  36  37
HETATM   37  C2  UNL     1       9.439  -1.039   0.005  1.00  0.00     0.186 C 
BRANCH  37  38
HETATM   38  O1  UNL     1      10.664  -0.790   0.658  1.00  0.00    -0.394 OA
HETATM   39  C1  UNL     1      10.394   0.110   1.723  1.00  0.00     0.201 C 
ENDBRANCH  37  38
ENDBRANCH  36  37
ENDBRANCH  34  36
ENDBRANCH  33  34
ENDBRANCH  32  33
ENDBRANCH  30  32
ENDBRANCH  29  30
ENDBRANCH  28  29
ENDBRANCH  27  28
ENDBRANCH   1  26
BRANCH  25  40
HETATM   40  C31 UNL     1       1.605  -2.408  -0.928  1.00  0.00     0.321 C 
BRANCH  40  41
HETATM   41  N4  UNL     1       2.058  -3.001   0.267  1.00  0.00    -0.053 N 
ATOM     42  H43 UNL     1       2.754  -2.341   0.614  1.00  0.00     0.277 HD
ATOM     43  H42 UNL     1       1.264  -2.905   0.900  1.00  0.00     0.277 HD
ATOM     44  H41 UNL     1       2.448  -3.912   0.508  1.00  0.00     0.277 HD
ENDBRANCH  40  41
BRANCH  40  45
HETATM   45  O4  UNL     1       1.739  -3.278  -1.900  1.00  0.00    -0.369 OA
ATOM     46  H4  UNL     1       2.103  -4.126  -1.676  1.00  0.00     0.212 HD
ENDBRANCH  40  45
ENDBRANCH  25  40
TORSDOF 13
