REMARK  1 active torsions:
REMARK  status: ('A' for Active; 'I' for Inactive)
REMARK    1  A    between atoms: C2_2  and  N1_3 
ROOT
HETATM    1  N1  UNL     1       1.236  -0.175   0.450  1.00  0.00     0.123 N 
HETATM    2  C3  UNL     1       1.324  -1.621   0.574  1.00  0.00     0.305 C 
HETATM    3  C4  UNL     1       0.509  -2.179  -0.576  1.00  0.00     0.305 C 
HETATM    4  N2  UNL     1      -0.452  -1.086  -0.824  1.00  0.00     0.126 N 
HETATM    5  C5  UNL     1      -1.464  -1.265   0.203  1.00  0.00     0.312 C 
HETATM    6  C6  UNL     1      -2.761  -0.597  -0.122  1.00  0.00     0.198 C 
HETATM    7  F1  UNL     1      -3.052  -0.876  -1.448  1.00  0.00    -0.248 F 
HETATM    8  C7  UNL     1      -2.790   0.858   0.198  1.00  0.00     0.039 C 
HETATM    9  C8  UNL     1      -1.411   1.390   0.602  1.00  0.00     0.007 C 
HETATM   10  C9  UNL     1      -0.455   1.324  -0.535  1.00  0.00     0.069 C 
HETATM   11  C10 UNL     1       0.365   0.071  -0.618  1.00  0.00     0.456 C 
ENDROOT
BRANCH   1  12
HETATM   12  C2  UNL     1       2.546   0.335   0.415  1.00  0.00     0.271 C 
HETATM   13  C1  UNL     1       2.717   1.725  -0.094  1.00  0.00     0.037 C 
ENDBRANCH   1  12
TORSDOF 1
