REMARK  1 active torsions:
REMARK  status: ('A' for Active; 'I' for Inactive)
REMARK    1  A    between atoms: O1_2  and  C2_3 
ROOT
HETATM    1  C2  UNL     1       0.840  -0.392  -0.136  1.00  0.00     0.146 C 
HETATM    2  C3  UNL     1       0.300   0.975   0.144  1.00  0.00     0.119 C 
HETATM    3  C4  UNL     1       1.147   2.065  -0.507  1.00  0.00     0.032 C 
HETATM    4  N1  UNL     1      -1.019   1.044  -0.443  1.00  0.00    -0.158 NA
HETATM    5  N2  UNL     1      -1.928   0.254   0.214  1.00  0.00    -0.233 NA
HETATM    6  C5  UNL     1      -3.125   0.171  -0.631  1.00  0.00     0.132 C 
HETATM    7  C6  UNL     1      -1.483  -1.036   0.594  1.00  0.00     0.082 A 
HETATM    8  C7  UNL     1      -0.589  -1.264   1.759  1.00  0.00     0.030 A 
HETATM    9  C8  UNL     1      -0.125  -1.422   0.304  1.00  0.00     0.037 A 
ENDROOT
BRANCH   1  10
HETATM   10  O1  UNL     1       2.044  -0.517   0.580  1.00  0.00    -0.389 OA
HETATM   11  C1  UNL     1       3.115  -0.716  -0.288  1.00  0.00     0.202 C 
ENDBRANCH   1  10
TORSDOF 1
