REMARK  2 active torsions:
REMARK  status: ('A' for Active; 'I' for Inactive)
REMARK    1  A    between atoms: C4_6  and  O2_7 
REMARK    2  A    between atoms: C4_6  and  C5_9 
ROOT
HETATM    1  C1  UNL     1      -2.157  -0.175  -1.099  1.00  0.00     0.356 C 
HETATM    2  N1  UNL     1      -1.201  -0.377  -0.054  1.00  0.00     0.012 N 
HETATM    3  O1  UNL     1      -1.705  -1.149   0.911  1.00  0.00    -0.065 OA
HETATM    4  C2  UNL     1      -0.910   0.936   0.525  1.00  0.00     0.314 C 
HETATM    5  C3  UNL     1       0.287   0.596   1.400  1.00  0.00     0.077 C 
HETATM    6  C4  UNL     1       1.095  -0.276   0.447  1.00  0.00     0.104 C 
HETATM    7  C6  UNL     1       0.082  -0.838  -0.527  1.00  0.00     0.350 C 
ENDROOT
BRANCH   6   8
HETATM    8  O2  UNL     1       1.705  -1.286   1.141  1.00  0.00    -0.386 OA
ATOM      9  H2  UNL     1       2.209  -1.830   0.547  1.00  0.00     0.210 HD
ENDBRANCH   6   8
BRANCH   6  10
HETATM   10  C5  UNL     1       2.075   0.639  -0.254  1.00  0.00     0.154 C 
HETATM   11 CL1  UNL     1       3.089  -0.260  -1.406  1.00  0.00    -0.127 Cl
ENDBRANCH   6  10
TORSDOF 2
