REMARK  2 active torsions:
REMARK  status: ('A' for Active; 'I' for Inactive)
REMARK    1  A    between atoms: C2_2  and  O1_3 
REMARK    2  A    between atoms: C2_2  and  C3_5 
ROOT
HETATM    1  C3  UNL     1      -0.046   0.264  -0.392  1.00  0.00     0.213 C 
HETATM    2  O2  UNL     1       0.763   0.687   0.626  1.00  0.00    -0.352 OA
HETATM    3  C4  UNL     1       2.043   0.887   0.162  1.00  0.00     0.228 C 
HETATM    4 CL1  UNL     1       2.193   2.221  -0.978  1.00  0.00    -0.095 Cl
HETATM    5  C5  UNL     1       2.559  -0.420  -0.397  1.00  0.00     0.124 C 
HETATM    6  S1  UNL     1       0.976  -1.147  -0.989  1.00  0.00    -0.131 SA
ENDROOT
BRANCH   1   7
HETATM    7  C2  UNL     1      -1.337  -0.255   0.194  1.00  0.00     0.153 C 
HETATM    8  C1  UNL     1      -2.304  -0.726  -0.856  1.00  0.00     0.042 C 
BRANCH   7   9
HETATM    9  O1  UNL     1      -1.942   0.786   0.898  1.00  0.00    -0.393 OA
ATOM     10  H1  UNL     1      -1.331   1.084   1.562  1.00  0.00     0.210 HD
ENDBRANCH   7   9
ENDBRANCH   1   7
TORSDOF 2
