REMARK  6 active torsions:
REMARK  status: ('A' for Active; 'I' for Inactive)
REMARK       I    between atoms: N1_1  and  C1_5 
REMARK       I    between atoms: C1_5  and  N2_6 
REMARK       I    between atoms: C1_5  and  N3_10 
REMARK    1  A    between atoms: N3_10  and  C2_12 
REMARK    2  A    between atoms: C4_14  and  N4_15 
REMARK       I    between atoms: N4_15  and  C5_16 
REMARK       I    between atoms: C5_16  and  N5_18 
REMARK    3  A    between atoms: C10_26  and  C11_27 
REMARK    4  A    between atoms: C12_29  and  C13_30 
REMARK    5  A    between atoms: C16_33  and  N7_34 
REMARK    6  A    between atoms: C20_40  and  O5_41 
ROOT
HETATM    1  N4  UNL     1      -5.143  -0.056  -0.901  1.00  0.00    -0.352 NA
HETATM    2  C5  UNL     1      -3.954  -0.616  -1.212  1.00  0.00     0.396 C 
HETATM    3  O1  UNL     1      -3.571  -1.074  -2.338  1.00  0.00    -0.230 OA
HETATM    4  N5  UNL     1      -2.903  -0.759  -0.210  1.00  0.00    -0.318 N 
HETATM    5  C6  UNL     1      -3.225  -0.289   1.128  1.00  0.00     0.135 C 
HETATM    6  C7  UNL     1      -2.270   0.802   1.536  1.00  0.00     0.077 C 
HETATM    7  C8  UNL     1      -0.883   0.521   1.112  1.00  0.00     0.019 A 
HETATM    8  N6  UNL     1       0.144   1.245   1.644  1.00  0.00    -0.353 N 
ATOM      9  H6  UNL     1      -0.064   1.973   2.328  1.00  0.00     0.166 HD
HETATM   10  C9  UNL     1       1.441   1.023   1.287  1.00  0.00     0.085 A 
HETATM   11  S1  UNL     1       2.933   1.728   1.744  1.00  0.00    -0.069 SA
HETATM   12  C10 UNL     1       3.981   0.801   0.779  1.00  0.00     0.044 A 
HETATM   13  C21 UNL     1       3.130  -0.043   0.120  1.00  0.00     0.036 A 
HETATM   14  C22 UNL     1       1.822   0.075   0.384  1.00  0.00    -0.000 A 
HETATM   15  C23 UNL     1       0.768  -0.671  -0.164  1.00  0.00     0.025 A 
HETATM   16  C24 UNL     1      -0.530  -0.427   0.211  1.00  0.00    -0.017 A 
HETATM   17  C25 UNL     1      -1.608  -1.279  -0.426  1.00  0.00     0.169 C 
ENDROOT
BRANCH   1  18
HETATM   18  C4  UNL     1      -6.344   0.510  -0.589  1.00  0.00     0.117 A 
HETATM   19  C3  UNL     1      -7.359  -0.301  -0.039  1.00  0.00     0.093 A 
HETATM   20  C2  UNL     1      -8.568   0.174   0.351  1.00  0.00     0.106 A 
HETATM   21  N8  UNL     1      -8.765   1.522   0.182  1.00  0.00    -0.352 N 
HETATM   22  C27 UNL     1      -7.837   2.329  -0.332  1.00  0.00     0.093 A 
ATOM     23  H8  UNL     1      -9.660   1.923   0.462  1.00  0.00     0.166 HD
HETATM   24  C26 UNL     1      -6.615   1.870  -0.732  1.00  0.00     0.062 A 
BRANCH  20  25
HETATM   25  N3  UNL     1      -9.525  -0.513   0.860  1.00  0.00    -0.327 N 
HETATM   26  C1  UNL     1      -9.557  -1.899   1.132  1.00  0.00     0.481 C 
HETATM   27  N1  UNL     1      -9.687  -2.716  -0.072  1.00  0.00    -0.033 N 
HETATM   28  N2  UNL     1      -8.454  -2.334   1.925  1.00  0.00    -0.033 N 
ATOM     29  H13 UNL     1      -8.821  -2.735  -0.610  1.00  0.00     0.278 HD
ATOM     30  H12 UNL     1      -9.752  -3.709   0.152  1.00  0.00     0.278 HD
ATOM     31  H11 UNL     1     -10.476  -2.405  -0.639  1.00  0.00     0.278 HD
ATOM     32  H23 UNL     1      -8.519  -3.327   2.149  1.00  0.00     0.278 HD
ATOM     33  H22 UNL     1      -7.588  -2.353   1.387  1.00  0.00     0.278 HD
ATOM     34  H21 UNL     1      -8.363  -1.764   2.766  1.00  0.00     0.278 HD
ATOM     35  H3  UNL     1     -10.369   0.007   1.098  1.00  0.00     0.164 HD
ENDBRANCH  20  25
ENDBRANCH   1  18
BRANCH  12  36
HETATM   36  C11 UNL     1       5.459   0.865   0.654  1.00  0.00     0.126 A 
HETATM   37  O2  UNL     1       6.216   0.131  -0.103  1.00  0.00    -0.306 OA
HETATM   38  C12 UNL     1       7.477   0.433   0.013  1.00  0.00     0.089 A 
HETATM   39  C19 UNL     1       7.597   1.461   0.929  1.00  0.00     0.077 A 
HETATM   40  C20 UNL     1       6.282   1.728   1.333  1.00  0.00     0.103 A 
BRANCH  38  41
HETATM   41  C13 UNL     1       8.617  -0.164  -0.667  1.00  0.00    -0.002 A 
HETATM   42  C14 UNL     1       9.893   0.283  -0.429  1.00  0.00     0.017 A 
HETATM   43  C15 UNL     1      10.980  -0.261  -1.062  1.00  0.00     0.037 A 
HETATM   44  C16 UNL     1      10.821  -1.282  -1.965  1.00  0.00     0.102 A 
HETATM   45  C17 UNL     1       9.550  -1.747  -2.220  1.00  0.00     0.037 A 
HETATM   46  C18 UNL     1       8.448  -1.188  -1.571  1.00  0.00     0.017 A 
BRANCH  44  47
HETATM   47  N7  UNL     1      11.945  -1.872  -2.641  1.00  0.00    -0.116 N 
HETATM   48  O3  UNL     1      13.087  -1.406  -2.379  1.00  0.00    -0.532 OA
HETATM   49  O4  UNL     1      11.745  -2.891  -3.530  1.00  0.00    -0.532 OA
ENDBRANCH  44  47
ENDBRANCH  38  41
BRANCH  40  50
HETATM   50  O5  UNL     1       5.973   2.689   2.240  1.00  0.00    -0.358 OA
ATOM     51  H5  UNL     1       6.543   3.286   2.710  1.00  0.00     0.217 HD
ENDBRANCH  40  50
ENDBRANCH  12  36
TORSDOF 6
