REMARK  3 active torsions:
REMARK  status: ('A' for Active; 'I' for Inactive)
REMARK    1  A    between atoms: C4_7  and  C5_8 
REMARK    2  A    between atoms: C5_8  and  N2_9 
REMARK    3  A    between atoms: N2_9  and  C6_11 
ROOT
HETATM    1  N2  UNL     1       0.208  -0.106  -0.846  1.00  0.00    -0.410 N 
ATOM      2  H2  UNL     1       0.473  -0.382  -1.792  1.00  0.00     0.154 HD
ENDROOT
BRANCH   1   3
HETATM    3  C5  UNL     1       1.169   0.288   0.125  1.00  0.00     0.153 C 
BRANCH   3   4
HETATM    4  C4  UNL     1       2.587   0.248  -0.404  1.00  0.00     0.197 C 
HETATM    5  C3  UNL     1       3.543   0.592   0.703  1.00  0.00     0.107 A 
HETATM    6  C2  UNL     1       4.852   0.098   0.664  1.00  0.00     0.045 A 
HETATM    7  O1  UNL     1       3.463   1.291   1.785  1.00  0.00    -0.305 OA
HETATM    8  N1  UNL     1       5.447   0.564   1.759  1.00  0.00    -0.348 N 
HETATM    9  C17 UNL     1       5.326  -0.756  -0.440  1.00  0.00     0.086 C 
HETATM   10  C1  UNL     1       4.579   1.310   2.461  1.00  0.00     0.233 A 
ATOM     11  H1  UNL     1       6.415   0.382   2.025  1.00  0.00     0.167 HD
HETATM   12  C16 UNL     1       4.201  -0.908  -1.438  1.00  0.00     0.175 C 
HETATM   13  O2  UNL     1       2.961  -1.029  -0.826  1.00  0.00    -0.377 OA
ENDBRANCH   3   4
ENDBRANCH   1   3
BRANCH   1  14
HETATM   14  C6  UNL     1      -1.144  -0.091  -0.415  1.00  0.00     0.026 C 
HETATM   15  C7  UNL     1      -1.567   1.314  -0.043  1.00  0.00     0.035 C 
HETATM   16  C8  UNL     1      -3.032   1.369   0.335  1.00  0.00    -0.012 C 
HETATM   17  C9  UNL     1      -3.255   0.428   1.503  1.00  0.00     0.009 C 
HETATM   18  C13 UNL     1      -3.904   0.970  -0.810  1.00  0.00     0.009 C 
HETATM   19  C10 UNL     1      -2.932  -0.962   1.023  1.00  0.00    -0.012 C 
HETATM   20  C11 UNL     1      -3.764  -1.375  -0.155  1.00  0.00     0.009 C 
HETATM   21  C15 UNL     1      -1.446  -1.007   0.732  1.00  0.00     0.035 C 
HETATM   22  C12 UNL     1      -3.481  -0.417  -1.285  1.00  0.00    -0.012 C 
HETATM   23  C14 UNL     1      -2.022  -0.487  -1.609  1.00  0.00     0.035 C 
ENDBRANCH   1  14
TORSDOF 3
