REMARK  8 active torsions:
REMARK  status: ('A' for Active; 'I' for Inactive)
REMARK       I    between atoms: C2_2  and  N1_4 
REMARK    1  A    between atoms: N1_4  and  C3_6 
REMARK    2  A    between atoms: C3_6  and  C4_7 
REMARK    3  A    between atoms: C3_6  and  C5_10 
REMARK    4  A    between atoms: C5_10  and  O3_11 
REMARK    5  A    between atoms: C5_10  and  C7_15 
REMARK    6  A    between atoms: O3_11  and  C6_12 
REMARK       I    between atoms: C7_15  and  N4_17 
REMARK    7  A    between atoms: N4_17  and  C8_19 
REMARK    8  A    between atoms: C11_24  and  C12_25 
ROOT
HETATM    1  C7  UNL     1      -0.673  -0.586  -0.064  1.00  0.00     0.256 C 
HETATM    2  O5  UNL     1      -0.121  -1.510  -0.754  1.00  0.00    -0.270 OA
HETATM    3  N4  UNL     1       0.170   0.333   0.567  1.00  0.00    -0.305 N 
ATOM      4  H4  UNL     1      -0.224   1.088   1.128  1.00  0.00     0.171 HD
ENDROOT
BRANCH   1   5
HETATM    5  C5  UNL     1      -2.166  -0.598  -0.013  1.00  0.00     0.256 C 
BRANCH   5   6
HETATM    6  C3  UNL     1      -2.694   0.599  -0.730  1.00  0.00     0.212 C 
BRANCH   6   7
HETATM    7  N1  UNL     1      -2.386   1.808  -0.002  1.00  0.00    -0.345 N 
HETATM    8  C2  UNL     1      -3.060   2.207   1.184  1.00  0.00     0.214 C 
HETATM    9  C1  UNL     1      -2.676   3.491   1.870  1.00  0.00     0.117 C 
HETATM   10  O1  UNL     1      -3.973   1.562   1.723  1.00  0.00    -0.274 OA
ATOM     11  H1  UNL     1      -1.643   2.409  -0.359  1.00  0.00     0.163 HD
ENDBRANCH   6   7
BRANCH   6  12
HETATM   12  C4  UNL     1      -4.111   0.513  -1.142  1.00  0.00     0.257 C 
HETATM   13  N2  UNL     1      -4.618  -0.619  -1.857  1.00  0.00    -0.060 NA
HETATM   14  O2  UNL     1      -4.923   1.426  -0.884  1.00  0.00    -0.274 OA
ENDBRANCH   6  12
ENDBRANCH   5   6
BRANCH   5  15
HETATM   15  O3  UNL     1      -2.551  -1.766  -0.743  1.00  0.00    -0.289 OA
BRANCH  15  16
HETATM   16  C6  UNL     1      -3.186  -2.799  -0.035  1.00  0.00     0.373 C 
HETATM   17  N3  UNL     1      -3.571  -3.967  -0.744  1.00  0.00    -0.032 NA
HETATM   18  O4  UNL     1      -3.376  -2.631   1.184  1.00  0.00    -0.242 OA
ENDBRANCH  15  16
ENDBRANCH   5  15
ENDBRANCH   1   5
BRANCH   3  19
HETATM   19  C8  UNL     1       1.584   0.211   0.423  1.00  0.00     0.152 A 
HETATM   20  N5  UNL     1       2.294  -0.682  -0.251  1.00  0.00    -0.339 N 
HETATM   21  C9  UNL     1       3.586  -0.622  -0.259  1.00  0.00     0.028 A 
ATOM     22  H5  UNL     1       1.818  -1.422  -0.767  1.00  0.00     0.168 HD
HETATM   23  C10 UNL     1       4.449  -1.622  -1.017  1.00  0.00     0.070 C 
HETATM   24  C11 UNL     1       4.178   0.393   0.451  1.00  0.00     0.076 A 
HETATM   25  S1  UNL     1       2.817   1.199   1.088  1.00  0.00    -0.048 SA
BRANCH  24  26
HETATM   26  C12 UNL     1       5.601   0.702   0.617  1.00  0.00     0.150 A 
HETATM   27  N6  UNL     1       6.117   1.717   1.330  1.00  0.00    -0.269 N 
HETATM   28  N7  UNL     1       7.437   1.662   1.238  1.00  0.00    -0.007 NA
ATOM     29  H6  UNL     1       5.583   2.411   1.853  1.00  0.00     0.185 HD
HETATM   30  N8  UNL     1       7.736   0.622   0.475  1.00  0.00    -0.007 NA
HETATM   31  N9  UNL     1       6.608   0.033   0.094  1.00  0.00    -0.269 N 
ATOM     32  H9  UNL     1       6.534  -0.793  -0.500  1.00  0.00     0.185 HD
ENDBRANCH  24  26
ENDBRANCH   3  19
TORSDOF 8
