REMARK  7 active torsions:
REMARK  status: ('A' for Active; 'I' for Inactive)
REMARK    1  A    between atoms: C7_10  and  C8_11 
REMARK    2  A    between atoms: N4_18  and  C13_20 
REMARK    3  A    between atoms: C13_20  and  C14_21 
REMARK    4  A    between atoms: C14_21  and  O1_22 
REMARK    5  A    between atoms: O1_22  and  C15_23 
REMARK    6  A    between atoms: C15_23  and  C16_24 
REMARK    7  A    between atoms: C16_24  and  N5_25 
ROOT
HETATM    1  C8  UNL     1      -1.598  -2.249   0.391  1.00  0.00     0.018 A 
HETATM    2  C9  UNL     1      -1.888  -3.376   1.118  1.00  0.00     0.017 A 
HETATM    3  C10 UNL     1      -1.106  -4.536   0.985  1.00  0.00     0.018 A 
HETATM    4  C11 UNL     1      -0.048  -4.521   0.116  1.00  0.00     0.089 A 
HETATM    5  N3  UNL     1       0.228  -3.412  -0.591  1.00  0.00    -0.352 N 
ATOM      6  H3  UNL     1       1.019  -3.415  -1.235  1.00  0.00     0.166 HD
HETATM    7  C12 UNL     1      -0.529  -2.280  -0.466  1.00  0.00     0.112 A 
HETATM    8  N4  UNL     1      -0.249  -1.229  -1.137  1.00  0.00    -0.374 N 
ATOM      9  H4  UNL     1      -0.847  -0.415  -0.993  1.00  0.00     0.161 HD
ENDROOT
BRANCH   1  10
HETATM   10  C7  UNL     1      -2.410  -1.055   0.517  1.00  0.00    -0.021 A 
HETATM   11  C6  UNL     1      -2.700  -0.527   1.782  1.00  0.00     0.014 A 
HETATM   12  C5  UNL     1      -3.473   0.590   1.897  1.00  0.00     0.033 A 
HETATM   13  C4  UNL     1      -3.962   1.190   0.763  1.00  0.00     0.062 A 
HETATM   14  N2  UNL     1      -4.738   2.285   0.599  1.00  0.00    -0.296 N 
HETATM   15  C20 UNL     1      -3.690   0.688  -0.491  1.00  0.00     0.017 A 
HETATM   16  N1  UNL     1      -4.931   2.447  -0.689  1.00  0.00    -0.302 N 
HETATM   17  C3  UNL     1      -5.235   3.094   1.696  1.00  0.00     0.178 C 
HETATM   18  C2  UNL     1      -4.312   1.497  -1.409  1.00  0.00     0.034 A 
ATOM     19  H1  UNL     1      -5.484   3.202  -1.094  1.00  0.00     0.186 HD
HETATM   20  C1  UNL     1      -4.265   1.298  -2.880  1.00  0.00     0.070 C 
HETATM   21  C19 UNL     1      -2.914  -0.432  -0.599  1.00  0.00     0.028 A 
ENDBRANCH   1  10
BRANCH   8  22
HETATM   22  C13 UNL     1       0.830  -1.087  -2.076  1.00  0.00     0.147 C 
BRANCH  22  23
HETATM   23  C14 UNL     1       2.090  -0.763  -1.277  1.00  0.00     0.187 C 
BRANCH  23  24
HETATM   24  O1  UNL     1       1.942   0.404  -0.560  1.00  0.00    -0.388 OA
BRANCH  24  25
HETATM   25  C15 UNL     1       3.052   0.665   0.198  1.00  0.00     0.198 C 
BRANCH  25  26
HETATM   26  C16 UNL     1       4.282   0.822  -0.656  1.00  0.00     0.297 C 
BRANCH  26  27
HETATM   27  N5  UNL     1       5.455   1.116   0.194  1.00  0.00     0.082 N 
HETATM   28  C17 UNL     1       6.573   1.244  -0.753  1.00  0.00     0.309 C 
HETATM   29  C18 UNL     1       5.302   2.436   0.794  1.00  0.00     0.309 C 
ENDBRANCH  26  27
ENDBRANCH  25  26
ENDBRANCH  24  25
ENDBRANCH  23  24
ENDBRANCH  22  23
ENDBRANCH   8  22
TORSDOF 7
