REMARK  9 active torsions:
REMARK  status: ('A' for Active; 'I' for Inactive)
REMARK    1  A    between atoms: C2_2  and  N1_3 
REMARK    2  A    between atoms: N1_3  and  C3_5 
REMARK    3  A    between atoms: C7_11  and  N3_12 
REMARK    4  A    between atoms: C10_15  and  N4_16 
REMARK    5  A    between atoms: N4_16  and  C11_18 
REMARK    6  A    between atoms: C11_18  and  C12_19 
REMARK    7  A    between atoms: C12_19  and  O1_20 
REMARK    8  A    between atoms: O1_20  and  C13_21 
REMARK    9  A    between atoms: C13_21  and  C14_22 
ROOT
HETATM    1  C3  UNL     1      -3.429   1.282   0.440  1.00  0.00     0.679 C 
HETATM    2  N2  UNL     1      -4.404   0.373   0.619  1.00  0.00    -0.196 N 
ATOM      3  H2  UNL     1      -5.298   0.768   0.911  1.00  0.00     0.184 HD
HETATM    4  C4  UNL     1      -4.409  -0.967   0.481  1.00  0.00     0.025 C 
HETATM    5  C5  UNL     1      -5.701  -1.668   0.697  1.00  0.00     0.068 C 
HETATM    6  C6  UNL     1      -3.342  -1.794   0.155  1.00  0.00     0.058 C 
HETATM    7  C7  UNL     1      -1.990  -1.441   0.127  1.00  0.00     0.076 C 
HETATM    8  C10 UNL     1      -1.453  -0.168   0.272  1.00  0.00     0.143 C 
HETATM    9  N5  UNL     1      -2.133   0.998   0.224  1.00  0.00    -0.175 N 
ATOM     10  H5  UNL     1      -1.561   1.807  -0.019  1.00  0.00     0.186 HD
ENDROOT
BRANCH   8  11
HETATM   11  N4  UNL     1      -0.192  -0.173   0.466  1.00  0.00    -0.372 N 
ATOM     12  H4  UNL     1       0.265  -1.085   0.491  1.00  0.00     0.161 HD
BRANCH  11  13
HETATM   13  C11 UNL     1       0.651   0.979   0.653  1.00  0.00     0.147 C 
BRANCH  13  14
HETATM   14  C12 UNL     1       1.277   1.299  -0.694  1.00  0.00     0.187 C 
BRANCH  14  15
HETATM   15  O1  UNL     1       2.110   2.383  -0.669  1.00  0.00    -0.385 OA
BRANCH  15  16
HETATM   16  C13 UNL     1       3.191   2.313   0.163  1.00  0.00     0.206 C 
BRANCH  16  17
HETATM   17  C14 UNL     1       4.152   1.243  -0.098  1.00  0.00    -0.035 A 
HETATM   18  C15 UNL     1       4.328   0.626  -1.321  1.00  0.00     0.010 A 
HETATM   19  C16 UNL     1       5.259  -0.383  -1.480  1.00  0.00     0.007 A 
HETATM   20  C17 UNL     1       6.030  -0.798  -0.434  1.00  0.00    -0.062 A 
HETATM   21  C18 UNL     1       7.016  -1.881  -0.641  1.00  0.00     0.048 C 
HETATM   22  C19 UNL     1       5.884  -0.203   0.814  1.00  0.00     0.007 A 
HETATM   23  C20 UNL     1       4.951   0.800   0.950  1.00  0.00     0.010 A 
ENDBRANCH  16  17
ENDBRANCH  15  16
ENDBRANCH  14  15
ENDBRANCH  13  14
ENDBRANCH  11  13
ENDBRANCH   8  11
BRANCH   7  24
HETATM   24  N3  UNL     1      -1.033  -2.460  -0.067  1.00  0.00    -0.387 N 
HETATM   25  C8  UNL     1      -0.100  -2.512  -1.163  1.00  0.00     0.149 C 
HETATM   26  C9  UNL     1      -0.978  -3.532   0.899  1.00  0.00     0.149 C 
ENDBRANCH   7  24
BRANCH   1  27
HETATM   27  N1  UNL     1      -3.747   2.546   0.475  1.00  0.00    -0.226 N 
ATOM     28  H1  UNL     1      -3.006   3.234   0.338  1.00  0.00     0.177 HD
BRANCH  27  29
HETATM   29  C2  UNL     1      -5.075   3.018   0.694  1.00  0.00     0.133 C 
HETATM   30  C1  UNL     1      -5.554   3.743  -0.555  1.00  0.00     0.027 C 
ENDBRANCH  27  29
ENDBRANCH   1  27
TORSDOF 9
