REMARK  4 active torsions:
REMARK  status: ('A' for Active; 'I' for Inactive)
REMARK    1  A    between atoms: N1_1  and  N2_4 
REMARK    2  A    between atoms: C1_8  and  N5_9 
REMARK    3  A    between atoms: N5_9  and  N6_11 
REMARK       I    between atoms: N6_11  and  C2_13 
REMARK    4  A    between atoms: C2_13  and  C3_15 
ROOT
HETATM    1  N6  UNL     1       0.473  -1.176   0.475  1.00  0.00    -0.263 N 
ATOM      2  H6  UNL     1       0.879  -1.891  -0.129  1.00  0.00     0.190 HD
HETATM    3  C2  UNL     1       1.185   0.017   0.646  1.00  0.00     0.277 C 
HETATM    4  O1  UNL     1       0.720   0.921   1.382  1.00  0.00    -0.266 OA
ENDROOT
BRANCH   1   5
HETATM    5  N5  UNL     1      -0.755  -1.452   1.076  1.00  0.00    -0.266 N 
ATOM      6  H5  UNL     1      -0.826  -2.120   1.843  1.00  0.00     0.190 HD
BRANCH   5   7
HETATM    7  C1  UNL     1      -1.805  -0.833   0.630  1.00  0.00     0.229 A 
HETATM    8  N4  UNL     1      -3.135  -0.978   1.107  1.00  0.00    -0.249 N 
HETATM    9  N3  UNL     1      -3.955  -0.134   0.356  1.00  0.00     0.020 NA
ATOM     10  H4  UNL     1      -3.437  -1.591   1.864  1.00  0.00     0.187 HD
HETATM   11  N2  UNL     1      -3.170   0.531  -0.575  1.00  0.00    -0.119 N 
HETATM   12  N10 UNL     1      -1.866   0.118  -0.421  1.00  0.00    -0.234 N 
ATOM     13  H10 UNL     1      -1.072   0.443  -0.973  1.00  0.00     0.193 HD
BRANCH  11  14
HETATM   14  N1  UNL     1      -3.528   1.389  -1.452  1.00  0.00    -0.310 N 
ATOM     15  H12 UNL     1      -4.494   1.695  -1.566  1.00  0.00     0.180 HD
ATOM     16  H11 UNL     1      -2.951   1.878  -2.136  1.00  0.00     0.180 HD
ENDBRANCH  11  14
ENDBRANCH   5   7
ENDBRANCH   1   5
BRANCH   3  17
HETATM   17  C3  UNL     1       2.458   0.225  -0.015  1.00  0.00     0.119 A 
HETATM   18  C4  UNL     1       3.366  -0.826  -0.177  1.00  0.00     0.131 A 
HETATM   19  N7  UNL     1       4.544  -0.647  -0.786  1.00  0.00    -0.296 N 
HETATM   20  N8  UNL     1       4.875   0.538  -1.250  1.00  0.00    -0.240 N 
ATOM     21  H7  UNL     1       5.187  -1.432  -0.891  1.00  0.00     0.187 HD
HETATM   22  N9  UNL     1       4.042   1.552  -1.114  1.00  0.00    -0.251 N 
ATOM     23  H8  UNL     1       5.773   0.673  -1.714  1.00  0.00     0.208 HD
HETATM   24  C5  UNL     1       2.844   1.448  -0.515  1.00  0.00     0.278 A 
ATOM     25  H9  UNL     1       4.322   2.461  -1.482  1.00  0.00     0.192 HD
HETATM   26  O2  UNL     1       2.051   2.410  -0.384  1.00  0.00    -0.266 OA
ENDBRANCH   3  17
TORSDOF 4
