REMARK  2 active torsions:
REMARK  status: ('A' for Active; 'I' for Inactive)
REMARK    1  A    between atoms: C4_8  and  C5_9 
REMARK       I    between atoms: C5_9  and  N3_11 
REMARK       I    between atoms: C6_13  and  N5_15 
REMARK    2  A    between atoms: N5_15  and  N6_17 
ROOT
HETATM    1  C5  UNL     1       0.860   0.735   0.740  1.00  0.00     0.281 C 
HETATM    2  O2  UNL     1       1.048   1.480   1.736  1.00  0.00    -0.267 OA
HETATM    3  N3  UNL     1       1.816   0.661  -0.301  1.00  0.00    -0.296 N 
ATOM      4  H3  UNL     1       1.659   1.134  -1.191  1.00  0.00     0.171 HD
HETATM    5  C6  UNL     1       2.888  -0.018  -0.095  1.00  0.00     0.210 C 
HETATM    6  N4  UNL     1       3.153  -0.690   1.121  1.00  0.00    -0.062 NA
HETATM    7  N5  UNL     1       3.860  -0.105  -1.126  1.00  0.00    -0.259 N 
ATOM      8  H5  UNL     1       3.604  -0.423  -2.061  1.00  0.00     0.191 HD
ENDROOT
BRANCH   1   9
HETATM    9  C4  UNL     1      -0.366  -0.102   0.601  1.00  0.00     0.385 C 
HETATM   10  O1  UNL     1      -0.348  -0.837  -0.581  1.00  0.00    -0.225 OA
HETATM   11  N2  UNL     1      -1.376  -1.686  -0.551  1.00  0.00    -0.205 N 
HETATM   12  N1  UNL     1      -2.528  -1.208   0.043  1.00  0.00    -0.081 NA
ATOM     13  H2  UNL     1      -1.316  -2.627  -0.941  1.00  0.00     0.211 HD
HETATM   14  C2  UNL     1      -2.565   0.246  -0.015  1.00  0.00     0.149 C 
HETATM   15  C1  UNL     1      -3.786   0.793   0.697  1.00  0.00     0.067 C 
HETATM   16  C3  UNL     1      -2.631   0.657  -1.449  1.00  0.00     0.067 C 
HETATM   17  O3  UNL     1      -1.458   0.759   0.661  1.00  0.00    -0.322 OA
ENDBRANCH   1   9
BRANCH   7  18
HETATM   18  N6  UNL     1       5.171   0.255  -0.828  1.00  0.00    -0.247 N 
HETATM   19  N7  UNL     1       5.673   1.225  -1.499  1.00  0.00    -0.331 N 
ATOM     20  H72 UNL     1       5.124   1.701  -2.215  1.00  0.00     0.178 HD
ATOM     21  H71 UNL     1       6.634   1.489  -1.281  1.00  0.00     0.178 HD
ATOM     22  H6  UNL     1       5.707  -0.231  -0.109  1.00  0.00     0.207 HD
ENDBRANCH   7  18
TORSDOF 2
