REMARK  9 active torsions:
REMARK  status: ('A' for Active; 'I' for Inactive)
REMARK    1  A    between atoms: C2_2  and  C3_3 
REMARK    2  A    between atoms: C3_3  and  N1_4 
REMARK    3  A    between atoms: C3_3  and  C4_8 
REMARK    4  A    between atoms: C4_8  and  O1_9 
REMARK    5  A    between atoms: C4_8  and  N2_11 
REMARK    6  A    between atoms: N2_11  and  C5_13 
REMARK    7  A    between atoms: C6_16  and  C7_17 
REMARK       I    between atoms: C7_17  and  N4_19 
REMARK    8  A    between atoms: N4_19  and  N5_21 
REMARK    9  A    between atoms: N10_34  and  N11_35 
ROOT
HETATM    1  C5  UNL     1      -1.300  -1.402   0.140  1.00  0.00     0.707 A 
HETATM    2  N3  UNL     1      -0.212  -0.643   0.335  1.00  0.00    -0.169 N 
ATOM      3  H3  UNL     1      -0.309   0.204   0.895  1.00  0.00     0.186 HD
HETATM    4  C6  UNL     1       1.004  -0.939  -0.170  1.00  0.00     0.195 A 
HETATM    5  N9  UNL     1       1.079  -2.064  -0.899  1.00  0.00    -0.287 N 
ATOM      6  H9  UNL     1       1.982  -2.322  -1.298  1.00  0.00     0.172 HD
HETATM    7  C10 UNL     1       0.016  -2.877  -1.133  1.00  0.00     0.361 A 
HETATM    8  O4  UNL     1       0.135  -3.909  -1.816  1.00  0.00    -0.244 OA
HETATM    9  N10 UNL     1      -1.162  -2.515  -0.598  1.00  0.00    -0.038 N 
ENDROOT
BRANCH   4  10
HETATM   10  C7  UNL     1       2.162  -0.105   0.054  1.00  0.00     0.306 C 
HETATM   11  O2  UNL     1       1.963   0.936   0.758  1.00  0.00    -0.263 OA
HETATM   12  N4  UNL     1       3.444  -0.408  -0.470  1.00  0.00    -0.239 N 
ATOM     13  H4  UNL     1       3.562  -1.252  -1.031  1.00  0.00     0.192 HD
BRANCH  12  14
HETATM   14  N5  UNL     1       4.552   0.414  -0.242  1.00  0.00    -0.123 N 
HETATM   15  N6  UNL     1       5.033   0.703   1.035  1.00  0.00     0.006 NA
HETATM   16  N7  UNL     1       5.340   2.049   1.123  1.00  0.00    -0.278 N 
HETATM   17  C8  UNL     1       6.034   2.661   0.045  1.00  0.00     0.200 C 
ATOM     18  H7  UNL     1       5.074   2.591   1.945  1.00  0.00     0.185 HD
HETATM   19  N8  UNL     1       5.995   2.166  -1.157  1.00  0.00    -0.301 N 
HETATM   20  C9  UNL     1       5.230   0.988  -1.350  1.00  0.00     0.360 C 
ATOM     21  H8  UNL     1       6.494   2.607  -1.929  1.00  0.00     0.171 HD
HETATM   22  O3  UNL     1       5.146   0.442  -2.509  1.00  0.00    -0.243 OA
ENDBRANCH  12  14
ENDBRANCH   4  10
BRANCH   1  23
HETATM   23  N2  UNL     1      -2.456  -1.126   0.616  1.00  0.00    -0.196 N 
ATOM     24  H2  UNL     1      -3.234  -1.756   0.421  1.00  0.00     0.180 HD
BRANCH  23  25
HETATM   25  C4  UNL     1      -2.691   0.050   1.420  1.00  0.00     0.265 C 
BRANCH  25  26
HETATM   26  C3  UNL     1      -3.949   0.742   0.947  1.00  0.00     0.231 C 
BRANCH  26  27
HETATM   27  C2  UNL     1      -3.822   1.330  -0.428  1.00  0.00     0.033 C 
HETATM   28  C1  UNL     1      -2.704   2.321  -0.529  1.00  0.00     0.007 C 
ENDBRANCH  26  27
BRANCH  26  29
HETATM   29  N1  UNL     1      -5.048  -0.202   0.961  1.00  0.00    -0.071 N 
ATOM     30  H13 UNL     1      -5.920   0.214   0.636  1.00  0.00     0.274 HD
ATOM     31  H12 UNL     1      -4.953  -0.918   0.241  1.00  0.00     0.274 HD
ATOM     32  H11 UNL     1      -5.134  -0.602   1.895  1.00  0.00     0.274 HD
ENDBRANCH  26  29
ENDBRANCH  25  26
BRANCH  25  33
HETATM   33  O1  UNL     1      -2.948  -0.400   2.721  1.00  0.00    -0.374 OA
ATOM     34  H1  UNL     1      -2.157  -0.835   3.018  1.00  0.00     0.212 HD
ENDBRANCH  25  33
ENDBRANCH  23  25
ENDBRANCH   1  23
BRANCH   9  35
HETATM   35  N11 UNL     1      -2.296  -3.336  -0.819  1.00  0.00    -0.320 N 
ATOM     36 2H11 UNL     1      -3.190  -3.061  -0.413  1.00  0.00     0.178 HD
ATOM     37 1H11 UNL     1      -2.191  -4.182  -1.380  1.00  0.00     0.178 HD
ENDBRANCH   9  35
TORSDOF 9
