REMARK  10 active torsions:
REMARK  status: ('A' for Active; 'I' for Inactive)
REMARK    1  A    between atoms: N1_2  and  C2_3 
REMARK    2  A    between atoms: N1_2  and  C12_19 
REMARK    3  A    between atoms: C2_3  and  O1_4 
REMARK    4  A    between atoms: C2_3  and  C3_6 
REMARK    5  A    between atoms: N2_9  and  C6_10 
REMARK    6  A    between atoms: C6_10  and  C7_11 
REMARK    7  A    between atoms: C6_10  and  C8_13 
REMARK    8  A    between atoms: C8_13  and  C9_14 
REMARK    9  A    between atoms: C9_14  and  O2_15 
REMARK   10  A    between atoms: C15_22  and  C16_23 
ROOT
HETATM    1  C1  UNL     1       1.164  -0.058  -0.746  1.00  0.00     0.152 C 
HETATM    2  N1  UNL     1       1.175  -0.269   0.676  1.00  0.00    -0.363 N 
ENDROOT
BRANCH   2   3
HETATM    3  C2  UNL     1      -0.064  -0.326   1.348  1.00  0.00     0.118 C 
BRANCH   3   4
HETATM    4  O1  UNL     1       0.065  -0.504   2.632  1.00  0.00    -0.349 OA
ATOM      5  H1  UNL     1      -0.769  -0.542   3.085  1.00  0.00     0.219 HD
ENDBRANCH   3   4
BRANCH   3   6
HETATM    6  C3  UNL     1      -1.421  -0.227   0.876  1.00  0.00     0.066 C 
HETATM    7  C4  UNL     1      -1.951  -1.314   0.013  1.00  0.00     0.033 C 
HETATM    8  C5  UNL     1      -3.421  -1.056  -0.239  1.00  0.00     0.123 C 
HETATM    9  N2  UNL     1      -3.726   0.257  -0.681  1.00  0.00    -0.388 N 
HETATM   10  C10 UNL     1      -2.636   1.139  -0.816  1.00  0.00     0.059 C 
HETATM   11  C11 UNL     1      -1.692   1.170   0.348  1.00  0.00     0.057 C 
BRANCH   9  12
HETATM   12  C6  UNL     1      -4.928   0.770  -0.094  1.00  0.00     0.095 C 
BRANCH  12  13
HETATM   13  C7  UNL     1      -5.249   2.180  -0.474  1.00  0.00     0.110 C 
HETATM   14 BR1  UNL     1      -5.482   2.395  -2.379  1.00  0.00    -0.094 Br
ENDBRANCH  12  13
BRANCH  12  15
HETATM   15  C8  UNL     1      -6.056  -0.140  -0.510  1.00  0.00     0.052 C 
BRANCH  15  16
HETATM   16  C9  UNL     1      -7.400   0.253   0.020  1.00  0.00     0.166 C 
BRANCH  16  17
HETATM   17  O2  UNL     1      -8.305  -0.717  -0.474  1.00  0.00    -0.401 OA
ATOM     18  H2  UNL     1      -9.158  -0.468  -0.138  1.00  0.00     0.209 HD
ENDBRANCH  16  17
ENDBRANCH  15  16
ENDBRANCH  12  15
ENDBRANCH   9  12
ENDBRANCH   3   6
ENDBRANCH   2   3
BRANCH   2  19
HETATM   19  C12 UNL     1       2.450  -0.397   1.412  1.00  0.00     0.104 C 
HETATM   20  C13 UNL     1       3.267   0.839   1.361  1.00  0.00     0.027 C 
HETATM   21  C14 UNL     1       4.237   0.965   0.261  1.00  0.00     0.011 C 
HETATM   22  C15 UNL     1       4.749  -0.332  -0.319  1.00  0.00     0.023 C 
HETATM   23  C19 UNL     1       4.565  -1.505   0.577  1.00  0.00     0.031 C 
HETATM   24  C20 UNL     1       3.177  -1.668   1.145  1.00  0.00     0.106 C 
HETATM   25 CL1  UNL     1       2.205  -2.853   0.197  1.00  0.00    -0.123 Cl
BRANCH  22  26
HETATM   26  C16 UNL     1       6.191  -0.255  -0.648  1.00  0.00    -0.020 A 
HETATM   27  C17 UNL     1       7.222   0.019   0.222  1.00  0.00     0.116 A 
HETATM   28  N3  UNL     1       8.390  -0.003  -0.472  1.00  0.00    -0.312 N 
HETATM   29  N4  UNL     1       8.115  -0.281  -1.737  1.00  0.00    -0.312 N 
ATOM     30  H3  UNL     1       9.319   0.166  -0.085  1.00  0.00     0.186 HD
HETATM   31  C18 UNL     1       6.775  -0.440  -1.876  1.00  0.00     0.116 A 
ATOM     32  H4  UNL     1       8.801  -0.363  -2.487  1.00  0.00     0.186 HD
ENDBRANCH  22  26
ENDBRANCH   2  19
TORSDOF 10
