REMARK  10 active torsions:
REMARK  status: ('A' for Active; 'I' for Inactive)
REMARK    1  A    between atoms: C1_2  and  C2_3 
REMARK       I    between atoms: C1_2  and  N3_19 
REMARK    2  A    between atoms: C2_3  and  C3_4 
REMARK    3  A    between atoms: C3_4  and  C4_5 
REMARK    4  A    between atoms: C4_5  and  C5_6 
REMARK    5  A    between atoms: C5_6  and  C6_7 
REMARK    6  A    between atoms: C6_7  and  C7_8 
REMARK    7  A    between atoms: C7_8  and  N1_9 
REMARK    8  A    between atoms: N1_9  and  C8_11 
REMARK    9  A    between atoms: C8_11  and  N2_13 
REMARK   10  A    between atoms: N3_19  and  C14_21 
ROOT
HETATM    1  C5  UNL     1      -0.377   2.307   1.274  1.00  0.00     0.002 C 
ENDROOT
BRANCH   1   2
HETATM    2  C4  UNL     1       0.865   1.926   0.517  1.00  0.00     0.001 C 
BRANCH   2   3
HETATM    3  C3  UNL     1       1.932   2.981   0.617  1.00  0.00     0.009 C 
BRANCH   3   4
HETATM    4  C2  UNL     1       3.155   2.584  -0.143  1.00  0.00     0.103 C 
BRANCH   4   5
HETATM    5  C1  UNL     1       3.783   1.377   0.421  1.00  0.00     0.217 C 
HETATM    6  O1  UNL     1       3.373   0.929   1.518  1.00  0.00    -0.274 OA
HETATM    7  N3  UNL     1       4.853   0.705  -0.263  1.00  0.00    -0.356 N 
ATOM      8  H3  UNL     1       5.171   1.084  -1.155  1.00  0.00     0.162 HD
BRANCH   7   9
HETATM    9  C14 UNL     1       5.496  -0.470   0.244  1.00  0.00     0.084 C 
HETATM   10  C15 UNL     1       6.984  -0.291   0.421  1.00  0.00     0.025 C 
HETATM   11  C16 UNL     1       7.561  -0.975  -0.820  1.00  0.00     0.002 C 
HETATM   12  C17 UNL     1       6.647  -2.182  -0.905  1.00  0.00     0.002 C 
HETATM   13  C18 UNL     1       5.287  -1.583  -0.738  1.00  0.00     0.025 C 
ENDBRANCH   7   9
ENDBRANCH   4   5
ENDBRANCH   3   4
ENDBRANCH   2   3
ENDBRANCH   1   2
BRANCH   1  14
HETATM   14  C6  UNL     1      -1.404   1.213   1.174  1.00  0.00     0.020 C 
BRANCH  14  15
HETATM   15  C7  UNL     1      -1.789   0.972  -0.240  1.00  0.00     0.122 C 
BRANCH  15  16
HETATM   16  N1  UNL     1      -2.822  -0.079  -0.288  1.00  0.00    -0.367 N 
ATOM     17  H1  UNL     1      -2.566  -0.995  -0.656  1.00  0.00     0.161 HD
BRANCH  16  18
HETATM   18  C8  UNL     1      -4.140   0.122   0.149  1.00  0.00     0.169 C 
HETATM   19  S1  UNL     1      -4.551   1.628   0.695  1.00  0.00    -0.041 SA
BRANCH  18  20
HETATM   20  N2  UNL     1      -5.114  -0.860   0.123  1.00  0.00    -0.358 N 
HETATM   21  C9  UNL     1      -6.471  -0.566   0.600  1.00  0.00     0.125 C 
HETATM   22  C10 UNL     1      -7.357  -0.664  -0.623  1.00  0.00     0.020 C 
HETATM   23  C11 UNL     1      -7.215  -1.989  -1.318  1.00  0.00     0.003 C 
HETATM   24  C12 UNL     1      -5.808  -2.421  -1.554  1.00  0.00     0.020 C 
HETATM   25  C13 UNL     1      -4.909  -2.195  -0.350  1.00  0.00     0.125 C 
ENDBRANCH  18  20
ENDBRANCH  16  18
ENDBRANCH  15  16
ENDBRANCH  14  15
ENDBRANCH   1  14
TORSDOF 10
