REMARK  9 active torsions:
REMARK  status: ('A' for Active; 'I' for Inactive)
REMARK    1  A    between atoms: C2_2  and  C3_3 
REMARK    2  A    between atoms: C3_3  and  C5_6 
REMARK    3  A    between atoms: C3_3  and  N2_9 
REMARK    4  A    between atoms: C5_6  and  O1_7 
REMARK    5  A    between atoms: N2_9  and  C6_11 
REMARK    6  A    between atoms: C7_14  and  N4_15 
REMARK       I    between atoms: N4_15  and  C8_17 
REMARK    7  A    between atoms: C8_17  and  C9_19 
REMARK    8  A    between atoms: C11_21  and  O3_22 
REMARK    9  A    between atoms: C13_24  and  O4_25 
ROOT
HETATM    1  C3  UNL     1      -4.357  -1.023   0.774  1.00  0.00     0.142 C 
HETATM    2  C4  UNL     1      -5.345  -1.794   1.612  1.00  0.00     0.093 C 
HETATM    3  N1  UNL     1      -6.099  -2.379   2.264  1.00  0.00    -0.194 NA
ENDROOT
BRANCH   1   4
HETATM    4  C2  UNL     1      -4.963   0.384   0.710  1.00  0.00     0.044 C 
HETATM    5  C1  UNL     1      -5.093   0.962   2.099  1.00  0.00     0.009 C 
ENDBRANCH   1   4
BRANCH   1   6
HETATM    6  C5  UNL     1      -4.408  -1.694  -0.574  1.00  0.00     0.210 C 
BRANCH   6   7
HETATM    7  O1  UNL     1      -3.580  -1.176  -1.527  1.00  0.00    -0.397 OA
ATOM      8  H1  UNL     1      -3.612  -1.599  -2.377  1.00  0.00     0.209 HD
ENDBRANCH   6   7
ENDBRANCH   1   6
BRANCH   1   9
HETATM    9  N2  UNL     1      -3.161  -1.007   1.451  1.00  0.00    -0.351 N 
ATOM     10  H2  UNL     1      -3.234  -1.678   2.215  1.00  0.00     0.163 HD
BRANCH   9  11
HETATM   11  C6  UNL     1      -2.042  -0.510   1.505  1.00  0.00     0.137 A 
HETATM   12  N3  UNL     1      -1.528   0.415   0.692  1.00  0.00    -0.175 N 
HETATM   13  C7  UNL     1      -0.288   0.928   0.800  1.00  0.00     0.686 A 
ATOM     14  H3  UNL     1      -2.117   0.758  -0.066  1.00  0.00     0.186 HD
HETATM   15  N5  UNL     1       0.489   0.481   1.793  1.00  0.00    -0.200 N 
HETATM   16  C17 UNL     1       0.066  -0.449   2.665  1.00  0.00     0.129 A 
ATOM     17  H5  UNL     1       1.432   0.858   1.891  1.00  0.00     0.183 HD
HETATM   18  C18 UNL     1      -1.205  -0.964   2.541  1.00  0.00     0.071 A 
HETATM   19 BR2  UNL     1      -1.794  -2.285   3.785  1.00  0.00    -0.046 Br
BRANCH  13  20
HETATM   20  N4  UNL     1       0.170   1.822  -0.007  1.00  0.00    -0.155 N 
HETATM   21  C8  UNL     1       1.511   2.319   0.179  1.00  0.00     0.271 C 
HETATM   22  O2  UNL     1       1.715   3.342   0.863  1.00  0.00    -0.267 OA
ATOM     23  H4  UNL     1      -0.409   2.174  -0.769  1.00  0.00     0.187 HD
BRANCH  21  24
HETATM   24  C9  UNL     1       2.632   1.622  -0.434  1.00  0.00     0.053 A 
HETATM   25  C10 UNL     1       2.405   0.482  -1.206  1.00  0.00     0.058 A 
HETATM   26  C11 UNL     1       3.434  -0.200  -1.798  1.00  0.00     0.102 A 
HETATM   27  C13 UNL     1       4.719   0.262  -1.619  1.00  0.00     0.102 A 
HETATM   28  C15 UNL     1       4.991   1.385  -0.864  1.00  0.00     0.059 A 
HETATM   29  C16 UNL     1       3.923   2.048  -0.280  1.00  0.00     0.029 A 
HETATM   30 BR1  UNL     1       4.245   3.594   0.766  1.00  0.00    -0.050 Br
BRANCH  26  31
HETATM   31  O3  UNL     1       3.230  -1.329  -2.566  1.00  0.00    -0.353 OA
HETATM   32  C12 UNL     1       1.907  -1.790  -2.740  1.00  0.00     0.210 C 
ENDBRANCH  26  31
BRANCH  27  33
HETATM   33  O4  UNL     1       5.746  -0.455  -2.235  1.00  0.00    -0.353 OA
HETATM   34  C14 UNL     1       7.098  -0.098  -2.137  1.00  0.00     0.210 C 
ENDBRANCH  27  33
ENDBRANCH  21  24
ENDBRANCH  13  20
ENDBRANCH   9  11
ENDBRANCH   1   9
TORSDOF 9
