REMARK  13 active torsions:
REMARK  status: ('A' for Active; 'I' for Inactive)
REMARK    1  A    between atoms: N1_7  and  C7_8 
REMARK    2  A    between atoms: C7_8  and  O1_9 
REMARK    3  A    between atoms: C7_8  and  C8_11 
REMARK    4  A    between atoms: N4_22  and  C16_23 
REMARK    5  A    between atoms: C16_23  and  O2_24 
REMARK    6  A    between atoms: C16_23  and  N5_26 
REMARK    7  A    between atoms: C20_31  and  C21_32 
REMARK    8  A    between atoms: C21_32  and  C22_34 
REMARK    9  A    between atoms: C22_34  and  C25_37 
REMARK   10  A    between atoms: C25_37  and  C26_38 
REMARK   11  A    between atoms: C26_38  and  O3_39 
REMARK   12  A    between atoms: C26_38  and  C27_41 
REMARK   13  A    between atoms: C27_41  and  N6_42 
ROOT
HETATM    1  C16 UNL     1      -1.381   0.188   0.652  1.00  0.00     0.218 C 
ENDROOT
BRANCH   1   2
HETATM    2  N4  UNL     1      -0.009  -0.028   0.614  1.00  0.00    -0.343 N 
HETATM    3  C2  UNL     1       0.729  -1.227   0.434  1.00  0.00     0.084 C 
HETATM    4  C1  UNL     1       0.934  -2.058   1.680  1.00  0.00     0.032 C 
HETATM    5  C3  UNL     1       2.100  -0.992  -0.192  1.00  0.00     0.034 C 
HETATM    6  C4  UNL     1       2.993  -0.056   0.534  1.00  0.00    -0.034 C 
HETATM    7  C5  UNL     1       3.974  -0.811   1.388  1.00  0.00     0.029 C 
HETATM    8  C13 UNL     1       3.692   0.776  -0.557  1.00  0.00     0.029 C 
HETATM    9  C14 UNL     1       2.167   0.901   1.341  1.00  0.00     0.029 C 
HETATM   10  C6  UNL     1       5.140  -0.021   1.880  1.00  0.00     0.125 C 
HETATM   11  N1  UNL     1       5.800   0.493   0.628  1.00  0.00    -0.360 N 
HETATM   12  C12 UNL     1       4.940   1.437  -0.012  1.00  0.00     0.125 C 
HETATM   13  C15 UNL     1       0.847   1.214   0.756  1.00  0.00     0.127 C 
BRANCH  11  14
HETATM   14  C7  UNL     1       7.065   0.008   0.311  1.00  0.00     0.167 C 
BRANCH  14  15
HETATM   15  O1  UNL     1       7.528  -0.847   1.199  1.00  0.00    -0.344 OA
ATOM     16  H1  UNL     1       8.392  -1.178   0.983  1.00  0.00     0.219 HD
ENDBRANCH  14  15
BRANCH  14  17
HETATM   17  C8  UNL     1       7.950   0.248  -0.773  1.00  0.00     0.102 A 
HETATM   18  C9  UNL     1       7.822   1.028  -1.890  1.00  0.00     0.054 A 
HETATM   19  C10 UNL     1       8.990   0.951  -2.673  1.00  0.00     0.110 A 
HETATM   20  N2  UNL     1       9.782   0.125  -1.998  1.00  0.00    -0.310 N 
HETATM   21  N3  UNL     1       9.198  -0.292  -0.898  1.00  0.00    -0.293 N 
ATOM     22  H2  UNL     1      10.719  -0.149  -2.295  1.00  0.00     0.186 HD
HETATM   23  C11 UNL     1       9.857  -1.208   0.017  1.00  0.00     0.178 C 
ENDBRANCH  14  17
ENDBRANCH  11  14
ENDBRANCH   1   2
BRANCH   1  24
HETATM   24  O2  UNL     1      -1.642   1.462   0.883  1.00  0.00    -0.332 OA
ATOM     25  H2  UNL     1      -2.580   1.610   0.909  1.00  0.00     0.220 HD
ENDBRANCH   1  24
BRANCH   1  26
HETATM   26  N5  UNL     1      -2.497  -0.602   0.505  1.00  0.00    -0.334 N 
HETATM   27  C17 UNL     1      -2.550  -2.047   0.294  1.00  0.00     0.164 C 
HETATM   28  C18 UNL     1      -3.587  -2.489   1.370  1.00  0.00     0.190 C 
HETATM   29  F1  UNL     1      -4.509  -3.287   0.755  1.00  0.00    -0.248 F 
HETATM   30  C19 UNL     1      -4.281  -1.167   1.751  1.00  0.00     0.071 C 
HETATM   31  C20 UNL     1      -3.915  -0.368   0.512  1.00  0.00     0.149 C 
BRANCH  31  32
HETATM   32  C21 UNL     1      -4.648   0.834   0.397  1.00  0.00     0.102 C 
HETATM   33  F2  UNL     1      -4.344   1.805   1.371  1.00  0.00    -0.212 F 
BRANCH  32  34
HETATM   34  C22 UNL     1      -5.052   1.467  -0.858  1.00  0.00     0.007 C 
HETATM   35  C23 UNL     1      -3.831   1.833  -1.742  1.00  0.00     0.022 C 
HETATM   36  C24 UNL     1      -5.561   2.894  -0.470  1.00  0.00     0.022 C 
BRANCH  34  37
HETATM   37  C25 UNL     1      -6.080   0.908  -1.735  1.00  0.00     0.049 C 
BRANCH  37  38
HETATM   38  C26 UNL     1      -7.479   0.702  -1.365  1.00  0.00     0.144 C 
BRANCH  38  39
HETATM   39  O3  UNL     1      -8.068   0.161  -2.597  1.00  0.00    -0.394 OA
ATOM     40  H3  UNL     1      -8.977   0.027  -2.357  1.00  0.00     0.210 HD
ENDBRANCH  38  39
BRANCH  38  41
HETATM   41  C27 UNL     1      -7.894  -0.309  -0.366  1.00  0.00     0.261 C 
BRANCH  41  42
HETATM   42  N6  UNL     1      -7.326  -1.597  -0.700  1.00  0.00    -0.077 N 
ATOM     43  H63 UNL     1      -7.558  -1.882  -1.651  1.00  0.00     0.274 HD
ATOM     44  H62 UNL     1      -6.312  -1.553  -0.801  1.00  0.00     0.274 HD
ATOM     45  H61 UNL     1      -7.612  -2.293  -0.012  1.00  0.00     0.274 HD
ENDBRANCH  41  42
ENDBRANCH  38  41
ENDBRANCH  37  38
ENDBRANCH  34  37
ENDBRANCH  32  34
ENDBRANCH  31  32
ENDBRANCH   1  26
TORSDOF 13
