REMARK  7 active torsions:
REMARK  status: ('A' for Active; 'I' for Inactive)
REMARK    1  A    between atoms: O1_2  and  C2_3 
REMARK    2  A    between atoms: C4_5  and  S1_6 
REMARK    3  A    between atoms: S1_6  and  C5_8 
REMARK    4  A    between atoms: C7_10  and  N1_11 
REMARK    5  A    between atoms: N1_11  and  C8_13 
REMARK    6  A    between atoms: C13_23  and  N4_24 
REMARK    7  A    between atoms: C20_32  and  O4_33 
ROOT
HETATM    1  C5  UNL     1       0.572  -1.851  -0.895  1.00  0.00     0.047 A 
HETATM    2  C6  UNL     1      -0.589  -1.138  -1.137  1.00  0.00     0.054 A 
HETATM    3  C7  UNL     1      -1.728  -1.304  -0.386  1.00  0.00     0.065 A 
HETATM    4  C13 UNL     1      -1.749  -2.222   0.671  1.00  0.00     0.097 A 
HETATM    5  C16 UNL     1      -0.591  -2.923   0.900  1.00  0.00     0.152 A 
HETATM    6  F1  UNL     1      -0.608  -3.818   1.929  1.00  0.00    -0.203 F 
HETATM    7  C17 UNL     1       0.552  -2.756   0.146  1.00  0.00    -0.001 A 
HETATM    8  C18 UNL     1       1.788  -3.560   0.455  1.00  0.00     0.053 C 
ENDROOT
BRANCH   1   9
HETATM    9  S1  UNL     1       1.963  -1.590  -1.879  1.00  0.00     0.086 S 
HETATM   10  O2  UNL     1       1.673  -1.594  -3.502  1.00  0.00    -0.247 OA
BRANCH   9  11
HETATM   11  C4  UNL     1       3.026  -0.369  -1.324  1.00  0.00     0.042 A 
HETATM   12  C3  UNL     1       2.537   0.858  -0.937  1.00  0.00     0.059 A 
HETATM   13  C2  UNL     1       3.368   1.869  -0.483  1.00  0.00     0.089 A 
HETATM   14  C22 UNL     1       4.721   1.649  -0.415  1.00  0.00     0.077 A 
HETATM   15  C20 UNL     1       5.245   0.429  -0.796  1.00  0.00     0.089 A 
HETATM   16 BR1  UNL     1       5.945   2.982   0.197  1.00  0.00    -0.045 Br
HETATM   17  C19 UNL     1       4.382  -0.579  -1.252  1.00  0.00     0.059 A 
BRANCH  13  18
HETATM   18  O1  UNL     1       2.897   3.105  -0.091  1.00  0.00    -0.354 OA
HETATM   19  C1  UNL     1       1.518   3.454  -0.115  1.00  0.00     0.210 C 
ENDBRANCH  13  18
BRANCH  15  20
HETATM   20  O4  UNL     1       6.609   0.200  -0.730  1.00  0.00    -0.354 OA
HETATM   21  C21 UNL     1       7.128  -1.055  -1.123  1.00  0.00     0.210 C 
ENDBRANCH  15  20
ENDBRANCH   9  11
ENDBRANCH   1   9
BRANCH   3  22
HETATM   22  N1  UNL     1      -2.934  -0.586  -0.610  1.00  0.00    -0.340 N 
ATOM     23  H1  UNL     1      -3.715  -1.078  -1.044  1.00  0.00     0.167 HD
BRANCH  22  24
HETATM   24  C8  UNL     1      -3.093   0.645  -0.296  1.00  0.00     0.121 A 
HETATM   25  C9  UNL     1      -4.277   1.269  -0.540  1.00  0.00     0.062 A 
HETATM   26  C10 UNL     1      -4.501   2.611  -0.217  1.00  0.00     0.011 A 
HETATM   27  C11 UNL     1      -5.794   3.290  -0.485  1.00  0.00     0.054 C 
HETATM   28  C12 UNL     1      -3.441   3.269   0.370  1.00  0.00     0.265 A 
HETATM   29  O3  UNL     1      -3.576   4.478   0.686  1.00  0.00    -0.266 OA
HETATM   30  N2  UNL     1      -2.270   2.630   0.606  1.00  0.00    -0.265 N 
HETATM   31  N3  UNL     1      -2.098   1.342   0.279  1.00  0.00    -0.283 N 
ATOM     32  H2  UNL     1      -1.502   3.141   1.042  1.00  0.00     0.190 HD
ATOM     33  H3  UNL     1      -1.205   0.887   0.468  1.00  0.00     0.188 HD
ENDBRANCH  22  24
ENDBRANCH   3  22
BRANCH   4  34
HETATM   34  N4  UNL     1      -2.926  -2.397   1.449  1.00  0.00    -0.373 N 
HETATM   35  C14 UNL     1      -4.234  -3.080   1.708  1.00  0.00     0.143 A 
HETATM   36  C15 UNL     1      -3.801  -2.059   2.609  1.00  0.00     0.143 A 
ENDBRANCH   4  34
TORSDOF 7
