REMARK  10 active torsions:
REMARK  status: ('A' for Active; 'I' for Inactive)
REMARK    1  A    between atoms: N1_2  and  C2_3 
REMARK    2  A    between atoms: N1_2  and  C18_32 
REMARK    3  A    between atoms: C2_3  and  C3_4 
REMARK    4  A    between atoms: C3_4  and  O1_5 
REMARK    5  A    between atoms: C3_4  and  N2_7 
REMARK    6  A    between atoms: C6_10  and  C7_11 
REMARK    7  A    between atoms: C7_11  and  N3_12 
REMARK       I    between atoms: N3_12  and  C8_14 
REMARK    8  A    between atoms: C8_14  and  C9_16 
REMARK    9  A    between atoms: C15_27  and  C16_28 
REMARK   10  A    between atoms: C21_35  and  C22_36 
ROOT
HETATM    1  N2  UNL     1       0.402  -0.604  -0.035  1.00  0.00    -0.363 N 
HETATM    2  C4  UNL     1      -0.684  -1.080   0.863  1.00  0.00     0.125 C 
HETATM    3  C5  UNL     1      -1.503  -0.039   1.449  1.00  0.00     0.029 C 
HETATM    4  C6  UNL     1      -2.475   0.742   0.650  1.00  0.00     0.044 C 
HETATM    5  C14 UNL     1      -1.945   1.517  -0.491  1.00  0.00     0.020 C 
HETATM    6  C15 UNL     1      -0.797   0.982  -1.249  1.00  0.00     0.069 C 
HETATM    7  C17 UNL     1       0.469   0.756  -0.411  1.00  0.00     0.134 C 
ENDROOT
BRANCH   1   8
HETATM    8  C3  UNL     1       1.219  -1.642  -0.458  1.00  0.00     0.142 C 
BRANCH   8   9
HETATM    9  C2  UNL     1       2.433  -1.686  -1.269  1.00  0.00     0.355 C 
BRANCH   9  10
HETATM   10  N1  UNL     1       3.068  -0.494  -1.681  1.00  0.00     0.096 N 
HETATM   11  C1  UNL     1       3.914  -0.802  -2.866  1.00  0.00     0.310 C 
BRANCH  10  12
HETATM   12  C18 UNL     1       4.020  -0.063  -0.619  1.00  0.00     0.223 C 
HETATM   13  C19 UNL     1       4.717   1.229  -0.990  1.00  0.00     0.036 C 
HETATM   14  C20 UNL     1       5.404   1.720   0.285  1.00  0.00     0.015 C 
HETATM   15  C21 UNL     1       6.514   0.761   0.564  1.00  0.00     0.093 C 
HETATM   16  C23 UNL     1       6.436  -0.526  -0.183  1.00  0.00     0.015 C 
HETATM   17  C24 UNL     1       5.039  -1.111  -0.295  1.00  0.00     0.036 C 
BRANCH  15  18
HETATM   18  C22 UNL     1       6.650   0.561   2.062  1.00  0.00     0.391 C 
HETATM   19  F3  UNL     1       7.690  -0.336   2.325  1.00  0.00    -0.171 F 
HETATM   20  F4  UNL     1       5.520   0.059   2.644  1.00  0.00    -0.171 F 
HETATM   21  F5  UNL     1       7.011   1.760   2.646  1.00  0.00    -0.171 F 
ENDBRANCH  15  18
ENDBRANCH  10  12
ENDBRANCH   9  10
ENDBRANCH   8   9
BRANCH   8  22
HETATM   22  O1  UNL     1       0.857  -2.875  -0.073  1.00  0.00    -0.348 OA
ATOM     23  H1  UNL     1       0.067  -2.846   0.454  1.00  0.00     0.219 HD
ENDBRANCH   8  22
ENDBRANCH   1   8
BRANCH   6  24
HETATM   24  C16 UNL     1      -0.410   2.048  -2.286  1.00  0.00     0.358 C 
HETATM   25  F1  UNL     1      -0.069   3.207  -1.577  1.00  0.00    -0.214 F 
HETATM   26  F2  UNL     1      -1.442   2.303  -3.149  1.00  0.00    -0.214 F 
ENDBRANCH   6  24
BRANCH   4  27
HETATM   27  C7  UNL     1      -3.736  -0.080   0.355  1.00  0.00     0.204 C 
HETATM   28  C10 UNL     1      -4.765   0.737  -0.396  1.00  0.00     0.062 C 
HETATM   29  C11 UNL     1      -6.048  -0.063  -0.452  1.00  0.00     0.006 C 
HETATM   30  C12 UNL     1      -5.749  -1.279  -1.340  1.00  0.00     0.028 C 
HETATM   31  C13 UNL     1      -4.580  -2.024  -0.716  1.00  0.00     0.235 C 
HETATM   32  N5  UNL     1      -3.441  -1.197  -0.515  1.00  0.00    -0.048 N 
ATOM     33  H52 UNL     1      -3.048  -0.883  -1.403  1.00  0.00     0.280 HD
ATOM     34  H51 UNL     1      -2.646  -1.736  -0.171  1.00  0.00     0.280 HD
BRANCH  27  35
HETATM   35  N3  UNL     1      -4.375  -0.536   1.554  1.00  0.00    -0.320 N 
HETATM   36  C8  UNL     1      -4.936   0.326   2.530  1.00  0.00     0.308 C 
HETATM   37  O2  UNL     1      -4.945   1.591   2.448  1.00  0.00    -0.263 OA
ATOM     38  H3  UNL     1      -4.430  -1.542   1.715  1.00  0.00     0.165 HD
BRANCH  36  39
HETATM   39  C9  UNL     1      -5.566  -0.209   3.741  1.00  0.00     0.322 C 
HETATM   40  N4  UNL     1      -6.131   0.635   4.706  1.00  0.00    -0.053 NA
HETATM   41  O3  UNL     1      -5.589  -1.448   3.898  1.00  0.00    -0.266 OA
ENDBRANCH  36  39
ENDBRANCH  27  35
ENDBRANCH   4  27
TORSDOF 10
