REMARK  3 active torsions:
REMARK  status: ('A' for Active; 'I' for Inactive)
REMARK       I    between atoms: C1_4  and  N3_6 
REMARK    1  A    between atoms: N3_6  and  N4_8 
REMARK    2  A    between atoms: C2_10  and  C3_11 
REMARK    3  A    between atoms: C9_25  and  C10_26 
ROOT
HETATM    1  C3  UNL     1       0.443   0.516  -0.485  1.00  0.00     0.078 A 
HETATM    2  N5  UNL     1       0.185  -0.795  -0.447  1.00  0.00    -0.336 N 
ATOM      3  H5  UNL     1       0.870  -1.521  -0.658  1.00  0.00     0.168 HD
HETATM    4  C4  UNL     1      -1.106  -1.039  -0.092  1.00  0.00     0.151 A 
HETATM    5  C5  UNL     1      -1.742  -2.329   0.053  1.00  0.00     0.150 A 
HETATM    6  N6  UNL     1      -3.023  -2.414   0.410  1.00  0.00    -0.349 N 
ATOM      7  H6  UNL     1      -3.546  -1.555   0.579  1.00  0.00     0.167 HD
HETATM    8  C6  UNL     1      -3.656  -3.612   0.556  1.00  0.00     0.091 A 
HETATM    9  C7  UNL     1      -2.919  -4.749   0.319  1.00  0.00     0.034 A 
HETATM   10  C8  UNL     1      -1.600  -4.669  -0.048  1.00  0.00     0.091 A 
HETATM   11  N7  UNL     1      -1.042  -3.438  -0.172  1.00  0.00    -0.349 N 
ATOM     12  H7  UNL     1      -0.062  -3.361  -0.444  1.00  0.00     0.167 HD
HETATM   13  N8  UNL     1      -1.628   0.183   0.086  1.00  0.00    -0.337 N 
ATOM     14  H8  UNL     1      -2.596   0.348   0.361  1.00  0.00     0.167 HD
HETATM   15  C9  UNL     1      -0.746   1.162  -0.135  1.00  0.00     0.072 A 
ENDROOT
BRANCH   1  16
HETATM   16  C2  UNL     1       1.683   1.189  -0.830  1.00  0.00     0.139 C 
HETATM   17  N4  UNL     1       2.760   0.637  -1.139  1.00  0.00    -0.307 N 
ATOM     18  H4  UNL     1       3.518   1.287  -1.347  1.00  0.00     0.186 HD
BRANCH  17  19
HETATM   19  N3  UNL     1       3.108  -0.692  -1.249  1.00  0.00    -0.274 N 
HETATM   20  C1  UNL     1       3.949  -1.362  -0.328  1.00  0.00     0.200 C 
HETATM   21  N1  UNL     1       3.551  -1.671   0.852  1.00  0.00    -0.372 N 
HETATM   22  N2  UNL     1       5.264  -1.694  -0.732  1.00  0.00    -0.062 NA
ATOM     23  H12 UNL     1       4.157  -2.154   1.516  1.00  0.00     0.158 HD
ATOM     24  H11 UNL     1       2.603  -1.432   1.143  1.00  0.00     0.158 HD
ATOM     25  H3  UNL     1       2.739  -1.223  -2.038  1.00  0.00     0.189 HD
ENDBRANCH  17  19
ENDBRANCH   1  16
BRANCH  15  26
HETATM   26  C10 UNL     1      -1.012   2.593  -0.029  1.00  0.00    -0.007 A 
HETATM   27  C11 UNL     1      -0.208   3.475   0.629  1.00  0.00     0.014 A 
HETATM   28  C12 UNL     1      -0.520   4.829   0.681  1.00  0.00     0.001 A 
HETATM   29  C13 UNL     1      -1.652   5.328   0.071  1.00  0.00     0.000 A 
HETATM   30  C14 UNL     1      -2.470   4.451  -0.595  1.00  0.00     0.001 A 
HETATM   31  C15 UNL     1      -2.153   3.131  -0.638  1.00  0.00     0.014 A 
ENDBRANCH  15  26
TORSDOF 3
