REMARK  7 active torsions:
REMARK  status: ('A' for Active; 'I' for Inactive)
REMARK    1  A    between atoms: C2_2  and  C3_3 
REMARK    2  A    between atoms: C3_3  and  C4_4 
REMARK    3  A    between atoms: C4_4  and  N1_5 
REMARK       I    between atoms: N1_5  and  C5_7 
REMARK    4  A    between atoms: C5_7  and  C6_9 
REMARK    5  A    between atoms: C8_11  and  C9_12 
REMARK    6  A    between atoms: C9_12  and  C10_13 
REMARK       I    between atoms: N3_24  and  C19_25 
REMARK    7  A    between atoms: C19_25  and  C20_27 
ROOT
HETATM    1  C6  UNL     1      -0.143   0.584  -0.928  1.00  0.00     0.116 C 
HETATM    2  C7  UNL     1      -0.078   1.198  -2.306  1.00  0.00     0.049 C 
HETATM    3  C8  UNL     1      -1.005  -0.617  -0.834  1.00  0.00     0.029 C 
HETATM    4  C17 UNL     1      -0.192  -1.748  -0.299  1.00  0.00     0.027 C 
HETATM    5  C18 UNL     1       0.977  -1.001   0.324  1.00  0.00     0.127 C 
HETATM    6  N3  UNL     1       1.184   0.096  -0.614  1.00  0.00    -0.333 N 
HETATM    7  C19 UNL     1       2.466   0.520  -1.062  1.00  0.00     0.225 C 
HETATM    8  O2  UNL     1       2.615   1.469  -1.878  1.00  0.00    -0.273 OA
ENDROOT
BRANCH   3   9
HETATM    9  C9  UNL     1      -1.767  -0.960  -2.084  1.00  0.00     0.048 C 
BRANCH   9  10
HETATM   10  C10 UNL     1      -2.607  -2.179  -1.911  1.00  0.00    -0.034 A 
HETATM   11  C11 UNL     1      -2.372  -3.451  -2.386  1.00  0.00     0.095 A 
HETATM   12  N2  UNL     1      -3.348  -4.290  -2.034  1.00  0.00    -0.368 N 
HETATM   13  C12 UNL     1      -4.257  -3.583  -1.313  1.00  0.00     0.015 A 
ATOM     14  H2  UNL     1      -3.402  -5.282  -2.264  1.00  0.00     0.165 HD
HETATM   15  C13 UNL     1      -3.810  -2.285  -1.231  1.00  0.00    -0.028 A 
HETATM   16  C16 UNL     1      -5.560  -3.742  -0.590  1.00  0.00     0.058 C 
HETATM   17  C14 UNL     1      -4.773  -1.466  -0.446  1.00  0.00     0.041 C 
HETATM   18  C15 UNL     1      -5.559  -2.536   0.310  1.00  0.00     0.011 C 
ENDBRANCH   9  10
ENDBRANCH   3   9
BRANCH   1  19
HETATM   19  C5  UNL     1      -0.593   1.638  -0.009  1.00  0.00     0.246 C 
HETATM   20  N1  UNL     1      -1.872   2.202  -0.159  1.00  0.00    -0.359 N 
ATOM     21  H1  UNL     1      -2.447   1.847  -0.923  1.00  0.00     0.162 HD
HETATM   22  O1  UNL     1       0.157   2.031   0.902  1.00  0.00    -0.271 OA
BRANCH  20  23
HETATM   23  C4  UNL     1      -2.447   3.237   0.668  1.00  0.00     0.122 C 
BRANCH  23  24
HETATM   24  C3  UNL     1      -2.557   2.774   2.078  1.00  0.00     0.019 C 
BRANCH  24  25
HETATM   25  C2  UNL     1      -3.161   3.822   2.991  1.00  0.00    -0.003 C 
HETATM   26  C1  UNL     1      -2.346   5.085   3.019  1.00  0.00     0.005 C 
ENDBRANCH  24  25
ENDBRANCH  23  24
ENDBRANCH  20  23
ENDBRANCH   1  19
BRANCH   7  27
HETATM   27  C20 UNL     1       3.703  -0.126  -0.596  1.00  0.00     0.078 C 
HETATM   28  C21 UNL     1       4.000   0.042   0.860  1.00  0.00     0.014 C 
HETATM   29  C22 UNL     1       5.031  -1.028   1.218  1.00  0.00     0.005 C 
HETATM   30  C23 UNL     1       6.287  -0.841   0.391  1.00  0.00    -0.019 C 
HETATM   31  C24 UNL     1       7.065   0.333   0.937  1.00  0.00     0.010 C 
HETATM   32  C25 UNL     1       6.014  -0.726  -1.071  1.00  0.00     0.005 C 
HETATM   33  C26 UNL     1       4.916   0.274  -1.377  1.00  0.00     0.014 C 
ENDBRANCH   7  27
TORSDOF 7
