REMARK  3 active torsions:
REMARK  status: ('A' for Active; 'I' for Inactive)
REMARK    1  A    between atoms: C5_5  and  O1_6 
REMARK    2  A    between atoms: O1_6  and  N1_7 
REMARK    3  A    between atoms: C6_10  and  O4_11 
ROOT
HETATM    1  C1  UNL     1      -2.936   0.094   0.263  1.00  0.00     0.010 C 
HETATM    2  C2  UNL     1      -1.522   0.057  -0.251  1.00  0.00    -0.016 C 
HETATM    3  C3  UNL     1      -0.819   1.370  -0.182  1.00  0.00     0.007 C 
HETATM    4  C4  UNL     1       0.495   1.223   0.533  1.00  0.00     0.038 C 
HETATM    5  C5  UNL     1       1.313   0.108  -0.084  1.00  0.00     0.187 C 
HETATM    6  C6  UNL     1       0.554  -1.203  -0.105  1.00  0.00     0.150 C 
HETATM    7  C7  UNL     1      -0.793  -1.030   0.535  1.00  0.00     0.038 C 
ENDROOT
BRANCH   5   8
HETATM    8  O1  UNL     1       2.488  -0.027   0.713  1.00  0.00    -0.213 OA
BRANCH   8   9
HETATM    9  N1  UNL     1       3.745   0.204   0.233  1.00  0.00     0.005 N 
HETATM   10  O2  UNL     1       4.511  -0.762   0.081  1.00  0.00    -0.511 OA
HETATM   11  O3  UNL     1       4.147   1.477  -0.074  1.00  0.00    -0.511 OA
ENDBRANCH   8   9
ENDBRANCH   5   8
BRANCH   6  12
HETATM   12  O4  UNL     1       0.358  -1.629  -1.409  1.00  0.00    -0.393 OA
ATOM     13  H4  UNL     1      -0.118  -2.451  -1.422  1.00  0.00     0.210 HD
ENDBRANCH   6  12
TORSDOF 3
