REMARK  4 active torsions:
REMARK  status: ('A' for Active; 'I' for Inactive)
REMARK    1  A    between atoms: C2_2  and  C3_3 
REMARK    2  A    between atoms: C2_2  and  C9_11 
REMARK    3  A    between atoms: C3_3  and  C4_4 
REMARK    4  A    between atoms: C4_4  and  N1_5 
ROOT
HETATM    1  C1  UNL     1      -0.652   1.936   0.130  1.00  0.00     0.016 C 
HETATM    2  C2  UNL     1      -0.827   0.623   0.207  1.00  0.00    -0.057 C 
ENDROOT
BRANCH   2   3
HETATM    3  C3  UNL     1       0.344  -0.295   0.385  1.00  0.00     0.065 C 
BRANCH   3   4
HETATM    4  C4  UNL     1       1.604   0.514   0.431  1.00  0.00     0.277 C 
BRANCH   4   5
HETATM    5  N1  UNL     1       2.786  -0.307   0.606  1.00  0.00     0.092 N 
HETATM    6  C5  UNL     1       3.102  -1.138  -0.507  1.00  0.00     0.298 C 
HETATM    7  C6  UNL     1       3.999  -0.463  -1.520  1.00  0.00     0.198 C 
HETATM    8  O1  UNL     1       5.138   0.081  -0.976  1.00  0.00    -0.388 OA
HETATM    9  C7  UNL     1       5.186   0.026   0.408  1.00  0.00     0.198 C 
HETATM   10  C8  UNL     1       3.884   0.608   0.919  1.00  0.00     0.298 C 
ENDBRANCH   4   5
ENDBRANCH   3   4
ENDBRANCH   2   3
BRANCH   2  11
HETATM   11  C9  UNL     1      -2.196   0.086   0.109  1.00  0.00     0.214 C 
HETATM   12  C10 UNL     1      -3.247   1.117  -0.050  1.00  0.00     0.037 C 
HETATM   13  C11 UNL     1      -4.648   0.595   0.002  1.00  0.00     0.004 C 
HETATM   14  C12 UNL     1      -4.840  -0.795   0.452  1.00  0.00     0.027 C 
HETATM   15  C13 UNL     1      -3.634  -1.631   0.664  1.00  0.00     0.233 C 
HETATM   16  N2  UNL     1      -2.563  -0.807   1.190  1.00  0.00    -0.067 N 
ATOM     17  H22 UNL     1      -1.779  -1.342   1.564  1.00  0.00     0.277 HD
ATOM     18  H21 UNL     1      -2.804  -0.325   2.056  1.00  0.00     0.277 HD
ENDBRANCH   2  11
TORSDOF 4
