REMARK  10 active torsions:
REMARK  status: ('A' for Active; 'I' for Inactive)
REMARK    1  A    between atoms: N1_1  and  C1_4 
REMARK    2  A    between atoms: C2_7  and  N3_8 
REMARK    3  A    between atoms: N3_8  and  N4_10 
REMARK    4  A    between atoms: C4_16  and  C5_17 
REMARK    5  A    between atoms: C5_17  and  N6_18 
REMARK    6  A    between atoms: N6_18  and  S1_20 
REMARK    7  A    between atoms: S1_20  and  N7_21 
REMARK    8  A    between atoms: S1_20  and  N8_25 
REMARK    9  A    between atoms: N8_25  and  C6_27 
REMARK   10  A    between atoms: N12_34  and  O2_35 
ROOT
HETATM    1  N6  UNL     1       0.348  -0.005  -0.859  1.00  0.00    -0.315 N 
ATOM      2  H6  UNL     1      -0.082  -0.739  -1.423  1.00  0.00     0.172 HD
ENDROOT
BRANCH   1   3
HETATM    3  C5  UNL     1      -0.504   0.911  -0.052  1.00  0.00     0.176 C 
BRANCH   3   4
HETATM    4  C4  UNL     1      -1.865   0.409   0.027  1.00  0.00     0.020 A 
HETATM    5  C1  UNL     1      -2.829   1.110  -0.598  1.00  0.00     0.124 A 
HETATM    6  N2  UNL     1      -4.114   0.743  -0.556  1.00  0.00    -0.175 N 
HETATM    7  C2  UNL     1      -4.422  -0.383   0.158  1.00  0.00     0.697 A 
ATOM      8  H2  UNL     1      -4.835   1.281  -1.037  1.00  0.00     0.186 HD
HETATM    9  N5  UNL     1      -3.485  -1.081   0.787  1.00  0.00    -0.200 N 
HETATM   10  C3  UNL     1      -2.201  -0.726   0.748  1.00  0.00     0.118 A 
ATOM     11  H5  UNL     1      -3.755  -1.911   1.314  1.00  0.00     0.183 HD
BRANCH   5  12
HETATM   12  N1  UNL     1      -2.556   2.174  -1.257  1.00  0.00    -0.385 N 
ATOM     13  H12 UNL     1      -3.287   2.705  -1.731  1.00  0.00     0.157 HD
ATOM     14  H11 UNL     1      -1.576   2.454  -1.289  1.00  0.00     0.157 HD
ENDBRANCH   5  12
BRANCH   7  15
HETATM   15  N3  UNL     1      -5.654  -0.826   0.044  1.00  0.00    -0.138 N 
ATOM     16  H3  UNL     1      -5.955  -1.660   0.549  1.00  0.00     0.205 HD
BRANCH  15  17
HETATM   17  N4  UNL     1      -6.532  -0.143  -0.771  1.00  0.00    -0.331 N 
ATOM     18  H42 UNL     1      -6.215   0.689  -1.269  1.00  0.00     0.177 HD
ATOM     19  H41 UNL     1      -7.488  -0.487  -0.859  1.00  0.00     0.177 HD
ENDBRANCH  15  17
ENDBRANCH   7  15
ENDBRANCH   3   4
ENDBRANCH   1   3
BRANCH   1  20
HETATM   20  S1  UNL     1       2.013   0.171  -0.840  1.00  0.00     0.206 S 
HETATM   21  O1  UNL     1       1.854   1.827  -0.249  1.00  0.00    -0.206 OA
BRANCH  20  22
HETATM   22  N7  UNL     1       1.915  -1.301   0.497  1.00  0.00    -0.328 N 
ATOM     23  H72 UNL     1       1.197  -1.872   0.942  1.00  0.00     0.168 HD
ATOM     24  H71 UNL     1       2.929  -1.194   0.509  1.00  0.00     0.168 HD
ENDBRANCH  20  22
BRANCH  20  25
HETATM   25  N8  UNL     1       3.645   0.368  -0.492  1.00  0.00    -0.112 N 
ATOM     26  H8  UNL     1       3.844   1.364  -0.394  1.00  0.00     0.197 HD
BRANCH  25  27
HETATM   27  C6  UNL     1       4.673  -0.259  -0.316  1.00  0.00     0.750 A 
HETATM   28  N9  UNL     1       4.941  -1.566  -0.353  1.00  0.00    -0.112 N 
HETATM   29  N10 UNL     1       6.155  -1.801   0.115  1.00  0.00    -0.211 N 
ATOM     30  H9  UNL     1       4.300  -2.282  -0.694  1.00  0.00     0.207 HD
HETATM   31  N11 UNL     1       6.704  -0.653   0.451  1.00  0.00    -0.186 N 
ATOM     32  H10 UNL     1       6.593  -2.718   0.201  1.00  0.00     0.210 HD
HETATM   33  N12 UNL     1       5.859   0.285   0.212  1.00  0.00     0.034 N 
ATOM     34  H11 UNL     1       7.641  -0.529   0.836  1.00  0.00     0.213 HD
BRANCH  33  35
HETATM   35  O2  UNL     1       5.948   1.660   0.418  1.00  0.00    -0.253 OA
ATOM     36  H2  UNL     1       6.748   2.027   0.774  1.00  0.00     0.247 HD
ENDBRANCH  33  35
ENDBRANCH  25  27
ENDBRANCH  20  25
ENDBRANCH   1  20
TORSDOF 10
