REMARK  0 active torsions:
REMARK  status: ('A' for Active; 'I' for Inactive)
ROOT
HETATM    1  C1  UNL     1      -1.924   1.524   0.389  1.00  0.00     0.047 C 
HETATM    2  C2  UNL     1      -0.882   0.718   0.325  1.00  0.00     0.071 C 
HETATM    3  N1  UNL     1       0.043   0.761   1.390  1.00  0.00    -0.316 N 
ATOM      4  H1  UNL     1      -0.203   1.360   2.178  1.00  0.00     0.169 HD
HETATM    5  C3  UNL     1       1.296   0.056   1.492  1.00  0.00     0.315 C 
HETATM    6  O1  UNL     1       1.907   0.174   2.562  1.00  0.00    -0.262 OA
HETATM    7  C4  UNL     1       1.956  -0.785   0.505  1.00  0.00     0.328 C 
HETATM    8  O2  UNL     1       3.110  -1.169   0.808  1.00  0.00    -0.261 OA
HETATM    9  N2  UNL     1       1.499  -1.244  -0.754  1.00  0.00    -0.260 N 
ATOM     10  H2  UNL     1       2.109  -1.891  -1.254  1.00  0.00     0.190 HD
HETATM   11  N3  UNL     1       0.293  -0.900  -1.386  1.00  0.00    -0.281 N 
ATOM     12  H3  UNL     1       0.186  -1.237  -2.343  1.00  0.00     0.188 HD
HETATM   13  C5  UNL     1      -0.813  -0.137  -0.869  1.00  0.00     0.140 C 
HETATM   14  N4  UNL     1      -1.918  -0.189  -1.521  1.00  0.00    -0.383 N 
ATOM     15  H41 UNL     1      -1.870  -0.782  -2.349  1.00  0.00     0.157 HD
ATOM     16  H42 UNL     1      -2.702   0.352  -1.155  1.00  0.00     0.157 HD
ENDROOT
TORSDOF 0
