REMARK  4 active torsions:
REMARK  status: ('A' for Active; 'I' for Inactive)
REMARK    1  A    between atoms: C2_2  and  N1_3 
REMARK    2  A    between atoms: C11_12  and  O1_13 
REMARK    3  A    between atoms: O1_13  and  C12_14 
REMARK       I    between atoms: C12_14  and  N2_16 
REMARK    4  A    between atoms: N2_16  and  C13_18 
ROOT
HETATM    1  N1  UNL     1      -2.862  -0.393  -0.391  1.00  0.00     0.097 N 
HETATM    2  C3  UNL     1      -2.327  -1.230   0.632  1.00  0.00     0.226 C 
HETATM    3  C4  UNL     1      -3.140  -0.857   1.889  1.00  0.00     0.036 C 
HETATM    4  C5  UNL     1      -4.424  -0.157   1.556  1.00  0.00     0.002 C 
HETATM    5  C6  UNL     1      -4.317   1.345   1.469  1.00  0.00     0.000 C 
HETATM    6  C7  UNL     1      -4.434   1.880   0.067  1.00  0.00     0.002 C 
HETATM    7  C8  UNL     1      -3.113   2.018  -0.647  1.00  0.00     0.036 C 
HETATM    8  C9  UNL     1      -2.245   0.896  -0.245  1.00  0.00     0.226 C 
HETATM    9  C10 UNL     1      -0.906   0.813  -0.924  1.00  0.00     0.068 C 
HETATM   10  C11 UNL     1      -0.127  -0.265  -0.194  1.00  0.00     0.137 C 
HETATM   11  C18 UNL     1      -0.869  -0.947   0.897  1.00  0.00     0.068 C 
ENDROOT
BRANCH  10  12
HETATM   12  O1  UNL     1       1.074   0.243   0.354  1.00  0.00    -0.298 OA
BRANCH  12  13
HETATM   13  C12 UNL     1       2.328  -0.169  -0.030  1.00  0.00     0.361 C 
HETATM   14  O2  UNL     1       2.418  -1.041  -0.912  1.00  0.00    -0.238 OA
HETATM   15  N2  UNL     1       3.523   0.357   0.535  1.00  0.00    -0.332 N 
ATOM     16  H2  UNL     1       3.446   1.072   1.259  1.00  0.00     0.165 HD
BRANCH  15  17
HETATM   17  C13 UNL     1       4.826  -0.071   0.134  1.00  0.00     0.086 C 
HETATM   18  C14 UNL     1       5.687   1.035  -0.395  1.00  0.00     0.025 C 
HETATM   19  C15 UNL     1       7.097   0.516  -0.230  1.00  0.00     0.002 C 
HETATM   20  C16 UNL     1       7.010  -0.701   0.670  1.00  0.00     0.002 C 
HETATM   21  C17 UNL     1       5.618  -0.627   1.290  1.00  0.00     0.025 C 
ENDBRANCH  15  17
ENDBRANCH  12  13
ENDBRANCH  10  12
BRANCH   1  22
HETATM   22  C2  UNL     1      -2.856  -0.918  -1.708  1.00  0.00     0.269 C 
HETATM   23  C1  UNL     1      -3.792  -2.062  -1.874  1.00  0.00     0.037 C 
ENDBRANCH   1  22
TORSDOF 4
