REMARK  9 active torsions:
REMARK  status: ('A' for Active; 'I' for Inactive)
REMARK    1  A    between atoms: C2_2  and  C3_3 
REMARK    2  A    between atoms: C3_3  and  C4_4 
REMARK    3  A    between atoms: C6_6  and  C7_7 
REMARK    4  A    between atoms: C9_9  and  O1_10 
REMARK    5  A    between atoms: C10_12  and  C11_13 
REMARK    6  A    between atoms: C11_13  and  N4_26 
REMARK    7  A    between atoms: N1_14  and  C12_16 
REMARK    8  A    between atoms: N4_26  and  C16_28 
REMARK    9  A    between atoms: C20_35  and  O2_36 
ROOT
HETATM    1  C11 UNL     1       0.676  -0.106  -0.031  1.00  0.00     0.120 C 
HETATM    2  N1  UNL     1       1.355  -0.753  -0.898  1.00  0.00    -0.346 N 
ATOM      3  H1  UNL     1       0.869  -1.490  -1.409  1.00  0.00     0.163 HD
ENDROOT
BRANCH   1   4
HETATM    4  C10 UNL     1      -0.721  -0.465   0.161  1.00  0.00     0.075 A 
HETATM    5  C9  UNL     1      -1.280  -1.499  -0.611  1.00  0.00     0.088 A 
HETATM    6  C6  UNL     1      -2.589  -1.869  -0.449  1.00  0.00    -0.024 A 
HETATM    7  C5  UNL     1      -3.396  -1.221   0.494  1.00  0.00     0.020 A 
HETATM    8  C4  UNL     1      -2.847  -0.219   1.240  1.00  0.00    -0.020 A 
HETATM    9  C20 UNL     1      -1.528   0.159   1.081  1.00  0.00     0.089 A 
BRANCH   5  10
HETATM   10  O1  UNL     1      -0.454  -2.127  -1.540  1.00  0.00    -0.359 OA
ATOM     11  H1  UNL     1       0.454  -1.870  -1.652  1.00  0.00     0.217 HD
ENDBRANCH   5  10
BRANCH   6  12
HETATM   12  C7  UNL     1      -3.144  -2.959  -1.289  1.00  0.00     0.037 C 
HETATM   13  C8  UNL     1      -3.476  -2.545  -2.686  1.00  0.00     0.010 C 
ENDBRANCH   6  12
BRANCH   8  14
HETATM   14  C3  UNL     1      -3.683   0.481   2.244  1.00  0.00     0.067 C 
BRANCH  14  15
HETATM   15  C2  UNL     1      -5.060  -0.065   2.257  1.00  0.00    -0.032 C 
HETATM   16  C1  UNL     1      -6.106   0.706   1.994  1.00  0.00     0.007 C 
ENDBRANCH  14  15
ENDBRANCH   8  14
BRANCH   9  17
HETATM   17  O2  UNL     1      -1.016   1.199   1.879  1.00  0.00    -0.359 OA
ATOM     18  H2  UNL     1      -0.109   1.459   1.770  1.00  0.00     0.217 HD
ENDBRANCH   9  17
ENDBRANCH   1   4
BRANCH   1  19
HETATM   19  N4  UNL     1       1.257   0.916   0.701  1.00  0.00    -0.322 N 
ATOM     20  H4  UNL     1       1.591   0.689   1.638  1.00  0.00     0.169 HD
BRANCH  19  21
HETATM   21  C16 UNL     1       1.412   2.137   0.294  1.00  0.00     0.150 A 
HETATM   22  N5  UNL     1       1.957   3.171   0.932  1.00  0.00    -0.340 N 
HETATM   23  C17 UNL     1       2.006   4.322   0.330  1.00  0.00     0.014 A 
ATOM     24  H5  UNL     1       2.329   3.062   1.875  1.00  0.00     0.167 HD
HETATM   25  C18 UNL     1       2.603   5.568   0.966  1.00  0.00     0.068 C 
HETATM   26  C19 UNL     1       1.491   4.412  -0.934  1.00  0.00     0.077 A 
HETATM   27  S1  UNL     1       0.953   2.805  -1.201  1.00  0.00    -0.064 SA
ENDBRANCH  19  21
ENDBRANCH   1  19
BRANCH   2  28
HETATM   28  C12 UNL     1       2.747  -0.539  -1.224  1.00  0.00     0.311 C 
HETATM   29  C13 UNL     1       3.319  -1.700  -2.014  1.00  0.00     0.286 C 
HETATM   30  N2  UNL     1       4.645  -2.068  -1.587  1.00  0.00    -0.070 N 
HETATM   31  C14 UNL     1       4.675  -2.440  -0.187  1.00  0.00     0.260 C 
ATOM     32  H22 UNL     1       5.034  -2.805  -2.176  1.00  0.00     0.277 HD
ATOM     33  H21 UNL     1       5.319  -1.330  -1.790  1.00  0.00     0.277 HD
HETATM   34  C15 UNL     1       3.950  -1.429   0.668  1.00  0.00     0.262 C 
HETATM   35  N3  UNL     1       3.537  -0.260  -0.043  1.00  0.00    -0.051 N 
ATOM     36  H32 UNL     1       4.343   0.319  -0.279  1.00  0.00     0.279 HD
ATOM     37  H31 UNL     1       3.041   0.380   0.577  1.00  0.00     0.279 HD
ENDBRANCH   2  28
TORSDOF 9
