REMARK  4 active torsions:
REMARK  status: ('A' for Active; 'I' for Inactive)
REMARK    1  A    between atoms: C2_2  and  C3_3 
REMARK    2  A    between atoms: C3_3  and  C4_4 
REMARK    3  A    between atoms: C5_7  and  C6_8 
REMARK    4  A    between atoms: C14_18  and  O1_19 
ROOT
HETATM    1  C4  UNL     1       2.810   0.388  -0.190  1.00  0.00     0.065 A 
HETATM    2  N1  UNL     1       1.573  -0.075  -0.449  1.00  0.00    -0.345 N 
ATOM      3  H1  UNL     1       1.375  -0.936  -0.959  1.00  0.00     0.167 HD
HETATM    4  C5  UNL     1       0.634   0.742   0.050  1.00  0.00     0.087 A 
HETATM    5  N2  UNL     1       1.295   1.747   0.639  1.00  0.00    -0.325 N 
ATOM      6  H2  UNL     1       0.857   2.536   1.114  1.00  0.00     0.169 HD
HETATM    7  C14 UNL     1       2.626   1.561   0.511  1.00  0.00     0.164 A 
ENDROOT
BRANCH   4   8
HETATM    8  C6  UNL     1      -0.866   0.536  -0.053  1.00  0.00     0.054 C 
HETATM    9  C7  UNL     1      -1.093   0.518  -1.505  1.00  0.00     0.023 C 
HETATM   10  C8  UNL     1      -2.569   0.686  -1.989  1.00  0.00     0.080 C 
HETATM   11  C9  UNL     1      -3.327  -0.006  -1.031  1.00  0.00    -0.183 C 
HETATM   12  C10 UNL     1      -4.412  -0.509  -0.299  1.00  0.00     0.080 C 
HETATM   13  C11 UNL     1      -3.744  -1.215   0.928  1.00  0.00     0.011 C 
HETATM   14  C12 UNL     1      -2.547  -0.566   1.476  1.00  0.00     0.002 C 
HETATM   15  C13 UNL     1      -1.194  -0.650   0.828  1.00  0.00     0.012 C 
ENDBRANCH   4   8
BRANCH   1  16
HETATM   16  C3  UNL     1       4.119  -0.243  -0.583  1.00  0.00     0.088 C 
BRANCH  16  17
HETATM   17  C2  UNL     1       4.752  -0.907   0.605  1.00  0.00    -0.031 C 
HETATM   18  C1  UNL     1       5.945  -0.549   1.055  1.00  0.00     0.007 C 
ENDBRANCH  16  17
ENDBRANCH   1  16
BRANCH   7  19
HETATM   19  O1  UNL     1       3.612   2.386   0.989  1.00  0.00    -0.345 OA
ATOM     20  H1  UNL     1       3.485   3.194   1.472  1.00  0.00     0.219 HD
ENDBRANCH   7  19
TORSDOF 4
