REMARK  7 active torsions:
REMARK  status: ('A' for Active; 'I' for Inactive)
REMARK    1  A    between atoms: C2_2  and  C3_3 
REMARK    2  A    between atoms: C3_3  and  C4_4 
REMARK    3  A    between atoms: C3_3  and  N1_7 
REMARK    4  A    between atoms: C4_4  and  O1_5 
REMARK    5  A    between atoms: N1_7  and  C5_9 
REMARK    6  A    between atoms: C8_17  and  O2_18 
REMARK    7  A    between atoms: C10_22  and  N5_23 
ROOT
HETATM    1  C5  UNL     1       0.732   0.996  -0.188  1.00  0.00     0.132 A 
HETATM    2  N2  UNL     1       1.370   2.165  -0.402  1.00  0.00    -0.284 N 
ATOM      3  H2  UNL     1       2.380   2.279  -0.488  1.00  0.00     0.188 HD
HETATM    4  N3  UNL     1       0.482   3.140  -0.483  1.00  0.00    -0.295 N 
ATOM      5  H3  UNL     1       0.700   4.124  -0.641  1.00  0.00     0.187 HD
HETATM    6  C6  UNL     1      -0.750   2.637  -0.325  1.00  0.00     0.108 A 
HETATM    7  C7  UNL     1      -1.973   3.259  -0.342  1.00  0.00     0.196 A 
HETATM    8  F1  UNL     1      -2.113   4.596  -0.528  1.00  0.00    -0.199 F 
HETATM    9  C8  UNL     1      -3.075   2.452  -0.159  1.00  0.00     0.185 A 
HETATM   10  N4  UNL     1      -2.976   1.136   0.027  1.00  0.00    -0.320 N 
ATOM     11  H4  UNL     1      -3.830   0.593   0.157  1.00  0.00     0.169 HD
HETATM   12  C10 UNL     1      -1.766   0.481   0.051  1.00  0.00     0.121 A 
HETATM   13  C15 UNL     1      -0.652   1.255  -0.130  1.00  0.00     0.084 A 
ENDROOT
BRANCH   1  14
HETATM   14  N1  UNL     1       1.174  -0.177  -0.061  1.00  0.00    -0.368 N 
ATOM     15  H1  UNL     1       0.468  -0.896   0.096  1.00  0.00     0.161 HD
BRANCH  14  16
HETATM   16  C3  UNL     1       2.526  -0.643  -0.106  1.00  0.00     0.106 C 
BRANCH  16  17
HETATM   17  C2  UNL     1       3.403  -0.154   1.006  1.00  0.00     0.023 C 
HETATM   18  C1  UNL     1       4.690  -0.952   1.002  1.00  0.00     0.007 C 
ENDBRANCH  16  17
BRANCH  16  19
HETATM   19  C4  UNL     1       3.116  -0.503  -1.482  1.00  0.00     0.189 C 
BRANCH  19  20
HETATM   20  O1  UNL     1       4.426  -0.941  -1.589  1.00  0.00    -0.399 OA
ATOM     21  H1  UNL     1       4.799  -0.853  -2.458  1.00  0.00     0.209 HD
ENDBRANCH  19  20
ENDBRANCH  16  19
ENDBRANCH  14  16
ENDBRANCH   1  14
BRANCH  12  22
HETATM   22  N5  UNL     1      -1.719  -0.904   0.286  1.00  0.00    -0.366 N 
HETATM   23  C11 UNL     1      -1.354  -1.630   1.480  1.00  0.00     0.124 C 
HETATM   24  C12 UNL     1      -1.045  -3.030   1.073  1.00  0.00     0.021 C 
HETATM   25  C13 UNL     1      -1.207  -3.067  -0.412  1.00  0.00     0.021 C 
HETATM   26  C14 UNL     1      -2.069  -1.894  -0.727  1.00  0.00     0.124 C 
ENDBRANCH  12  22
BRANCH   9  27
HETATM   27  O2  UNL     1      -4.321   3.037  -0.171  1.00  0.00    -0.338 OA
HETATM   28  C9  UNL     1      -5.522   2.317   0.006  1.00  0.00     0.211 C 
ENDBRANCH   9  27
TORSDOF 7
