REMARK  6 active torsions:
REMARK  status: ('A' for Active; 'I' for Inactive)
REMARK    1  A    between atoms: N1_3  and  C3_5 
REMARK    2  A    between atoms: N2_6  and  N3_8 
REMARK    3  A    between atoms: N3_8  and  C4_10 
REMARK    4  A    between atoms: C4_10  and  S1_14 
REMARK    5  A    between atoms: S1_14  and  C5_15 
REMARK    6  A    between atoms: C5_15  and  C6_16 
ROOT
HETATM    1  C1  UNL     1       6.906   0.941   0.022  1.00  0.00     0.037 C 
HETATM    2  C2  UNL     1       6.391  -0.155  -0.087  1.00  0.00    -0.000 C 
HETATM    3  N1  UNL     1       5.786  -1.408  -0.224  1.00  0.00    -0.311 N 
ATOM      4  H1  UNL     1       6.363  -2.245  -0.139  1.00  0.00     0.177 HD
ENDROOT
BRANCH   3   5
HETATM    5  C3  UNL     1       4.391  -1.556  -0.478  1.00  0.00     0.205 C 
HETATM    6  N2  UNL     1       3.839  -0.641  -1.190  1.00  0.00    -0.294 N 
ATOM      7  H2  UNL     1       4.405   0.134  -1.536  1.00  0.00     0.187 HD
BRANCH   6   8
HETATM    8  N3  UNL     1       2.477  -0.687  -1.500  1.00  0.00    -0.279 N 
ATOM      9  H3  UNL     1       2.196  -0.967  -2.440  1.00  0.00     0.189 HD
BRANCH   8  10
HETATM   10  C4  UNL     1       1.471  -0.358  -0.554  1.00  0.00     0.152 C 
HETATM   11  N4  UNL     1       1.041  -1.221   0.300  1.00  0.00    -0.379 N 
ATOM     12  H42 UNL     1       1.444  -2.158   0.277  1.00  0.00     0.158 HD
ATOM     13  H41 UNL     1       0.318  -0.985   0.980  1.00  0.00     0.158 HD
BRANCH  10  14
HETATM   14  S1  UNL     1       0.766   1.279  -0.514  1.00  0.00    -0.093 SA
BRANCH  14  15
HETATM   15  C5  UNL     1      -0.496   1.436   0.755  1.00  0.00     0.087 C 
BRANCH  15  16
HETATM   16  C6  UNL     1      -1.676   0.583   0.409  1.00  0.00    -0.005 C 
HETATM   17  C7  UNL     1      -2.792   0.652   1.425  1.00  0.00     0.005 C 
HETATM   18  C8  UNL     1      -3.838  -0.372   0.971  1.00  0.00     0.000 C 
HETATM   19  C9  UNL     1      -4.326   0.053  -0.383  1.00  0.00     0.000 C 
HETATM   20  C10 UNL     1      -3.203  -0.011  -1.376  1.00  0.00     0.000 C 
HETATM   21  C11 UNL     1      -2.180   1.051  -0.962  1.00  0.00     0.005 C 
ENDBRANCH  15  16
ENDBRANCH  14  15
ENDBRANCH  10  14
ENDBRANCH   8  10
ENDBRANCH   6   8
ENDBRANCH   3   5
TORSDOF 6
