REMARK  8 active torsions:
REMARK  status: ('A' for Active; 'I' for Inactive)
REMARK    1  A    between atoms: C2_2  and  N1_3 
REMARK    2  A    between atoms: N1_3  and  C3_4 
REMARK    3  A    between atoms: N1_3  and  C17_35 
REMARK    4  A    between atoms: C8_15  and  C9_16 
REMARK    5  A    between atoms: C12_25  and  N8_26 
REMARK    6  A    between atoms: N8_26  and  C13_28 
REMARK    7  A    between atoms: C13_28  and  C14_29 
REMARK    8  A    between atoms: C14_29  and  O1_30 
ROOT
HETATM    1  C3  UNL     1      -2.762  -0.500   1.241  1.00  0.00     0.119 A 
HETATM    2  N2  UNL     1      -3.552  -1.263   2.089  1.00  0.00    -0.327 N 
ATOM      3  H2  UNL     1      -4.565  -1.164   2.025  1.00  0.00     0.169 HD
HETATM    4  C4  UNL     1      -3.058  -2.118   2.982  1.00  0.00     0.121 A 
HETATM    5  N3  UNL     1      -3.862  -2.805   3.749  1.00  0.00    -0.384 N 
ATOM      6  H31 UNL     1      -3.484  -3.460   4.433  1.00  0.00     0.157 HD
ATOM      7  H32 UNL     1      -4.868  -2.669   3.645  1.00  0.00     0.157 HD
HETATM    8  C5  UNL     1      -1.702  -2.301   3.122  1.00  0.00     0.089 A 
HETATM    9  C6  UNL     1      -1.110  -3.204   4.065  1.00  0.00     0.103 C 
HETATM   10  N4  UNL     1      -0.627  -3.935   4.805  1.00  0.00    -0.191 NA
HETATM   11  C7  UNL     1      -0.897  -1.573   2.310  1.00  0.00     0.045 A 
HETATM   12  C8  UNL     1      -1.422  -0.660   1.355  1.00  0.00     0.054 A 
ENDROOT
BRANCH  12  13
HETATM   13  C9  UNL     1      -0.433  -0.011   0.516  1.00  0.00     0.121 A 
HETATM   14  N5  UNL     1      -0.635   0.578  -0.656  1.00  0.00    -0.326 N 
HETATM   15  C10 UNL     1       0.552   0.992  -1.124  1.00  0.00     0.139 A 
ATOM     16  H5  UNL     1      -1.536   0.695  -1.120  1.00  0.00     0.169 HD
HETATM   17  N6  UNL     1       0.948   1.633  -2.232  1.00  0.00    -0.337 N 
HETATM   18  C16 UNL     1       1.539   0.658  -0.225  1.00  0.00     0.122 A 
HETATM   19  C11 UNL     1       2.260   1.936  -2.451  1.00  0.00     0.183 A 
ATOM     20  H6  UNL     1       0.252   1.901  -2.928  1.00  0.00     0.168 HD
HETATM   21  N7  UNL     1       3.220   1.593  -1.543  1.00  0.00    -0.337 N 
HETATM   22  C12 UNL     1       2.867   0.951  -0.420  1.00  0.00     0.133 A 
ATOM     23  H7  UNL     1       4.198   1.823  -1.718  1.00  0.00     0.168 HD
HETATM   24  N9  UNL     1       0.892   0.040   0.776  1.00  0.00    -0.336 N 
ATOM     25  H9  UNL     1       1.337  -0.337   1.613  1.00  0.00     0.168 HD
BRANCH  22  26
HETATM   26  N8  UNL     1       3.776   0.636   0.427  1.00  0.00    -0.372 N 
ATOM     27  H8  UNL     1       3.462   0.148   1.266  1.00  0.00     0.161 HD
BRANCH  26  28
HETATM   28  C13 UNL     1       5.171   0.888   0.332  1.00  0.00     0.147 C 
BRANCH  28  29
HETATM   29  C14 UNL     1       5.815  -0.186  -0.520  1.00  0.00     0.186 C 
BRANCH  29  30
HETATM   30  O1  UNL     1       7.162   0.087  -0.591  1.00  0.00    -0.394 OA
HETATM   31  C15 UNL     1       7.842  -0.859  -1.362  1.00  0.00     0.201 C 
ENDBRANCH  29  30
ENDBRANCH  28  29
ENDBRANCH  26  28
ENDBRANCH  22  26
ENDBRANCH  12  13
BRANCH   1  32
HETATM   32  N1  UNL     1      -3.474   0.406   0.394  1.00  0.00    -0.363 N 
BRANCH  32  33
HETATM   33  C2  UNL     1      -3.719   1.766   0.747  1.00  0.00     0.120 C 
HETATM   34  C1  UNL     1      -3.308   2.876  -0.114  1.00  0.00     0.026 C 
ENDBRANCH  32  33
BRANCH  32  35
HETATM   35  C17 UNL     1      -4.143  -0.131  -0.758  1.00  0.00     0.077 C 
HETATM   36  C18 UNL     1      -4.021   0.595  -2.041  1.00  0.00     0.032 C 
HETATM   37  C19 UNL     1      -3.704  -1.563  -0.964  1.00  0.00     0.032 C 
ENDBRANCH  32  35
ENDBRANCH   1  32
TORSDOF 8
