REMARK  11 active torsions:
REMARK  status: ('A' for Active; 'I' for Inactive)
REMARK    1  A    between atoms: C3_4  and  N1_5 
REMARK    2  A    between atoms: N1_5  and  C4_7 
REMARK    3  A    between atoms: C4_7  and  C6_10 
REMARK    4  A    between atoms: C8_15  and  N5_16 
REMARK    5  A    between atoms: N5_16  and  C9_18 
REMARK    6  A    between atoms: C12_23  and  N7_24 
REMARK    7  A    between atoms: N7_24  and  C13_26 
REMARK    8  A    between atoms: C14_30  and  C15_31 
REMARK    9  A    between atoms: C15_31  and  C16_32 
REMARK   10  A    between atoms: C16_32  and  C17_33 
REMARK   11  A    between atoms: C17_33  and  N9_34 
ROOT
HETATM    1  C4  UNL     1      -0.257  -0.455   0.582  1.00  0.00     0.232 C 
HETATM    2  C5  UNL     1      -0.110  -1.699   1.366  1.00  0.00     0.089 C 
HETATM    3  N2  UNL     1      -0.005  -2.685   1.969  1.00  0.00    -0.195 NA
ENDROOT
BRANCH   1   4
HETATM    4  N1  UNL     1       0.507   0.554   1.259  1.00  0.00    -0.349 N 
ATOM      5  H1  UNL     1       0.029   1.149   1.935  1.00  0.00     0.163 HD
BRANCH   4   6
HETATM    6  C3  UNL     1       1.791   0.751   1.053  1.00  0.00     0.146 A 
HETATM    7  S1  UNL     1       2.830   1.899   1.774  1.00  0.00    -0.057 SA
HETATM    8  C2  UNL     1       4.269   1.477   0.965  1.00  0.00     0.005 A 
HETATM    9  C1  UNL     1       5.632   2.092   1.110  1.00  0.00     0.058 C 
HETATM   10  C14 UNL     1       3.854   0.445   0.163  1.00  0.00     0.024 A 
HETATM   11  N8  UNL     1       2.604   0.097   0.223  1.00  0.00    -0.339 N 
ATOM     12  H8  UNL     1       2.250  -0.665  -0.356  1.00  0.00     0.168 HD
BRANCH  10  13
HETATM   13  C15 UNL     1       4.877  -0.223  -0.743  1.00  0.00     0.060 C 
BRANCH  13  14
HETATM   14  C16 UNL     1       5.761  -1.135   0.070  1.00  0.00     0.033 C 
BRANCH  14  15
HETATM   15  C17 UNL     1       6.775  -1.793  -0.838  1.00  0.00     0.230 C 
BRANCH  15  16
HETATM   16  N9  UNL     1       7.621  -0.845  -1.507  1.00  0.00    -0.079 N 
ATOM     17  H93 UNL     1       7.067  -0.157  -2.016  1.00  0.00     0.274 HD
ATOM     18  H92 UNL     1       8.078  -0.227  -0.837  1.00  0.00     0.274 HD
ATOM     19  H91 UNL     1       8.305  -1.289  -2.120  1.00  0.00     0.274 HD
ENDBRANCH  15  16
ENDBRANCH  14  15
ENDBRANCH  13  14
ENDBRANCH  10  13
ENDBRANCH   4   6
ENDBRANCH   1   4
BRANCH   1  20
HETATM   20  C6  UNL     1      -1.691  -0.107   0.483  1.00  0.00     0.065 A 
HETATM   21  C7  UNL     1      -2.429   0.401   1.525  1.00  0.00     0.145 A 
HETATM   22  N3  UNL     1      -1.759   0.601   2.776  1.00  0.00    -0.081 NA
HETATM   23  N4  UNL     1      -3.734   0.701   1.377  1.00  0.00    -0.178 N 
HETATM   24  C8  UNL     1      -4.354   0.506   0.184  1.00  0.00     0.681 A 
ATOM     25  H4  UNL     1      -4.260   1.077   2.166  1.00  0.00     0.185 HD
HETATM   26  N6  UNL     1      -3.661   0.012  -0.853  1.00  0.00    -0.176 N 
HETATM   27  C12 UNL     1      -2.343  -0.293  -0.709  1.00  0.00     0.135 A 
ATOM     28  H6  UNL     1      -4.123  -0.135  -1.750  1.00  0.00     0.186 HD
BRANCH  24  29
HETATM   29  N5  UNL     1      -5.614   0.811   0.092  1.00  0.00    -0.222 N 
ATOM     30  H5  UNL     1      -6.111   1.185   0.901  1.00  0.00     0.178 HD
BRANCH  29  31
HETATM   31  C9  UNL     1      -6.308   0.618  -1.159  1.00  0.00     0.091 C 
HETATM   32  C10 UNL     1      -7.629   1.388  -1.076  1.00  0.00     0.032 C 
HETATM   33  C11 UNL     1      -6.665  -0.850  -1.348  1.00  0.00     0.032 C 
ENDBRANCH  29  31
ENDBRANCH  24  29
BRANCH  27  34
HETATM   34  N7  UNL     1      -1.700  -0.766  -1.721  1.00  0.00    -0.319 N 
ATOM     35  H7  UNL     1      -0.712  -0.992  -1.610  1.00  0.00     0.169 HD
BRANCH  34  36
HETATM   36  C13 UNL     1      -2.311  -0.985  -2.984  1.00  0.00     0.354 C 
HETATM   37  O1  UNL     1      -1.738  -0.600  -4.032  1.00  0.00    -0.283 OA
ENDBRANCH  34  36
ENDBRANCH  27  34
ENDBRANCH   1  20
TORSDOF 11
