REMARK  5 active torsions:
REMARK  status: ('A' for Active; 'I' for Inactive)
REMARK    1  A    between atoms: N1_1  and  N2_4 
REMARK    2  A    between atoms: N2_4  and  C1_5 
REMARK    3  A    between atoms: C1_5  and  C2_6 
REMARK    4  A    between atoms: C2_6  and  C3_7 
REMARK    5  A    between atoms: C3_7  and  N3_8 
ROOT
HETATM    1  N3  UNL     1      -1.184  -0.623  -0.035  1.00  0.00    -0.350 N 
HETATM    2  C4  UNL     1      -2.268  -0.519  -0.857  1.00  0.00     0.183 A 
HETATM    3  N4  UNL     1      -3.064   0.486  -0.449  1.00  0.00    -0.345 N 
ATOM      4  H4  UNL     1      -3.937   0.768  -0.894  1.00  0.00     0.167 HD
HETATM    5  C5  UNL     1      -2.521   1.061   0.644  1.00  0.00     0.096 A 
HETATM    6 BR1  UNL     1      -3.211   2.534   1.652  1.00  0.00    -0.030 Br
HETATM    7  C6  UNL     1      -1.360   0.352   0.874  1.00  0.00     0.129 A 
ENDROOT
BRANCH   1   8
HETATM    8  C3  UNL     1      -0.098  -1.593  -0.151  1.00  0.00     0.130 C 
BRANCH   8   9
HETATM    9  C2  UNL     1       0.993  -1.040  -1.022  1.00  0.00     0.038 C 
BRANCH   9  10
HETATM   10  C1  UNL     1       1.600   0.236  -0.500  1.00  0.00     0.136 C 
BRANCH  10  11
HETATM   11  N2  UNL     1       2.199   0.097   0.790  1.00  0.00    -0.148 NA
BRANCH  11  12
HETATM   12  N1  UNL     1       2.760   1.276   1.266  1.00  0.00    -0.348 N 
ATOM     13  H12 UNL     1       2.738   2.146   0.735  1.00  0.00     0.172 HD
ATOM     14  H11 UNL     1       3.188   1.177   2.187  1.00  0.00     0.172 HD
ENDBRANCH  11  12
ENDBRANCH  10  11
ENDBRANCH   9  10
ENDBRANCH   8   9
ENDBRANCH   1   8
TORSDOF 5
