REMARK  10 active torsions:
REMARK  status: ('A' for Active; 'I' for Inactive)
REMARK    1  A    between atoms: O1_2  and  C2_3 
REMARK    2  A    between atoms: C2_3  and  C3_5 
REMARK    3  A    between atoms: C3_5  and  C4_6 
REMARK    4  A    between atoms: C3_5  and  N1_13 
REMARK    5  A    between atoms: C4_6  and  C5_7 
REMARK    6  A    between atoms: N1_13  and  C11_15 
REMARK    7  A    between atoms: C11_15  and  O3_16 
REMARK    8  A    between atoms: C11_15  and  C12_18 
REMARK    9  A    between atoms: C14_20  and  S1_21 
REMARK   10  A    between atoms: S1_21  and  N2_24 
ROOT
HETATM    1  C11 UNL     1       0.210   0.551   0.096  1.00  0.00     0.148 C 
ENDROOT
BRANCH   1   2
HETATM    2  N1  UNL     1      -0.870   0.436  -0.767  1.00  0.00    -0.356 N 
ATOM      3  H1  UNL     1      -0.794   0.732  -1.740  1.00  0.00     0.162 HD
BRANCH   2   4
HETATM    4  C3  UNL     1      -2.141  -0.128  -0.241  1.00  0.00     0.187 C 
BRANCH   4   5
HETATM    5  C2  UNL     1      -2.561  -1.283  -1.024  1.00  0.00     0.281 C 
HETATM    6  O2  UNL     1      -1.827  -1.617  -2.023  1.00  0.00    -0.263 OA
BRANCH   5   7
HETATM    7  O1  UNL     1      -3.657  -2.068  -0.825  1.00  0.00    -0.325 OA
HETATM    8  C1  UNL     1      -3.993  -3.175  -1.637  1.00  0.00     0.213 C 
ENDBRANCH   5   7
ENDBRANCH   4   5
BRANCH   4   9
HETATM    9  C4  UNL     1      -3.094   1.035  -0.228  1.00  0.00     0.074 C 
BRANCH   9  10
HETATM   10  C5  UNL     1      -4.422   0.773   0.302  1.00  0.00    -0.056 A 
HETATM   11  C6  UNL     1      -5.440   0.394  -0.536  1.00  0.00     0.007 A 
HETATM   12  C7  UNL     1      -6.726   0.128  -0.092  1.00  0.00     0.001 A 
HETATM   13  C8  UNL     1      -6.973   0.255   1.260  1.00  0.00     0.000 A 
HETATM   14  C9  UNL     1      -5.958   0.636   2.122  1.00  0.00     0.001 A 
HETATM   15  C10 UNL     1      -4.691   0.894   1.647  1.00  0.00     0.007 A 
ENDBRANCH   9  10
ENDBRANCH   4   9
ENDBRANCH   2   4
ENDBRANCH   1   2
BRANCH   1  16
HETATM   16  O3  UNL     1      -0.023   0.121   1.312  1.00  0.00    -0.346 OA
ATOM     17  H3  UNL     1       0.717   0.200   1.903  1.00  0.00     0.219 HD
ENDBRANCH   1  16
BRANCH   1  18
HETATM   18  C12 UNL     1       1.546   1.059  -0.119  1.00  0.00     0.033 A 
HETATM   19  C13 UNL     1       2.600   0.566   0.689  1.00  0.00     0.042 A 
HETATM   20  C14 UNL     1       3.885   0.985   0.490  1.00  0.00     0.075 A 
HETATM   21  C17 UNL     1       4.207   1.890  -0.490  1.00  0.00     0.026 A 
HETATM   22  C18 UNL     1       3.222   2.391  -1.291  1.00  0.00     0.021 A 
HETATM   23  C19 UNL     1       1.906   1.953  -1.076  1.00  0.00     0.025 A 
HETATM   24 BR1  UNL     1       0.599   2.759  -2.191  1.00  0.00    -0.050 Br
BRANCH  20  25
HETATM   25  S1  UNL     1       5.129   0.330   1.530  1.00  0.00     0.243 S 
HETATM   26  O4  UNL     1       4.515   0.001   2.843  1.00  0.00    -0.206 OA
HETATM   27  O5  UNL     1       6.206   1.372   1.793  1.00  0.00    -0.206 OA
BRANCH  25  28
HETATM   28  N2  UNL     1       5.776  -1.079   0.800  1.00  0.00    -0.215 NA
HETATM   29  C15 UNL     1       6.374  -0.746  -0.465  1.00  0.00     0.129 C 
HETATM   30  C16 UNL     1       6.726  -1.667   1.734  1.00  0.00     0.129 C 
ENDBRANCH  25  28
ENDBRANCH  20  25
ENDBRANCH   1  18
TORSDOF 10
