REMARK  5 active torsions:
REMARK  status: ('A' for Active; 'I' for Inactive)
REMARK    1  A    between atoms: C2_2  and  C3_3 
REMARK       I    between atoms: C3_3  and  N1_5 
REMARK       I    between atoms: N2_8  and  C6_9 
REMARK       I    between atoms: C6_9  and  N5_26 
REMARK       I    between atoms: N3_10  and  C7_12 
REMARK       I    between atoms: C7_12  and  N4_14 
REMARK    2  A    between atoms: N4_14  and  C8_16 
REMARK    3  A    between atoms: N5_26  and  C18_28 
REMARK    4  A    between atoms: C18_28  and  C19_29 
REMARK    5  A    between atoms: C19_29  and  N6_30 
ROOT
HETATM    1  C3  UNL     1       1.597   5.806   0.923  1.00  0.00     0.219 C 
HETATM    2  O1  UNL     1       1.961   6.141   2.088  1.00  0.00    -0.273 OA
HETATM    3  N1  UNL     1       1.242   4.472   0.655  1.00  0.00    -0.349 N 
HETATM    4  C4  UNL     1       0.822   4.108  -0.697  1.00  0.00     0.146 C 
HETATM    5  C5  UNL     1      -0.115   2.927  -0.506  1.00  0.00     0.161 C 
HETATM    6  N2  UNL     1       0.757   1.846  -0.006  1.00  0.00    -0.215 N 
HETATM    7  C6  UNL     1       0.956   0.669  -0.742  1.00  0.00     0.680 C 
HETATM    8  N3  UNL     1       0.074  -0.229  -0.795  1.00  0.00    -0.142 N 
ATOM      9  H3  UNL     1       0.333  -1.036  -1.362  1.00  0.00     0.189 HD
HETATM   10  C7  UNL     1      -1.184  -0.318  -0.223  1.00  0.00     0.335 C 
HETATM   11  O2  UNL     1      -1.471   0.425   0.748  1.00  0.00    -0.246 OA
HETATM   12  N4  UNL     1      -2.182  -1.220  -0.686  1.00  0.00    -0.333 N 
ATOM     13  H4  UNL     1      -1.937  -1.815  -1.477  1.00  0.00     0.165 HD
HETATM   14  N5  UNL     1       2.177   0.477  -1.432  1.00  0.00    -0.224 N 
ATOM     15  H5  UNL     1       2.291   0.901  -2.353  1.00  0.00     0.177 HD
HETATM   16  C25 UNL     1       1.378   2.080   1.261  1.00  0.00     0.161 C 
HETATM   17  C26 UNL     1       1.302   3.498   1.721  1.00  0.00     0.146 C 
ENDROOT
BRANCH  14  18
HETATM   18  C18 UNL     1       3.273  -0.300  -0.881  1.00  0.00     0.168 C 
BRANCH  18  19
HETATM   19  C19 UNL     1       2.932  -1.763  -0.786  1.00  0.00     0.292 C 
BRANCH  19  20
HETATM   20  N6  UNL     1       4.071  -2.454  -0.221  1.00  0.00     0.092 N 
HETATM   21  C20 UNL     1       5.169  -2.452  -1.128  1.00  0.00     0.272 C 
HETATM   22  C21 UNL     1       6.249  -3.445  -0.771  1.00  0.00     0.033 C 
HETATM   23  C22 UNL     1       5.758  -4.822  -0.483  1.00  0.00     0.040 C 
HETATM   24  C23 UNL     1       4.269  -4.901  -0.382  1.00  0.00     0.198 C 
HETATM   25  F1  UNL     1       3.712  -5.061  -1.629  1.00  0.00    -0.248 F 
HETATM   26  C24 UNL     1       3.733  -3.715   0.356  1.00  0.00     0.309 C 
ENDBRANCH  19  20
ENDBRANCH  18  19
ENDBRANCH  14  18
BRANCH  12  27
HETATM   27  C8  UNL     1      -3.494  -1.369  -0.146  1.00  0.00     0.035 C 
HETATM   28  C9  UNL     1      -3.495  -1.783   1.296  1.00  0.00     0.035 C 
HETATM   29  C10 UNL     1      -4.898  -2.097   1.774  1.00  0.00    -0.012 C 
HETATM   30  C11 UNL     1      -5.463  -3.213   0.952  1.00  0.00     0.009 C 
HETATM   31  C15 UNL     1      -5.716  -0.833   1.683  1.00  0.00     0.009 C 
HETATM   32  C12 UNL     1      -5.605  -2.701  -0.470  1.00  0.00    -0.012 C 
HETATM   33  C13 UNL     1      -6.416  -1.445  -0.560  1.00  0.00     0.009 C 
HETATM   34  C17 UNL     1      -4.235  -2.417  -0.985  1.00  0.00     0.035 C 
HETATM   35  C14 UNL     1      -5.705  -0.376   0.240  1.00  0.00    -0.012 C 
HETATM   36  C16 UNL     1      -4.318  -0.098  -0.249  1.00  0.00     0.035 C 
ENDBRANCH  12  27
BRANCH   1  37
HETATM   37  C2  UNL     1       1.554   6.853  -0.152  1.00  0.00     0.098 C 
HETATM   38  C1  UNL     1       1.977   8.170   0.403  1.00  0.00     0.014 C 
ENDBRANCH   1  37
TORSDOF 5
