REMARK  7 active torsions:
REMARK  status: ('A' for Active; 'I' for Inactive)
REMARK       I    between atoms: C2_2  and  N1_4 
REMARK    1  A    between atoms: C7_11  and  C8_12 
REMARK    2  A    between atoms: C8_12  and  C9_13 
REMARK    3  A    between atoms: C12_18  and  N3_19 
REMARK       I    between atoms: N3_19  and  C13_21 
REMARK    4  A    between atoms: C13_21  and  C14_23 
REMARK    5  A    between atoms: C14_23  and  C15_24 
REMARK    6  A    between atoms: C15_24  and  C16_25 
REMARK    7  A    between atoms: C16_25  and  C17_26 
ROOT
HETATM    1  C9  UNL     1      -0.884  -1.300   0.358  1.00  0.00     0.109 A 
HETATM    2  N2  UNL     1       0.185  -2.195   0.045  1.00  0.00    -0.343 N 
ATOM      3  H2  UNL     1       0.057  -3.188  -0.151  1.00  0.00     0.167 HD
HETATM    4  C10 UNL     1       1.318  -1.609   0.039  1.00  0.00     0.051 A 
HETATM    5  C11 UNL     1       2.590  -2.330  -0.261  1.00  0.00     0.072 C 
HETATM    6  C12 UNL     1       1.135  -0.220   0.355  1.00  0.00     0.132 A 
HETATM    7  N4  UNL     1      -0.289  -0.050   0.555  1.00  0.00    -0.327 N 
ATOM      8  H4  UNL     1      -0.768   0.818   0.795  1.00  0.00     0.169 HD
ENDROOT
BRANCH   1   9
HETATM    9  C8  UNL     1      -2.136  -1.683   0.383  1.00  0.00     0.079 C 
BRANCH   9  10
HETATM   10  C7  UNL     1      -3.284  -0.848   0.697  1.00  0.00     0.054 A 
HETATM   11  C6  UNL     1      -3.409  -0.189   1.900  1.00  0.00     0.037 A 
HETATM   12  C5  UNL     1      -4.497   0.633   2.129  1.00  0.00     0.025 A 
HETATM   13 BR1  UNL     1      -2.146  -0.412   3.335  1.00  0.00    -0.049 Br
HETATM   14  C4  UNL     1      -5.495   0.825   1.178  1.00  0.00     0.050 A 
HETATM   15  C3  UNL     1      -5.326   0.142  -0.010  1.00  0.00     0.108 A 
HETATM   16  N1  UNL     1      -6.225   0.287  -0.924  1.00  0.00    -0.314 N 
HETATM   17  N5  UNL     1      -4.267  -0.655  -0.231  1.00  0.00    -0.341 N 
HETATM   18  C2  UNL     1      -7.353   1.107  -0.749  1.00  0.00     0.219 C 
ATOM     19  H1  UNL     1      -6.113  -0.212  -1.806  1.00  0.00     0.170 HD
HETATM   20  C1  UNL     1      -7.271   2.568  -0.937  1.00  0.00     0.117 C 
HETATM   21  O1  UNL     1      -8.451   0.585  -0.426  1.00  0.00    -0.274 OA
ATOM     22  H5  UNL     1      -4.194  -1.135  -1.128  1.00  0.00     0.167 HD
ENDBRANCH   9  10
ENDBRANCH   1   9
BRANCH   6  23
HETATM   23  N3  UNL     1       1.989   0.707   0.456  1.00  0.00    -0.311 N 
HETATM   24  C13 UNL     1       3.377   0.668   0.291  1.00  0.00     0.223 C 
HETATM   25  O2  UNL     1       4.102   0.209   1.223  1.00  0.00    -0.273 OA
ATOM     26  H3  UNL     1       1.607   1.622   0.694  1.00  0.00     0.170 HD
BRANCH  24  27
HETATM   27  C14 UNL     1       4.060   1.142  -0.933  1.00  0.00     0.103 C 
BRANCH  27  28
HETATM   28  C15 UNL     1       5.522   0.908  -0.973  1.00  0.00     0.010 C 
BRANCH  28  29
HETATM   29  C16 UNL     1       5.972  -0.508  -0.929  1.00  0.00     0.011 C 
BRANCH  29  30
HETATM   30  C17 UNL     1       7.503  -0.600  -0.981  1.00  0.00     0.085 C 
HETATM   31 BR2  UNL     1       8.290   0.332   0.524  1.00  0.00    -0.097 Br
ENDBRANCH  29  30
ENDBRANCH  28  29
ENDBRANCH  27  28
ENDBRANCH  24  27
ENDBRANCH   6  23
TORSDOF 7
