REMARK  8 active torsions:
REMARK  status: ('A' for Active; 'I' for Inactive)
REMARK    1  A    between atoms: C2_2  and  N1_4 
REMARK       I    between atoms: C4_6  and  N2_7 
REMARK       I    between atoms: C4_6  and  N5_33 
REMARK    2  A    between atoms: N2_7  and  C5_9 
REMARK    3  A    between atoms: C5_9  and  C6_10 
REMARK    4  A    between atoms: C8_12  and  C9_13 
REMARK    5  A    between atoms: C9_13  and  O1_14 
REMARK    6  A    between atoms: C9_13  and  N3_16 
REMARK       I    between atoms: N4_19  and  C12_20 
REMARK    7  A    between atoms: C12_20  and  C13_22 
REMARK    8  A    between atoms: N5_33  and  C22_35 
ROOT
HETATM    1  C6  UNL     1      -1.491   1.240  -0.325  1.00  0.00     0.005 C 
HETATM    2  C7  UNL     1      -1.164  -0.030   0.484  1.00  0.00     0.019 C 
HETATM    3  C8  UNL     1      -0.386  -0.493  -0.709  1.00  0.00     0.061 C 
HETATM    4  C21 UNL     1      -0.242   0.939  -1.153  1.00  0.00     0.019 C 
ENDROOT
BRANCH   3   5
HETATM    5  C9  UNL     1       0.791  -1.318  -0.556  1.00  0.00     0.117 C 
BRANCH   5   6
HETATM    6  O1  UNL     1       0.867  -2.323  -1.409  1.00  0.00    -0.349 OA
ATOM      7  H1  UNL     1       1.641  -2.865  -1.308  1.00  0.00     0.219 HD
ENDBRANCH   5   6
BRANCH   5   8
HETATM    8  N3  UNL     1       1.858  -1.230   0.333  1.00  0.00    -0.362 N 
HETATM    9  C10 UNL     1       1.987  -0.269   1.391  1.00  0.00     0.144 C 
HETATM   10  C11 UNL     1       3.376  -0.307   2.031  1.00  0.00     0.145 C 
HETATM   11  N4  UNL     1       4.441  -0.520   1.105  1.00  0.00    -0.349 N 
HETATM   12  C12 UNL     1       5.718   0.041   1.383  1.00  0.00     0.224 C 
HETATM   13  C19 UNL     1       4.250  -1.308  -0.079  1.00  0.00     0.145 C 
HETATM   14  O2  UNL     1       5.902   0.718   2.453  1.00  0.00    -0.273 OA
HETATM   15  C20 UNL     1       2.998  -2.167   0.209  1.00  0.00     0.144 C 
BRANCH  12  16
HETATM   16  C13 UNL     1       6.858  -0.123   0.474  1.00  0.00     0.078 C 
HETATM   17  C14 UNL     1       8.144   0.315   1.207  1.00  0.00     0.020 C 
HETATM   18  C15 UNL     1       9.276  -0.206   0.345  1.00  0.00     0.080 C 
HETATM   19  C16 UNL     1       9.277   0.493  -0.993  1.00  0.00     0.243 C 
HETATM   20  F1  UNL     1      10.141  -0.218  -1.822  1.00  0.00    -0.206 F 
HETATM   21  F2  UNL     1       9.782   1.776  -0.894  1.00  0.00    -0.206 F 
HETATM   22  C17 UNL     1       7.920   0.452  -1.657  1.00  0.00     0.080 C 
HETATM   23  C18 UNL     1       6.793   0.797  -0.734  1.00  0.00     0.020 C 
ENDBRANCH  12  16
ENDBRANCH   5   8
ENDBRANCH   3   5
BRANCH   1  24
HETATM   24  C5  UNL     1      -2.717   1.135  -1.179  1.00  0.00     0.142 C 
BRANCH  24  25
HETATM   25  N2  UNL     1      -3.912   0.856  -0.376  1.00  0.00    -0.226 N 
HETATM   26  C4  UNL     1      -5.166   0.710  -0.994  1.00  0.00     0.670 C 
HETATM   27  N1  UNL     1      -6.097   1.541  -0.803  1.00  0.00    -0.223 N 
HETATM   28  N5  UNL     1      -5.373  -0.391  -1.857  1.00  0.00    -0.221 N 
ATOM     29  H1  UNL     1      -6.958   1.325  -1.306  1.00  0.00     0.178 HD
ATOM     30  H5  UNL     1      -4.976  -0.311  -2.793  1.00  0.00     0.178 HD
ATOM     31  H2  UNL     1      -3.833   0.767   0.637  1.00  0.00     0.177 HD
BRANCH  27  32
HETATM   32  C2  UNL     1      -6.165   2.714  -0.021  1.00  0.00     0.091 C 
HETATM   33  C1  UNL     1      -5.092   3.741  -0.292  1.00  0.00     0.032 C 
HETATM   34  C3  UNL     1      -6.271   2.517   1.463  1.00  0.00     0.032 C 
ENDBRANCH  27  32
BRANCH  28  35
HETATM   35  C22 UNL     1      -6.070  -1.596  -1.571  1.00  0.00     0.108 A 
HETATM   36  C23 UNL     1      -7.500  -1.575  -1.134  1.00  0.00     0.037 A 
HETATM   37  C24 UNL     1      -6.402  -2.151  -0.270  1.00  0.00    -0.025 A 
HETATM   38  C25 UNL     1      -6.192  -1.500   1.053  1.00  0.00     0.017 C 
HETATM   39  C26 UNL     1      -6.533  -3.686  -0.166  1.00  0.00     0.017 C 
ENDBRANCH  28  35
ENDBRANCH  24  25
ENDBRANCH   1  24
TORSDOF 8
