REMARK  14 active torsions:
REMARK  status: ('A' for Active; 'I' for Inactive)
REMARK    1  A    between atoms: C2_2  and  C3_3 
REMARK    2  A    between atoms: C3_3  and  C4_4 
REMARK    3  A    between atoms: C4_4  and  C5_5 
REMARK    4  A    between atoms: C5_5  and  N1_6 
REMARK    5  A    between atoms: C5_5  and  C20_31 
REMARK       I    between atoms: N1_6  and  C6_8 
REMARK    6  A    between atoms: C6_8  and  C7_10 
REMARK       I    between atoms: N2_14  and  C11_15 
REMARK    7  A    between atoms: C11_15  and  O3_17 
REMARK    8  A    between atoms: O3_17  and  C12_18 
REMARK       I    between atoms: C12_18  and  N3_20 
REMARK    9  A    between atoms: N3_20  and  C13_22 
REMARK   10  A    between atoms: C13_22  and  C15_24 
REMARK       I    between atoms: C15_24  and  N4_26 
REMARK   11  A    between atoms: C20_31  and  C21_33 
REMARK   12  A    between atoms: C21_33  and  O7_34 
REMARK   13  A    between atoms: C21_33  and  C22_36 
REMARK   14  A    between atoms: C22_36  and  C23_37 
ROOT
HETATM    1  C7  UNL     1      -0.436   0.080   3.090  1.00  0.00     0.181 C 
HETATM    2  C8  UNL     1      -0.850  -0.274   4.507  1.00  0.00     0.037 C 
HETATM    3  C9  UNL     1      -0.614   0.947   5.341  1.00  0.00     0.022 C 
HETATM    4  C10 UNL     1      -0.286   2.030   4.350  1.00  0.00     0.129 C 
HETATM    5  N2  UNL     1       0.298   1.311   3.260  1.00  0.00    -0.314 N 
HETATM    6  C11 UNL     1       1.416   1.740   2.486  1.00  0.00     0.372 C 
HETATM    7  O2  UNL     1       2.006   2.829   2.690  1.00  0.00    -0.238 OA
ENDROOT
BRANCH   1   8
HETATM    8  C6  UNL     1      -1.652   0.298   2.240  1.00  0.00     0.241 C 
HETATM    9  N1  UNL     1      -2.374  -0.781   1.682  1.00  0.00    -0.348 N 
ATOM     10  H1  UNL     1      -2.068  -1.740   1.849  1.00  0.00     0.163 HD
HETATM   11  O1  UNL     1      -1.991   1.502   2.048  1.00  0.00    -0.271 OA
BRANCH   9  12
HETATM   12  C5  UNL     1      -3.546  -0.527   0.874  1.00  0.00     0.157 C 
BRANCH  12  13
HETATM   13  C4  UNL     1      -4.760  -1.215   1.389  1.00  0.00     0.033 C 
BRANCH  13  14
HETATM   14  C3  UNL     1      -4.738  -2.685   1.524  1.00  0.00     0.002 C 
BRANCH  14  15
HETATM   15  C2  UNL     1      -4.520  -3.489   0.272  1.00  0.00    -0.004 C 
HETATM   16  C1  UNL     1      -4.564  -4.972   0.668  1.00  0.00     0.005 C 
ENDBRANCH  14  15
ENDBRANCH  13  14
ENDBRANCH  12  13
BRANCH  12  17
HETATM   17  C20 UNL     1      -3.283  -0.667  -0.584  1.00  0.00     0.177 C 
HETATM   18  O6  UNL     1      -2.101  -0.929  -0.907  1.00  0.00    -0.293 OA
BRANCH  17  19
HETATM   19  C21 UNL     1      -4.258  -0.540  -1.645  1.00  0.00     0.190 C 
BRANCH  19  20
HETATM   20  O7  UNL     1      -3.793  -1.512  -2.657  1.00  0.00    -0.388 OA
ATOM     21  H7  UNL     1      -4.433  -1.429  -3.354  1.00  0.00     0.210 HD
ENDBRANCH  19  20
BRANCH  19  22
HETATM   22  C22 UNL     1      -4.361   0.695  -2.432  1.00  0.00     0.043 C 
BRANCH  22  23
HETATM   23  C23 UNL     1      -4.659   2.010  -1.841  1.00  0.00    -0.020 C 
HETATM   24  C24 UNL     1      -4.742   2.977  -3.080  1.00  0.00     0.009 C 
HETATM   25  C25 UNL     1      -3.533   2.630  -1.030  1.00  0.00     0.009 C 
ENDBRANCH  22  23
ENDBRANCH  19  22
ENDBRANCH  17  19
ENDBRANCH  12  17
ENDBRANCH   9  12
ENDBRANCH   1   8
BRANCH   6  26
HETATM   26  O3  UNL     1       1.896   0.937   1.454  1.00  0.00    -0.209 OA
BRANCH  26  27
HETATM   27  C12 UNL     1       2.961   1.230   0.641  1.00  0.00     0.370 C 
HETATM   28  O4  UNL     1       3.568   2.333   0.840  1.00  0.00    -0.238 OA
HETATM   29  N3  UNL     1       3.418   0.392  -0.387  1.00  0.00    -0.324 N 
ATOM     30  H3  UNL     1       2.944  -0.494  -0.561  1.00  0.00     0.165 HD
BRANCH  29  31
HETATM   31  C13 UNL     1       4.548   0.766  -1.201  1.00  0.00     0.175 C 
HETATM   32  C14 UNL     1       4.088   0.782  -2.631  1.00  0.00     0.042 C 
BRANCH  31  33
HETATM   33  C15 UNL     1       5.688  -0.177  -0.964  1.00  0.00     0.242 C 
HETATM   34  O5  UNL     1       5.516  -1.141  -0.148  1.00  0.00    -0.271 OA
HETATM   35  N4  UNL     1       6.929  -0.042  -1.604  1.00  0.00    -0.350 N 
HETATM   36  C16 UNL     1       7.427   0.917  -2.568  1.00  0.00     0.126 C 
HETATM   37  C19 UNL     1       8.076  -0.943  -1.387  1.00  0.00     0.126 C 
HETATM   38  C17 UNL     1       8.150   0.054  -3.587  1.00  0.00     0.021 C 
HETATM   39  C18 UNL     1       8.773  -1.039  -2.734  1.00  0.00     0.021 C 
ENDBRANCH  31  33
ENDBRANCH  29  31
ENDBRANCH  26  27
ENDBRANCH   6  26
TORSDOF 14
