REMARK  5 active torsions:
REMARK  status: ('A' for Active; 'I' for Inactive)
REMARK    1  A    between atoms: C2_2  and  C3_3 
REMARK    2  A    between atoms: C3_3  and  N1_4 
REMARK    3  A    between atoms: C6_10  and  N3_11 
REMARK    4  A    between atoms: N3_11  and  N4_12 
REMARK    5  A    between atoms: N4_12  and  C7_14 
ROOT
HETATM    1  C7  UNL     1      -1.833   1.155   0.680  1.00  0.00     0.124 C 
HETATM    2  C8  UNL     1      -2.916   0.496   0.358  1.00  0.00     0.092 A 
HETATM    3  C9  UNL     1      -3.991   1.174  -0.375  1.00  0.00     0.120 A 
HETATM    4  N5  UNL     1      -3.942   2.395  -0.734  1.00  0.00    -0.385 N 
ATOM      5  H51 UNL     1      -4.689   2.866  -1.244  1.00  0.00     0.157 HD
ATOM      6  H52 UNL     1      -3.101   2.917  -0.488  1.00  0.00     0.157 HD
HETATM    7  N6  UNL     1      -5.162   0.447  -0.717  1.00  0.00    -0.294 N 
ATOM      8  H6  UNL     1      -5.912   0.913  -1.227  1.00  0.00     0.172 HD
HETATM    9  C10 UNL     1      -5.302  -0.902  -0.364  1.00  0.00     0.328 A 
HETATM   10  O2  UNL     1      -6.362  -1.512  -0.687  1.00  0.00    -0.247 OA
HETATM   11  N7  UNL     1      -4.285  -1.574   0.340  1.00  0.00    -0.275 N 
ATOM     12  H7  UNL     1      -4.410  -2.556   0.587  1.00  0.00     0.173 HD
HETATM   13  C11 UNL     1      -3.073  -0.899   0.717  1.00  0.00     0.264 A 
HETATM   14  O3  UNL     1      -2.209  -1.561   1.342  1.00  0.00    -0.267 OA
ENDROOT
BRANCH   1  15
HETATM   15  N4  UNL     1      -0.719   0.645   1.380  1.00  0.00    -0.310 N 
ATOM     16  H4  UNL     1      -0.867   0.100   2.230  1.00  0.00     0.181 HD
BRANCH  15  17
HETATM   17  N3  UNL     1       0.605   0.878   0.920  1.00  0.00    -0.084 NA
BRANCH  17  18
HETATM   18  C6  UNL     1       1.342  -0.339   0.810  1.00  0.00     0.440 C 
HETATM   19  N1  UNL     1       2.727  -0.141   0.461  1.00  0.00     0.140 N 
HETATM   20  C4  UNL     1       3.175  -1.474   0.192  1.00  0.00     0.379 C 
HETATM   21  C5  UNL     1       2.003  -2.076  -0.522  1.00  0.00     0.248 C 
HETATM   22  O1  UNL     1       2.059  -3.120  -1.187  1.00  0.00    -0.272 OA
HETATM   23  N2  UNL     1       0.908  -1.215  -0.259  1.00  0.00    -0.315 N 
ATOM     24  H2  UNL     1       0.001  -1.213  -0.726  1.00  0.00     0.166 HD
BRANCH  19  25
HETATM   25  C3  UNL     1       2.971   0.822  -0.546  1.00  0.00     0.304 C 
BRANCH  25  26
HETATM   26  C2  UNL     1       4.372   1.221  -0.756  1.00  0.00    -0.007 C 
HETATM   27  C1  UNL     1       5.389   0.776  -0.053  1.00  0.00     0.008 C 
ENDBRANCH  25  26
ENDBRANCH  19  25
ENDBRANCH  17  18
ENDBRANCH  15  17
ENDBRANCH   1  15
TORSDOF 5
