REMARK  4 active torsions:
REMARK  status: ('A' for Active; 'I' for Inactive)
REMARK    1  A    between atoms: C3_3  and  O1_4 
REMARK    2  A    between atoms: C4_7  and  C5_8 
REMARK    3  A    between atoms: C5_8  and  N1_10 
REMARK    4  A    between atoms: C7_16  and  N2_17 
REMARK       I    between atoms: N2_17  and  C8_19 
ROOT
HETATM    1  C1  UNL     1       0.692  -3.616   0.476  1.00  0.00     0.018 C 
HETATM    2  C2  UNL     1       0.413  -2.469   0.219  1.00  0.00    -0.045 C 
HETATM    3  C3  UNL     1       0.053  -1.069  -0.079  1.00  0.00     0.280 C 
HETATM    4  O2  UNL     1      -1.323  -0.869   0.029  1.00  0.00    -0.306 OA
HETATM    5  C4  UNL     1      -1.479   0.517  -0.017  1.00  0.00     0.331 C 
HETATM    6  O3  UNL     1      -1.023   1.001   1.180  1.00  0.00    -0.203 OA
HETATM    7  O4  UNL     1       0.253   0.972   1.215  1.00  0.00    -0.205 OA
HETATM    8  C7  UNL     1       0.870  -0.154   0.749  1.00  0.00     0.338 C 
ENDROOT
BRANCH   3   9
HETATM    9  O1  UNL     1       0.360  -0.887  -1.442  1.00  0.00    -0.352 OA
ATOM     10  H1  UNL     1       0.128   0.014  -1.634  1.00  0.00     0.214 HD
ENDBRANCH   3   9
BRANCH   8  11
HETATM   11  N2  UNL     1       2.036   0.270  -0.025  1.00  0.00    -0.327 N 
HETATM   12  C8  UNL     1       3.360  -0.048   0.377  1.00  0.00     0.215 C 
HETATM   13  C9  UNL     1       4.531   0.379  -0.401  1.00  0.00     0.117 C 
HETATM   14  O5  UNL     1       3.495  -0.717   1.437  1.00  0.00    -0.274 OA
ATOM     15  H2  UNL     1       1.894   0.810  -0.879  1.00  0.00     0.165 HD
ENDBRANCH   8  11
BRANCH   5  16
HETATM   16  C5  UNL     1      -2.874   0.936  -0.370  1.00  0.00     0.237 C 
HETATM   17  C6  UNL     1      -3.911   0.406   0.565  1.00  0.00     0.045 C 
BRANCH  16  18
HETATM   18  N1  UNL     1      -2.897   2.389  -0.384  1.00  0.00    -0.071 N 
ATOM     19  H13 UNL     1      -2.565   2.802   0.487  1.00  0.00     0.274 HD
ATOM     20  H12 UNL     1      -2.191   2.794  -0.999  1.00  0.00     0.274 HD
ATOM     21  H11 UNL     1      -3.846   2.674  -0.624  1.00  0.00     0.274 HD
ENDBRANCH  16  18
ENDBRANCH   5  16
TORSDOF 4
