REMARK  3 active torsions:
REMARK  status: ('A' for Active; 'I' for Inactive)
REMARK    1  A    between atoms: N1_2  and  C3_4 
REMARK    2  A    between atoms: C6_12  and  N5_13 
REMARK    3  A    between atoms: N5_13  and  C8_15 
ROOT
HETATM    1  C3  UNL     1      -1.675  -0.091   0.116  1.00  0.00     0.347 C 
HETATM    2  N2  UNL     1      -1.644   1.084  -0.688  1.00  0.00    -0.333 N 
ATOM      3  H2  UNL     1      -2.102   1.124  -1.599  1.00  0.00     0.164 HD
HETATM    4  C4  UNL     1      -0.944   2.192  -0.156  1.00  0.00     0.185 C 
HETATM    5  N3  UNL     1      -0.956   3.456  -0.783  1.00  0.00    -0.064 NA
HETATM    6  N4  UNL     1      -0.254   2.072   0.952  1.00  0.00    -0.363 N 
ATOM      7  H4  UNL     1       0.233   2.901   1.292  1.00  0.00     0.162 HD
HETATM    8  C5  UNL     1      -0.129   0.876   1.721  1.00  0.00     0.151 C 
HETATM    9  C6  UNL     1      -0.388  -0.331   0.861  1.00  0.00     0.157 C 
ENDROOT
BRANCH   9  10
HETATM   10  N5  UNL     1       0.758  -0.600   0.075  1.00  0.00    -0.348 N 
HETATM   11  C7  UNL     1       0.763  -1.550  -1.040  1.00  0.00     0.153 C 
BRANCH  10  12
HETATM   12  C8  UNL     1       1.998   0.006   0.364  1.00  0.00     0.173 C 
HETATM   13  N6  UNL     1       2.551   1.041  -0.163  1.00  0.00    -0.361 N 
HETATM   14  C9  UNL     1       3.837   1.322   0.434  1.00  0.00     0.142 C 
ATOM     15  H6  UNL     1       2.133   1.595  -0.910  1.00  0.00     0.162 HD
HETATM   16  C10 UNL     1       4.135   0.167   1.363  1.00  0.00     0.142 C 
HETATM   17  N7  UNL     1       2.887  -0.532   1.369  1.00  0.00    -0.361 N 
ATOM     18  H7  UNL     1       2.656  -1.303   1.996  1.00  0.00     0.162 HD
ENDBRANCH  10  12
ENDBRANCH   9  10
BRANCH   1  19
HETATM   19  N1  UNL     1      -2.168  -1.264  -0.542  1.00  0.00     0.105 N 
HETATM   20  C1  UNL     1      -2.484  -2.309   0.419  1.00  0.00     0.312 C 
HETATM   21  C2  UNL     1      -3.294  -1.073  -1.377  1.00  0.00     0.312 C 
ENDBRANCH   1  19
TORSDOF 3
