REMARK  14 active torsions:
REMARK  status: ('A' for Active; 'I' for Inactive)
REMARK    1  A    between atoms: N1_5  and  C4_6 
REMARK    2  A    between atoms: C7_9  and  S1_10 
REMARK    3  A    between atoms: S1_10  and  C8_11 
REMARK    4  A    between atoms: C8_11  and  C9_12 
REMARK    5  A    between atoms: C10_13  and  C11_14 
REMARK    6  A    between atoms: C10_13  and  C13_16 
REMARK    7  A    between atoms: C13_16  and  C14_17 
REMARK    8  A    between atoms: C14_17  and  C15_18 
REMARK    9  A    between atoms: C15_18  and  C16_19 
REMARK   10  A    between atoms: C16_19  and  C17_20 
REMARK   11  A    between atoms: C19_22  and  O2_23 
REMARK   12  A    between atoms: C20_25  and  C21_26 
REMARK   13  A    between atoms: C21_26  and  O3_27 
REMARK   14  A    between atoms: C22_29  and  O4_31 
ROOT
HETATM    1  C1  UNL     1      -4.665   2.944  -1.773  1.00  0.00     0.025 C 
HETATM    2  C2  UNL     1      -4.260   2.096  -0.859  1.00  0.00     0.009 C 
HETATM    3  C3  UNL     1      -4.549   2.116   0.582  1.00  0.00     0.249 C 
HETATM    4  O1  UNL     1      -5.569   2.648   1.103  1.00  0.00    -0.268 OA
HETATM    5  N1  UNL     1      -3.461   1.424   1.255  1.00  0.00    -0.342 N 
HETATM    6  C6  UNL     1      -2.560   1.041   0.242  1.00  0.00     0.115 C 
HETATM    7  C7  UNL     1      -1.712  -0.153   0.400  1.00  0.00     0.104 C 
HETATM    8  C19 UNL     1      -2.450  -1.429   0.361  1.00  0.00     0.143 C 
HETATM    9  C20 UNL     1      -3.741  -1.511  -0.342  1.00  0.00     0.074 C 
HETATM   10  C22 UNL     1      -4.242  -0.315  -1.061  1.00  0.00     0.072 C 
HETATM   11  C23 UNL     1      -5.707  -0.045  -0.717  1.00  0.00     0.047 C 
HETATM   12  C24 UNL     1      -3.387   0.891  -0.997  1.00  0.00     0.082 C 
ENDROOT
BRANCH   7  13
HETATM   13  S1  UNL     1      -0.639  -0.079   1.859  1.00  0.00    -0.132 SA
BRANCH  13  14
HETATM   14  C8  UNL     1       0.585   1.170   1.852  1.00  0.00     0.045 C 
BRANCH  14  15
HETATM   15  C9  UNL     1       1.801   1.079   1.050  1.00  0.00     0.009 C 
HETATM   16  C10 UNL     1       2.370   0.211   0.290  1.00  0.00    -0.080 C 
BRANCH  16  17
HETATM   17  C11 UNL     1       1.899  -1.134  -0.034  1.00  0.00     0.029 C 
HETATM   18  C12 UNL     1       1.677  -1.319  -1.529  1.00  0.00     0.010 C 
ENDBRANCH  16  17
BRANCH  16  19
HETATM   19  C13 UNL     1       3.691   0.620  -0.362  1.00  0.00     0.034 C 
BRANCH  19  20
HETATM   20  C14 UNL     1       4.811  -0.289   0.044  1.00  0.00     0.004 C 
BRANCH  20  21
HETATM   21  C15 UNL     1       6.075   0.218  -0.658  1.00  0.00     0.000 C 
BRANCH  21  22
HETATM   22  C16 UNL     1       7.197  -0.710  -0.238  1.00  0.00    -0.000 C 
BRANCH  22  23
HETATM   23  C17 UNL     1       8.512  -0.303  -0.875  1.00  0.00    -0.005 C 
HETATM   24  C18 UNL     1       8.866   1.101  -0.449  1.00  0.00     0.005 C 
ENDBRANCH  22  23
ENDBRANCH  21  22
ENDBRANCH  20  21
ENDBRANCH  19  20
ENDBRANCH  16  19
ENDBRANCH  14  15
ENDBRANCH  13  14
ENDBRANCH   7  13
BRANCH   8  25
HETATM   25  O2  UNL     1      -1.586  -2.369  -0.281  1.00  0.00    -0.394 OA
ATOM     26  H2  UNL     1      -2.061  -3.191  -0.306  1.00  0.00     0.210 HD
ENDBRANCH   8  25
BRANCH   5  27
HETATM   27  C4  UNL     1      -3.487   1.294   2.693  1.00  0.00     0.122 C 
HETATM   28  C5  UNL     1      -4.183   0.061   3.183  1.00  0.00     0.026 C 
ENDBRANCH   5  27
BRANCH   9  29
HETATM   29  C21 UNL     1      -3.782  -2.766  -1.232  1.00  0.00     0.174 C 
BRANCH  29  30
HETATM   30  O3  UNL     1      -5.017  -2.795  -1.854  1.00  0.00    -0.400 OA
ATOM     31  H3  UNL     1      -5.042  -3.570  -2.403  1.00  0.00     0.209 HD
ENDBRANCH  29  30
ENDBRANCH   9  29
BRANCH  10  32
HETATM   32  O4  UNL     1      -4.288  -0.654  -2.443  1.00  0.00    -0.389 OA
ATOM     33  H4  UNL     1      -4.609   0.112  -2.904  1.00  0.00     0.210 HD
ENDBRANCH  10  32
TORSDOF 14
