REMARK  5 active torsions:
REMARK  status: ('A' for Active; 'I' for Inactive)
REMARK    1  A    between atoms: C5_9  and  C6_10 
REMARK    2  A    between atoms: C9_14  and  S2_15 
REMARK    3  A    between atoms: S2_15  and  N2_18 
REMARK    4  A    between atoms: C12_21  and  C13_22 
REMARK    5  A    between atoms: C13_22  and  C14_23 
ROOT
HETATM    1  S2  UNL     1      -1.729  -1.220   1.535  1.00  0.00     0.271 S 
HETATM    2  O2  UNL     1      -2.477   0.026   1.960  1.00  0.00    -0.199 OA
HETATM    3  O3  UNL     1      -1.906  -2.243   2.657  1.00  0.00    -0.199 OA
ENDROOT
BRANCH   1   4
HETATM    4  C9  UNL     1      -2.689  -1.871   0.195  1.00  0.00     0.131 A 
HETATM    5  C6  UNL     1      -3.608  -1.218  -0.564  1.00  0.00     0.010 A 
HETATM    6  C7  UNL     1      -4.213  -1.941  -1.549  1.00  0.00     0.021 A 
HETATM    7  C8  UNL     1      -3.838  -3.245  -1.678  1.00  0.00     0.052 A 
HETATM    8  S1  UNL     1      -2.678  -3.446  -0.457  1.00  0.00    -0.087 SA
BRANCH   5   9
HETATM    9  C5  UNL     1      -3.937   0.226  -0.365  1.00  0.00     0.047 A 
HETATM   10  C1  UNL     1      -5.088   0.583   0.311  1.00  0.00     0.256 A 
HETATM   11  O1  UNL     1      -5.793  -0.343   0.766  1.00  0.00    -0.267 OA
HETATM   12  N1  UNL     1      -5.439   1.865   0.478  1.00  0.00    -0.330 N 
HETATM   13  C2  UNL     1      -4.664   2.854  -0.020  1.00  0.00     0.133 A 
ATOM     14  H1  UNL     1      -6.295   2.096   0.983  1.00  0.00     0.168 HD
HETATM   15  C3  UNL     1      -3.511   2.527  -0.701  1.00  0.00     0.132 A 
HETATM   16  F1  UNL     1      -2.760   3.529  -1.194  1.00  0.00    -0.205 F 
HETATM   17  C4  UNL     1      -3.143   1.219  -0.876  1.00  0.00     0.061 A 
ENDBRANCH   5   9
ENDBRANCH   1   4
BRANCH   1  18
HETATM   18  N2  UNL     1      -0.140  -0.917   1.181  1.00  0.00    -0.286 N 
HETATM   19  C10 UNL     1       0.235  -0.015   0.219  1.00  0.00     0.076 C 
HETATM   20  C11 UNL     1       1.716   0.159   0.021  1.00  0.00     0.050 C 
HETATM   21  C12 UNL     1       2.575  -0.917   0.562  1.00  0.00    -0.002 C 
HETATM   22  C17 UNL     1       2.071  -1.660   1.760  1.00  0.00     0.026 C 
HETATM   23  C18 UNL     1       0.743  -1.133   2.286  1.00  0.00     0.141 C 
BRANCH  21  24
HETATM   24  C13 UNL     1       3.877  -0.236   1.023  1.00  0.00     0.069 C 
BRANCH  24  25
HETATM   25  C14 UNL     1       4.537   0.444  -0.133  1.00  0.00     0.046 A 
HETATM   26  N3  UNL     1       4.765   1.648  -0.334  1.00  0.00    -0.367 N 
HETATM   27  C15 UNL     1       5.389   2.115  -1.463  1.00  0.00     0.072 A 
ATOM     28  H3  UNL     1       4.474   2.322   0.374  1.00  0.00     0.165 HD
HETATM   29  C16 UNL     1       5.765   1.042  -2.440  1.00  0.00     0.125 A 
HETATM   30  S3  UNL     1       5.163  -0.429  -1.566  1.00  0.00    -0.112 SA
ENDBRANCH  24  25
ENDBRANCH  21  24
ENDBRANCH   1  18
TORSDOF 5
