REMARK  6 active torsions:
REMARK  status: ('A' for Active; 'I' for Inactive)
REMARK    1  A    between atoms: C1_2  and  C2_3 
REMARK       I    between atoms: C1_2  and  N1_15 
REMARK    2  A    between atoms: C2_3  and  C3_4 
REMARK    3  A    between atoms: C6_7  and  O2_8 
REMARK    4  A    between atoms: O2_8  and  C7_9 
REMARK       I    between atoms: N1_15  and  C10_17 
REMARK       I    between atoms: C10_17  and  N2_19 
REMARK    5  A    between atoms: N2_19  and  S1_21 
REMARK    6  A    between atoms: S1_21  and  C11_24 
ROOT
HETATM    1  O1  UNL     1       1.131  -0.429  -0.775  1.00  0.00    -0.273 OA
HETATM    2  C1  UNL     1       1.585  -0.144  -1.901  1.00  0.00     0.229 C 
HETATM    3  N1  UNL     1       0.888  -0.020  -3.107  1.00  0.00    -0.278 N 
ATOM      4  H1  UNL     1       1.442   0.214  -3.931  1.00  0.00     0.173 HD
HETATM    5  C10 UNL     1      -0.484  -0.182  -3.303  1.00  0.00     0.336 C 
HETATM    6  O3  UNL     1      -0.998  -0.026  -4.476  1.00  0.00    -0.246 OA
HETATM    7  N2  UNL     1      -1.364  -0.517  -2.250  1.00  0.00    -0.232 N 
ATOM      8  H2  UNL     1      -1.007  -0.658  -1.305  1.00  0.00     0.183 HD
ENDROOT
BRANCH   7   9
HETATM    9  S1  UNL     1      -3.070  -0.687  -2.583  1.00  0.00     0.267 S 
HETATM   10  O4  UNL     1      -3.312  -0.143  -3.961  1.00  0.00    -0.200 OA
HETATM   11  O5  UNL     1      -3.483  -2.108  -2.578  1.00  0.00    -0.200 OA
BRANCH   9  12
HETATM   12  C11 UNL     1      -3.904   0.273  -1.399  1.00  0.00     0.091 A 
HETATM   13  C12 UNL     1      -4.589   1.397  -1.788  1.00  0.00     0.026 A 
HETATM   14  C13 UNL     1      -5.210   2.212  -0.870  1.00  0.00     0.002 A 
HETATM   15  C14 UNL     1      -5.146   1.894   0.492  1.00  0.00     0.012 A 
HETATM   16  C15 UNL     1      -4.465   0.771   0.894  1.00  0.00    -0.024 A 
HETATM   17  C16 UNL     1      -4.427   0.474   2.235  1.00  0.00     0.012 A 
HETATM   18  C20 UNL     1      -3.847  -0.033  -0.064  1.00  0.00    -0.003 A 
HETATM   19  C17 UNL     1      -3.762  -0.657   2.685  1.00  0.00     0.001 A 
HETATM   20  C18 UNL     1      -3.147  -1.465   1.755  1.00  0.00     0.001 A 
HETATM   21  C19 UNL     1      -3.200  -1.145   0.424  1.00  0.00     0.014 A 
ENDBRANCH   9  12
ENDBRANCH   7   9
BRANCH   2  22
HETATM   22  C2  UNL     1       3.086   0.091  -1.909  1.00  0.00     0.141 C 
BRANCH  22  23
HETATM   23  C3  UNL     1       3.546  -0.027  -0.513  1.00  0.00    -0.049 A 
HETATM   24  C4  UNL     1       3.600   1.119   0.242  1.00  0.00     0.010 A 
HETATM   25  C5  UNL     1       4.005   1.073   1.569  1.00  0.00     0.037 A 
HETATM   26  C6  UNL     1       4.371  -0.117   2.190  1.00  0.00     0.078 A 
HETATM   27  C8  UNL     1       4.304  -1.249   1.397  1.00  0.00     0.037 A 
HETATM   28  C9  UNL     1       3.902  -1.216   0.076  1.00  0.00     0.010 A 
BRANCH  26  29
HETATM   29  O2  UNL     1       4.772  -0.142   3.518  1.00  0.00    -0.255 OA
BRANCH  29  30
HETATM   30  C7  UNL     1       6.175   0.030   3.761  1.00  0.00     0.530 C 
HETATM   31  F1  UNL     1       6.444  -0.008   5.119  1.00  0.00    -0.144 F 
HETATM   32  F2  UNL     1       6.769  -1.080   3.141  1.00  0.00    -0.144 F 
HETATM   33  F3  UNL     1       6.669   1.145   3.136  1.00  0.00    -0.144 F 
ENDBRANCH  29  30
ENDBRANCH  26  29
ENDBRANCH  22  23
ENDBRANCH   2  22
TORSDOF 6
