REMARK  9 active torsions:
REMARK  status: ('A' for Active; 'I' for Inactive)
REMARK    1  A    between atoms: N3_4  and  C2_6 
REMARK    2  A    between atoms: C3_8  and  N4_9 
REMARK    3  A    between atoms: C4_13  and  N5_14 
REMARK    4  A    between atoms: N5_14  and  C5_16 
REMARK    5  A    between atoms: C5_16  and  N6_17 
REMARK    6  A    between atoms: C5_16  and  C6_21 
REMARK    7  A    between atoms: C7_22  and  C8_23 
REMARK    8  A    between atoms: N7_24  and  O2_26 
REMARK    9  A    between atoms: N9_32  and  N10_33 
ROOT
HETATM    1  C5  UNL     1      -2.095  -0.778  -1.546  1.00  0.00     0.338 C 
ENDROOT
BRANCH   1   2
HETATM    2  N5  UNL     1      -1.064  -1.720  -1.037  1.00  0.00    -0.344 N 
ATOM      3  H5  UNL     1      -1.185  -2.725  -1.164  1.00  0.00     0.163 HD
BRANCH   2   4
HETATM    4  C4  UNL     1       0.102  -1.217  -0.366  1.00  0.00     0.139 C 
HETATM    5  C3  UNL     1       1.331  -2.051  -0.370  1.00  0.00     0.389 C 
HETATM    6  O1  UNL     1       2.157  -1.743   0.708  1.00  0.00    -0.319 OA
HETATM    7  C2  UNL     1       2.524  -0.380   0.628  1.00  0.00     0.320 C 
HETATM    8  C10 UNL     1       1.268   0.373   0.870  1.00  0.00     0.272 C 
HETATM    9  N11 UNL     1       0.089  -0.071   0.226  1.00  0.00    -0.309 N 
HETATM   10  O4  UNL     1       1.268   1.392   1.642  1.00  0.00    -0.268 OA
ATOM     11  H11 UNL     1      -0.754   0.503   0.230  1.00  0.00     0.170 HD
BRANCH   5  12
HETATM   12  N4  UNL     1       2.124  -1.840  -1.578  1.00  0.00    -0.046 N 
ATOM     13  H43 UNL     1       2.530  -0.906  -1.635  1.00  0.00     0.277 HD
ATOM     14  H42 UNL     1       3.001  -2.361  -1.581  1.00  0.00     0.277 HD
ATOM     15  H41 UNL     1       1.519  -2.066  -2.368  1.00  0.00     0.277 HD
ENDBRANCH   5  12
BRANCH   7  16
HETATM   16  N3  UNL     1       3.540  -0.118   1.606  1.00  0.00    -0.333 N 
HETATM   17  C1  UNL     1       4.622   0.543   1.355  1.00  0.00     0.199 C 
HETATM   18  N1  UNL     1       4.792   1.026   0.034  1.00  0.00    -0.067 NA
HETATM   19  N2  UNL     1       5.556   0.741   2.401  1.00  0.00    -0.067 NA
ATOM     20  H3  UNL     1       3.401  -0.473   2.552  1.00  0.00     0.164 HD
ENDBRANCH   7  16
ENDBRANCH   2   4
ENDBRANCH   1   2
BRANCH   1  21
HETATM   21  N6  UNL     1      -1.409   0.069  -2.468  1.00  0.00    -0.052 N 
ATOM     22  H63 UNL     1      -0.590   0.530  -2.072  1.00  0.00     0.277 HD
ATOM     23  H62 UNL     1      -0.916  -0.438  -3.203  1.00  0.00     0.277 HD
ATOM     24  H61 UNL     1      -2.116   0.715  -2.817  1.00  0.00     0.277 HD
ENDBRANCH   1  21
BRANCH   1  25
HETATM   25  C6  UNL     1      -2.725  -0.084  -0.391  1.00  0.00     0.116 A 
HETATM   26  C7  UNL     1      -3.056   1.232  -0.211  1.00  0.00     0.082 A 
HETATM   27  N8  UNL     1      -3.584   1.315   1.045  1.00  0.00    -0.304 N 
HETATM   28  C9  UNL     1      -3.586   0.100   1.631  1.00  0.00     0.346 A 
ATOM     29  H8  UNL     1      -3.928   2.172   1.478  1.00  0.00     0.171 HD
HETATM   30  O3  UNL     1      -3.996  -0.203   2.784  1.00  0.00    -0.245 OA
HETATM   31  N9  UNL     1      -3.062  -0.766   0.761  1.00  0.00    -0.210 N 
BRANCH  26  32
HETATM   32  C8  UNL     1      -2.916   2.337  -1.142  1.00  0.00     0.145 C 
HETATM   33  N7  UNL     1      -3.236   3.548  -0.904  1.00  0.00    -0.278 N 
ATOM     34  H7  UNL     1      -3.065   4.187  -1.681  1.00  0.00     0.193 HD
BRANCH  33  35
HETATM   35  O2  UNL     1      -3.754   4.128   0.178  1.00  0.00    -0.290 OA
ATOM     36  H2  UNL     1      -3.992   5.030   0.355  1.00  0.00     0.244 HD
ENDBRANCH  33  35
ENDBRANCH  26  32
BRANCH  31  37
HETATM   37  N10 UNL     1      -2.879  -2.141   0.965  1.00  0.00    -0.334 N 
ATOM     38 2H10 UNL     1      -2.479  -2.803   0.300  1.00  0.00     0.177 HD
ATOM     39 1H10 UNL     1      -3.128  -2.645   1.816  1.00  0.00     0.177 HD
ENDBRANCH  31  37
ENDBRANCH   1  25
TORSDOF 9
