REMARK  5 active torsions:
REMARK  status: ('A' for Active; 'I' for Inactive)
REMARK    1  A    between atoms: N1_2  and  C2_4 
REMARK    2  A    between atoms: C2_4  and  C3_5 
REMARK    3  A    between atoms: C3_5  and  N2_6 
REMARK    4  A    between atoms: C4_8  and  N3_9 
REMARK    5  A    between atoms: C5_14  and  N5_15 
ROOT
HETATM    1  N2  UNL     1      -0.797  -0.001  -0.504  1.00  0.00    -0.075 N 
HETATM    2  O1  UNL     1      -1.176   1.054   0.170  1.00  0.00    -0.183 OA
HETATM    3  C4  UNL     1      -2.354   0.823   0.718  1.00  0.00     0.256 A 
HETATM    4  N4  UNL     1      -2.759  -0.416   0.396  1.00  0.00    -0.152 N 
ATOM      5  H4  UNL     1      -3.626  -0.877   0.671  1.00  0.00     0.188 HD
HETATM    6  C5  UNL     1      -1.773  -0.916  -0.367  1.00  0.00     0.701 A 
ENDROOT
BRANCH   1   7
HETATM    7  C3  UNL     1       0.428  -0.147  -1.272  1.00  0.00     0.220 C 
BRANCH   7   8
HETATM    8  C2  UNL     1       1.520  -0.812  -0.482  1.00  0.00     0.077 C 
BRANCH   8   9
HETATM    9  N1  UNL     1       1.920  -0.191   0.711  1.00  0.00    -0.405 N 
HETATM   10  C1  UNL     1       2.596   1.049   0.665  1.00  0.00     0.145 C 
ATOM     11  H1  UNL     1       1.723  -0.633   1.609  1.00  0.00     0.158 HD
ENDBRANCH   8   9
ENDBRANCH   7   8
ENDBRANCH   1   7
BRANCH   6  12
HETATM   12  N5  UNL     1      -1.731  -2.092  -0.893  1.00  0.00    -0.233 N 
ATOM     13  H52 UNL     1      -0.982  -2.472  -1.472  1.00  0.00     0.174 HD
ATOM     14  H51 UNL     1      -2.471  -2.786  -0.789  1.00  0.00     0.174 HD
ENDBRANCH   6  12
BRANCH   3  15
HETATM   15  N3  UNL     1      -3.051   1.623   1.454  1.00  0.00    -0.363 N 
ATOM     16  H32 UNL     1      -2.743   2.564   1.699  1.00  0.00     0.159 HD
ATOM     17  H31 UNL     1      -3.962   1.444   1.878  1.00  0.00     0.159 HD
ENDBRANCH   3  15
TORSDOF 5
