REMARK  6 active torsions:
REMARK  status: ('A' for Active; 'I' for Inactive)
REMARK    1  A    between atoms: C2_2  and  C3_3 
REMARK    2  A    between atoms: C2_2  and  O1_8 
REMARK    3  A    between atoms: C3_3  and  C4_4 
REMARK    4  A    between atoms: O1_8  and  C5_9 
REMARK    5  A    between atoms: C8_15  and  C9_16 
REMARK    6  A    between atoms: C9_16  and  C10_17 
ROOT
HETATM    1  C5  UNL     1       0.247  -0.520  -0.892  1.00  0.00     0.154 C 
HETATM    2  C6  UNL     1       0.158  -0.141  -2.348  1.00  0.00     0.061 C 
HETATM    3  C7  UNL     1      -1.312  -0.199  -2.697  1.00  0.00     0.235 C 
HETATM    4  N2  UNL     1      -2.020  -0.628  -1.530  1.00  0.00    -0.068 N 
ATOM      5  H21 UNL     1      -2.364  -1.585  -1.606  1.00  0.00     0.277 HD
ATOM      6  H22 UNL     1      -2.924  -0.167  -1.424  1.00  0.00     0.277 HD
HETATM    7  C8  UNL     1      -1.152  -0.432  -0.387  1.00  0.00     0.215 C 
ENDROOT
BRANCH   1   8
HETATM    8  O1  UNL     1       1.073   0.271  -0.151  1.00  0.00    -0.379 OA
BRANCH   8   9
HETATM    9  C2  UNL     1       2.080  -0.348   0.519  1.00  0.00     0.122 C 
HETATM   10  C1  UNL     1       2.117  -0.066   1.998  1.00  0.00     0.040 C 
BRANCH   9  11
HETATM   11  C3  UNL     1       3.398   0.171  -0.043  1.00  0.00     0.075 C 
BRANCH  11  12
HETATM   12  C4  UNL     1       3.496  -0.046  -1.509  1.00  0.00     0.055 C 
HETATM   13  N1  UNL     1       3.921  -1.162  -1.932  1.00  0.00    -0.411 N 
ATOM     14  H12 UNL     1       4.187  -1.887  -1.265  1.00  0.00     0.155 HD
ATOM     15  H11 UNL     1       3.988  -1.311  -2.939  1.00  0.00     0.155 HD
ENDBRANCH  11  12
ENDBRANCH   9  11
ENDBRANCH   8   9
ENDBRANCH   1   8
BRANCH   7  16
HETATM   16  C9  UNL     1      -1.496   0.905   0.216  1.00  0.00     0.040 C 
BRANCH  16  17
HETATM   17  C10 UNL     1      -2.934   0.872   0.690  1.00  0.00    -0.012 A 
HETATM   18  C11 UNL     1      -3.380  -0.103   1.712  1.00  0.00     0.005 A 
HETATM   19  C12 UNL     1      -3.264   1.354   2.061  1.00  0.00     0.005 A 
ENDBRANCH  16  17
ENDBRANCH   7  16
TORSDOF 6
