REMARK  8 active torsions:
REMARK  status: ('A' for Active; 'I' for Inactive)
REMARK    1  A    between atoms: N1_1  and  N2_4 
REMARK    2  A    between atoms: N2_4  and  N3_5 
REMARK    3  A    between atoms: N3_5  and  C1_7 
REMARK    4  A    between atoms: C1_7  and  C2_8 
REMARK    5  A    between atoms: C2_8  and  O1_9 
REMARK    6  A    between atoms: C2_8  and  N4_11 
REMARK    7  A    between atoms: N4_11  and  C3_13 
REMARK    8  A    between atoms: C9_19  and  O2_20 
ROOT
HETATM    1  N4  UNL     1       0.719  -0.834  -1.036  1.00  0.00    -0.388 N 
ATOM      2  H4  UNL     1       0.336  -1.309  -1.853  1.00  0.00     0.156 HD
ENDROOT
BRANCH   1   3
HETATM    3  C2  UNL     1       2.064  -0.527  -1.055  1.00  0.00     0.234 C 
BRANCH   3   4
HETATM    4  C1  UNL     1       2.942  -1.176   0.004  1.00  0.00     0.208 C 
BRANCH   4   5
HETATM    5  N3  UNL     1       2.776  -0.559   1.308  1.00  0.00    -0.248 N 
ATOM      6  H3  UNL     1       2.147  -1.000   1.979  1.00  0.00     0.197 HD
BRANCH   5   7
HETATM    7  N2  UNL     1       3.359   0.470   1.638  1.00  0.00    -0.248 NA
BRANCH   7   8
HETATM    8  N1  UNL     1       3.798   1.627   1.741  1.00  0.00    -0.261 N 
ATOM      9  H12 UNL     1       3.251   1.948   0.942  1.00  0.00     0.193 HD
ATOM     10  H11 UNL     1       4.282   2.482   2.015  1.00  0.00     0.193 HD
ENDBRANCH   7   8
ENDBRANCH   5   7
ENDBRANCH   4   5
ENDBRANCH   3   4
BRANCH   3  11
HETATM   11  O1  UNL     1       2.384   0.840  -1.183  1.00  0.00    -0.375 OA
ATOM     12  H1  UNL     1       1.836   1.245  -1.844  1.00  0.00     0.212 HD
ENDBRANCH   3  11
ENDBRANCH   1   3
BRANCH   1  13
HETATM   13  C3  UNL     1      -0.149  -0.551  -0.004  1.00  0.00     0.112 C 
HETATM   14  C4  UNL     1      -1.574  -0.793  -0.536  1.00  0.00     0.011 C 
HETATM   15  C5  UNL     1      -2.596  -0.614   0.542  1.00  0.00     0.007 C 
HETATM   16  C8  UNL     1      -1.747   0.542  -1.285  1.00  0.00     0.014 C 
HETATM   17  C6  UNL     1      -2.693   0.900   0.801  1.00  0.00     0.007 C 
HETATM   18  C7  UNL     1      -1.524   1.398  -0.024  1.00  0.00     0.017 C 
HETATM   19  C9  UNL     1      -0.274   0.800   0.546  1.00  0.00     0.145 C 
BRANCH  19  20
HETATM   20  O2  UNL     1      -0.474   0.697   1.944  1.00  0.00    -0.393 OA
ATOM     21  H2  UNL     1      -0.555   1.574   2.301  1.00  0.00     0.210 HD
ENDBRANCH  19  20
ENDBRANCH   1  13
TORSDOF 8
