REMARK  11 active torsions:
REMARK  status: ('A' for Active; 'I' for Inactive)
REMARK    1  A    between atoms: O1_2  and  C2_3 
REMARK    2  A    between atoms: C4_6  and  O3_7 
REMARK    3  A    between atoms: O3_7  and  C5_8 
REMARK    4  A    between atoms: C9_12  and  O4_14 
REMARK    5  A    between atoms: C11_16  and  O5_17 
REMARK    6  A    between atoms: C12_19  and  O6_20 
REMARK    7  A    between atoms: O6_20  and  C13_21 
REMARK    8  A    between atoms: C16_24  and  O7_25 
REMARK    9  A    between atoms: C17_27  and  C18_28 
REMARK   10  A    between atoms: C18_28  and  O8_29 
REMARK   11  A    between atoms: C19_32  and  N1_33 
REMARK       I    between atoms: N1_33  and  C20_35 
ROOT
HETATM    1  C2  UNL     1      -0.034   3.422  -1.235  1.00  0.00     0.170 C 
HETATM    2  C3  UNL     1       1.385   2.934  -1.316  1.00  0.00     0.205 C 
HETATM    3  O2  UNL     1       1.583   2.239  -0.103  1.00  0.00    -0.356 OA
HETATM    4  C4  UNL     1       1.010   0.977  -0.350  1.00  0.00     0.291 C 
HETATM    5  C12 UNL     1      -0.456   1.149  -0.164  1.00  0.00     0.205 C 
HETATM    6  C19 UNL     1      -0.957   2.537  -0.459  1.00  0.00     0.149 C 
ENDROOT
BRANCH   4   7
HETATM    7  O3  UNL     1       1.501   0.019   0.499  1.00  0.00    -0.351 OA
BRANCH   7   8
HETATM    8  C5  UNL     1       2.268  -0.959  -0.072  1.00  0.00     0.156 C 
HETATM    9  C6  UNL     1       1.835  -2.367   0.057  1.00  0.00     0.035 C 
HETATM   10  C7  UNL     1       2.598  -3.173  -1.014  1.00  0.00     0.006 C 
HETATM   11  C8  UNL     1       4.037  -3.201  -0.522  1.00  0.00     0.040 C 
HETATM   12  C9  UNL     1       4.512  -1.758  -0.599  1.00  0.00     0.082 C 
HETATM   13  C10 UNL     1       6.000  -1.693  -0.359  1.00  0.00     0.049 C 
HETATM   14  C11 UNL     1       3.735  -0.870   0.342  1.00  0.00     0.181 C 
BRANCH  12  15
HETATM   15  O4  UNL     1       4.255  -1.323  -1.898  1.00  0.00    -0.388 OA
ATOM     16  H4  UNL     1       4.552  -0.422  -1.946  1.00  0.00     0.210 HD
ENDBRANCH  12  15
BRANCH  14  17
HETATM   17  O5  UNL     1       3.948  -1.134   1.670  1.00  0.00    -0.390 OA
ATOM     18  H5  UNL     1       4.861  -1.079   1.928  1.00  0.00     0.210 HD
ENDBRANCH  14  17
ENDBRANCH   7   8
ENDBRANCH   4   7
BRANCH   5  19
HETATM   19  O6  UNL     1      -0.799   0.731   1.114  1.00  0.00    -0.349 OA
BRANCH  19  20
HETATM   20  C13 UNL     1      -1.736  -0.261   1.191  1.00  0.00     0.261 C 
HETATM   21  C14 UNL     1      -2.847   0.295   2.094  1.00  0.00     0.063 C 
HETATM   22  C15 UNL     1      -4.004  -0.635   2.231  1.00  0.00     0.039 C 
HETATM   23  C16 UNL     1      -3.551  -1.995   1.785  1.00  0.00     0.149 C 
HETATM   24  C17 UNL     1      -2.134  -2.305   2.228  1.00  0.00     0.176 C 
HETATM   25  O9  UNL     1      -1.192  -1.410   1.780  1.00  0.00    -0.351 OA
BRANCH  23  26
HETATM   26  O7  UNL     1      -4.367  -2.964   2.369  1.00  0.00    -0.393 OA
ATOM     27  H7  UNL     1      -4.080  -3.825   2.087  1.00  0.00     0.210 HD
ENDBRANCH  23  26
BRANCH  24  28
HETATM   28  C18 UNL     1      -1.825  -3.662   1.575  1.00  0.00     0.198 C 
BRANCH  28  29
HETATM   29  O8  UNL     1      -1.930  -3.455   0.180  1.00  0.00    -0.398 OA
ATOM     30  H8  UNL     1      -1.739  -4.294  -0.224  1.00  0.00     0.209 HD
ENDBRANCH  28  29
ENDBRANCH  24  28
ENDBRANCH  19  20
ENDBRANCH   5  19
BRANCH   6  31
HETATM   31  N1  UNL     1      -2.217   2.513  -1.175  1.00  0.00    -0.352 N 
HETATM   32  C20 UNL     1      -3.358   3.201  -0.690  1.00  0.00     0.214 C 
HETATM   33  C21 UNL     1      -4.660   3.217  -1.364  1.00  0.00     0.117 C 
HETATM   34  O10 UNL     1      -3.248   3.838   0.390  1.00  0.00    -0.274 OA
ATOM     35  H1  UNL     1      -2.284   1.989  -2.048  1.00  0.00     0.163 HD
ENDBRANCH   6  31
BRANCH   1  36
HETATM   36  O1  UNL     1       0.022   4.718  -0.684  1.00  0.00    -0.386 OA
HETATM   37  C1  UNL     1      -0.337   5.700  -1.571  1.00  0.00     0.202 C 
ENDBRANCH   1  36
TORSDOF 11
