REMARK  7 active torsions:
REMARK  status: ('A' for Active; 'I' for Inactive)
REMARK    1  A    between atoms: C4_4  and  C6_6 
REMARK    2  A    between atoms: C6_6  and  C7_7 
REMARK    3  A    between atoms: C7_7  and  C8_8 
REMARK    4  A    between atoms: C10_10  and  C11_11 
REMARK    5  A    between atoms: C11_11  and  S1_12 
REMARK    6  A    between atoms: S1_12  and  C12_13 
REMARK    7  A    between atoms: N2_15  and  O1_17 
ROOT
HETATM    1  C1  UNL     1      -6.241   0.130  -1.753  1.00  0.00     0.102 C 
HETATM    2  C2  UNL     1      -4.973  -0.022  -1.458  1.00  0.00    -0.160 C 
HETATM    3  C3  UNL     1      -3.748  -0.217  -1.051  1.00  0.00     0.057 C 
HETATM    4  C4  UNL     1      -3.498  -0.087   0.362  1.00  0.00    -0.055 C 
HETATM    5  C5  UNL     1      -4.615  -0.345   1.352  1.00  0.00     0.049 C 
ENDROOT
BRANCH   4   6
HETATM    6  C6  UNL     1      -2.363   0.281   0.882  1.00  0.00     0.007 C 
BRANCH   6   7
HETATM    7  C7  UNL     1      -1.171   0.623  -0.005  1.00  0.00     0.009 C 
BRANCH   7   8
HETATM    8  C8  UNL     1      -0.111   0.963   0.531  1.00  0.00    -0.011 C 
HETATM    9  C9  UNL     1       1.118   1.356   1.151  1.00  0.00     0.112 C 
HETATM   10  C10 UNL     1       2.180   0.689   0.252  1.00  0.00     0.213 C 
HETATM   11  O2  UNL     1       2.775   1.814  -0.352  1.00  0.00    -0.196 OA
HETATM   12  O4  UNL     1       1.399   0.335  -0.908  1.00  0.00    -0.309 OA
HETATM   13  O3  UNL     1       1.563   2.470  -0.525  1.00  0.00    -0.193 OA
HETATM   14  C13 UNL     1       0.714   1.502  -0.945  1.00  0.00     0.221 C 
HETATM   15  C14 UNL     1      -0.279   1.861  -1.893  1.00  0.00     0.087 C 
BRANCH  10  16
HETATM   16  C11 UNL     1       2.976  -0.342   0.819  1.00  0.00     0.153 C 
BRANCH  16  17
HETATM   17  S1  UNL     1       4.185  -1.000  -0.352  1.00  0.00    -0.090 SA
BRANCH  17  18
HETATM   18  C12 UNL     1       5.075  -2.351   0.404  1.00  0.00     0.173 C 
HETATM   19  N1  UNL     1       4.712  -2.796   1.705  1.00  0.00    -0.073 NA
HETATM   20  N2  UNL     1       6.046  -2.901  -0.230  1.00  0.00    -0.250 N 
ATOM     21  H2  UNL     1       6.560  -3.673   0.195  1.00  0.00     0.196 HD
BRANCH  20  22
HETATM   22  O1  UNL     1       6.392  -2.453  -1.473  1.00  0.00    -0.288 OA
ATOM     23  H1  UNL     1       7.111  -2.860  -1.942  1.00  0.00     0.244 HD
ENDBRANCH  20  22
ENDBRANCH  17  18
ENDBRANCH  16  17
ENDBRANCH  10  16
ENDBRANCH   7   8
ENDBRANCH   6   7
ENDBRANCH   4   6
TORSDOF 7
