REMARK  8 active torsions:
REMARK  status: ('A' for Active; 'I' for Inactive)
REMARK    1  A    between atoms: C6_8  and  C7_9 
REMARK    2  A    between atoms: C8_10  and  C9_11 
REMARK    3  A    between atoms: C9_11  and  C10_12 
REMARK    4  A    between atoms: C10_12  and  C11_13 
REMARK    5  A    between atoms: C11_13  and  C12_14 
REMARK    6  A    between atoms: C13_19  and  C14_20 
REMARK    7  A    between atoms: C14_20  and  C15_21 
REMARK    8  A    between atoms: C15_21  and  S1_22 
ROOT
HETATM    1  C12 UNL     1      -1.206   1.044  -0.895  1.00  0.00     0.067 A 
HETATM    2  N2  UNL     1      -1.550  -0.206  -0.486  1.00  0.00    -0.299 N 
ATOM      3  H2  UNL     1      -0.898  -0.900  -0.119  1.00  0.00     0.187 HD
HETATM    4  N3  UNL     1      -2.834  -0.391  -0.631  1.00  0.00    -0.303 N 
ATOM      5  H3  UNL     1      -3.333  -1.249  -0.394  1.00  0.00     0.186 HD
HETATM    6  C13 UNL     1      -3.401   0.718  -1.139  1.00  0.00     0.046 A 
HETATM    7  C17 UNL     1      -2.371   1.619  -1.304  1.00  0.00     0.063 A 
HETATM    8 BR1  UNL     1      -2.619   3.363  -1.996  1.00  0.00    -0.046 Br
ENDROOT
BRANCH   1   9
HETATM    9  C11 UNL     1       0.105   1.655  -0.905  1.00  0.00     0.032 C 
BRANCH   9  10
HETATM   10  C10 UNL     1       1.151   0.928  -0.467  1.00  0.00     0.002 C 
BRANCH  10  11
HETATM   11  C9  UNL     1       2.485   1.487  -0.455  1.00  0.00     0.000 C 
BRANCH  11  12
HETATM   12  C8  UNL     1       3.532   0.810  -0.037  1.00  0.00     0.001 C 
HETATM   13  C7  UNL     1       3.489  -0.544   0.452  1.00  0.00     0.014 C 
BRANCH  13  14
HETATM   14  C6  UNL     1       4.456  -1.303   0.887  1.00  0.00    -0.003 A 
HETATM   15  C2  UNL     1       4.247  -2.619   1.336  1.00  0.00     0.033 A 
HETATM   16  C1  UNL     1       3.137  -3.324   1.416  1.00  0.00     0.044 C 
HETATM   17  N1  UNL     1       5.443  -3.099   1.706  1.00  0.00    -0.365 N 
HETATM   18  C3  UNL     1       6.382  -2.189   1.524  1.00  0.00     0.096 A 
ATOM     19  H1  UNL     1       5.605  -4.036   2.076  1.00  0.00     0.165 HD
HETATM   20  C4  UNL     1       5.788  -1.036   1.005  1.00  0.00    -0.034 A 
HETATM   21  C5  UNL     1       6.584   0.189   0.682  1.00  0.00     0.050 C 
ENDBRANCH  13  14
ENDBRANCH  11  12
ENDBRANCH  10  11
ENDBRANCH   9  10
ENDBRANCH   1   9
BRANCH   6  22
HETATM   22  C14 UNL     1      -4.819   0.855  -1.428  1.00  0.00     0.072 C 
BRANCH  22  23
HETATM   23  C15 UNL     1      -5.597   1.669  -0.451  1.00  0.00     0.114 C 
BRANCH  23  24
HETATM   24  S1  UNL     1      -7.289   1.699  -0.997  1.00  0.00     0.011 S 
HETATM   25  C16 UNL     1      -7.940   0.043  -1.065  1.00  0.00     0.127 C 
HETATM   26  O1  UNL     1      -8.259   2.639  -0.035  1.00  0.00    -0.258 OA
ENDBRANCH  23  24
ENDBRANCH  22  23
ENDBRANCH   6  22
TORSDOF 8
