REMARK  12 active torsions:
REMARK  status: ('A' for Active; 'I' for Inactive)
REMARK    1  A    between atoms: C2_2  and  C3_3 
REMARK    2  A    between atoms: C3_3  and  C4_4 
REMARK    3  A    between atoms: C4_4  and  C5_5 
REMARK    4  A    between atoms: C5_5  and  C6_6 
REMARK    5  A    between atoms: C6_6  and  N1_7 
REMARK    6  A    between atoms: N1_7  and  C7_9 
REMARK    7  A    between atoms: C8_10  and  N2_11 
REMARK    8  A    between atoms: C9_13  and  C10_14 
REMARK    9  A    between atoms: C12_16  and  O2_17 
REMARK   10  A    between atoms: C13_19  and  O3_20 
REMARK   11  A    between atoms: C14_22  and  O4_23 
REMARK   12  A    between atoms: C15_25  and  O5_26 
ROOT
HETATM    1  C7  UNL     1      -0.280   1.306   0.153  1.00  0.00     0.091 A 
HETATM    2  C8  UNL     1      -1.605   1.228   0.530  1.00  0.00     0.125 A 
HETATM    3  C14 UNL     1      -2.365   2.392   0.773  1.00  0.00     0.131 A 
HETATM    4  C15 UNL     1      -1.800   3.634   0.639  1.00  0.00     0.114 A 
HETATM    5  C16 UNL     1      -0.487   3.726   0.266  1.00  0.00     0.036 A 
HETATM    6  C17 UNL     1       0.292   4.826   0.071  1.00  0.00    -0.031 A 
HETATM    7  C18 UNL     1      -0.109   6.251   0.217  1.00  0.00     0.050 C 
HETATM    8  C19 UNL     1       1.522   4.381  -0.288  1.00  0.00     0.096 A 
HETATM    9  N3  UNL     1       1.464   3.034  -0.303  1.00  0.00    -0.363 N 
ATOM     10  H3  UNL     1       2.257   2.438  -0.541  1.00  0.00     0.165 HD
HETATM   11  C20 UNL     1       0.263   2.565   0.026  1.00  0.00     0.075 A 
ENDROOT
BRANCH   2  12
HETATM   12  N2  UNL     1      -2.251  -0.007   0.662  1.00  0.00    -0.221 N 
HETATM   13  O1  UNL     1      -2.312  -0.904   1.685  1.00  0.00    -0.267 OA
HETATM   14  C9  UNL     1      -2.142  -2.159   1.115  1.00  0.00     0.185 C 
HETATM   15  C12 UNL     1      -2.721  -2.105  -0.278  1.00  0.00     0.200 C 
HETATM   16  C13 UNL     1      -3.047  -0.634  -0.404  1.00  0.00     0.279 C 
BRANCH  14  17
HETATM   17  C10 UNL     1      -2.746  -3.257   1.942  1.00  0.00     0.033 C 
HETATM   18  C11 UNL     1      -2.500  -4.566   1.226  1.00  0.00     0.007 C 
ENDBRANCH  14  17
BRANCH  15  19
HETATM   19  O2  UNL     1      -3.864  -2.906  -0.376  1.00  0.00    -0.388 OA
ATOM     20  H2  UNL     1      -4.228  -2.872  -1.253  1.00  0.00     0.210 HD
ENDBRANCH  15  19
BRANCH  16  21
HETATM   21  O3  UNL     1      -2.864  -0.100  -1.641  1.00  0.00    -0.372 OA
ATOM     22  H3  UNL     1      -3.378  -0.505  -2.330  1.00  0.00     0.212 HD
ENDBRANCH  16  21
ENDBRANCH   2  12
BRANCH   1  23
HETATM   23  N1  UNL     1       0.444   0.128  -0.050  1.00  0.00    -0.366 N 
ATOM     24  H1  UNL     1       0.845  -0.266   0.801  1.00  0.00     0.165 HD
BRANCH  23  25
HETATM   25  C6  UNL     1       0.722  -0.616  -1.214  1.00  0.00     0.061 C 
BRANCH  25  26
HETATM   26  C5  UNL     1       1.873  -0.220  -2.065  1.00  0.00     0.044 C 
BRANCH  26  27
HETATM   27  C4  UNL     1       3.220  -0.343  -1.377  1.00  0.00     0.005 C 
BRANCH  27  28
HETATM   28  C3  UNL     1       3.489  -1.778  -0.957  1.00  0.00     0.000 C 
BRANCH  28  29
HETATM   29  C2  UNL     1       4.850  -1.797  -0.284  1.00  0.00    -0.005 C 
HETATM   30  C1  UNL     1       5.239  -3.167   0.183  1.00  0.00     0.005 C 
ENDBRANCH  28  29
ENDBRANCH  27  28
ENDBRANCH  26  27
ENDBRANCH  25  26
ENDBRANCH  23  25
ENDBRANCH   1  23
BRANCH   3  31
HETATM   31  O4  UNL     1      -3.694   2.274   1.152  1.00  0.00    -0.356 OA
ATOM     32  H4  UNL     1      -4.206   3.058   1.316  1.00  0.00     0.218 HD
ENDBRANCH   3  31
BRANCH   4  33
HETATM   33  O5  UNL     1      -2.530   4.782   0.873  1.00  0.00    -0.357 OA
ATOM     34  H5  UNL     1      -2.139   5.643   0.780  1.00  0.00     0.217 HD
ENDBRANCH   4  33
TORSDOF 12
