REMARK  7 active torsions:
REMARK  status: ('A' for Active; 'I' for Inactive)
REMARK    1  A    between atoms: C4_7  and  C5_8 
REMARK    2  A    between atoms: C5_8  and  C6_9 
REMARK    3  A    between atoms: C6_9  and  C7_10 
REMARK    4  A    between atoms: C7_10  and  O1_11 
REMARK    5  A    between atoms: O1_11  and  C8_12 
REMARK    6  A    between atoms: C8_12  and  C9_13 
REMARK    7  A    between atoms: C12_20  and  C13_21 
ROOT
HETATM    1  C9  UNL     1       0.338   0.948   0.068  1.00  0.00    -0.005 A 
HETATM    2  C10 UNL     1      -0.024   1.520  -1.099  1.00  0.00     0.100 A 
HETATM    3  N3  UNL     1       1.159   1.676  -1.807  1.00  0.00    -0.351 N 
ATOM      4  H3  UNL     1       1.252   2.077  -2.740  1.00  0.00     0.166 HD
HETATM    5  C11 UNL     1       2.179   1.195  -1.030  1.00  0.00     0.116 A 
HETATM    6  N4  UNL     1       3.484   0.959  -0.988  1.00  0.00    -0.341 N 
ATOM      7  H4  UNL     1       4.120   1.195  -1.750  1.00  0.00     0.167 HD
HETATM    8  C12 UNL     1       3.886   0.379   0.156  1.00  0.00     0.051 A 
HETATM    9  C21 UNL     1       2.700   0.217   0.910  1.00  0.00     0.046 A 
HETATM   10  C22 UNL     1       1.688   0.737   0.149  1.00  0.00     0.020 A 
ENDROOT
BRANCH   1  11
HETATM   11  C8  UNL     1      -0.530   0.526   1.274  1.00  0.00     0.208 C 
BRANCH  11  12
HETATM   12  O1  UNL     1      -1.528  -0.102   0.728  1.00  0.00    -0.387 OA
BRANCH  12  13
HETATM   13  C7  UNL     1      -2.514   0.096  -0.028  1.00  0.00     0.168 C 
BRANCH  13  14
HETATM   14  C6  UNL     1      -3.774   0.504   0.653  1.00  0.00     0.032 C 
BRANCH  14  15
HETATM   15  C5  UNL     1      -4.773   0.917  -0.480  1.00  0.00     0.061 C 
BRANCH  15  16
HETATM   16  C4  UNL     1      -6.069   0.646   0.189  1.00  0.00     0.029 A 
HETATM   17  N1  UNL     1      -6.800  -0.432   0.015  1.00  0.00    -0.301 N 
HETATM   18  C1  UNL     1      -6.543  -1.488  -0.996  1.00  0.00     0.177 C 
HETATM   19  N2  UNL     1      -7.772  -0.468   0.853  1.00  0.00    -0.310 N 
HETATM   20  C2  UNL     1      -7.743   0.640   1.635  1.00  0.00     0.109 A 
ATOM     21  H2  UNL     1      -8.462  -1.216   0.921  1.00  0.00     0.186 HD
HETATM   22  C3  UNL     1      -6.642   1.391   1.212  1.00  0.00     0.045 A 
ENDBRANCH  15  16
ENDBRANCH  14  15
ENDBRANCH  13  14
ENDBRANCH  12  13
ENDBRANCH  11  12
ENDBRANCH   1  11
BRANCH   8  23
HETATM   23  C13 UNL     1       5.231   0.048   0.613  1.00  0.00     0.071 A 
HETATM   24  C14 UNL     1       6.125  -0.815   0.317  1.00  0.00     0.009 A 
HETATM   25  C15 UNL     1       6.124  -1.820  -0.643  1.00  0.00     0.015 A 
HETATM   26  C19 UNL     1       7.240  -0.639   1.069  1.00  0.00     0.046 A 
HETATM   27  C16 UNL     1       7.267  -2.609  -0.799  1.00  0.00     0.001 A 
HETATM   28  C17 UNL     1       8.389  -2.430  -0.022  1.00  0.00     0.002 A 
HETATM   29  C18 UNL     1       8.403  -1.439   0.928  1.00  0.00     0.030 A 
HETATM   30  N5  UNL     1       7.113   0.329   1.880  1.00  0.00    -0.322 N 
HETATM   31  C20 UNL     1       5.847   0.865   1.704  1.00  0.00     0.259 A 
ATOM     32  H5  UNL     1       7.817   0.654   2.543  1.00  0.00     0.169 HD
HETATM   33  O2  UNL     1       5.266   1.815   2.284  1.00  0.00    -0.267 OA
ENDBRANCH   8  23
TORSDOF 7
