REMARK  10 active torsions:
REMARK  status: ('A' for Active; 'I' for Inactive)
REMARK    1  A    between atoms: C2_2  and  C3_3 
REMARK    2  A    between atoms: C3_3  and  C4_4 
REMARK    3  A    between atoms: C4_4  and  C5_5 
REMARK    4  A    between atoms: C5_5  and  C6_6 
REMARK    5  A    between atoms: C6_6  and  C7_7 
REMARK    6  A    between atoms: C10_10  and  C11_11 
REMARK    7  A    between atoms: C11_11  and  C12_12 
REMARK    8  A    between atoms: C13_15  and  C14_16 
REMARK    9  A    between atoms: C14_16  and  C15_17 
REMARK   10  A    between atoms: C23_29  and  O2_30 
ROOT
HETATM    1  C11 UNL     1      -1.541   0.341   1.727  1.00  0.00     0.065 C 
ENDROOT
BRANCH   1   2
HETATM    2  C10 UNL     1      -0.316   0.017   0.973  1.00  0.00     0.038 A 
HETATM    3  C9  UNL     1      -0.003   0.605  -0.235  1.00  0.00     0.030 A 
HETATM    4  C8  UNL     1       1.170   0.264  -0.909  1.00  0.00     0.013 A 
HETATM    5  C7  UNL     1       2.057  -0.669  -0.393  1.00  0.00    -0.007 A 
HETATM    6  C23 UNL     1       1.699  -1.230   0.820  1.00  0.00     0.148 A 
HETATM    7  N3  UNL     1       0.553  -0.886   1.460  1.00  0.00    -0.332 N 
HETATM    8  C22 UNL     1       0.236  -1.512   2.726  1.00  0.00     0.158 C 
BRANCH   5   9
HETATM    9  C6  UNL     1       3.305  -1.051  -1.068  1.00  0.00     0.043 C 
BRANCH   9  10
HETATM   10  C5  UNL     1       4.522  -0.379  -0.435  1.00  0.00     0.005 C 
BRANCH  10  11
HETATM   11  C4  UNL     1       5.786  -0.807  -1.161  1.00  0.00     0.000 C 
BRANCH  11  12
HETATM   12  C3  UNL     1       7.008  -0.154  -0.572  1.00  0.00    -0.000 C 
BRANCH  12  13
HETATM   13  C2  UNL     1       6.940   1.357  -0.659  1.00  0.00    -0.005 C 
HETATM   14  C1  UNL     1       8.232   1.888  -0.034  1.00  0.00     0.005 C 
ENDBRANCH  12  13
ENDBRANCH  11  12
ENDBRANCH  10  11
ENDBRANCH   9  10
ENDBRANCH   5   9
BRANCH   6  15
HETATM   15  O2  UNL     1       2.567  -2.181   1.382  1.00  0.00    -0.346 OA
ATOM     16  H2  UNL     1       2.321  -2.566   2.215  1.00  0.00     0.219 HD
ENDBRANCH   6  15
ENDBRANCH   1   2
BRANCH   1  17
HETATM   17  C12 UNL     1      -2.729   0.328   1.184  1.00  0.00     0.104 A 
HETATM   18  N1  UNL     1      -3.138   0.050  -0.067  1.00  0.00    -0.338 N 
HETATM   19  C13 UNL     1      -4.471   0.169  -0.191  1.00  0.00     0.109 A 
ATOM     20  H1  UNL     1      -2.514  -0.218  -0.828  1.00  0.00     0.167 HD
HETATM   21  N2  UNL     1      -4.941   0.532   1.008  1.00  0.00    -0.308 N 
HETATM   22  C21 UNL     1      -3.901   0.632   1.848  1.00  0.00     0.273 A 
ATOM     23  H2  UNL     1      -5.919   0.703   1.242  1.00  0.00     0.170 HD
HETATM   24  O1  UNL     1      -3.980   0.961   3.084  1.00  0.00    -0.266 OA
BRANCH  19  25
HETATM   25  C14 UNL     1      -5.188  -0.039  -1.309  1.00  0.00     0.060 C 
BRANCH  25  26
HETATM   26  C15 UNL     1      -6.615   0.130  -1.280  1.00  0.00    -0.033 A 
HETATM   27  C16 UNL     1      -7.470  -0.942  -1.096  1.00  0.00     0.011 A 
HETATM   28  C17 UNL     1      -8.848  -0.771  -1.068  1.00  0.00     0.001 A 
HETATM   29  C18 UNL     1      -9.419   0.468  -1.222  1.00  0.00     0.000 A 
HETATM   30  C19 UNL     1      -8.587   1.542  -1.406  1.00  0.00     0.001 A 
HETATM   31  C20 UNL     1      -7.222   1.381  -1.435  1.00  0.00     0.011 A 
ENDBRANCH  25  26
ENDBRANCH  19  25
ENDBRANCH   1  17
TORSDOF 10
