REMARK  11 active torsions:
REMARK  status: ('A' for Active; 'I' for Inactive)
REMARK    1  A    between atoms: C7_7  and  C8_8 
REMARK    2  A    between atoms: C8_8  and  C9_9 
REMARK    3  A    between atoms: C8_8  and  N1_18 
REMARK    4  A    between atoms: C10_10  and  C11_11 
REMARK    5  A    between atoms: C11_11  and  O1_12 
REMARK    6  A    between atoms: C11_11  and  C12_14 
REMARK    7  A    between atoms: C12_14  and  C13_15 
REMARK    8  A    between atoms: C13_15  and  C14_16 
REMARK    9  A    between atoms: N1_18  and  C16_21 
REMARK   10  A    between atoms: C16_21  and  C17_22 
REMARK   11  A    between atoms: C20_25  and  O2_26 
ROOT
HETATM    1  C1  UNL     1       2.331   4.881  -2.791  1.00  0.00     0.018 C 
HETATM    2  C2  UNL     1       1.503   4.359  -2.087  1.00  0.00    -0.078 C 
HETATM    3  C3  UNL     1       0.489   3.743  -1.250  1.00  0.00     0.017 A 
HETATM    4  C4  UNL     1      -0.114   4.499  -0.265  1.00  0.00     0.020 A 
HETATM    5  C5  UNL     1      -1.078   3.939   0.542  1.00  0.00     0.002 A 
HETATM    6  C6  UNL     1      -1.403   2.616   0.321  1.00  0.00     0.010 A 
HETATM    7  C7  UNL     1      -0.806   1.848  -0.662  1.00  0.00    -0.015 A 
HETATM    8  C26 UNL     1       0.158   2.415  -1.465  1.00  0.00     0.030 A 
ENDROOT
BRANCH   7   9
HETATM    9  C8  UNL     1      -1.160   0.430  -0.892  1.00  0.00     0.297 C 
BRANCH   9  10
HETATM   10  C9  UNL     1      -1.944  -0.132   0.217  1.00  0.00    -0.066 C 
HETATM   11  C10 UNL     1      -2.590  -0.581   1.149  1.00  0.00    -0.072 C 
BRANCH  11  12
HETATM   12  C11 UNL     1      -3.330  -1.090   2.288  1.00  0.00     0.197 C 
BRANCH  12  13
HETATM   13  O1  UNL     1      -2.986  -2.447   2.410  1.00  0.00    -0.383 OA
ATOM     14  H1  UNL     1      -3.471  -2.780   3.156  1.00  0.00     0.211 HD
ENDBRANCH  12  13
BRANCH  12  15
HETATM   15  C12 UNL     1      -4.794  -0.877   2.288  1.00  0.00     0.044 C 
BRANCH  15  16
HETATM   16  C13 UNL     1      -5.628  -1.477   1.242  1.00  0.00     0.003 C 
BRANCH  16  17
HETATM   17  C14 UNL     1      -5.384  -1.140  -0.179  1.00  0.00    -0.004 C 
HETATM   18  C15 UNL     1      -6.451  -1.870  -1.032  1.00  0.00     0.005 C 
ENDBRANCH  16  17
ENDBRANCH  15  16
ENDBRANCH  12  15
ENDBRANCH  11  12
ENDBRANCH   9  10
BRANCH   9  19
HETATM   19  N1  UNL     1       0.002  -0.379  -1.061  1.00  0.00    -0.052 N 
ATOM     20  H12 UNL     1      -0.255  -1.331  -1.322  1.00  0.00     0.279 HD
ATOM     21  H11 UNL     1       0.514  -0.106  -1.900  1.00  0.00     0.279 HD
BRANCH  19  22
HETATM   22  C16 UNL     1       0.874  -0.382   0.094  1.00  0.00     0.273 C 
BRANCH  22  23
HETATM   23  C17 UNL     1       2.066  -1.224  -0.111  1.00  0.00    -0.021 A 
HETATM   24  C18 UNL     1       3.368  -1.029  -0.113  1.00  0.00    -0.015 A 
HETATM   25  C19 UNL     1       4.444  -0.144   0.030  1.00  0.00     0.049 A 
HETATM   26  C24 UNL     1       3.606  -2.346  -0.384  1.00  0.00    -0.025 A 
HETATM   27  C20 UNL     1       5.762  -0.552  -0.093  1.00  0.00     0.069 A 
HETATM   28  C22 UNL     1       5.976  -1.886  -0.367  1.00  0.00     0.037 A 
HETATM   29  C23 UNL     1       4.908  -2.775  -0.511  1.00  0.00     0.015 A 
HETATM   30  C25 UNL     1       2.317  -2.620  -0.399  1.00  0.00     0.022 A 
BRANCH  27  31
HETATM   31  O2  UNL     1       6.794   0.372   0.059  1.00  0.00    -0.356 OA
HETATM   32  C21 UNL     1       8.148   0.068  -0.043  1.00  0.00     0.210 C 
ENDBRANCH  27  31
ENDBRANCH  22  23
ENDBRANCH  19  22
ENDBRANCH   9  19
ENDBRANCH   7   9
TORSDOF 11
