REMARK  8 active torsions:
REMARK  status: ('A' for Active; 'I' for Inactive)
REMARK    1  A    between atoms: C3_3  and  C4_4 
REMARK    2  A    between atoms: N1_8  and  C8_9 
REMARK    3  A    between atoms: C8_9  and  C9_10 
REMARK    4  A    between atoms: C9_10  and  C10_11 
REMARK    5  A    between atoms: C10_11  and  O1_12 
REMARK    6  A    between atoms: O1_12  and  C11_13 
REMARK    7  A    between atoms: C11_13  and  C12_14 
REMARK    8  A    between atoms: C12_14  and  N2_15 
ROOT
HETATM    1  C1  UNL     1      -9.160   3.426  -0.311  1.00  0.00     0.112 C 
HETATM    2  C2  UNL     1      -8.297   2.249  -0.137  1.00  0.00    -0.105 C 
HETATM    3  C3  UNL     1      -7.583   1.285  -0.010  1.00  0.00    -0.066 C 
ENDROOT
BRANCH   3   4
HETATM    4  C4  UNL     1      -6.724   0.124   0.130  1.00  0.00     0.033 A 
HETATM    5  C5  UNL     1      -7.259  -1.135   0.328  1.00  0.00     0.023 A 
HETATM    6  C6  UNL     1      -6.384  -2.198   0.453  1.00  0.00     0.019 A 
HETATM    7  C7  UNL     1      -5.013  -2.008   0.383  1.00  0.00     0.090 A 
HETATM    8  N1  UNL     1      -4.501  -0.776   0.190  1.00  0.00    -0.365 N 
HETATM    9  C21 UNL     1      -5.358   0.234   0.072  1.00  0.00     0.111 A 
BRANCH   8  10
HETATM   10  C8  UNL     1      -3.089  -0.647   0.128  1.00  0.00     0.130 C 
BRANCH  10  11
HETATM   11  C9  UNL     1      -2.472  -0.778  -1.219  1.00  0.00     0.046 C 
BRANCH  11  12
HETATM   12  C10 UNL     1      -0.947  -0.600  -1.015  1.00  0.00     0.169 C 
BRANCH  12  13
HETATM   13  O1  UNL     1      -0.463  -1.563  -0.166  1.00  0.00    -0.389 OA
BRANCH  13  14
HETATM   14  C11 UNL     1       0.895  -1.446  -0.010  1.00  0.00     0.187 C 
BRANCH  14  15
HETATM   15  C12 UNL     1       1.242  -0.108   0.582  1.00  0.00     0.154 C 
BRANCH  15  16
HETATM   16  N2  UNL     1       2.713  -0.118   0.728  1.00  0.00    -0.363 N 
HETATM   17  C13 UNL     1       3.230  -0.575   1.879  1.00  0.00     0.092 A 
HETATM   18  C14 UNL     1       4.586  -0.614   2.082  1.00  0.00     0.048 A 
HETATM   19  C15 UNL     1       5.406  -0.165   1.058  1.00  0.00     0.063 A 
HETATM   20  N3  UNL     1       6.741  -0.201   1.252  1.00  0.00    -0.191 N 
HETATM   21  C19 UNL     1       4.866   0.304  -0.125  1.00  0.00     0.023 A 
HETATM   22  C16 UNL     1       7.544   0.231   0.267  1.00  0.00     0.678 A 
ATOM     23  H3  UNL     1       7.131  -0.549   2.128  1.00  0.00     0.184 HD
HETATM   24  N4  UNL     1       8.825   0.187   0.477  1.00  0.00    -0.234 N 
HETATM   25  N5  UNL     1       7.073   0.697  -0.902  1.00  0.00    -0.197 N 
ATOM     26  H42 UNL     1       9.183  -0.167   1.364  1.00  0.00     0.174 HD
ATOM     27  H41 UNL     1       9.435   0.515  -0.272  1.00  0.00     0.174 HD
HETATM   28  C17 UNL     1       8.006   1.151  -1.930  1.00  0.00     0.174 C 
HETATM   29  C18 UNL     1       5.742   0.733  -1.096  1.00  0.00     0.123 A 
HETATM   30  C20 UNL     1       3.498   0.319  -0.272  1.00  0.00     0.105 A 
ENDBRANCH  15  16
ENDBRANCH  14  15
ENDBRANCH  13  14
ENDBRANCH  12  13
ENDBRANCH  11  12
ENDBRANCH  10  11
ENDBRANCH   8  10
ENDBRANCH   3   4
TORSDOF 8
