REMARK  9 active torsions:
REMARK  status: ('A' for Active; 'I' for Inactive)
REMARK    1  A    between atoms: N1_6  and  C6_7 
REMARK    2  A    between atoms: N2_11  and  C10_12 
REMARK    3  A    between atoms: C10_12  and  C11_13 
REMARK    4  A    between atoms: C11_13  and  C12_14 
REMARK    5  A    between atoms: C12_14  and  C13_15 
REMARK    6  A    between atoms: C13_15  and  O1_16 
REMARK    7  A    between atoms: N5_23  and  C17_24 
REMARK    8  A    between atoms: C17_24  and  C18_25 
REMARK    9  A    between atoms: N6_29  and  N7_30 
ROOT
HETATM    1  C1  UNL     1      -4.896  -1.344   1.795  1.00  0.00     0.068 C 
HETATM    2  C2  UNL     1      -3.505  -0.843   2.002  1.00  0.00     0.012 A 
HETATM    3  C3  UNL     1      -2.657  -1.503   2.857  1.00  0.00     0.050 A 
HETATM    4  C4  UNL     1      -1.351  -1.042   3.072  1.00  0.00     0.017 A 
HETATM    5  C5  UNL     1      -0.583  -1.781   4.139  1.00  0.00     0.068 C 
HETATM    6  N1  UNL     1      -0.880   0.042   2.461  1.00  0.00    -0.298 N 
HETATM    7  C16 UNL     1      -1.751   0.677   1.620  1.00  0.00     0.202 A 
HETATM    8  N4  UNL     1      -1.286   1.873   1.043  1.00  0.00    -0.062 NA
HETATM    9  N5  UNL     1      -3.026   0.253   1.390  1.00  0.00    -0.321 N 
ENDROOT
BRANCH   6  10
HETATM   10  C6  UNL     1       0.452   0.489   2.541  1.00  0.00     0.129 C 
HETATM   11  C7  UNL     1       1.376   0.471   1.439  1.00  0.00     0.052 A 
HETATM   12  C8  UNL     1       1.886   1.715   1.027  1.00  0.00     0.048 A 
HETATM   13  N3  UNL     1       1.801  -0.557   0.744  1.00  0.00    -0.346 N 
HETATM   14  C9  UNL     1       2.757   1.831  -0.020  1.00  0.00     0.094 A 
HETATM   15  N2  UNL     1       3.168   0.754  -0.707  1.00  0.00    -0.353 N 
HETATM   16  C14 UNL     1       2.679  -0.419  -0.309  1.00  0.00     0.185 A 
HETATM   17  C15 UNL     1       1.397  -1.916   1.011  1.00  0.00     0.157 C 
BRANCH  15  18
HETATM   18  C10 UNL     1       4.099   0.868  -1.828  1.00  0.00     0.129 C 
BRANCH  18  19
HETATM   19  C11 UNL     1       5.527   0.750  -1.280  1.00  0.00     0.022 C 
BRANCH  19  20
HETATM   20  C12 UNL     1       6.517   0.867  -2.441  1.00  0.00     0.028 C 
BRANCH  20  21
HETATM   21  C13 UNL     1       7.932   0.754  -1.933  1.00  0.00     0.164 C 
BRANCH  21  22
HETATM   22  O1  UNL     1       8.144  -0.486  -1.294  1.00  0.00    -0.401 OA
ATOM     23  H1  UNL     1       9.036  -0.557  -0.974  1.00  0.00     0.209 HD
ENDBRANCH  21  22
ENDBRANCH  20  21
ENDBRANCH  19  20
ENDBRANCH  18  19
ENDBRANCH  15  18
ENDBRANCH   6  10
BRANCH   9  24
HETATM   24  C17 UNL     1      -3.891   0.999   0.518  1.00  0.00     0.171 C 
BRANCH  24  25
HETATM   25  C18 UNL     1      -4.057   0.486  -0.849  1.00  0.00    -0.022 A 
HETATM   26  C19 UNL     1      -3.042   0.392  -1.754  1.00  0.00     0.012 A 
HETATM   27  C20 UNL     1      -3.286  -0.078  -3.054  1.00  0.00     0.020 A 
HETATM   28  C21 UNL     1      -4.563  -0.449  -3.423  1.00  0.00     0.115 A 
HETATM   29  N6  UNL     1      -5.553  -0.348  -2.511  1.00  0.00    -0.285 N 
HETATM   30  C22 UNL     1      -5.334   0.098  -1.272  1.00  0.00     0.123 A 
BRANCH  29  31
HETATM   31  N7  UNL     1      -6.839  -0.733  -2.919  1.00  0.00    -0.339 N 
ATOM     32  H72 UNL     1      -7.006  -1.074  -3.866  1.00  0.00     0.177 HD
ATOM     33  H71 UNL     1      -7.587  -0.657  -2.230  1.00  0.00     0.177 HD
ENDBRANCH  29  31
ENDBRANCH  24  25
ENDBRANCH   9  24
TORSDOF 9
