REMARK  11 active torsions:
REMARK  status: ('A' for Active; 'I' for Inactive)
REMARK    1  A    between atoms: C3_3  and  C4_4 
REMARK    2  A    between atoms: C4_4  and  C5_5 
REMARK    3  A    between atoms: C6_6  and  C7_7 
REMARK    4  A    between atoms: C7_7  and  N1_8 
REMARK    5  A    between atoms: N3_11  and  C9_12 
REMARK    6  A    between atoms: C11_14  and  C12_15 
REMARK    7  A    between atoms: C12_15  and  C13_16 
REMARK    8  A    between atoms: C14_17  and  C15_18 
REMARK    9  A    between atoms: C15_18  and  N4_19 
REMARK   10  A    between atoms: N4_19  and  C16_21 
REMARK   11  A    between atoms: N5_22  and  N6_24 
ROOT
HETATM    1  C1  UNL     1      -7.534   4.348   0.816  1.00  0.00     0.012 C 
HETATM    2  C2  UNL     1      -6.964   3.348   0.469  1.00  0.00    -0.117 C 
HETATM    3  C3  UNL     1      -6.285   2.131   0.029  1.00  0.00     0.105 C 
ENDROOT
BRANCH   3   4
HETATM    4  C4  UNL     1      -5.176   1.841   1.025  1.00  0.00     0.106 C 
BRANCH   4   5
HETATM    5  C5  UNL     1      -4.445   0.619   0.647  1.00  0.00    -0.100 C 
HETATM    6  C6  UNL     1      -3.875  -0.376   0.326  1.00  0.00    -0.061 C 
BRANCH   6   7
HETATM    7  C7  UNL     1      -3.206  -1.596  -0.081  1.00  0.00     0.164 C 
BRANCH   7   8
HETATM    8  N1  UNL     1      -1.793  -1.489  -0.249  1.00  0.00    -0.287 N 
HETATM    9  C8  UNL     1      -1.221  -1.172  -1.431  1.00  0.00     0.202 A 
HETATM   10  N2  UNL     1      -2.085  -0.927  -2.528  1.00  0.00    -0.062 NA
HETATM   11  N3  UNL     1       0.100  -1.073  -1.638  1.00  0.00    -0.323 N 
HETATM   12  C11 UNL     1       0.943  -1.299  -0.616  1.00  0.00     0.037 A 
HETATM   13  C17 UNL     1       0.425  -1.627   0.618  1.00  0.00     0.015 A 
HETATM   14  C18 UNL     1       1.225  -1.865   1.715  1.00  0.00     0.016 A 
HETATM   15  C22 UNL     1      -0.968  -1.718   0.783  1.00  0.00     0.054 A 
HETATM   16  C19 UNL     1       0.693  -2.185   2.947  1.00  0.00     0.001 A 
HETATM   17  C20 UNL     1      -0.675  -2.281   3.136  1.00  0.00     0.002 A 
HETATM   18  C21 UNL     1      -1.484  -2.043   2.042  1.00  0.00     0.031 A 
BRANCH  11  19
HETATM   19  C9  UNL     1       0.590  -0.709  -2.979  1.00  0.00     0.127 C 
HETATM   20  C10 UNL     1       0.813  -1.924  -3.849  1.00  0.00     0.027 C 
ENDBRANCH  11  19
BRANCH  12  21
HETATM   21  C12 UNL     1       2.400  -1.218  -0.789  1.00  0.00     0.152 C 
BRANCH  21  22
HETATM   22  C13 UNL     1       2.945   0.002  -0.191  1.00  0.00    -0.099 C 
HETATM   23  C14 UNL     1       3.397   0.995   0.323  1.00  0.00    -0.087 C 
BRANCH  23  24
HETATM   24  C15 UNL     1       3.954   2.202   0.984  1.00  0.00     0.214 C 
BRANCH  24  25
HETATM   25  N4  UNL     1       5.382   2.067   1.048  1.00  0.00    -0.375 N 
ATOM     26  H4  UNL     1       5.978   2.683   0.495  1.00  0.00     0.161 HD
BRANCH  25  27
HETATM   27  C16 UNL     1       5.960   1.083   1.876  1.00  0.00     0.195 C 
HETATM   28  N5  UNL     1       7.196   1.166   2.248  1.00  0.00    -0.283 N 
ATOM     29  H5  UNL     1       7.587   0.439   2.847  1.00  0.00     0.189 HD
BRANCH  28  30
HETATM   30  N6  UNL     1       7.992   2.212   1.853  1.00  0.00    -0.248 N 
HETATM   31  N7  UNL     1       7.772   3.374   2.283  1.00  0.00    -0.331 N 
ATOM     32  H72 UNL     1       6.995   3.522   2.927  1.00  0.00     0.178 HD
ATOM     33  H71 UNL     1       8.364   4.151   1.989  1.00  0.00     0.178 HD
ATOM     34  H6  UNL     1       8.765   2.047   1.208  1.00  0.00     0.207 HD
ENDBRANCH  28  30
ENDBRANCH  25  27
ENDBRANCH  24  25
ENDBRANCH  23  24
ENDBRANCH  21  22
ENDBRANCH  12  21
ENDBRANCH   7   8
ENDBRANCH   6   7
ENDBRANCH   4   5
ENDBRANCH   3   4
TORSDOF 11
