REMARK  9 active torsions:
REMARK  status: ('A' for Active; 'I' for Inactive)
REMARK    1  A    between atoms: O1_2  and  C2_3 
REMARK    2  A    between atoms: C2_3  and  C3_5 
REMARK    3  A    between atoms: N4_12  and  C6_13 
REMARK    4  A    between atoms: C6_13  and  C7_14 
REMARK    5  A    between atoms: C7_14  and  O3_15 
REMARK    6  A    between atoms: C7_14  and  C8_17 
REMARK    7  A    between atoms: C10_21  and  N6_22 
REMARK    8  A    between atoms: N11_37  and  C15_38 
REMARK    9  A    between atoms: C15_38  and  N12_39 
ROOT
HETATM    1  C3  UNL     1      -2.405   1.786   0.202  1.00  0.00     0.167 A 
HETATM    2  N1  UNL     1      -2.988   0.719   0.736  1.00  0.00    -0.180 N 
ATOM      3  H1  UNL     1      -3.864   0.706   1.258  1.00  0.00     0.184 HD
HETATM    4  C4  UNL     1      -2.211  -0.336   0.462  1.00  0.00     0.711 A 
HETATM    5  N2  UNL     1      -1.109   0.026  -0.255  1.00  0.00    -0.062 N 
HETATM    6  C5  UNL     1      -1.219   1.343  -0.422  1.00  0.00     0.190 A 
HETATM    7  N3  UNL     1      -0.309   2.179  -1.101  1.00  0.00    -0.077 NA
HETATM    8  N4  UNL     1      -0.061  -0.777  -0.741  1.00  0.00    -0.226 N 
HETATM    9  C12 UNL     1       0.321  -2.098  -0.279  1.00  0.00     0.166 C 
HETATM   10  N8  UNL     1       1.536  -2.647  -0.780  1.00  0.00    -0.079 NA
HETATM   11  C13 UNL     1      -0.355  -2.884   0.540  1.00  0.00     0.133 C 
HETATM   12  N9  UNL     1       0.280  -4.115   0.807  1.00  0.00    -0.095 NA
HETATM   13  C14 UNL     1      -1.658  -2.701   1.194  1.00  0.00     0.147 C 
HETATM   14  N10 UNL     1      -2.042  -3.540   2.074  1.00  0.00    -0.383 N 
ATOM     15 1H10 UNL     1      -2.947  -3.413   2.528  1.00  0.00     0.157 HD
ATOM     16 2H10 UNL     1      -1.394  -4.302   2.275  1.00  0.00     0.157 HD
HETATM   17  N11 UNL     1      -2.566  -1.634   0.913  1.00  0.00    -0.147 N 
ENDROOT
BRANCH   8  18
HETATM   18  C6  UNL     1       0.677  -0.261  -1.811  1.00  0.00     0.156 C 
BRANCH  18  19
HETATM   19  C7  UNL     1       2.068   0.143  -1.705  1.00  0.00     0.100 C 
BRANCH  19  20
HETATM   20  O3  UNL     1       2.589   0.325  -2.907  1.00  0.00    -0.358 OA
ATOM     21  H3  UNL     1       3.499   0.589  -2.838  1.00  0.00     0.217 HD
ENDBRANCH  19  20
BRANCH  19  22
HETATM   22  C8  UNL     1       2.954   0.375  -0.645  1.00  0.00     0.083 A 
HETATM   23  C9  UNL     1       2.588   0.547   0.663  1.00  0.00     0.126 A 
HETATM   24  N5  UNL     1       3.486   0.809   1.666  1.00  0.00    -0.201 N 
HETATM   25  C10 UNL     1       4.791   0.902   1.353  1.00  0.00     0.678 A 
ATOM     26  H5  UNL     1       3.171   0.931   2.629  1.00  0.00     0.183 HD
HETATM   27  N7  UNL     1       5.200   0.742   0.089  1.00  0.00    -0.156 N 
HETATM   28  C11 UNL     1       4.320   0.490  -0.867  1.00  0.00     0.274 A 
ATOM     29  H7  UNL     1       6.192   0.814  -0.138  1.00  0.00     0.187 HD
HETATM   30  O4  UNL     1       4.754   0.343  -2.063  1.00  0.00    -0.267 OA
BRANCH  25  31
HETATM   31  N6  UNL     1       5.691   1.151   2.272  1.00  0.00    -0.234 N 
ATOM     32  H62 UNL     1       5.379   1.273   3.235  1.00  0.00     0.174 HD
ATOM     33  H61 UNL     1       6.680   1.222   2.035  1.00  0.00     0.174 HD
ENDBRANCH  25  31
ENDBRANCH  19  22
ENDBRANCH  18  19
ENDBRANCH   8  18
BRANCH  17  34
HETATM   34  C15 UNL     1      -3.987  -1.930   1.112  1.00  0.00     0.289 C 
BRANCH  34  35
HETATM   35  N12 UNL     1      -4.613  -1.751  -0.179  1.00  0.00    -0.324 N 
HETATM   36  N13 UNL     1      -4.968  -2.738  -0.868  1.00  0.00    -0.348 N 
ATOM     37 2H13 UNL     1      -4.805  -3.674  -0.497  1.00  0.00     0.176 HD
ATOM     38 1H13 UNL     1      -5.410  -2.612  -1.779  1.00  0.00     0.176 HD
ATOM     39  H12 UNL     1      -4.768  -0.808  -0.535  1.00  0.00     0.181 HD
ENDBRANCH  34  35
ENDBRANCH  17  34
BRANCH   1  40
HETATM   40  C2  UNL     1      -2.823   3.174   0.211  1.00  0.00     0.313 C 
HETATM   41  O2  UNL     1      -3.918   3.441   0.812  1.00  0.00    -0.257 OA
BRANCH  40  42
HETATM   42  O1  UNL     1      -2.082   4.162  -0.395  1.00  0.00    -0.321 OA
HETATM   43  C1  UNL     1      -2.487   5.504  -0.383  1.00  0.00     0.213 C 
ENDBRANCH  40  42
ENDBRANCH   1  40
TORSDOF 9
