REMARK  13 active torsions:
REMARK  status: ('A' for Active; 'I' for Inactive)
REMARK    1  A    between atoms: C4_4  and  C5_5 
REMARK    2  A    between atoms: C5_5  and  C6_6 
REMARK    3  A    between atoms: C9_10  and  O2_11 
REMARK    4  A    between atoms: O2_11  and  C10_12 
REMARK    5  A    between atoms: C14_16  and  O3_17 
REMARK    6  A    between atoms: O3_17  and  C15_18 
REMARK    7  A    between atoms: C16_20  and  C17_21 
REMARK    8  A    between atoms: C17_21  and  N1_22 
REMARK    9  A    between atoms: C18_26  and  O5_27 
REMARK   10  A    between atoms: C19_29  and  O6_30 
REMARK   11  A    between atoms: C20_32  and  O7_33 
REMARK   12  A    between atoms: C21_35  and  O8_36 
REMARK   13  A    between atoms: C22_38  and  O9_39 
ROOT
HETATM    1  C10 UNL     1       0.750  -1.123   0.558  1.00  0.00     0.156 C 
HETATM    2  C11 UNL     1      -0.361  -1.983   1.098  1.00  0.00     0.041 C 
HETATM    3  C12 UNL     1      -1.208  -2.585   0.003  1.00  0.00     0.016 C 
HETATM    4  C13 UNL     1      -2.510  -3.027   0.631  1.00  0.00     0.012 C 
HETATM    5  C14 UNL     1      -1.528  -1.470  -0.976  1.00  0.00     0.160 C 
HETATM    6  C21 UNL     1      -0.255  -1.199  -1.735  1.00  0.00     0.178 C 
HETATM    7  C22 UNL     1       0.976  -1.360  -0.920  1.00  0.00     0.178 C 
ENDROOT
BRANCH   5   8
HETATM    8  O3  UNL     1      -1.992  -0.399  -0.266  1.00  0.00    -0.350 OA
BRANCH   8   9
HETATM    9  C15 UNL     1      -3.295  -0.001  -0.583  1.00  0.00     0.292 C 
HETATM   10  O4  UNL     1      -4.168  -0.194   0.438  1.00  0.00    -0.349 OA
HETATM   11  C16 UNL     1      -5.363   0.421   0.450  1.00  0.00     0.181 C 
HETATM   12  C18 UNL     1      -5.441   1.804  -0.060  1.00  0.00     0.180 C 
HETATM   13  C19 UNL     1      -4.187   2.356  -0.641  1.00  0.00     0.183 C 
HETATM   14  C20 UNL     1      -3.248   1.338  -1.213  1.00  0.00     0.204 C 
BRANCH  11  15
HETATM   15  C17 UNL     1      -6.408  -0.512  -0.133  1.00  0.00     0.264 C 
BRANCH  15  16
HETATM   16  N1  UNL     1      -6.175  -0.919  -1.466  1.00  0.00    -0.077 N 
ATOM     17  H13 UNL     1      -6.059  -0.103  -2.067  1.00  0.00     0.274 HD
ATOM     18  H12 UNL     1      -5.248  -1.336  -1.549  1.00  0.00     0.274 HD
ATOM     19  H11 UNL     1      -6.877  -1.546  -1.858  1.00  0.00     0.274 HD
ENDBRANCH  15  16
ENDBRANCH  11  15
BRANCH  12  20
HETATM   20  O5  UNL     1      -5.885   2.692   0.927  1.00  0.00    -0.390 OA
ATOM     21  H5  UNL     1      -5.935   3.582   0.599  1.00  0.00     0.210 HD
ENDBRANCH  12  20
BRANCH  13  22
HETATM   22  O6  UNL     1      -3.530   3.160   0.306  1.00  0.00    -0.390 OA
ATOM     23  H6  UNL     1      -2.730   3.512  -0.065  1.00  0.00     0.210 HD
ENDBRANCH  13  22
BRANCH  14  24
HETATM   24  O7  UNL     1      -1.950   1.876  -1.034  1.00  0.00    -0.388 OA
ATOM     25  H7  UNL     1      -1.920   2.735  -1.438  1.00  0.00     0.210 HD
ENDBRANCH  14  24
ENDBRANCH   8   9
ENDBRANCH   5   8
BRANCH   6  26
HETATM   26  O8  UNL     1      -0.209  -2.112  -2.805  1.00  0.00    -0.390 OA
ATOM     27  H8  UNL     1       0.594  -1.941  -3.284  1.00  0.00     0.210 HD
ENDBRANCH   6  26
BRANCH   7  28
HETATM   28  O9  UNL     1       1.481  -2.643  -1.122  1.00  0.00    -0.390 OA
ATOM     29  H9  UNL     1       1.623  -2.792  -2.050  1.00  0.00     0.210 HD
ENDBRANCH   7  28
BRANCH   1  30
HETATM   30  O2  UNL     1       1.923  -1.249   1.285  1.00  0.00    -0.352 OA
BRANCH  30  31
HETATM   31  C9  UNL     1       2.362  -0.100   1.892  1.00  0.00     0.270 C 
HETATM   32  C6  UNL     1       3.854   0.192   1.682  1.00  0.00     0.031 C 
HETATM   33  C7  UNL     1       4.492  -0.976   1.004  1.00  0.00     0.023 C 
HETATM   34  C8  UNL     1       3.974   0.293   3.165  1.00  0.00     0.185 C 
HETATM   35  O1  UNL     1       2.643  -0.173   3.252  1.00  0.00    -0.359 OA
BRANCH  32  36
HETATM   36  C5  UNL     1       4.099   1.463   0.900  1.00  0.00     0.043 C 
BRANCH  36  37
HETATM   37  C4  UNL     1       5.526   1.771   0.752  1.00  0.00    -0.024 C 
HETATM   38  C2  UNL     1       6.125   1.874  -0.414  1.00  0.00    -0.091 C 
HETATM   39  C1  UNL     1       7.570   2.189  -0.476  1.00  0.00     0.042 C 
HETATM   40  C3  UNL     1       5.388   1.684  -1.689  1.00  0.00     0.042 C 
ENDBRANCH  36  37
ENDBRANCH  32  36
ENDBRANCH  30  31
ENDBRANCH   1  30
TORSDOF 13
