REMARK  3 active torsions:
REMARK  status: ('A' for Active; 'I' for Inactive)
REMARK    1  A    between atoms: C1_4  and  N2_5 
REMARK    2  A    between atoms: C1_4  and  C3_14 
REMARK       I    between atoms: N2_5  and  C2_7 
REMARK    3  A    between atoms: N4_9  and  N5_11 
REMARK       I    between atoms: C3_14  and  N6_16 
ROOT
HETATM    1  N1  UNL     1      -0.771  -2.059  -1.077  1.00  0.00    -0.381 N 
ATOM      2  H11 UNL     1      -0.285  -2.950  -1.179  1.00  0.00     0.157 HD
ATOM      3  H12 UNL     1      -1.717  -1.954  -1.445  1.00  0.00     0.157 HD
HETATM    4  C1  UNL     1      -0.150  -1.096  -0.476  1.00  0.00     0.171 C 
ENDROOT
BRANCH   4   5
HETATM    5  N2  UNL     1      -0.817   0.126  -0.336  1.00  0.00    -0.311 N 
HETATM    6  C2  UNL     1      -2.213   0.111  -0.060  1.00  0.00     0.208 C 
HETATM    7  N3  UNL     1      -3.091  -0.835  -0.659  1.00  0.00    -0.062 NA
HETATM    8  N4  UNL     1      -2.657   0.999   0.764  1.00  0.00    -0.280 N 
ATOM      9  H4  UNL     1      -1.982   1.652   1.163  1.00  0.00     0.189 HD
ATOM     10  H2  UNL     1      -0.314   1.008  -0.430  1.00  0.00     0.170 HD
BRANCH   8  11
HETATM   11  N5  UNL     1      -3.969   1.131   1.144  1.00  0.00    -0.343 N 
ATOM     12  H52 UNL     1      -4.629   0.470   0.735  1.00  0.00     0.176 HD
ATOM     13  H51 UNL     1      -4.320   1.833   1.795  1.00  0.00     0.176 HD
ENDBRANCH   8  11
ENDBRANCH   4   5
BRANCH   4  14
HETATM   14  C3  UNL     1       1.195  -1.245   0.047  1.00  0.00     0.291 C 
HETATM   15  O1  UNL     1       1.836  -2.320  -0.053  1.00  0.00    -0.264 OA
HETATM   16  N6  UNL     1       1.819  -0.148   0.696  1.00  0.00    -0.297 N 
HETATM   17  C4  UNL     1       2.922   0.329   0.225  1.00  0.00     0.203 C 
ATOM     18  H6  UNL     1       1.398   0.261   1.530  1.00  0.00     0.171 HD
HETATM   19  N7  UNL     1       3.544   1.437   0.887  1.00  0.00    -0.066 NA
HETATM   20  N8  UNL     1       3.514  -0.231  -0.932  1.00  0.00    -0.066 NA
ENDBRANCH   4  14
TORSDOF 3
