REMARK  3 active torsions:
REMARK  status: ('A' for Active; 'I' for Inactive)
REMARK    1  A    between atoms: C3_3  and  C5_5 
REMARK       I    between atoms: C5_5  and  N1_7 
REMARK    2  A    between atoms: N1_7  and  C6_9 
REMARK    3  A    between atoms: C6_9  and  C7_10 
REMARK       I    between atoms: C7_10  and  N2_12 
ROOT
HETATM    1  C6  UNL     1       0.249   0.650   0.838  1.00  0.00     0.356 C 
HETATM    2  N3  UNL     1      -0.561   0.482  -0.317  1.00  0.00    -0.366 N 
ATOM      3  H3  UNL     1      -1.547   0.235  -0.234  1.00  0.00     0.158 HD
HETATM    4  C9  UNL     1       0.040   0.667  -1.590  1.00  0.00     0.118 C 
HETATM    5  C10 UNL     1      -0.949   0.429  -2.723  1.00  0.00     0.019 C 
HETATM    6  C11 UNL     1      -1.825  -0.774  -2.479  1.00  0.00     0.003 C 
HETATM    7  C12 UNL     1      -3.144  -0.476  -1.849  1.00  0.00     0.020 C 
HETATM    8  C13 UNL     1      -3.440  -1.394  -0.692  1.00  0.00     0.122 C 
HETATM    9  N4  UNL     1      -3.652  -0.684   0.570  1.00  0.00    -0.360 N 
ATOM     10  H4  UNL     1      -4.507  -0.139   0.681  1.00  0.00     0.162 HD
HETATM   11  C14 UNL     1      -2.732  -0.715   1.642  1.00  0.00     0.243 C 
HETATM   12  O3  UNL     1      -3.121  -0.410   2.790  1.00  0.00    -0.272 OA
HETATM   13  C15 UNL     1      -1.305  -1.095   1.490  1.00  0.00     0.340 C 
HETATM   14  N5  UNL     1      -0.413  -0.069   1.916  1.00  0.00    -0.012 N 
ATOM     15  H51 UNL     1      -0.895   0.585   2.533  1.00  0.00     0.283 HD
ATOM     16  H52 UNL     1       0.277  -0.448   2.564  1.00  0.00     0.283 HD
ENDROOT
BRANCH   1  17
HETATM   17  N1  UNL     1       1.639   0.341   0.691  1.00  0.00    -0.300 N 
HETATM   18  C5  UNL     1       2.262  -0.858   0.378  1.00  0.00     0.250 C 
HETATM   19  O1  UNL     1       1.619  -1.900   0.172  1.00  0.00    -0.268 OA
ATOM     20  H1  UNL     1       2.272   1.127   0.840  1.00  0.00     0.167 HD
BRANCH  18  21
HETATM   21  C3  UNL     1       3.710  -0.951   0.276  1.00  0.00     0.002 C 
HETATM   22  C2  UNL     1       4.360  -2.057  -0.017  1.00  0.00    -0.019 C 
HETATM   23  C1  UNL     1       3.706  -3.363  -0.282  1.00  0.00     0.036 C 
HETATM   24  C4  UNL     1       4.510   0.283   0.517  1.00  0.00     0.054 C 
ENDBRANCH  18  21
ENDBRANCH   1  17
BRANCH   1  25
HETATM   25  C7  UNL     1       0.169   2.112   1.204  1.00  0.00     0.296 C 
HETATM   26  O2  UNL     1       1.214   2.808   1.323  1.00  0.00    -0.266 OA
HETATM   27  N2  UNL     1      -1.062   2.754   1.425  1.00  0.00    -0.360 N 
HETATM   28  C8  UNL     1      -1.138   4.175   1.781  1.00  0.00     0.149 C 
ATOM     29  H2  UNL     1      -1.925   2.218   1.335  1.00  0.00     0.162 HD
ENDBRANCH   1  25
TORSDOF 3
