REMARK  7 active torsions:
REMARK  status: ('A' for Active; 'I' for Inactive)
REMARK    1  A    between atoms: C3_3  and  C4_4 
REMARK    2  A    between atoms: C5_5  and  C6_6 
REMARK    3  A    between atoms: C8_10  and  N2_11 
REMARK    4  A    between atoms: N2_11  and  C9_13 
REMARK    5  A    between atoms: C9_13  and  C10_14 
REMARK    6  A    between atoms: C10_14  and  N3_15 
REMARK    7  A    between atoms: C15_25  and  N6_26 
ROOT
HETATM    1  C1  UNL     1       8.558   4.137  -0.680  1.00  0.00     0.113 C 
HETATM    2  C2  UNL     1       7.529   3.097  -0.581  1.00  0.00    -0.097 C 
HETATM    3  C3  UNL     1       6.667   2.254  -0.490  1.00  0.00    -0.015 C 
ENDROOT
BRANCH   3   4
HETATM    4  C4  UNL     1       5.632   1.277  -0.378  1.00  0.00    -0.007 C 
HETATM    5  C5  UNL     1       4.744   0.465  -0.276  1.00  0.00    -0.016 C 
BRANCH   5   6
HETATM    6  C6  UNL     1       3.700  -0.503  -0.132  1.00  0.00     0.164 A 
HETATM    7  N1  UNL     1       2.395  -0.216  -0.228  1.00  0.00    -0.329 N 
HETATM    8  C7  UNL     1       1.680  -1.337  -0.045  1.00  0.00     0.124 A 
ATOM      9  H1  UNL     1       2.006   0.709  -0.411  1.00  0.00     0.168 HD
HETATM   10  C8  UNL     1       0.330  -1.662  -0.029  1.00  0.00     0.147 A 
HETATM   11  C16 UNL     1       2.570  -2.363   0.173  1.00  0.00     0.153 A 
HETATM   12  N5  UNL     1      -0.095  -2.909   0.187  1.00  0.00    -0.175 N 
HETATM   13  C15 UNL     1       0.797  -3.886   0.395  1.00  0.00     0.679 A 
ATOM     14  H5  UNL     1      -1.094  -3.116   0.194  1.00  0.00     0.186 HD
HETATM   15  N7  UNL     1       2.110  -3.600   0.386  1.00  0.00    -0.174 N 
ATOM     16  H7  UNL     1       2.779  -4.353   0.547  1.00  0.00     0.186 HD
HETATM   17  N8  UNL     1       3.783  -1.820   0.113  1.00  0.00    -0.319 N 
ATOM     18  H8  UNL     1       4.656  -2.334   0.236  1.00  0.00     0.169 HD
BRANCH  10  19
HETATM   19  N2  UNL     1      -0.519  -0.735  -0.227  1.00  0.00    -0.372 N 
ATOM     20  H2  UNL     1      -0.198   0.219  -0.392  1.00  0.00     0.161 HD
BRANCH  19  21
HETATM   21  C9  UNL     1      -1.960  -1.029  -0.220  1.00  0.00     0.151 C 
BRANCH  21  22
HETATM   22  C10 UNL     1      -2.632   0.243  -0.671  1.00  0.00     0.292 C 
BRANCH  22  23
HETATM   23  N3  UNL     1      -4.055   0.134  -0.739  1.00  0.00     0.093 N 
HETATM   24  C11 UNL     1      -4.587   1.411  -1.197  1.00  0.00     0.300 C 
HETATM   25  C12 UNL     1      -5.037   2.279  -0.075  1.00  0.00     0.262 C 
HETATM   26  N4  UNL     1      -4.358   2.104   1.168  1.00  0.00    -0.072 N 
HETATM   27  C13 UNL     1      -4.271   0.730   1.623  1.00  0.00     0.262 C 
ATOM     28  H42 UNL     1      -3.429   2.522   1.125  1.00  0.00     0.277 HD
ATOM     29  H41 UNL     1      -4.782   2.689   1.888  1.00  0.00     0.277 HD
HETATM   30  C14 UNL     1      -4.623  -0.244   0.522  1.00  0.00     0.300 C 
ENDBRANCH  22  23
ENDBRANCH  21  22
ENDBRANCH  19  21
ENDBRANCH  10  19
BRANCH  13  31
HETATM   31  N6  UNL     1       0.418  -5.100   0.607  1.00  0.00    -0.234 N 
ATOM     32  H62 UNL     1      -0.579  -5.317   0.614  1.00  0.00     0.174 HD
ATOM     33  H61 UNL     1       1.097  -5.844   0.765  1.00  0.00     0.174 HD
ENDBRANCH  13  31
ENDBRANCH   5   6
ENDBRANCH   3   4
TORSDOF 7
