REMARK  3 active torsions:
REMARK  status: ('A' for Active; 'I' for Inactive)
REMARK       I    between atoms: N1_2  and  C2_4 
REMARK       I    between atoms: C2_4  and  N2_6 
REMARK    1  A    between atoms: N2_6  and  N3_8 
REMARK    2  A    between atoms: N3_8  and  C3_10 
REMARK    3  A    between atoms: C4_19  and  N8_20 
ROOT
HETATM    1  C3  UNL     1       1.482  -0.420  -0.820  1.00  0.00     0.182 A 
HETATM    2  N4  UNL     1       2.313  -0.268  -1.928  1.00  0.00    -0.266 N 
ATOM      3  H4  UNL     1       1.903  -0.287  -2.862  1.00  0.00     0.190 HD
HETATM    4  N5  UNL     1       3.601  -0.102  -1.803  1.00  0.00    -0.226 N 
ATOM      5  H5  UNL     1       4.171   0.005  -2.642  1.00  0.00     0.210 HD
HETATM    6  N6  UNL     1       4.189  -0.068  -0.618  1.00  0.00    -0.227 N 
ATOM      7  H6  UNL     1       5.198   0.065  -0.557  1.00  0.00     0.210 HD
HETATM    8  N7  UNL     1       3.491  -0.202   0.464  1.00  0.00    -0.267 N 
ATOM      9  H7  UNL     1       3.953  -0.175   1.373  1.00  0.00     0.190 HD
HETATM   10  C4  UNL     1       2.129  -0.380   0.393  1.00  0.00     0.162 A 
ENDROOT
BRANCH   1  11
HETATM   11  N3  UNL     1       0.260  -0.574  -1.052  1.00  0.00    -0.277 N 
ATOM     12  H3  UNL     1       0.052  -0.565  -2.051  1.00  0.00     0.189 HD
BRANCH  11  13
HETATM   13  N2  UNL     1      -0.834  -0.747  -0.311  1.00  0.00    -0.250 N 
HETATM   14  C2  UNL     1      -1.867   0.225  -0.124  1.00  0.00     0.334 C 
HETATM   15  N1  UNL     1      -3.019   0.027   0.662  1.00  0.00    -0.346 N 
HETATM   16  O1  UNL     1      -1.739   1.348  -0.709  1.00  0.00    -0.246 OA
HETATM   17  C1  UNL     1      -4.033   1.037   0.820  1.00  0.00     0.151 C 
ATOM     18  H1  UNL     1      -3.140  -0.867   1.138  1.00  0.00     0.163 HD
ATOM     19  H2  UNL     1      -0.944  -1.645   0.161  1.00  0.00     0.192 HD
ENDBRANCH  11  13
ENDBRANCH   1  11
BRANCH  10  20
HETATM   20  N8  UNL     1       1.527  -0.503   1.513  1.00  0.00    -0.381 N 
ATOM     21  H82 UNL     1       0.517  -0.635   1.460  1.00  0.00     0.157 HD
ATOM     22  H81 UNL     1       2.007  -0.473   2.413  1.00  0.00     0.157 HD
ENDBRANCH  10  20
TORSDOF 3
