REMARK  3 active torsions:
REMARK  status: ('A' for Active; 'I' for Inactive)
REMARK    1  A    between atoms: C2_3  and  C3_4 
REMARK    2  A    between atoms: C3_4  and  N2_5 
REMARK    3  A    between atoms: C3_4  and  N3_9 
ROOT
HETATM    1  N1  UNL     1       0.270   1.989  -0.433  1.00  0.00    -0.094 NA
HETATM    2  C1  UNL     1       0.806   0.720  -0.115  1.00  0.00     0.140 A 
HETATM    3  C2  UNL     1      -0.071  -0.326   0.065  1.00  0.00     0.101 A 
HETATM    4  N4  UNL     1       0.443  -1.531   0.367  1.00  0.00    -0.307 N 
ATOM      5  H4  UNL     1      -0.193  -2.317   0.502  1.00  0.00     0.170 HD
HETATM    6  C4  UNL     1       1.764  -1.737   0.497  1.00  0.00     0.327 A 
HETATM    7  O1  UNL     1       2.219  -2.879   0.781  1.00  0.00    -0.247 OA
HETATM    8  N5  UNL     1       2.625  -0.745   0.328  1.00  0.00    -0.274 N 
ATOM      9  H5  UNL     1       3.628  -0.905   0.426  1.00  0.00     0.173 HD
HETATM   10  C5  UNL     1       2.153   0.475   0.025  1.00  0.00     0.275 A 
HETATM   11  O2  UNL     1       2.940   1.457  -0.146  1.00  0.00    -0.266 OA
ENDROOT
BRANCH   3  12
HETATM   12  C3  UNL     1      -1.527  -0.152  -0.066  1.00  0.00     0.429 C 
BRANCH  12  13
HETATM   13  N2  UNL     1      -1.884   0.632  -1.247  1.00  0.00    -0.045 N 
ATOM     14  H23 UNL     1      -1.403   1.531  -1.253  1.00  0.00     0.277 HD
ATOM     15  H22 UNL     1      -1.483   0.228  -2.093  1.00  0.00     0.277 HD
ATOM     16  H21 UNL     1      -2.893   0.753  -1.338  1.00  0.00     0.277 HD
ENDBRANCH  12  13
BRANCH  12  17
HETATM   17  N3  UNL     1      -2.108   0.429   1.125  1.00  0.00    -0.045 N 
ATOM     18  H33 UNL     1      -1.872  -0.114   1.956  1.00  0.00     0.277 HD
ATOM     19  H32 UNL     1      -1.650   1.306   1.372  1.00  0.00     0.277 HD
ATOM     20  H31 UNL     1      -3.117   0.550   1.034  1.00  0.00     0.277 HD
ENDBRANCH  12  17
ENDBRANCH   3  12
TORSDOF 3
