REMARK  15 active torsions:
REMARK  status: ('A' for Active; 'I' for Inactive)
REMARK    1  A    between atoms: O1_2  and  N1_3 
REMARK    2  A    between atoms: N1_3  and  C3_5 
REMARK    3  A    between atoms: C3_5  and  C4_6 
REMARK    4  A    between atoms: C3_5  and  C5_9 
REMARK    5  A    between atoms: C4_6  and  O2_7 
REMARK    6  A    between atoms: C5_9  and  C7_11 
REMARK    7  A    between atoms: C7_11  and  N2_12 
REMARK    8  A    between atoms: N2_12  and  N3_13 
REMARK    9  A    between atoms: N2_12  and  C9_18 
REMARK   10  A    between atoms: N3_13  and  C8_15 
REMARK   11  A    between atoms: C9_18  and  N5_19 
REMARK       I    between atoms: N5_19  and  C10_21 
REMARK       I    between atoms: C10_21  and  N7_25 
REMARK   12  A    between atoms: C15_32  and  C16_33 
REMARK   13  A    between atoms: C20_37  and  C21_38 
REMARK   14  A    between atoms: C20_37  and  C25_42 
REMARK   15  A    between atoms: C21_38  and  C22_39 
ROOT
HETATM    1  C9  UNL     1      -0.798   1.107   0.338  1.00  0.00     0.146 C 
HETATM    2  C20 UNL     1      -0.276   2.344   0.872  1.00  0.00     0.021 C 
ENDROOT
BRANCH   1   3
HETATM    3  N2  UNL     1      -2.183   0.657   0.379  1.00  0.00    -0.273 N 
BRANCH   3   4
HETATM    4  C7  UNL     1      -2.453  -0.759   0.288  1.00  0.00     0.157 C 
BRANCH   4   5
HETATM    5  C5  UNL     1      -3.825  -1.223   0.532  1.00  0.00     0.028 C 
HETATM    6  C6  UNL     1      -4.092  -1.028   2.040  1.00  0.00     0.014 C 
BRANCH   5   7
HETATM    7  C3  UNL     1      -3.947  -2.753   0.365  1.00  0.00     0.137 C 
BRANCH   7   8
HETATM    8  N1  UNL     1      -3.731  -3.178  -0.953  1.00  0.00    -0.292 N 
HETATM    9  C2  UNL     1      -4.559  -2.730  -1.994  1.00  0.00     0.178 C 
BRANCH   8  10
HETATM   10  O1  UNL     1      -2.710  -3.937  -1.252  1.00  0.00    -0.288 OA
HETATM   11  C1  UNL     1      -2.673  -5.173  -0.653  1.00  0.00     0.237 C 
ENDBRANCH   8  10
ENDBRANCH   7   8
BRANCH   7  12
HETATM   12  C4  UNL     1      -5.290  -3.167   0.931  1.00  0.00     0.191 C 
BRANCH  12  13
HETATM   13  O2  UNL     1      -6.360  -2.660   0.205  1.00  0.00    -0.399 OA
ATOM     14  H2  UNL     1      -7.202  -2.920   0.560  1.00  0.00     0.209 HD
ENDBRANCH  12  13
ENDBRANCH   7  12
ENDBRANCH   5   7
ENDBRANCH   4   5
ENDBRANCH   3   4
BRANCH   3  15
HETATM   15  N3  UNL     1      -3.276   1.503   0.482  1.00  0.00    -0.275 N 
ATOM     16  H3  UNL     1      -3.452   1.896   1.407  1.00  0.00     0.189 HD
BRANCH  15  17
HETATM   17  C8  UNL     1      -4.173   1.887  -0.533  1.00  0.00     0.199 C 
HETATM   18  N4  UNL     1      -4.187   1.518  -1.880  1.00  0.00    -0.068 NA
HETATM   19  S1  UNL     1      -5.402   2.924  -0.118  1.00  0.00    -0.043 SA
ENDBRANCH  15  17
ENDBRANCH   3  15
ENDBRANCH   1   3
BRANCH   1  20
HETATM   20  N5  UNL     1      -0.001   0.269  -0.229  1.00  0.00    -0.175 N 
HETATM   21  C10 UNL     1       1.357   0.306  -0.469  1.00  0.00     0.677 C 
HETATM   22  N6  UNL     1       1.774   0.292  -1.685  1.00  0.00    -0.234 N 
HETATM   23  N7  UNL     1       2.358   0.356   0.526  1.00  0.00    -0.199 N 
ATOM     24  H62 UNL     1       1.051   0.256  -2.404  1.00  0.00     0.174 HD
ATOM     25  H61 UNL     1       2.778   0.319  -1.862  1.00  0.00     0.174 HD
HETATM   26  C11 UNL     1       3.471  -0.178   0.610  1.00  0.00     0.011 C 
ATOM     27  H7  UNL     1       2.118   0.942   1.325  1.00  0.00     0.183 HD
HETATM   28  C12 UNL     1       4.290   0.101   1.839  1.00  0.00     0.131 C 
HETATM   29  C19 UNL     1       4.060  -1.067  -0.411  1.00  0.00     0.058 C 
HETATM   30  C13 UNL     1       5.637   0.522   1.354  1.00  0.00     0.132 C 
HETATM   31  O3  UNL     1       6.141   1.570   1.654  1.00  0.00    -0.298 OA
HETATM   32  C14 UNL     1       6.342  -0.436   0.462  1.00  0.00     0.084 C 
HETATM   33  C15 UNL     1       5.441  -1.538  -0.013  1.00  0.00     0.001 C 
ATOM     34  H5  UNL     1      -0.459  -0.579  -0.562  1.00  0.00     0.186 HD
BRANCH  33  35
HETATM   35  C16 UNL     1       6.114  -2.294  -1.100  1.00  0.00    -0.018 C 
HETATM   36  C17 UNL     1       6.495  -1.516  -2.309  1.00  0.00     0.010 C 
HETATM   37  C18 UNL     1       7.391  -2.961  -0.580  1.00  0.00     0.010 C 
ENDBRANCH  33  35
ENDBRANCH   1  20
BRANCH   2  38
HETATM   38  C21 UNL     1       0.307   3.367  -0.008  1.00  0.00    -0.009 C 
BRANCH  38  39
HETATM   39  C22 UNL     1      -0.427   4.007  -1.092  1.00  0.00     0.001 C 
HETATM   40  C23 UNL     1       0.533   5.050  -1.744  1.00  0.00     0.013 C 
HETATM   41  C24 UNL     1      -0.708   3.088  -2.297  1.00  0.00     0.013 C 
ENDBRANCH  38  39
ENDBRANCH   2  38
BRANCH   2  42
HETATM   42  C25 UNL     1      -1.028   2.901   2.089  1.00  0.00     0.109 A 
HETATM   43  C26 UNL     1      -1.022   1.946   3.300  1.00  0.00     0.054 C 
HETATM   44  C27 UNL     1      -1.493   4.212   2.257  1.00  0.00     0.212 A 
HETATM   45  O4  UNL     1      -0.167   4.061   2.544  1.00  0.00    -0.370 OA
ENDBRANCH   2  42
TORSDOF 15
