REMARK  13 active torsions:
REMARK  status: ('A' for Active; 'I' for Inactive)
REMARK    1  A    between atoms: C1_2  and  C2_3 
REMARK       I    between atoms: C1_2  and  N5_30 
REMARK    2  A    between atoms: C2_3  and  C3_4 
REMARK    3  A    between atoms: C3_4  and  C4_5 
REMARK    4  A    between atoms: C4_5  and  N1_6 
REMARK    5  A    between atoms: N1_6  and  C5_8 
REMARK    6  A    between atoms: C5_8  and  C6_9 
REMARK    7  A    between atoms: C6_9  and  N2_10 
REMARK    8  A    between atoms: C6_9  and  C10_16 
REMARK    9  A    between atoms: N2_10  and  C7_13 
REMARK   10  A    between atoms: C13_19  and  N3_20 
REMARK   11  A    between atoms: N6_33  and  C22_34 
REMARK   12  A    between atoms: C22_34  and  O2_35 
REMARK   13  A    between atoms: C22_34  and  C23_37 
ROOT
HETATM    1  C4  UNL     1      -1.991  -0.401  -1.051  1.00  0.00     0.114 C 
ENDROOT
BRANCH   1   2
HETATM    2  C3  UNL     1      -0.782   0.320  -1.436  1.00  0.00     0.028 C 
BRANCH   2   3
HETATM    3  C2  UNL     1       0.294   0.600  -0.468  1.00  0.00     0.104 C 
BRANCH   3   4
HETATM    4  C1  UNL     1       0.966  -0.558   0.135  1.00  0.00     0.219 C 
HETATM    5  O1  UNL     1       0.296  -1.618   0.321  1.00  0.00    -0.273 OA
HETATM    6  N5  UNL     1       2.325  -0.544   0.517  1.00  0.00    -0.349 N 
HETATM    7  C20 UNL     1       3.215   0.577   0.352  1.00  0.00     0.145 C 
HETATM    8  C34 UNL     1       2.954  -1.733   1.121  1.00  0.00     0.145 C 
HETATM    9  C21 UNL     1       4.349   0.014  -0.539  1.00  0.00     0.139 C 
HETATM   10  N6  UNL     1       5.088  -0.936   0.135  1.00  0.00    -0.384 N 
HETATM   11  C33 UNL     1       4.252  -2.084   0.471  1.00  0.00     0.139 C 
BRANCH  10  12
HETATM   12  C22 UNL     1       6.240  -0.794   0.861  1.00  0.00     0.224 C 
BRANCH  12  13
HETATM   13  O2  UNL     1       6.539  -2.030   1.517  1.00  0.00    -0.376 OA
ATOM     14  H2  UNL     1       7.338  -1.931   2.021  1.00  0.00     0.212 HD
ENDBRANCH  12  13
BRANCH  12  15
HETATM   15  C23 UNL     1       7.540  -0.373   0.232  1.00  0.00     0.004 C 
HETATM   16  C24 UNL     1       8.626  -0.426   1.357  1.00  0.00     0.018 C 
HETATM   17  C25 UNL     1       9.932  -0.041   0.751  1.00  0.00    -0.013 C 
HETATM   18  C26 UNL     1       9.912   1.407   0.289  1.00  0.00     0.009 C 
HETATM   19  C30 UNL     1      10.343  -0.919  -0.391  1.00  0.00     0.009 C 
HETATM   20  C27 UNL     1       8.850   1.498  -0.788  1.00  0.00    -0.013 C 
HETATM   21  C28 UNL     1       9.189   0.610  -1.937  1.00  0.00     0.009 C 
HETATM   22  C32 UNL     1       7.529   1.079  -0.144  1.00  0.00     0.018 C 
HETATM   23  C29 UNL     1       9.256  -0.807  -1.455  1.00  0.00    -0.013 C 
HETATM   24  C31 UNL     1       7.991  -1.307  -0.835  1.00  0.00     0.018 C 
ENDBRANCH  12  15
ENDBRANCH  10  12
ENDBRANCH   3   4
ENDBRANCH   2   3
ENDBRANCH   1   2
BRANCH   1  25
HETATM   25  N1  UNL     1      -2.853   0.124  -0.062  1.00  0.00    -0.419 N 
ATOM     26  H1  UNL     1      -2.989  -0.336   0.838  1.00  0.00     0.153 HD
BRANCH  25  27
HETATM   27  C5  UNL     1      -3.518   1.333  -0.401  1.00  0.00     0.151 C 
BRANCH  27  28
HETATM   28  C6  UNL     1      -4.641   1.702   0.487  1.00  0.00     0.236 C 
BRANCH  28  29
HETATM   29  N2  UNL     1      -5.215   3.011   0.110  1.00  0.00    -0.061 N 
ATOM     30  H22 UNL     1      -5.613   2.988  -0.829  1.00  0.00     0.278 HD
ATOM     31  H21 UNL     1      -6.065   3.212   0.636  1.00  0.00     0.278 HD
BRANCH  29  32
HETATM   32  C7  UNL     1      -4.242   4.075   0.248  1.00  0.00     0.187 A 
HETATM   33  C8  UNL     1      -4.746   5.455   0.690  1.00  0.00     0.035 A 
HETATM   34  C9  UNL     1      -4.179   5.204  -0.676  1.00  0.00     0.035 A 
ENDBRANCH  29  32
ENDBRANCH  28  29
BRANCH  28  35
HETATM   35  C10 UNL     1      -5.799   0.728   0.436  1.00  0.00    -0.026 A 
HETATM   36  C11 UNL     1      -6.892   0.955   1.255  1.00  0.00     0.011 A 
HETATM   37  C12 UNL     1      -8.001   0.123   1.207  1.00  0.00     0.030 A 
HETATM   38  C13 UNL     1      -8.067  -0.951   0.357  1.00  0.00     0.030 A 
HETATM   39  C18 UNL     1      -6.988  -1.187  -0.462  1.00  0.00     0.030 A 
HETATM   40  C19 UNL     1      -5.861  -0.341  -0.413  1.00  0.00     0.011 A 
BRANCH  38  41
HETATM   41  N3  UNL     1      -9.217  -1.822   0.253  1.00  0.00    -0.378 N 
HETATM   42  C14 UNL     1      -9.093  -3.227   0.044  1.00  0.00     0.150 C 
HETATM   43  C15 UNL     1     -10.106  -3.833  -0.870  1.00  0.00     0.252 C 
HETATM   44  N4  UNL     1     -11.318  -3.051  -0.978  1.00  0.00    -0.072 N 
HETATM   45  C16 UNL     1     -11.570  -2.283   0.232  1.00  0.00     0.252 C 
ATOM     46  H42 UNL     1     -11.302  -2.452  -1.803  1.00  0.00     0.277 HD
ATOM     47  H41 UNL     1     -12.118  -3.635  -1.222  1.00  0.00     0.277 HD
HETATM   48  C17 UNL     1     -10.531  -1.215   0.336  1.00  0.00     0.150 C 
ENDBRANCH  38  41
ENDBRANCH  28  35
ENDBRANCH  27  28
ENDBRANCH  25  27
ENDBRANCH   1  25
TORSDOF 13
