REMARK  11 active torsions:
REMARK  status: ('A' for Active; 'I' for Inactive)
REMARK    1  A    between atoms: C2_2  and  O1_3 
REMARK    2  A    between atoms: O1_3  and  N1_4 
REMARK    3  A    between atoms: C3_6  and  C4_7 
REMARK    4  A    between atoms: C3_6  and  C15_37 
REMARK       I    between atoms: C4_7  and  N2_9 
REMARK    5  A    between atoms: C6_12  and  C7_13 
REMARK    6  A    between atoms: N3_14  and  N4_16 
REMARK       I    between atoms: N4_16  and  C8_18 
REMARK    7  A    between atoms: C10_23  and  C11_24 
REMARK       I    between atoms: C11_24  and  N5_26 
REMARK    8  A    between atoms: N5_26  and  C12_28 
REMARK    9  A    between atoms: C12_28  and  O7_29 
REMARK   10  A    between atoms: C13_32  and  N6_33 
REMARK   11  A    between atoms: C15_37  and  C16_39 
ROOT
HETATM    1  C4  UNL     1      -1.654   0.171  -0.783  1.00  0.00     0.278 C 
HETATM    2  O2  UNL     1      -2.516   0.790  -1.508  1.00  0.00    -0.265 OA
HETATM    3  N2  UNL     1      -0.449  -0.229  -1.398  1.00  0.00    -0.325 N 
ATOM      4  H2  UNL     1      -0.374  -1.155  -1.819  1.00  0.00     0.169 HD
HETATM    5  C5  UNL     1       0.565   0.582  -1.428  1.00  0.00     0.039 C 
HETATM    6  C6  UNL     1       0.585   1.951  -0.854  1.00  0.00     0.098 C 
HETATM    7  C9  UNL     1       2.074   2.139  -0.650  1.00  0.00     0.185 C 
HETATM    8  O5  UNL     1       2.607   1.579  -1.811  1.00  0.00    -0.369 OA
HETATM    9  C10 UNL     1       1.910   0.389  -2.011  1.00  0.00     0.259 C 
ENDROOT
BRANCH   6  10
HETATM   10  C7  UNL     1       0.067   2.863  -1.879  1.00  0.00     0.093 C 
HETATM   11  N3  UNL     1      -0.186   4.090  -1.620  1.00  0.00    -0.310 N 
ATOM     12  H3  UNL     1      -0.546   4.697  -2.357  1.00  0.00     0.185 HD
BRANCH  11  13
HETATM   13  N4  UNL     1       0.022   4.604  -0.353  1.00  0.00    -0.244 N 
HETATM   14  C8  UNL     1      -0.947   4.522   0.655  1.00  0.00     0.303 C 
HETATM   15  O3  UNL     1      -2.063   3.978   0.477  1.00  0.00    -0.628 OA
HETATM   16  O4  UNL     1      -0.712   5.051   1.928  1.00  0.00    -0.628 OA
ATOM     17  H4  UNL     1       0.911   5.058  -0.146  1.00  0.00     0.193 HD
ENDBRANCH  11  13
ENDBRANCH   6  10
BRANCH   9  18
HETATM   18  C11 UNL     1       2.640  -0.766  -1.448  1.00  0.00     0.256 C 
HETATM   19  O6  UNL     1       3.746  -0.519  -0.863  1.00  0.00    -0.270 OA
HETATM   20  N5  UNL     1       2.133  -2.081  -1.554  1.00  0.00    -0.300 N 
ATOM     21  H5  UNL     1       1.246  -2.245  -2.030  1.00  0.00     0.168 HD
BRANCH  20  22
HETATM   22  C12 UNL     1       2.877  -3.215  -0.981  1.00  0.00     0.305 A 
HETATM   23  O8  UNL     1       1.983  -3.950  -0.041  1.00  0.00    -0.294 OA
HETATM   24  C13 UNL     1       3.165  -3.221   0.427  1.00  0.00     0.411 A 
BRANCH  22  25
HETATM   25  O7  UNL     1       3.466  -4.020  -1.920  1.00  0.00    -0.345 OA
ATOM     26  H7  UNL     1       3.946  -4.752  -1.550  1.00  0.00     0.215 HD
ENDBRANCH  22  25
BRANCH  24  27
HETATM   27  N6  UNL     1       4.172  -4.063   0.978  1.00  0.00    -0.045 N 
HETATM   28  C14 UNL     1       3.893  -5.472   0.814  1.00  0.00     0.270 C 
ATOM     29  H62 UNL     1       5.089  -3.829   0.597  1.00  0.00     0.280 HD
ATOM     30  H61 UNL     1       4.335  -3.838   1.959  1.00  0.00     0.280 HD
ENDBRANCH  24  27
ENDBRANCH  20  22
ENDBRANCH   9  18
BRANCH   1  31
HETATM   31  C3  UNL     1      -2.017  -0.046   0.591  1.00  0.00     0.179 C 
HETATM   32  N1  UNL     1      -3.157   0.365   1.078  1.00  0.00    -0.258 N 
ATOM     33  H1  UNL     1      -3.384   0.195   2.058  1.00  0.00     0.194 HD
BRANCH  32  34
HETATM   34  O1  UNL     1      -4.048   1.024   0.273  1.00  0.00    -0.280 OA
BRANCH  34  35
HETATM   35  C2  UNL     1      -5.418   1.092   0.591  1.00  0.00     0.196 C 
HETATM   36  C1  UNL     1      -6.163   1.872  -0.454  1.00  0.00     0.036 C 
ENDBRANCH  34  35
ENDBRANCH  32  34
BRANCH  31  37
HETATM   37  C15 UNL     1      -1.122  -0.738   1.498  1.00  0.00     0.281 C 
HETATM   38  O9  UNL     1      -0.024  -1.146   1.061  1.00  0.00    -0.278 OA
BRANCH  37  39
HETATM   39  C16 UNL     1      -1.511  -0.951   2.910  1.00  0.00     0.254 C 
HETATM   40  O10 UNL     1      -2.604  -0.533   3.325  1.00  0.00    -0.642 OA
HETATM   41  O11 UNL     1      -0.610  -1.623   3.715  1.00  0.00    -0.642 OA
ENDBRANCH  37  39
ENDBRANCH  31  37
ENDBRANCH   1  31
TORSDOF 11
