REMARK  5 active torsions:
REMARK  status: ('A' for Active; 'I' for Inactive)
REMARK    1  A    between atoms: N1_1  and  C1_5 
REMARK    2  A    between atoms: C1_5  and  C2_6 
REMARK    3  A    between atoms: C1_5  and  C3_9 
REMARK    4  A    between atoms: C12_25  and  C13_26 
REMARK    5  A    between atoms: C13_26  and  S1_27 
ROOT
HETATM    1  C3  UNL     1      -1.619   0.769  -0.625  1.00  0.00     0.125 C 
HETATM    2  N2  UNL     1      -0.464   0.805  -1.449  1.00  0.00    -0.410 N 
ATOM      3  H2  UNL     1      -0.458   0.314  -2.343  1.00  0.00     0.154 HD
HETATM    4  C4  UNL     1       0.669   1.519  -1.030  1.00  0.00     0.158 C 
HETATM    5  C5  UNL     1       1.800   1.185  -2.014  1.00  0.00     0.074 C 
HETATM    6  N3  UNL     1       3.092   1.394  -1.518  1.00  0.00    -0.401 N 
ATOM      7  H3  UNL     1       3.898   1.271  -2.130  1.00  0.00     0.158 HD
HETATM    8  C6  UNL     1       3.281   1.774  -0.173  1.00  0.00     0.120 C 
HETATM    9  C7  UNL     1       3.525   0.633   0.791  1.00  0.00     0.039 C 
HETATM   10  C8  UNL     1       3.777  -0.680   0.142  1.00  0.00     0.115 C 
HETATM   11  N4  UNL     1       2.659  -1.541  -0.024  1.00  0.00    -0.419 N 
ATOM     12  H4  UNL     1       2.336  -1.846  -0.942  1.00  0.00     0.153 HD
HETATM   13  C9  UNL     1       2.013  -1.954   1.197  1.00  0.00     0.140 C 
HETATM   14  C10 UNL     1       0.841  -2.847   0.848  1.00  0.00     0.186 C 
HETATM   15  O3  UNL     1      -0.379  -2.199   0.950  1.00  0.00    -0.389 OA
HETATM   16  C11 UNL     1      -0.765  -1.560  -0.222  1.00  0.00     0.175 C 
HETATM   17  C12 UNL     1      -1.811  -0.522   0.127  1.00  0.00     0.051 C 
ENDROOT
BRANCH   1  18
HETATM   18  C1  UNL     1      -1.748   1.924   0.329  1.00  0.00     0.305 C 
BRANCH  18  19
HETATM   19  N1  UNL     1      -1.790   3.196  -0.393  1.00  0.00    -0.063 N 
ATOM     20  H13 UNL     1      -2.644   3.340  -0.932  1.00  0.00     0.275 HD
ATOM     21  H12 UNL     1      -1.896   4.012   0.209  1.00  0.00     0.275 HD
ATOM     22  H11 UNL     1      -0.938   3.202  -0.954  1.00  0.00     0.275 HD
ENDBRANCH  18  19
BRANCH  18  23
HETATM   23  C2  UNL     1      -2.972   1.916   1.135  1.00  0.00     0.206 C 
HETATM   24  O1  UNL     1      -3.215   1.185   2.115  1.00  0.00    -0.646 OA
HETATM   25  O2  UNL     1      -3.997   2.811   0.796  1.00  0.00    -0.646 OA
ENDBRANCH  18  23
ENDBRANCH   1  18
BRANCH  17  26
HETATM   26  C13 UNL     1      -3.156  -1.164  -0.232  1.00  0.00     0.174 C 
BRANCH  26  27
HETATM   27  S1  UNL     1      -3.480  -2.659   0.609  1.00  0.00     0.102 S 
HETATM   28  O4  UNL     1      -4.904  -3.056   0.266  1.00  0.00    -0.595 OA
HETATM   29  O5  UNL     1      -2.626  -3.807   0.260  1.00  0.00    -0.595 OA
HETATM   30  O6  UNL     1      -3.480  -2.425   2.278  1.00  0.00    -0.595 OA
ENDBRANCH  26  27
ENDBRANCH  17  26
TORSDOF 5
