REMARK  11 active torsions:
REMARK  status: ('A' for Active; 'I' for Inactive)
REMARK    1  A    between atoms: O1_2  and  C2_3 
REMARK    2  A    between atoms: C3_4  and  O2_5 
REMARK    3  A    between atoms: C4_7  and  N1_8 
REMARK    4  A    between atoms: C6_13  and  N2_14 
REMARK    5  A    between atoms: C7_18  and  O3_19 
REMARK    6  A    between atoms: O3_19  and  C8_20 
REMARK    7  A    between atoms: C9_21  and  N3_22 
REMARK    8  A    between atoms: C11_27  and  N4_28 
REMARK    9  A    between atoms: C12_32  and  O4_33 
REMARK   10  A    between atoms: O4_33  and  C13_34 
REMARK   11  A    between atoms: C15_37  and  O6_38 
ROOT
HETATM    1  C8  UNL     1       0.764  -0.861  -0.008  1.00  0.00     0.183 C 
HETATM    2  C9  UNL     1       1.608  -1.416   1.093  1.00  0.00     0.217 C 
HETATM    3  C10 UNL     1       2.979  -1.834   0.726  1.00  0.00     0.071 C 
HETATM    4  C11 UNL     1       3.633  -1.004  -0.346  1.00  0.00     0.217 C 
HETATM    5  C12 UNL     1       2.862   0.296  -0.415  1.00  0.00     0.193 C 
HETATM    6  C15 UNL     1       1.524  -0.056  -1.024  1.00  0.00     0.180 C 
ENDROOT
BRANCH   1   7
HETATM    7  O3  UNL     1      -0.264  -0.044   0.461  1.00  0.00    -0.371 OA
BRANCH   7   8
HETATM    8  C7  UNL     1      -1.518  -0.507   0.193  1.00  0.00     0.184 C 
HETATM    9  C2  UNL     1      -2.404   0.447  -0.577  1.00  0.00     0.182 C 
HETATM   10  C3  UNL     1      -3.859   0.013  -0.398  1.00  0.00     0.180 C 
HETATM   11  C4  UNL     1      -4.294   0.355   1.001  1.00  0.00     0.216 C 
HETATM   12  C5  UNL     1      -3.092   0.340   1.918  1.00  0.00     0.071 C 
HETATM   13  C6  UNL     1      -2.181  -0.800   1.548  1.00  0.00     0.217 C 
BRANCH   9  14
HETATM   14  O1  UNL     1      -2.135   0.248  -1.939  1.00  0.00    -0.385 OA
HETATM   15  C1  UNL     1      -1.847   1.468  -2.548  1.00  0.00     0.202 C 
ENDBRANCH   9  14
BRANCH  10  16
HETATM   16  O2  UNL     1      -4.606   0.737  -1.346  1.00  0.00    -0.391 OA
ATOM     17  H2  UNL     1      -5.510   0.467  -1.235  1.00  0.00     0.210 HD
ENDBRANCH  10  16
BRANCH  11  18
HETATM   18  N1  UNL     1      -4.919   1.646   1.029  1.00  0.00    -0.072 N 
ATOM     19  H13 UNL     1      -4.318   2.368   0.631  1.00  0.00     0.274 HD
ATOM     20  H12 UNL     1      -5.691   1.709   0.365  1.00  0.00     0.274 HD
ATOM     21  H11 UNL     1      -5.214   1.878   1.978  1.00  0.00     0.274 HD
ENDBRANCH  11  18
BRANCH  13  22
HETATM   22  N2  UNL     1      -2.844  -2.072   1.558  1.00  0.00    -0.072 N 
ATOM     23  H23 UNL     1      -3.293  -2.242   2.458  1.00  0.00     0.274 HD
ATOM     24  H22 UNL     1      -3.670  -2.057   0.960  1.00  0.00     0.274 HD
ATOM     25  H21 UNL     1      -2.227  -2.844   1.307  1.00  0.00     0.274 HD
ENDBRANCH  13  22
ENDBRANCH   7   8
ENDBRANCH   1   7
BRANCH   2  26
HETATM   26  N3  UNL     1       0.960  -2.627   1.632  1.00  0.00    -0.072 N 
ATOM     27  H33 UNL     1      -0.001  -2.454   1.929  1.00  0.00     0.274 HD
ATOM     28  H32 UNL     1       0.764  -3.318   0.907  1.00  0.00     0.274 HD
ATOM     29  H31 UNL     1       1.536  -3.006   2.384  1.00  0.00     0.274 HD
ENDBRANCH   2  26
BRANCH   6  30
HETATM   30  O6  UNL     1       1.668  -0.789  -2.211  1.00  0.00    -0.390 OA
ATOM     31  H6  UNL     1       2.148  -0.280  -2.853  1.00  0.00     0.210 HD
ENDBRANCH   6  30
BRANCH   5  32
HETATM   32  O4  UNL     1       3.536   1.311  -1.069  1.00  0.00    -0.311 OA
BRANCH  32  33
HETATM   33  C13 UNL     1       3.910   2.517  -0.506  1.00  0.00     0.255 C 
HETATM   34  C14 UNL     1       4.631   3.496  -1.364  1.00  0.00     0.126 C 
HETATM   35  O5  UNL     1       3.623   2.720   0.685  1.00  0.00    -0.266 OA
ENDBRANCH  32  33
ENDBRANCH   5  32
BRANCH   4  36
HETATM   36  N4  UNL     1       5.045  -0.805  -0.130  1.00  0.00    -0.072 N 
ATOM     37  H43 UNL     1       5.218  -0.407   0.793  1.00  0.00     0.274 HD
ATOM     38  H42 UNL     1       5.524  -1.699  -0.020  1.00  0.00     0.274 HD
ATOM     39  H41 UNL     1       5.488  -0.243  -0.856  1.00  0.00     0.274 HD
ENDBRANCH   4  36
TORSDOF 11
