REMARK  5 active torsions:
REMARK  status: ('A' for Active; 'I' for Inactive)
REMARK    1  A    between atoms: C3_5  and  N2_6 
REMARK    2  A    between atoms: N2_6  and  C4_8 
REMARK    3  A    between atoms: C4_8  and  C5_9 
REMARK    4  A    between atoms: C5_9  and  C6_10 
REMARK    5  A    between atoms: C6_10  and  N3_11 
ROOT
HETATM    1  C4  UNL     1       0.355  -0.731   0.750  1.00  0.00     0.139 C 
ENDROOT
BRANCH   1   2
HETATM    2  N2  UNL     1       1.213   0.060  -0.057  1.00  0.00    -0.226 N 
ATOM      3  H2  UNL     1       0.804   0.803  -0.624  1.00  0.00     0.177 HD
BRANCH   2   4
HETATM    4  C3  UNL     1       2.484  -0.122  -0.103  1.00  0.00     0.679 A 
HETATM    5  N1  UNL     1       3.274  -1.007   0.523  1.00  0.00    -0.191 N 
HETATM    6  C2  UNL     1       4.572  -0.832   0.176  1.00  0.00     0.066 A 
ATOM      7  H1  UNL     1       2.941  -1.718   1.174  1.00  0.00     0.184 HD
HETATM    8  C1  UNL     1       5.595  -1.530   0.608  1.00  0.00     0.046 C 
HETATM    9  C11 UNL     1       4.600   0.210  -0.709  1.00  0.00     0.066 A 
HETATM   10  N6  UNL     1       3.329   0.618  -0.858  1.00  0.00    -0.191 N 
HETATM   11  C12 UNL     1       5.686   0.701  -1.291  1.00  0.00     0.046 C 
ATOM     12  H6  UNL     1       3.038   1.387  -1.462  1.00  0.00     0.184 HD
ENDBRANCH   2   4
ENDBRANCH   1   2
BRANCH   1  13
HETATM   13  C5  UNL     1      -0.537   0.028   1.656  1.00  0.00     0.041 C 
BRANCH  13  14
HETATM   14  C6  UNL     1      -1.508   0.978   1.097  1.00  0.00     0.143 C 
BRANCH  14  15
HETATM   15  N3  UNL     1      -2.521   0.502   0.222  1.00  0.00    -0.218 N 
HETATM   16  C7  UNL     1      -2.374   0.033  -1.127  1.00  0.00     0.143 C 
HETATM   17  C8  UNL     1      -3.418  -1.008  -1.496  1.00  0.00     0.041 C 
HETATM   18  C9  UNL     1      -4.817  -0.426  -1.406  1.00  0.00     0.139 C 
HETATM   19  N4  UNL     1      -4.948   0.386  -0.209  1.00  0.00    -0.227 N 
HETATM   20  C10 UNL     1      -3.877   0.463   0.735  1.00  0.00     0.669 C 
ATOM     21  H4  UNL     1      -5.810   0.905  -0.041  1.00  0.00     0.177 HD
HETATM   22  N5  UNL     1      -4.173   0.478   1.974  1.00  0.00    -0.235 N 
ATOM     23  H52 UNL     1      -3.409   0.533   2.647  1.00  0.00     0.174 HD
ATOM     24  H51 UNL     1      -5.127   0.451   2.335  1.00  0.00     0.174 HD
ENDBRANCH  14  15
ENDBRANCH  13  14
ENDBRANCH   1  13
TORSDOF 5
