REMARK  10 active torsions:
REMARK  status: ('A' for Active; 'I' for Inactive)
REMARK    1  A    between atoms: C2_2  and  C3_3 
REMARK    2  A    between atoms: C7_15  and  C8_16 
REMARK    3  A    between atoms: C8_16  and  C9_17 
REMARK    4  A    between atoms: C8_16  and  C10_20 
REMARK    5  A    between atoms: C9_17  and  O2_18 
REMARK    6  A    between atoms: C10_20  and  N4_21 
REMARK    7  A    between atoms: N4_21  and  C11_23 
REMARK    8  A    between atoms: C11_23  and  N5_25 
REMARK    9  A    between atoms: N5_25  and  C12_27 
REMARK   10  A    between atoms: C15_32  and  O3_33 
ROOT
HETATM    1  C3  UNL     1      -4.314   0.041  -0.072  1.00  0.00     0.159 C 
HETATM    2  N1  UNL     1      -4.260  -0.390   1.277  1.00  0.00    -0.348 N 
ATOM      3  H1  UNL     1      -4.970  -1.052   1.590  1.00  0.00     0.163 HD
HETATM    4  C4  UNL     1      -3.304   0.026   2.212  1.00  0.00     0.235 C 
HETATM    5  O1  UNL     1      -2.781  -0.836   3.003  1.00  0.00    -0.272 OA
HETATM    6  C5  UNL     1      -2.825   1.416   2.378  1.00  0.00     0.224 C 
HETATM    7  N2  UNL     1      -1.398   1.330   2.603  1.00  0.00    -0.366 N 
ATOM      8  H2  UNL     1      -0.997   1.824   3.400  1.00  0.00     0.161 HD
HETATM    9  C6  UNL     1      -0.544   0.592   1.766  1.00  0.00     0.122 C 
HETATM   10  N3  UNL     1       0.439  -0.026   2.330  1.00  0.00    -0.384 N 
ATOM     11  H31 UNL     1       1.059  -0.562   1.722  1.00  0.00     0.157 HD
ATOM     12  H32 UNL     1       0.527   0.039   3.344  1.00  0.00     0.157 HD
HETATM   13  C7  UNL     1      -0.669   0.499   0.321  1.00  0.00     0.083 C 
HETATM   14  N6  UNL     1      -1.847   0.896  -0.330  1.00  0.00    -0.336 N 
ATOM     15  H6  UNL     1      -1.791   1.887  -0.567  1.00  0.00     0.168 HD
HETATM   16  C15 UNL     1      -3.058   0.383  -0.755  1.00  0.00     0.139 C 
ENDROOT
BRANCH  13  17
HETATM   17  C8  UNL     1       0.038  -0.662  -0.339  1.00  0.00    -0.009 C 
BRANCH  17  18
HETATM   18  C9  UNL     1      -0.362  -2.018   0.110  1.00  0.00     0.202 C 
BRANCH  18  19
HETATM   19  O2  UNL     1      -1.698  -2.345  -0.095  1.00  0.00    -0.397 OA
ATOM     20  H2  UNL     1      -1.954  -3.213   0.193  1.00  0.00     0.209 HD
ENDBRANCH  18  19
ENDBRANCH  17  18
BRANCH  17  21
HETATM   21  C10 UNL     1       1.513  -0.440  -0.518  1.00  0.00     0.161 C 
BRANCH  21  22
HETATM   22  N4  UNL     1       2.219  -1.503  -1.161  1.00  0.00    -0.363 N 
ATOM     23  H4  UNL     1       1.729  -2.332  -1.499  1.00  0.00     0.162 HD
BRANCH  22  24
HETATM   24  C11 UNL     1       3.629  -1.368  -1.315  1.00  0.00     0.168 C 
HETATM   25  S1  UNL     1       4.445  -2.577  -2.054  1.00  0.00    -0.041 SA
BRANCH  24  26
HETATM   26  N5  UNL     1       4.313  -0.218  -0.847  1.00  0.00    -0.363 N 
ATOM     27  H5  UNL     1       3.805   0.539  -0.390  1.00  0.00     0.162 HD
BRANCH  26  28
HETATM   28  C12 UNL     1       5.751  -0.140  -1.032  1.00  0.00     0.075 C 
HETATM   29  C13 UNL     1       6.303   1.156  -0.476  1.00  0.00     0.032 C 
HETATM   30  C14 UNL     1       6.365  -1.291  -0.270  1.00  0.00     0.032 C 
ENDBRANCH  26  28
ENDBRANCH  24  26
ENDBRANCH  22  24
ENDBRANCH  21  22
ENDBRANCH  17  21
ENDBRANCH  13  17
BRANCH  16  31
HETATM   31  O3  UNL     1      -3.148   0.137  -2.049  1.00  0.00    -0.348 OA
ATOM     32  H3  UNL     1      -2.336   0.358  -2.490  1.00  0.00     0.219 HD
ENDBRANCH  16  31
BRANCH   1  33
HETATM   33  C2  UNL     1      -5.363   1.156  -0.270  1.00  0.00     0.029 C 
HETATM   34  C1  UNL     1      -5.403   1.598  -1.707  1.00  0.00     0.007 C 
ENDBRANCH   1  33
TORSDOF 10
