REMARK  9 active torsions:
REMARK  status: ('A' for Active; 'I' for Inactive)
REMARK    1  A    between atoms: N1_2  and  C2_3 
REMARK    2  A    between atoms: C2_3  and  C3_4 
REMARK    3  A    between atoms: C3_4  and  C4_5 
REMARK    4  A    between atoms: C4_5  and  C5_6 
REMARK    5  A    between atoms: C5_6  and  N2_7 
REMARK       I    between atoms: N2_7  and  C6_9 
REMARK    6  A    between atoms: C6_9  and  C7_11 
REMARK    7  A    between atoms: C7_11  and  C8_12 
REMARK    8  A    between atoms: C8_12  and  C9_13 
REMARK    9  A    between atoms: C9_13  and  C10_14 
ROOT
HETATM    1  N2  UNL     1      -0.490  -2.200  -0.998  1.00  0.00    -0.361 N 
ATOM      2  H2  UNL     1      -0.842  -2.423  -1.929  1.00  0.00     0.162 HD
HETATM    3  C6  UNL     1       0.894  -1.952  -0.831  1.00  0.00     0.217 C 
HETATM    4  O1  UNL     1       1.307  -1.685   0.324  1.00  0.00    -0.274 OA
ENDROOT
BRANCH   1   5
HETATM    5  C5  UNL     1      -1.407  -2.149   0.089  1.00  0.00     0.122 C 
BRANCH   5   6
HETATM    6  C4  UNL     1      -1.550  -0.846   0.793  1.00  0.00     0.021 C 
BRANCH   6   7
HETATM    7  C3  UNL     1      -1.996   0.288  -0.051  1.00  0.00     0.029 C 
BRANCH   7   8
HETATM    8  C2  UNL     1      -3.303   0.226  -0.717  1.00  0.00     0.237 C 
BRANCH   8   9
HETATM    9  N1  UNL     1      -4.497   0.141   0.012  1.00  0.00    -0.071 N 
HETATM   10  C1  UNL     1      -5.197  -1.100  -0.274  1.00  0.00     0.272 C 
HETATM   11  C16 UNL     1      -5.400   1.180  -0.519  1.00  0.00     0.237 C 
HETATM   12  C17 UNL     1      -6.376   1.489   0.561  1.00  0.00     0.029 C 
HETATM   13  C18 UNL     1      -5.711   1.087   1.844  1.00  0.00     0.029 C 
HETATM   14  C19 UNL     1      -4.467   0.325   1.424  1.00  0.00     0.237 C 
ENDBRANCH   8   9
ENDBRANCH   7   8
ENDBRANCH   6   7
ENDBRANCH   5   6
ENDBRANCH   1   5
BRANCH   3  15
HETATM   15  C7  UNL     1       1.851  -1.994  -1.945  1.00  0.00     0.103 C 
BRANCH  15  16
HETATM   16  C8  UNL     1       3.190  -1.483  -1.523  1.00  0.00     0.010 C 
BRANCH  16  17
HETATM   17  C9  UNL     1       3.162  -0.041  -1.130  1.00  0.00     0.005 C 
BRANCH  17  18
HETATM   18  C10 UNL     1       4.561   0.401  -0.722  1.00  0.00    -0.014 C 
HETATM   19  C11 UNL     1       4.463   1.855  -0.343  1.00  0.00     0.004 C 
HETATM   20  C12 UNL     1       5.643   2.377   0.416  1.00  0.00     0.000 C 
HETATM   21  C13 UNL     1       5.844   1.506   1.649  1.00  0.00     0.000 C 
HETATM   22  C14 UNL     1       6.187   0.126   1.188  1.00  0.00     0.000 C 
HETATM   23  C15 UNL     1       5.025  -0.440   0.416  1.00  0.00     0.004 C 
ENDBRANCH  17  18
ENDBRANCH  16  17
ENDBRANCH  15  16
ENDBRANCH   3  15
TORSDOF 9
