REMARK  1 active torsions:
REMARK  status: ('A' for Active; 'I' for Inactive)
REMARK    1  A    between atoms: C2_4  and  C3_5 
ROOT
HETATM    1  C3  UNL     1       0.890  -0.591   0.221  1.00  0.00     0.077 C 
HETATM    2  C4  UNL     1       0.230  -0.009   1.442  1.00  0.00     0.284 C 
HETATM    3  N1  UNL     1      -1.203   0.135   1.204  1.00  0.00     0.089 N 
HETATM    4  C5  UNL     1      -1.459   1.217   0.279  1.00  0.00     0.273 C 
HETATM    5  C6  UNL     1      -0.664   0.987  -0.983  1.00  0.00     0.036 C 
HETATM    6  C7  UNL     1      -0.034  -0.386  -0.958  1.00  0.00     0.001 C 
HETATM    7  C8  UNL     1      -1.194  -1.370  -0.750  1.00  0.00     0.036 C 
HETATM    8  C9  UNL     1      -1.729  -1.084   0.637  1.00  0.00     0.273 C 
ENDROOT
BRANCH   1   9
HETATM    9  C2  UNL     1       2.255  -0.035  -0.015  1.00  0.00     0.077 A 
HETATM   10  C1  UNL     1       2.665   1.256  -0.207  1.00  0.00     0.109 A 
HETATM   11  S1  UNL     1       4.246   0.705  -0.351  1.00  0.00     0.026 SA
HETATM   12  O1  UNL     1       3.415  -0.681  -0.094  1.00  0.00    -0.278 OA
ENDBRANCH   1   9
TORSDOF 1
