REMARK  8 active torsions:
REMARK  status: ('A' for Active; 'I' for Inactive)
REMARK    1  A    between atoms: C1_4  and  N2_5 
REMARK    2  A    between atoms: C1_4  and  O1_10 
REMARK    3  A    between atoms: N2_5  and  N3_7 
REMARK    4  A    between atoms: O1_10  and  C2_11 
REMARK    5  A    between atoms: C3_12  and  O2_13 
REMARK    6  A    between atoms: C5_20  and  C6_21 
REMARK    7  A    between atoms: C7_24  and  N6_25 
REMARK    8  A    between atoms: C9_27  and  C10_28 
ROOT
HETATM    1  C2  UNL     1      -0.910  -0.394   0.811  1.00  0.00     0.196 C 
HETATM    2  C3  UNL     1      -2.160  -1.283   0.866  1.00  0.00     0.224 C 
HETATM    3  C4  UNL     1      -1.633  -2.652   1.025  1.00  0.00     0.144 C 
HETATM    4  N4  UNL     1      -2.354  -3.604   1.474  1.00  0.00    -0.381 N 
ATOM      5  H41 UNL     1      -1.990  -4.550   1.584  1.00  0.00     0.158 HD
ATOM      6  H42 UNL     1      -3.323  -3.419   1.733  1.00  0.00     0.158 HD
HETATM    7  O3  UNL     1      -0.330  -2.901   0.677  1.00  0.00    -0.320 OA
HETATM    8  C5  UNL     1       0.260  -2.179  -0.376  1.00  0.00     0.246 C 
HETATM    9  C7  UNL     1      -0.158  -0.724  -0.430  1.00  0.00     0.179 C 
ENDROOT
BRANCH   1  10
HETATM   10  O1  UNL     1      -1.173   0.936   1.042  1.00  0.00    -0.310 OA
BRANCH  10  11
HETATM   11  C1  UNL     1      -2.001   1.770   0.319  1.00  0.00     0.232 C 
HETATM   12  N1  UNL     1      -2.453   1.258  -0.776  1.00  0.00    -0.364 N 
ATOM     13  H12 UNL     1      -3.065   1.875  -1.310  1.00  0.00     0.159 HD
ATOM     14  H11 UNL     1      -2.216   0.314  -1.080  1.00  0.00     0.159 HD
BRANCH  11  15
HETATM   15  N2  UNL     1      -2.333   3.090   0.744  1.00  0.00    -0.272 N 
ATOM     16  H2  UNL     1      -3.267   3.250   1.120  1.00  0.00     0.190 HD
BRANCH  15  17
HETATM   17  N3  UNL     1      -1.470   4.163   0.678  1.00  0.00    -0.342 N 
ATOM     18  H32 UNL     1      -0.540   3.984   0.299  1.00  0.00     0.176 HD
ATOM     19  H31 UNL     1      -1.707   5.107   0.982  1.00  0.00     0.176 HD
ENDBRANCH  15  17
ENDBRANCH  11  15
ENDBRANCH  10  11
ENDBRANCH   1  10
BRANCH   2  20
HETATM   20  O2  UNL     1      -2.977  -0.910   1.930  1.00  0.00    -0.385 OA
ATOM     21  H2  UNL     1      -3.751  -1.460   1.964  1.00  0.00     0.210 HD
ENDBRANCH   2  20
BRANCH   9  22
HETATM   22  N6  UNL     1       1.032   0.102  -0.459  1.00  0.00    -0.276 N 
HETATM   23  C8  UNL     1       2.145  -0.023   0.276  1.00  0.00     0.148 A 
HETATM   24  C9  UNL     1       3.028   0.979  -0.077  1.00  0.00     0.131 A 
HETATM   25  N8  UNL     1       2.390   1.681  -1.033  1.00  0.00    -0.280 N 
HETATM   26  N9  UNL     1       1.215   1.147  -1.242  1.00  0.00    -0.240 N 
ATOM     27  H8  UNL     1       2.763   2.498  -1.516  1.00  0.00     0.188 HD
ATOM     28  H9  UNL     1       0.533   1.492  -1.918  1.00  0.00     0.208 HD
BRANCH  24  29
HETATM   29  C10 UNL     1       4.360   1.233   0.460  1.00  0.00     0.284 C 
HETATM   30  N7  UNL     1       5.090   2.332  -0.060  1.00  0.00    -0.056 NA
HETATM   31  O5  UNL     1       4.837   0.495   1.355  1.00  0.00    -0.269 OA
ENDBRANCH  24  29
ENDBRANCH   9  22
BRANCH   8  32
HETATM   32  C6  UNL     1      -0.099  -2.903  -1.642  1.00  0.00     0.263 C 
HETATM   33  N5  UNL     1       0.363  -2.399  -2.885  1.00  0.00    -0.060 NA
HETATM   34  O4  UNL     1      -0.795  -3.944  -1.656  1.00  0.00    -0.274 OA
ENDBRANCH   8  32
TORSDOF 8
