REMARK  12 active torsions:
REMARK  status: ('A' for Active; 'I' for Inactive)
REMARK    1  A    between atoms: N1_1  and  C1_4 
REMARK    2  A    between atoms: C2_5  and  C3_6 
REMARK       I    between atoms: C3_6  and  N2_8 
REMARK    3  A    between atoms: N2_8  and  N3_10 
REMARK       I    between atoms: N3_10  and  C4_11 
REMARK    4  A    between atoms: C4_11  and  C5_13 
REMARK    5  A    between atoms: C6_15  and  C7_16 
REMARK    6  A    between atoms: C7_16  and  O4_17 
REMARK    7  A    between atoms: C8_19  and  C9_20 
REMARK    8  A    between atoms: C9_20  and  N4_21 
REMARK    9  A    between atoms: C9_20  and  O5_25 
REMARK   10  A    between atoms: C11_29  and  C12_30 
REMARK   11  A    between atoms: C12_30  and  O7_31 
REMARK   12  A    between atoms: C12_30  and  O8_33 
ROOT
HETATM    1  C5  UNL     1      -0.351  -0.738   0.892  1.00  0.00     0.174 A 
HETATM    2  O3  UNL     1      -0.621   0.559   0.832  1.00  0.00    -0.304 OA
HETATM    3  C6  UNL     1      -1.690   1.108   0.336  1.00  0.00     0.091 A 
HETATM    4  C8  UNL     1      -2.632   0.235  -0.179  1.00  0.00     0.080 A 
HETATM    5  C10 UNL     1      -2.411  -1.120  -0.156  1.00  0.00     0.199 A 
HETATM    6  O6  UNL     1      -3.248  -1.945  -0.632  1.00  0.00    -0.287 OA
HETATM    7  C11 UNL     1      -1.249  -1.663   0.389  1.00  0.00     0.087 A 
ENDROOT
BRANCH   1   8
HETATM    8  C4  UNL     1       0.906  -1.199   1.498  1.00  0.00     0.370 C 
HETATM    9  N3  UNL     1       2.176  -0.832   1.169  1.00  0.00    -0.276 NA
HETATM   10  O2  UNL     1       0.668  -2.049   2.445  1.00  0.00    -0.247 OA
BRANCH   9  11
HETATM   11  N2  UNL     1       3.407  -0.480   0.856  1.00  0.00    -0.188 N 
HETATM   12  C3  UNL     1       3.754   0.763   0.156  1.00  0.00     0.327 C 
HETATM   13  O1  UNL     1       2.856   1.524  -0.177  1.00  0.00    -0.255 OA
ATOM     14  H2  UNL     1       4.166  -1.110   1.116  1.00  0.00     0.206 HD
BRANCH  12  15
HETATM   15  C2  UNL     1       5.175   0.998  -0.100  1.00  0.00     0.020 C 
HETATM   16  C1  UNL     1       6.358   1.175  -0.324  1.00  0.00     0.013 C 
BRANCH  16  17
HETATM   17  N1  UNL     1       7.639   1.311  -0.636  1.00  0.00    -0.359 N 
ATOM     18  H12 UNL     1       7.277   0.651  -1.324  1.00  0.00     0.166 HD
ATOM     19  H11 UNL     1       8.631   1.459  -0.824  1.00  0.00     0.166 HD
ENDBRANCH  16  17
ENDBRANCH  12  15
ENDBRANCH   9  11
ENDBRANCH   1   8
BRANCH   7  20
HETATM   20  C12 UNL     1      -1.002  -3.104   0.364  1.00  0.00     0.295 C 
BRANCH  20  21
HETATM   21  O7  UNL     1      -2.152  -3.711   0.873  1.00  0.00    -0.367 OA
ATOM     22  H7  UNL     1      -1.992  -4.647   0.857  1.00  0.00     0.213 HD
ENDBRANCH  20  21
BRANCH  20  23
HETATM   23  O8  UNL     1      -0.783  -3.556  -0.974  1.00  0.00    -0.367 OA
ATOM     24  H8  UNL     1      -0.623  -4.492  -0.990  1.00  0.00     0.213 HD
ENDBRANCH  20  23
ENDBRANCH   7  20
BRANCH   3  25
HETATM   25  C7  UNL     1      -1.825   2.575   0.353  1.00  0.00     0.230 C 
BRANCH  25  26
HETATM   26  O4  UNL     1      -0.667   3.182   0.892  1.00  0.00    -0.394 OA
ATOM     27  H4  UNL     1      -0.754   4.128   0.903  1.00  0.00     0.209 HD
ENDBRANCH  25  26
ENDBRANCH   3  25
BRANCH   4  28
HETATM   28  C9  UNL     1      -3.893   0.758  -0.710  1.00  0.00     0.357 C 
BRANCH  28  29
HETATM   29  N4  UNL     1      -3.836   1.906  -1.523  1.00  0.00    -0.049 N 
ATOM     30  H43 UNL     1      -3.349   2.649  -1.021  1.00  0.00     0.277 HD
ATOM     31  H42 UNL     1      -3.190   1.739  -2.295  1.00  0.00     0.277 HD
ATOM     32  H41 UNL     1      -4.714   2.270  -1.893  1.00  0.00     0.277 HD
ENDBRANCH  28  29
BRANCH  28  33
HETATM   33  O5  UNL     1      -4.887   0.775   0.298  1.00  0.00    -0.366 OA
ATOM     34  H5  UNL     1      -5.705   1.114  -0.046  1.00  0.00     0.212 HD
ENDBRANCH  28  33
ENDBRANCH   4  28
TORSDOF 12
