REMARK  0 active torsions:
REMARK  status: ('A' for Active; 'I' for Inactive)
ROOT
HETATM    1  C1  UNL     1      -2.255   0.359  -0.124  1.00  0.00     0.042 C 
HETATM    2  C2  UNL     1      -1.221  -0.435   0.636  1.00  0.00     0.147 C 
HETATM    3  C3  UNL     1      -0.336  -1.240  -0.276  1.00  0.00     0.034 C 
HETATM    4  C4  UNL     1       0.597  -0.426  -1.099  1.00  0.00     0.004 C 
HETATM    5  C5  UNL     1       1.868  -0.041  -0.380  1.00  0.00     0.022 C 
HETATM    6  C6  UNL     1       1.637   0.766   0.850  1.00  0.00     0.146 C 
HETATM    7  N1  UNL     1       0.298   1.224   1.031  1.00  0.00    -0.302 N 
ATOM      8  H1  UNL     1       0.017   2.174   0.789  1.00  0.00     0.187 HD
HETATM    9  O1  UNL     1      -0.553   0.355   1.526  1.00  0.00    -0.280 OA
ENDROOT
TORSDOF 0
