REMARK  11 active torsions:
REMARK  status: ('A' for Active; 'I' for Inactive)
REMARK    1  A    between atoms: C2_5  and  C3_6 
REMARK    2  A    between atoms: C3_6  and  C4_7 
REMARK    3  A    between atoms: C4_7  and  C5_8 
REMARK    4  A    between atoms: C5_8  and  C6_9 
REMARK    5  A    between atoms: C6_9  and  O2_10 
REMARK    6  A    between atoms: C12_17  and  C13_18 
REMARK    7  A    between atoms: C14_19  and  C15_20 
REMARK    8  A    between atoms: C15_20  and  C16_21 
REMARK    9  A    between atoms: C17_22  and  C18_23 
REMARK   10  A    between atoms: C18_23  and  C19_24 
REMARK   11  A    between atoms: C20_25  and  C21_26 
ROOT
HETATM    1  O1  UNL     1       3.458  -0.464  -2.175  1.00  0.00    -0.273 OA
HETATM    2  C1  UNL     1       3.956  -0.829  -1.087  1.00  0.00     0.222 C 
HETATM    3  N1  UNL     1       5.149  -1.594  -1.017  1.00  0.00    -0.356 N 
ATOM      4  H1  UNL     1       5.396  -2.261  -1.748  1.00  0.00     0.162 HD
HETATM    5  C2  UNL     1       5.999  -1.389   0.131  1.00  0.00     0.084 C 
HETATM    6  C7  UNL     1       5.774   0.036   0.560  1.00  0.00     0.030 C 
HETATM    7  C8  UNL     1       4.340   0.112   1.113  1.00  0.00     0.001 C 
HETATM    8  C9  UNL     1       4.142   1.552   1.491  1.00  0.00     0.010 C 
HETATM    9  C10 UNL     1       2.668   1.914   1.581  1.00  0.00    -0.013 C 
HETATM   10  C11 UNL     1       1.922   0.822   2.321  1.00  0.00     0.013 C 
HETATM   11  C12 UNL     1       1.203   0.010   1.321  1.00  0.00     0.013 C 
HETATM   12  C28 UNL     1       2.043   0.266   0.047  1.00  0.00     0.007 C 
HETATM   13  C29 UNL     1       2.169   1.766   0.143  1.00  0.00     0.011 C 
HETATM   14  C30 UNL     1       3.325  -0.481   0.220  1.00  0.00     0.086 C 
ENDROOT
BRANCH  11  15
HETATM   15  C13 UNL     1      -0.209   0.315   1.061  1.00  0.00    -0.025 C 
HETATM   16  C14 UNL     1      -0.874   1.225   1.710  1.00  0.00    -0.027 C 
BRANCH  16  17
HETATM   17  C15 UNL     1      -2.338   1.462   1.365  1.00  0.00     0.053 C 
BRANCH  17  18
HETATM   18  C16 UNL     1      -3.151   1.218   2.541  1.00  0.00    -0.027 C 
HETATM   19  C17 UNL     1      -4.096   0.406   2.852  1.00  0.00    -0.027 C 
BRANCH  19  20
HETATM   20  C18 UNL     1      -4.744  -0.650   2.079  1.00  0.00     0.053 C 
BRANCH  20  21
HETATM   21  C19 UNL     1      -4.307  -0.913   0.725  1.00  0.00    -0.027 C 
HETATM   22  C20 UNL     1      -5.053  -0.807  -0.352  1.00  0.00    -0.026 C 
BRANCH  22  23
HETATM   23  C21 UNL     1      -6.466  -0.395  -0.334  1.00  0.00     0.008 C 
HETATM   24  C22 UNL     1      -6.605   0.811  -1.267  1.00  0.00     0.008 C 
HETATM   25  C23 UNL     1      -7.644   1.774  -0.692  1.00  0.00     0.001 C 
HETATM   26  C24 UNL     1      -9.036   1.282  -1.072  1.00  0.00     0.000 C 
HETATM   27  C25 UNL     1      -9.238  -0.142  -0.608  1.00  0.00     0.000 C 
HETATM   28  C26 UNL     1      -8.552  -1.124  -1.523  1.00  0.00     0.001 C 
HETATM   29  C27 UNL     1      -7.264  -1.567  -0.923  1.00  0.00     0.008 C 
ENDBRANCH  22  23
ENDBRANCH  20  21
ENDBRANCH  19  20
ENDBRANCH  17  18
ENDBRANCH  16  17
ENDBRANCH  11  15
BRANCH   5  30
HETATM   30  C3  UNL     1       7.380  -1.764  -0.139  1.00  0.00     0.025 C 
BRANCH  30  31
HETATM   31  C4  UNL     1       8.214  -1.122  -1.140  1.00  0.00     0.004 C 
BRANCH  31  32
HETATM   32  C5  UNL     1       7.693  -1.182  -2.545  1.00  0.00     0.026 C 
BRANCH  32  33
HETATM   33  C6  UNL     1       8.761  -0.499  -3.441  1.00  0.00     0.164 C 
BRANCH  33  34
HETATM   34  O2  UNL     1       8.891   0.807  -2.987  1.00  0.00    -0.401 OA
ATOM     35  H2  UNL     1       9.545   1.225  -3.535  1.00  0.00     0.209 HD
ENDBRANCH  33  34
ENDBRANCH  32  33
ENDBRANCH  31  32
ENDBRANCH  30  31
ENDBRANCH   5  30
TORSDOF 11
