REMARK  4 active torsions:
REMARK  status: ('A' for Active; 'I' for Inactive)
REMARK    1  A    between atoms: C2_5  and  N2_6 
REMARK    2  A    between atoms: N2_6  and  C3_8 
REMARK    3  A    between atoms: C3_8  and  C4_9 
REMARK    4  A    between atoms: C4_9  and  N3_10 
ROOT
HETATM    1  C4  UNL     1      -0.444  -0.942   0.275  1.00  0.00     0.292 C 
ENDROOT
BRANCH   1   2
HETATM    2  C3  UNL     1      -0.818   0.128   1.248  1.00  0.00     0.168 C 
BRANCH   2   3
HETATM    3  N2  UNL     1      -2.181  -0.110   1.682  1.00  0.00    -0.224 N 
ATOM      4  H2  UNL     1      -2.314  -0.588   2.573  1.00  0.00     0.177 HD
BRANCH   3   5
HETATM    5  C2  UNL     1      -3.225   0.231   1.038  1.00  0.00     0.681 A 
HETATM    6  N1  UNL     1      -3.256   0.858  -0.130  1.00  0.00    -0.155 N 
HETATM    7  C1  UNL     1      -4.396   1.205  -0.785  1.00  0.00     0.272 A 
ATOM      8  H1  UNL     1      -2.365   1.096  -0.566  1.00  0.00     0.187 HD
HETATM    9  O1  UNL     1      -4.394   1.800  -1.893  1.00  0.00    -0.267 OA
HETATM   10  C24 UNL     1      -5.606   0.890  -0.207  1.00  0.00     0.061 A 
HETATM   11  C16 UNL     1      -5.575   0.241   1.000  1.00  0.00     0.066 A 
HETATM   12  C23 UNL     1      -6.791   1.216  -0.825  1.00  0.00     0.036 A 
HETATM   13  N7  UNL     1      -4.423  -0.083   1.614  1.00  0.00    -0.191 N 
HETATM   14  C17 UNL     1      -6.786  -0.074   1.579  1.00  0.00     0.051 A 
ATOM     15  H7  UNL     1      -4.444  -0.565   2.513  1.00  0.00     0.184 HD
HETATM   16  C18 UNL     1      -7.972   0.253   0.961  1.00  0.00     0.021 A 
HETATM   17  S1  UNL     1      -9.506  -0.122   1.649  1.00  0.00    -0.101 SA
HETATM   18  C22 UNL     1      -8.028   0.902  -0.250  1.00  0.00     0.032 A 
HETATM   19  C19 UNL     1     -10.810   0.392   0.684  1.00  0.00     0.054 A 
HETATM   20  C20 UNL     1     -10.455   1.026  -0.496  1.00  0.00     0.063 A 
HETATM   21  C21 UNL     1      -9.175   1.252  -0.907  1.00  0.00     0.183 A 
HETATM   22  O3  UNL     1      -9.046   1.854  -2.028  1.00  0.00    -0.288 OA
ENDBRANCH   3   5
ENDBRANCH   2   3
ENDBRANCH   1   2
BRANCH   1  23
HETATM   23  N3  UNL     1       0.903  -0.818  -0.236  1.00  0.00     0.091 N 
HETATM   24  C5  UNL     1       1.072   0.338  -1.085  1.00  0.00     0.274 C 
HETATM   25  C6  UNL     1       2.396   0.964  -0.807  1.00  0.00     0.057 C 
HETATM   26  C7  UNL     1       2.337   2.388  -0.322  1.00  0.00     0.234 C 
HETATM   27  N4  UNL     1       3.728   2.740   0.016  1.00  0.00    -0.073 N 
HETATM   28  C8  UNL     1       4.101   2.331   1.332  1.00  0.00     0.258 C 
ATOM     29  H42 UNL     1       4.377   2.370  -0.678  1.00  0.00     0.277 HD
ATOM     30  H41 UNL     1       3.894   3.738  -0.117  1.00  0.00     0.277 HD
HETATM   31  C9  UNL     1       5.230   1.348   1.406  1.00  0.00     0.195 C 
HETATM   32  O2  UNL     1       6.285   1.600   0.569  1.00  0.00    -0.388 OA
HETATM   33  C10 UNL     1       6.376   0.810  -0.549  1.00  0.00     0.195 C 
HETATM   34  C11 UNL     1       6.466  -0.663  -0.293  1.00  0.00     0.258 C 
HETATM   35  N5  UNL     1       5.559  -1.405  -1.155  1.00  0.00    -0.072 N 
HETATM   36  C12 UNL     1       5.670  -2.824  -0.926  1.00  0.00     0.251 C 
ATOM     37  H52 UNL     1       4.597  -1.082  -1.054  1.00  0.00     0.277 HD
ATOM     38  H51 UNL     1       5.699  -1.171  -2.138  1.00  0.00     0.277 HD
HETATM   39  C13 UNL     1       4.533  -3.426  -0.173  1.00  0.00     0.141 C 
HETATM   40  N6  UNL     1       3.376  -2.619  -0.020  1.00  0.00    -0.418 N 
HETATM   41  C14 UNL     1       2.655  -2.279  -1.193  1.00  0.00     0.144 C 
ATOM     42  H6  UNL     1       3.074  -2.296   0.899  1.00  0.00     0.153 HD
HETATM   43  C15 UNL     1       1.200  -2.061  -0.905  1.00  0.00     0.291 C 
ENDBRANCH   1  23
TORSDOF 4
