REMARK  7 active torsions:
REMARK  status: ('A' for Active; 'I' for Inactive)
REMARK    1  A    between atoms: C2_2  and  O1_3 
REMARK    2  A    between atoms: O1_3  and  C3_4 
REMARK    3  A    between atoms: C3_4  and  C4_6 
REMARK    4  A    between atoms: C5_10  and  N2_11 
REMARK    5  A    between atoms: N2_11  and  C6_13 
REMARK    6  A    between atoms: C9_17  and  N3_18 
REMARK    7  A    between atoms: N3_18  and  N4_19 
ROOT
HETATM    1  C4  UNL     1      -0.791  -0.186  -0.143  1.00  0.00     0.160 A 
HETATM    2  N1  UNL     1      -0.490   1.000   0.394  1.00  0.00    -0.317 N 
ATOM      3  H1  UNL     1      -1.131   1.712   0.744  1.00  0.00     0.175 HD
HETATM    4  S1  UNL     1       1.185   1.048   0.359  1.00  0.00     0.008 SA
HETATM    5  C5  UNL     1       1.489  -0.473  -0.352  1.00  0.00     0.135 A 
HETATM    6  C9  UNL     1       0.230  -0.965  -0.536  1.00  0.00     0.198 A 
ENDROOT
BRANCH   5   7
HETATM    7  N2  UNL     1       2.634  -1.038  -0.652  1.00  0.00    -0.346 N 
ATOM      8  H2  UNL     1       2.652  -1.964  -1.078  1.00  0.00     0.163 HD
BRANCH   7   9
HETATM    9  C6  UNL     1       3.870  -0.343  -0.376  1.00  0.00     0.169 C 
HETATM   10  C7  UNL     1       4.288  -0.431   1.067  1.00  0.00     0.076 C 
HETATM   11  C8  UNL     1       3.860   1.092  -0.850  1.00  0.00     0.076 C 
HETATM   12  F1  UNL     1       4.859  -0.987  -1.132  1.00  0.00    -0.220 F 
ENDBRANCH   7   9
ENDBRANCH   5   7
BRANCH   6  13
HETATM   13  N3  UNL     1       0.048  -2.238  -1.117  1.00  0.00    -0.328 NA
BRANCH  13  14
HETATM   14  N4  UNL     1      -0.083  -3.265  -1.592  1.00  0.00    -0.280 N 
ATOM     15  H42 UNL     1       0.591  -2.509  -1.471  1.00  0.00     0.191 HD
ATOM     16  H41 UNL     1      -0.215  -4.185  -2.012  1.00  0.00     0.191 HD
ENDBRANCH  13  14
ENDBRANCH   6  13
BRANCH   1  17
HETATM   17  C3  UNL     1      -2.233  -0.561  -0.267  1.00  0.00     0.314 C 
HETATM   18  O2  UNL     1      -2.577  -1.670  -0.766  1.00  0.00    -0.257 OA
BRANCH  17  19
HETATM   19  O1  UNL     1      -3.242   0.260   0.144  1.00  0.00    -0.317 OA
BRANCH  19  20
HETATM   20  C2  UNL     1      -4.610  -0.046   0.049  1.00  0.00     0.175 C 
HETATM   21  C1  UNL     1      -5.474   1.062   0.588  1.00  0.00     0.034 C 
ENDBRANCH  19  20
ENDBRANCH  17  19
ENDBRANCH   1  17
TORSDOF 7
