REMARK  8 active torsions:
REMARK  status: ('A' for Active; 'I' for Inactive)
REMARK    1  A    between atoms: N1_1  and  C1_5 
REMARK    2  A    between atoms: C1_5  and  C2_6 
REMARK    3  A    between atoms: C2_6  and  N2_7 
REMARK    4  A    between atoms: N2_7  and  C3_9 
REMARK    5  A    between atoms: C6_14  and  N4_15 
REMARK    6  A    between atoms: N4_15  and  C7_17 
REMARK    7  A    between atoms: C7_17  and  C8_18 
REMARK    8  A    between atoms: C8_18  and  N5_19 
ROOT
HETATM    1  C3  UNL     1       1.053  -0.491  -0.216  1.00  0.00     0.118 A 
HETATM    2  C4  UNL     1       1.036  -0.490   1.169  1.00  0.00     0.066 A 
HETATM    3  C5  UNL     1      -0.070   0.017   1.818  1.00  0.00     0.110 A 
HETATM    4  N3  UNL     1      -1.115   0.503   1.124  1.00  0.00    -0.202 N 
ATOM      5  H3  UNL     1      -1.924   0.876   1.620  1.00  0.00     0.183 HD
HETATM    6  C6  UNL     1      -1.098   0.500  -0.207  1.00  0.00     0.679 A 
HETATM    7  N6  UNL     1      -0.017   0.005  -0.844  1.00  0.00    -0.177 N 
ATOM      8  H6  UNL     1      -0.016   0.010  -1.864  1.00  0.00     0.185 HD
ENDROOT
BRANCH   1   9
HETATM    9  N2  UNL     1       2.071  -0.958  -0.882  1.00  0.00    -0.374 N 
ATOM     10  H2  UNL     1       2.030  -0.935  -1.901  1.00  0.00     0.161 HD
BRANCH   9  11
HETATM   11  C2  UNL     1       3.243  -1.501  -0.265  1.00  0.00     0.148 C 
BRANCH  11  12
HETATM   12  C1  UNL     1       4.249  -0.450   0.146  1.00  0.00     0.249 C 
BRANCH  12  13
HETATM   13  N1  UNL     1       4.668   0.283  -1.030  1.00  0.00    -0.078 N 
ATOM     14  H13 UNL     1       5.023  -0.330  -1.764  1.00  0.00     0.274 HD
ATOM     15  H12 UNL     1       3.880   0.678  -1.543  1.00  0.00     0.274 HD
ATOM     16  H11 UNL     1       5.347   0.992  -0.753  1.00  0.00     0.274 HD
ENDBRANCH  12  13
ENDBRANCH  11  12
ENDBRANCH   9  11
ENDBRANCH   1   9
BRANCH   6  17
HETATM   17  N4  UNL     1      -2.106   0.968  -0.861  1.00  0.00    -0.224 N 
ATOM     18  H4  UNL     1      -2.044   0.943  -1.879  1.00  0.00     0.177 HD
BRANCH  17  19
HETATM   19  C7  UNL     1      -3.295   1.515  -0.305  1.00  0.00     0.165 C 
BRANCH  19  20
HETATM   20  C8  UNL     1      -4.321   0.472   0.069  1.00  0.00     0.249 C 
BRANCH  20  21
HETATM   21  N5  UNL     1      -4.753  -0.316  -1.040  1.00  0.00    -0.078 N 
ATOM     22  H53 UNL     1      -5.098   0.278  -1.794  1.00  0.00     0.274 HD
ATOM     23  H52 UNL     1      -3.957  -0.744  -1.513  1.00  0.00     0.274 HD
ATOM     24  H51 UNL     1      -5.446  -1.020  -0.787  1.00  0.00     0.274 HD
ENDBRANCH  20  21
ENDBRANCH  19  20
ENDBRANCH  17  19
ENDBRANCH   6  17
TORSDOF 8
