REMARK  10 active torsions:
REMARK  status: ('A' for Active; 'I' for Inactive)
REMARK    1  A    between atoms: C2_3  and  N2_4 
REMARK    2  A    between atoms: N2_4  and  C3_6 
REMARK    3  A    between atoms: C3_6  and  C4_7 
REMARK    4  A    between atoms: C4_7  and  C5_8 
REMARK    5  A    between atoms: C4_7  and  C6_17 
REMARK    6  A    between atoms: C5_8  and  N3_9 
REMARK    7  A    between atoms: C5_8  and  N4_13 
REMARK    8  A    between atoms: C6_17  and  N5_18 
REMARK    9  A    between atoms: C6_17  and  C7_22 
REMARK   10  A    between atoms: C8_27  and  N8_28 
ROOT
HETATM    1  C3  UNL     1      -0.731   0.881   0.510  1.00  0.00     0.149 C 
ENDROOT
BRANCH   1   2
HETATM    2  N2  UNL     1       0.122  -0.212   0.551  1.00  0.00    -0.225 N 
ATOM      3  H2  UNL     1      -0.380  -1.040   0.871  1.00  0.00     0.177 HD
BRANCH   2   4
HETATM    4  C2  UNL     1       1.304  -0.492   0.319  1.00  0.00     0.683 A 
HETATM    5  N1  UNL     1       2.276   0.318  -0.116  1.00  0.00    -0.170 N 
HETATM    6  C1  UNL     1       2.012   1.720  -0.374  1.00  0.00     0.177 C 
HETATM    7  C11 UNL     1       3.552  -0.114  -0.340  1.00  0.00     0.154 A 
HETATM    8  C9  UNL     1       3.859  -1.422  -0.114  1.00  0.00     0.123 A 
HETATM    9  N10 UNL     1       4.674   0.477  -0.763  1.00  0.00    -0.336 N 
HETATM   10  C8  UNL     1       2.885  -2.279   0.333  1.00  0.00     0.145 A 
HETATM   11  N9  UNL     1       5.178  -1.635  -0.400  1.00  0.00    -0.346 N 
HETATM   12  N7  UNL     1       1.673  -1.802   0.529  1.00  0.00    -0.175 N 
ATOM     13  H7  UNL     1       0.957  -2.449   0.860  1.00  0.00     0.186 HD
HETATM   14  C10 UNL     1       5.658  -0.448  -0.798  1.00  0.00     0.182 A 
ATOM     15  H9  UNL     1       5.691  -2.514  -0.326  1.00  0.00     0.167 HD
ATOM     16  H10 UNL     1       4.771   1.460  -1.017  1.00  0.00     0.168 HD
BRANCH  10  17
HETATM   17  N8  UNL     1       3.149  -3.526   0.555  1.00  0.00    -0.383 N 
ATOM     18  H82 UNL     1       2.425  -4.163   0.887  1.00  0.00     0.157 HD
ATOM     19  H81 UNL     1       4.088  -3.895   0.403  1.00  0.00     0.157 HD
ENDBRANCH  10  17
ENDBRANCH   2   4
ENDBRANCH   1   2
BRANCH   1  20
HETATM   20  C4  UNL     1      -2.209   0.504   0.662  1.00  0.00     0.101 C 
BRANCH  20  21
HETATM   21  C5  UNL     1      -3.021   1.766   0.602  1.00  0.00     0.386 C 
BRANCH  21  22
HETATM   22  N3  UNL     1      -2.839   2.458  -0.640  1.00  0.00    -0.050 N 
ATOM     23  H33 UNL     1      -1.852   2.642  -0.821  1.00  0.00     0.276 HD
ATOM     24  H32 UNL     1      -3.037   1.851  -1.436  1.00  0.00     0.276 HD
ATOM     25  H31 UNL     1      -3.390   3.315  -0.681  1.00  0.00     0.276 HD
ENDBRANCH  21  22
BRANCH  21  26
HETATM   26  N4  UNL     1      -4.420   1.461   0.876  1.00  0.00    -0.050 N 
ATOM     27  H43 UNL     1      -4.785   0.739   0.255  1.00  0.00     0.276 HD
ATOM     28  H42 UNL     1      -4.540   0.968   1.761  1.00  0.00     0.276 HD
ATOM     29  H41 UNL     1      -4.971   2.318   0.835  1.00  0.00     0.276 HD
ENDBRANCH  21  26
ENDBRANCH  20  21
BRANCH  20  30
HETATM   30  C6  UNL     1      -2.654  -0.474  -0.380  1.00  0.00     0.281 C 
BRANCH  30  31
HETATM   31  N5  UNL     1      -2.460   0.123  -1.679  1.00  0.00    -0.066 N 
ATOM     32  H53 UNL     1      -2.923   1.028  -1.768  1.00  0.00     0.275 HD
ATOM     33  H52 UNL     1      -1.502   0.442  -1.825  1.00  0.00     0.275 HD
ATOM     34  H51 UNL     1      -2.763  -0.543  -2.389  1.00  0.00     0.275 HD
ENDBRANCH  30  31
BRANCH  30  35
HETATM   35  C7  UNL     1      -2.046  -1.805  -0.260  1.00  0.00     0.262 C 
HETATM   36  N6  UNL     1      -2.143  -2.508   0.961  1.00  0.00    -0.060 NA
HETATM   37  O1  UNL     1      -1.446  -2.311  -1.232  1.00  0.00    -0.275 OA
ENDBRANCH  30  35
ENDBRANCH  20  30
ENDBRANCH   1  20
TORSDOF 10
