REMARK  13 active torsions:
REMARK  status: ('A' for Active; 'I' for Inactive)
REMARK    1  A    between atoms: N1_2  and  C2_4 
REMARK    2  A    between atoms: C3_5  and  O1_6 
REMARK    3  A    between atoms: C4_8  and  C5_9 
REMARK    4  A    between atoms: N2_12  and  C6_13 
REMARK    5  A    between atoms: C6_13  and  S1_14 
REMARK    6  A    between atoms: S1_14  and  C7_15 
REMARK    7  A    between atoms: C7_15  and  C8_16 
REMARK    8  A    between atoms: N3_18  and  N4_20 
REMARK       I    between atoms: N4_20  and  C10_21 
REMARK    9  A    between atoms: C10_21  and  C11_23 
REMARK   10  A    between atoms: C11_23  and  S2_24 
REMARK   11  A    between atoms: S2_24  and  C12_25 
REMARK   12  A    between atoms: C18_37  and  O6_38 
REMARK   13  A    between atoms: N9_43  and  S4_44 
ROOT
HETATM    1  C8  UNL     1      -1.041   0.173  -0.009  1.00  0.00     0.022 C 
HETATM    2  C9  UNL     1      -2.126   1.097   0.302  1.00  0.00     0.066 C 
HETATM    3  N3  UNL     1       0.067   0.718  -0.452  1.00  0.00    -0.240 N 
ATOM      4  H3  UNL     1       0.119   1.734  -0.525  1.00  0.00     0.201 HD
ENDROOT
BRANCH   1   5
HETATM    5  C7  UNL     1      -1.105  -1.276   0.094  1.00  0.00     0.134 C 
BRANCH   5   6
HETATM    6  S1  UNL     1      -2.088  -2.005   1.349  1.00  0.00    -0.118 SA
BRANCH   6   7
HETATM    7  C6  UNL     1      -3.775  -2.367   1.162  1.00  0.00     0.145 C 
BRANCH   7   8
HETATM    8  N2  UNL     1      -4.727  -1.413   0.734  1.00  0.00    -0.283 N 
HETATM    9  C4  UNL     1      -5.054  -1.339  -0.558  1.00  0.00     0.156 A 
HETATM   10  C3  UNL     1      -6.002  -0.340  -0.932  1.00  0.00     0.145 A 
HETATM   11  C2  UNL     1      -6.520   0.482   0.061  1.00  0.00     0.156 A 
HETATM   12  N9  UNL     1      -6.137   0.347   1.373  1.00  0.00    -0.196 N 
HETATM   13  C19 UNL     1      -5.253  -0.592   1.681  1.00  0.00     0.201 A 
HETATM   14  S3  UNL     1      -4.823  -0.727   3.259  1.00  0.00    -0.039 SA
BRANCH   9  15
HETATM   15  C5  UNL     1      -4.550  -2.206  -1.602  1.00  0.00     0.230 C 
HETATM   16  O2  UNL     1      -3.735  -3.133  -1.508  1.00  0.00    -0.643 OA
HETATM   17  O3  UNL     1      -5.031  -1.992  -2.914  1.00  0.00    -0.643 OA
ENDBRANCH   9  15
BRANCH  10  18
HETATM   18  O1  UNL     1      -6.318  -0.274  -2.216  1.00  0.00    -0.355 OA
ATOM     19  H1  UNL     1      -5.964  -0.836  -2.895  1.00  0.00     0.218 HD
ENDBRANCH  10  18
BRANCH  11  20
HETATM   20  N1  UNL     1      -7.370   1.380  -0.168  1.00  0.00    -0.377 N 
HETATM   21  C1  UNL     1      -7.945   1.723  -1.408  1.00  0.00     0.148 C 
ATOM     22  H1  UNL     1      -7.679   1.924   0.638  1.00  0.00     0.160 HD
ENDBRANCH  11  20
BRANCH  12  23
HETATM   23  S4  UNL     1      -6.836   1.439   2.526  1.00  0.00     0.236 S 
HETATM   24  C20 UNL     1      -8.601   1.255   2.598  1.00  0.00     0.186 C 
HETATM   25  O7  UNL     1      -6.576   2.862   2.100  1.00  0.00    -0.205 OA
HETATM   26  O8  UNL     1      -6.235   1.250   3.875  1.00  0.00    -0.205 OA
ENDBRANCH  12  23
ENDBRANCH   7   8
ENDBRANCH   6   7
ENDBRANCH   5   6
ENDBRANCH   1   5
BRANCH   3  27
HETATM   27  N4  UNL     1       1.167  -0.033  -0.824  1.00  0.00    -0.286 NA
HETATM   28  C10 UNL     1       2.201  -0.738  -1.180  1.00  0.00     0.322 C 
HETATM   29  O4  UNL     1       2.754  -0.848  -2.340  1.00  0.00    -0.254 OA
BRANCH  28  30
HETATM   30  C11 UNL     1       2.962  -1.609  -0.170  1.00  0.00     0.203 C 
BRANCH  30  31
HETATM   31  S2  UNL     1       4.418  -0.825   0.465  1.00  0.00    -0.081 SA
BRANCH  31  32
HETATM   32  C12 UNL     1       5.698  -0.593  -0.734  1.00  0.00     0.170 A 
HETATM   33  N5  UNL     1       5.723  -0.873  -2.056  1.00  0.00    -0.278 N 
HETATM   34  N6  UNL     1       6.901  -0.555  -2.528  1.00  0.00    -0.278 N 
ATOM     35  H5  UNL     1       4.952  -1.267  -2.596  1.00  0.00     0.189 HD
HETATM   36  C13 UNL     1       7.679  -0.065  -1.555  1.00  0.00     0.200 A 
ATOM     37  H6  UNL     1       7.187  -0.665  -3.501  1.00  0.00     0.189 HD
HETATM   38  C14 UNL     1       8.972   0.393  -1.517  1.00  0.00     0.293 A 
HETATM   39  N8  UNL     1       6.914  -0.094  -0.435  1.00  0.00    -0.248 N 
HETATM   40  O5  UNL     1       9.664   0.413  -2.563  1.00  0.00    -0.264 OA
HETATM   41  N7  UNL     1       9.496   0.820  -0.354  1.00  0.00    -0.316 N 
HETATM   42  C15 UNL     1      10.878   1.291  -0.388  1.00  0.00     0.159 C 
HETATM   43  C16 UNL     1       8.755   0.800   0.763  1.00  0.00     0.062 A 
HETATM   44  C17 UNL     1       9.386   1.263   2.030  1.00  0.00     0.073 C 
HETATM   45  C18 UNL     1       7.442   0.339   0.732  1.00  0.00     0.173 A 
BRANCH  45  46
HETATM   46  O6  UNL     1       6.701   0.329   1.888  1.00  0.00    -0.344 OA
ATOM     47  H6  UNL     1       5.805   0.014   1.867  1.00  0.00     0.219 HD
ENDBRANCH  45  46
ENDBRANCH  31  32
ENDBRANCH  30  31
ENDBRANCH  28  30
ENDBRANCH   3  27
TORSDOF 13
