REMARK  6 active torsions:
REMARK  status: ('A' for Active; 'I' for Inactive)
REMARK    1  A    between atoms: C2_2  and  C3_4 
REMARK    2  A    between atoms: C3_4  and  C4_6 
REMARK    3  A    between atoms: C4_6  and  C5_7 
REMARK    4  A    between atoms: C12_22  and  C14_24 
REMARK    5  A    between atoms: C14_24  and  C15_25 
REMARK    6  A    between atoms: C15_25  and  C16_26 
ROOT
HETATM    1  C4  UNL     1       0.601   0.040  -0.120  1.00  0.00     0.137 C 
HETATM    2  N2  UNL     1       0.787   1.469  -0.374  1.00  0.00    -0.386 N 
ATOM      3  H2  UNL     1       1.692   1.822  -0.686  1.00  0.00     0.155 HD
HETATM    4  C8  UNL     1      -0.279   2.342  -0.187  1.00  0.00     0.108 A 
HETATM    5  C9  UNL     1      -0.472   3.564  -1.069  1.00  0.00     0.043 A 
HETATM    6  C10 UNL     1       0.146   3.784   0.232  1.00  0.00     0.043 A 
HETATM    7  C11 UNL     1      -1.404   1.864   0.641  1.00  0.00     0.246 C 
HETATM    8  O1  UNL     1      -2.295   2.630   1.121  1.00  0.00    -0.271 OA
HETATM    9  N3  UNL     1      -1.465   0.475   0.893  1.00  0.00    -0.344 N 
ATOM     10  H3  UNL     1      -1.869   0.062   1.734  1.00  0.00     0.163 HD
HETATM   11  C12 UNL     1      -0.864  -0.315  -0.225  1.00  0.00     0.081 C 
HETATM   12  C13 UNL     1      -1.421   0.137  -1.565  1.00  0.00     0.046 C 
ENDROOT
BRANCH   1  13
HETATM   13  C3  UNL     1       1.409  -0.760  -1.076  1.00  0.00     0.225 C 
HETATM   14  F1  UNL     1       1.590  -2.082  -0.523  1.00  0.00    -0.245 F 
BRANCH  13  15
HETATM   15  C2  UNL     1       2.854  -0.359  -1.253  1.00  0.00     0.115 C 
HETATM   16  C1  UNL     1       3.433  -1.409  -2.198  1.00  0.00     0.030 C 
HETATM   17 CL1  UNL     1       3.845  -0.272   0.159  1.00  0.00    -0.122 Cl
ENDBRANCH  13  15
ENDBRANCH   1  13
BRANCH   1  18
HETATM   18  C5  UNL     1       1.090  -0.129   1.277  1.00  0.00     0.084 A 
HETATM   19  N1  UNL     1       1.314  -1.231   1.965  1.00  0.00    -0.361 N 
HETATM   20  C6  UNL     1       1.734  -1.194   3.194  1.00  0.00     0.096 A 
ATOM     21  H1  UNL     1       1.154  -2.135   1.521  1.00  0.00     0.165 HD
HETATM   22  C7  UNL     1       1.934   0.046   3.747  1.00  0.00     0.068 A 
HETATM   23  S1  UNL     1       1.504   1.068   2.456  1.00  0.00    -0.085 SA
ENDBRANCH   1  18
BRANCH  11  24
HETATM   24  C14 UNL     1      -1.240  -1.707  -0.033  1.00  0.00     0.011 C 
BRANCH  24  25
HETATM   25  C15 UNL     1      -2.616  -2.195  -0.203  1.00  0.00     0.087 C 
BRANCH  25  26
HETATM   26  C16 UNL     1      -3.797  -1.711   0.521  1.00  0.00     0.407 C 
HETATM   27  F2  UNL     1      -4.189  -0.426   0.376  1.00  0.00    -0.167 F 
HETATM   28  F3  UNL     1      -4.890  -2.464  -0.003  1.00  0.00    -0.167 F 
HETATM   29  F4  UNL     1      -3.779  -2.101   1.865  1.00  0.00    -0.167 F 
ENDBRANCH  25  26
ENDBRANCH  24  25
ENDBRANCH  11  24
TORSDOF 6
