REMARK  8 active torsions:
REMARK  status: ('A' for Active; 'I' for Inactive)
REMARK    1  A    between atoms: C2_2  and  C3_3 
REMARK    2  A    between atoms: C3_3  and  C4_4 
REMARK    3  A    between atoms: C4_4  and  O1_5 
REMARK    4  A    between atoms: O1_5  and  C5_6 
REMARK    5  A    between atoms: C5_6  and  C6_7 
REMARK    6  A    between atoms: C6_7  and  C7_8 
REMARK    7  A    between atoms: C7_8  and  N1_9 
REMARK    8  A    between atoms: N1_9  and  C8_10 
ROOT
HETATM    1  C6  UNL     1       0.081  -1.680  -0.404  1.00  0.00     0.116 C 
HETATM    2  C11 UNL     1      -0.813  -2.426  -1.394  1.00  0.00     0.164 C 
HETATM    3  N5  UNL     1      -1.145  -3.599  -0.592  1.00  0.00    -0.340 N 
ATOM      4  H5  UNL     1      -2.018  -4.126  -0.604  1.00  0.00     0.164 HD
HETATM    5  C12 UNL     1       0.002  -3.856   0.210  1.00  0.00     0.317 C 
HETATM    6  O2  UNL     1       0.198  -4.844   0.957  1.00  0.00    -0.247 OA
HETATM    7  N6  UNL     1       0.931  -2.754   0.012  1.00  0.00    -0.324 N 
ATOM      8  H6  UNL     1       1.943  -2.748   0.139  1.00  0.00     0.165 HD
ENDROOT
BRANCH   1   9
HETATM    9  C5  UNL     1       0.676  -0.489  -1.011  1.00  0.00     0.207 C 
BRANCH   9  10
HETATM   10  O1  UNL     1       1.504   0.290  -0.284  1.00  0.00    -0.388 OA
BRANCH  10  11
HETATM   11  C4  UNL     1       2.607  -0.267   0.231  1.00  0.00     0.167 C 
BRANCH  11  12
HETATM   12  C3  UNL     1       3.527   0.746   0.921  1.00  0.00     0.026 C 
BRANCH  12  13
HETATM   13  C2  UNL     1       4.002   1.812  -0.006  1.00  0.00    -0.002 C 
HETATM   14  C1  UNL     1       4.896   2.743   0.786  1.00  0.00     0.005 C 
ENDBRANCH  12  13
ENDBRANCH  11  12
ENDBRANCH  10  11
ENDBRANCH   9  10
ENDBRANCH   1   9
BRANCH   1  15
HETATM   15  C7  UNL     1      -0.764  -1.256   0.808  1.00  0.00     0.194 C 
BRANCH  15  16
HETATM   16  N1  UNL     1      -1.776  -0.418   0.567  1.00  0.00    -0.384 NA
BRANCH  16  17
HETATM   17  C8  UNL     1      -2.677   0.328   0.352  1.00  0.00     0.274 A 
HETATM   18  N2  UNL     1      -3.473   1.052   1.212  1.00  0.00    -0.304 N 
HETATM   19  C9  UNL     1      -4.364   1.756   0.513  1.00  0.00     0.095 A 
ATOM     20  H2  UNL     1      -3.393   1.050   2.229  1.00  0.00     0.171 HD
HETATM   21  C10 UNL     1      -5.408   2.668   1.052  1.00  0.00     0.091 C 
HETATM   22  N3  UNL     1      -4.159   1.500  -0.787  1.00  0.00    -0.286 N 
HETATM   23  N4  UNL     1      -3.174   0.666  -0.878  1.00  0.00    -0.258 N 
ATOM     24  H3  UNL     1      -4.686   1.893  -1.567  1.00  0.00     0.188 HD
ATOM     25  H4  UNL     1      -2.811   0.304  -1.760  1.00  0.00     0.191 HD
ENDBRANCH  16  17
ENDBRANCH  15  16
ENDBRANCH   1  15
TORSDOF 8
