REMARK  6 active torsions:
REMARK  status: ('A' for Active; 'I' for Inactive)
REMARK       I    between atoms: C2_2  and  N1_4 
REMARK    1  A    between atoms: N1_4  and  C3_6 
REMARK    2  A    between atoms: C3_6  and  C4_7 
REMARK    3  A    between atoms: C4_7  and  O2_8 
REMARK    4  A    between atoms: O2_8  and  C5_9 
REMARK    5  A    between atoms: N2_16  and  C11_17 
REMARK    6  A    between atoms: C11_17  and  C12_18 
ROOT
HETATM    1  C5  UNL     1       0.805   0.453  -0.438  1.00  0.00     0.180 C 
HETATM    2  C6  UNL     1       0.636   1.831  -1.005  1.00  0.00     0.038 C 
HETATM    3  C7  UNL     1      -0.706   2.069  -1.631  1.00  0.00     0.041 C 
HETATM    4  C8  UNL     1      -1.824   1.346  -0.876  1.00  0.00     0.250 C 
HETATM    5  C9  UNL     1      -1.582   1.638   0.589  1.00  0.00     0.206 C 
HETATM    6  O3  UNL     1      -0.947   0.516   1.119  1.00  0.00    -0.353 OA
HETATM    7  C10 UNL     1      -0.471  -0.184   0.016  1.00  0.00     0.389 C 
HETATM    8  N2  UNL     1      -1.526  -0.044  -0.946  1.00  0.00     0.130 N 
ENDROOT
BRANCH   1   9
HETATM    9  O2  UNL     1       1.680   0.489   0.642  1.00  0.00    -0.380 OA
BRANCH   9  10
HETATM   10  C4  UNL     1       2.821  -0.260   0.325  1.00  0.00     0.188 C 
BRANCH  10  11
HETATM   11  C3  UNL     1       3.784  -0.245   1.463  1.00  0.00     0.148 C 
BRANCH  11  12
HETATM   12  N1  UNL     1       4.971  -1.005   1.184  1.00  0.00    -0.359 N 
HETATM   13  C2  UNL     1       5.869  -0.701   0.137  1.00  0.00     0.213 C 
HETATM   14  C1  UNL     1       7.087  -1.529  -0.113  1.00  0.00     0.117 C 
HETATM   15  O1  UNL     1       5.637   0.285  -0.598  1.00  0.00    -0.274 OA
ATOM     16  H1  UNL     1       5.177  -1.810   1.776  1.00  0.00     0.162 HD
ENDBRANCH  11  12
ENDBRANCH  10  11
ENDBRANCH   9  10
ENDBRANCH   1   9
BRANCH   8  17
HETATM   17  C11 UNL     1      -2.604  -0.949  -0.826  1.00  0.00     0.304 C 
BRANCH  17  18
HETATM   18  C12 UNL     1      -3.257  -1.019   0.480  1.00  0.00     0.005 C 
HETATM   19  C13 UNL     1      -4.540  -0.737   0.596  1.00  0.00    -0.090 C 
HETATM   20  C14 UNL     1      -5.206  -0.806   1.921  1.00  0.00     0.042 C 
HETATM   21  C15 UNL     1      -5.342  -0.349  -0.589  1.00  0.00     0.042 C 
ENDBRANCH  17  18
ENDBRANCH   8  17
TORSDOF 6
