REMARK  5 active torsions:
REMARK  status: ('A' for Active; 'I' for Inactive)
REMARK    1  A    between atoms: C3_3  and  C4_4 
REMARK    2  A    between atoms: C7_11  and  N2_12 
REMARK    3  A    between atoms: N3_15  and  O2_17 
REMARK    4  A    between atoms: C10_19  and  O3_20 
REMARK    5  A    between atoms: C10_19  and  C11_22 
ROOT
HETATM    1  N2  UNL     1       0.048   0.442  -0.461  1.00  0.00    -0.371 N 
HETATM    2  C8  UNL     1      -0.450   1.042   0.768  1.00  0.00     0.181 C 
HETATM    3  C9  UNL     1      -1.904   0.698   0.630  1.00  0.00     0.064 C 
HETATM    4  N3  UNL     1      -2.855   1.497   0.909  1.00  0.00    -0.273 N 
ATOM      5  H3  UNL     1      -3.806   1.152   0.776  1.00  0.00     0.193 HD
HETATM    6  C10 UNL     1      -1.897  -0.684   0.133  1.00  0.00     0.122 C 
HETATM    7  C15 UNL     1      -0.739  -0.721  -0.799  1.00  0.00     0.168 C 
ENDROOT
BRANCH   1   8
HETATM    8  C7  UNL     1       1.161   1.034  -1.192  1.00  0.00     0.050 A 
HETATM    9  C6  UNL     1       0.774   1.752  -2.297  1.00  0.00     0.081 A 
HETATM   10  S2  UNL     1       2.171   2.418  -2.944  1.00  0.00    -0.091 SA
HETATM   11  C5  UNL     1       3.273   1.764  -1.777  1.00  0.00     0.059 A 
HETATM   12  S1  UNL     1       4.903   1.653  -1.263  1.00  0.00    -0.076 SA
HETATM   13  C16 UNL     1       2.520   1.030  -0.900  1.00  0.00     0.022 A 
HETATM   14  C3  UNL     1       4.626   0.658   0.089  1.00  0.00     0.077 A 
HETATM   15  C2  UNL     1       3.284   0.430   0.113  1.00  0.00    -0.025 A 
HETATM   16  C1  UNL     1       2.775  -0.511   1.202  1.00  0.00     0.050 C 
BRANCH  14  17
HETATM   17  C4  UNL     1       5.667   0.212   1.035  1.00  0.00     0.272 C 
HETATM   18  N1  UNL     1       7.019   0.476   0.703  1.00  0.00    -0.057 NA
HETATM   19  O1  UNL     1       5.409  -0.361   2.069  1.00  0.00    -0.270 OA
ENDBRANCH  14  17
ENDBRANCH   1   8
BRANCH   6  20
HETATM   20  O3  UNL     1      -1.656  -1.555   1.201  1.00  0.00    -0.381 OA
ATOM     21  H3  UNL     1      -1.651  -2.449   0.880  1.00  0.00     0.211 HD
ENDBRANCH   6  20
BRANCH   6  22
HETATM   22  C11 UNL     1      -3.196  -1.109  -0.486  1.00  0.00    -0.013 C 
HETATM   23  C12 UNL     1      -3.043  -2.536  -0.947  1.00  0.00     0.018 C 
HETATM   24  C13 UNL     1      -4.258  -1.084   0.592  1.00  0.00     0.018 C 
HETATM   25  C14 UNL     1      -3.616  -0.248  -1.649  1.00  0.00     0.018 C 
ENDBRANCH   6  22
BRANCH   4  26
HETATM   26  O2  UNL     1      -2.717   2.763   1.366  1.00  0.00    -0.290 OA
ATOM     27  H2  UNL     1      -3.427   3.359   1.574  1.00  0.00     0.244 HD
ENDBRANCH   4  26
TORSDOF 5
