REMARK  8 active torsions:
REMARK  status: ('A' for Active; 'I' for Inactive)
REMARK    1  A    between atoms: C2_2  and  C3_3 
REMARK    2  A    between atoms: C5_5  and  N1_6 
REMARK    3  A    between atoms: N1_6  and  C6_8 
REMARK    4  A    between atoms: C6_8  and  C7_9 
REMARK    5  A    between atoms: C7_9  and  C8_10 
REMARK    6  A    between atoms: C8_10  and  C9_11 
REMARK    7  A    between atoms: C9_11  and  N2_12 
REMARK    8  A    between atoms: N5_20  and  N6_21 
ROOT
HETATM    1  C3  UNL     1      -2.326   0.611  -0.053  1.00  0.00     0.040 A 
HETATM    2  C4  UNL     1      -1.025   0.922  -0.457  1.00  0.00     0.075 A 
HETATM    3  C5  UNL     1      -0.061  -0.052  -0.649  1.00  0.00     0.105 A 
HETATM    4  N3  UNL     1      -0.380  -1.339  -0.441  1.00  0.00    -0.315 N 
ATOM      5  H3  UNL     1       0.315  -2.073  -0.577  1.00  0.00     0.170 HD
HETATM    6  C10 UNL     1      -1.646  -1.649  -0.046  1.00  0.00     0.215 A 
HETATM    7  N4  UNL     1      -1.964  -3.011   0.168  1.00  0.00    -0.061 NA
HETATM    8  N5  UNL     1      -2.582  -0.683   0.138  1.00  0.00    -0.238 N 
ENDROOT
BRANCH   3   9
HETATM    9  N1  UNL     1       1.127   0.252  -1.020  1.00  0.00    -0.376 N 
ATOM     10  H1  UNL     1       1.315   1.244  -1.163  1.00  0.00     0.161 HD
BRANCH   9  11
HETATM   11  C6  UNL     1       2.210  -0.632  -1.254  1.00  0.00     0.121 C 
BRANCH  11  12
HETATM   12  C7  UNL     1       2.958  -1.040  -0.012  1.00  0.00     0.021 C 
BRANCH  12  13
HETATM   13  C8  UNL     1       3.537   0.155   0.699  1.00  0.00     0.029 C 
BRANCH  13  14
HETATM   14  C9  UNL     1       4.493   0.888  -0.185  1.00  0.00     0.229 C 
BRANCH  14  15
HETATM   15  N2  UNL     1       5.076   2.044   0.484  1.00  0.00    -0.079 N 
ATOM     16  H23 UNL     1       4.353   2.667   0.845  1.00  0.00     0.274 HD
ATOM     17  H22 UNL     1       5.515   1.779   1.366  1.00  0.00     0.274 HD
ATOM     18  H21 UNL     1       5.729   2.544  -0.119  1.00  0.00     0.274 HD
ENDBRANCH  14  15
ENDBRANCH  13  14
ENDBRANCH  12  13
ENDBRANCH  11  12
ENDBRANCH   9  11
ENDBRANCH   3   9
BRANCH   1  19
HETATM   19  C2  UNL     1      -3.231   1.728   0.108  1.00  0.00     0.055 C 
HETATM   20  C1  UNL     1      -4.620   1.468   0.535  1.00  0.00     0.011 C 
ENDBRANCH   1  19
BRANCH   8  21
HETATM   21  N6  UNL     1      -3.825  -1.089   0.534  1.00  0.00    -0.336 N 
ATOM     22  H62 UNL     1      -4.528  -0.363   0.672  1.00  0.00     0.177 HD
ATOM     23  H61 UNL     1      -4.021  -2.079   0.680  1.00  0.00     0.177 HD
ENDBRANCH   8  21
TORSDOF 8
