REMARK  9 active torsions:
REMARK  status: ('A' for Active; 'I' for Inactive)
REMARK    1  A    between atoms: N1_2  and  C2_3 
REMARK    2  A    between atoms: N1_2  and  C5_10 
REMARK    3  A    between atoms: C2_3  and  C3_4 
REMARK    4  A    between atoms: C3_4  and  C4_5 
REMARK    5  A    between atoms: C4_5  and  N2_6 
REMARK    6  A    between atoms: C5_10  and  C6_11 
REMARK    7  A    between atoms: C6_11  and  N3_12 
REMARK    8  A    between atoms: N3_12  and  C7_14 
REMARK    9  A    between atoms: C8_19  and  N6_20 
ROOT
HETATM    1  N3  UNL     1       2.148  -0.776   0.839  1.00  0.00    -0.223 N 
ATOM      2  H3  UNL     1       1.820  -1.307   1.646  1.00  0.00     0.177 HD
ENDROOT
BRANCH   1   3
HETATM    3  C6  UNL     1       1.232  -0.605  -0.258  1.00  0.00     0.168 C 
BRANCH   3   4
HETATM    4  C5  UNL     1      -0.149  -0.507   0.291  1.00  0.00     0.291 C 
BRANCH   4   5
HETATM    5  N1  UNL     1      -1.174  -0.334  -0.746  1.00  0.00     0.085 N 
HETATM    6  C1  UNL     1      -1.295  -1.535  -1.552  1.00  0.00     0.309 C 
BRANCH   5   7
HETATM    7  C2  UNL     1      -2.381  -0.060  -0.028  1.00  0.00     0.273 C 
BRANCH   7   8
HETATM    8  C3  UNL     1      -3.541   0.334  -0.876  1.00  0.00     0.057 C 
BRANCH   8   9
HETATM    9  C4  UNL     1      -4.790   0.612  -0.060  1.00  0.00     0.231 C 
BRANCH   9  10
HETATM   10  N2  UNL     1      -4.619   1.669   0.883  1.00  0.00    -0.079 N 
ATOM     11  H23 UNL     1      -3.820   1.488   1.491  1.00  0.00     0.274 HD
ATOM     12  H22 UNL     1      -4.290   2.517   0.422  1.00  0.00     0.274 HD
ATOM     13  H21 UNL     1      -5.458   1.856   1.431  1.00  0.00     0.274 HD
ENDBRANCH   9  10
ENDBRANCH   8   9
ENDBRANCH   7   8
ENDBRANCH   5   7
ENDBRANCH   4   5
ENDBRANCH   3   4
ENDBRANCH   1   3
BRANCH   1  14
HETATM   14  C7  UNL     1       3.339  -0.316   0.882  1.00  0.00     0.707 A 
HETATM   15  N4  UNL     1       4.203  -0.467   1.895  1.00  0.00    -0.117 N 
HETATM   16  N5  UNL     1       5.303   0.159   1.527  1.00  0.00    -0.118 N 
ATOM     17  H4  UNL     1       4.042  -0.964   2.771  1.00  0.00     0.206 HD
HETATM   18  C8  UNL     1       5.138   0.701   0.294  1.00  0.00     0.705 A 
ATOM     19  H5  UNL     1       6.153   0.226   2.087  1.00  0.00     0.206 HD
HETATM   20  N7  UNL     1       3.904   0.399  -0.104  1.00  0.00    -0.020 N 
ATOM     21  H7  UNL     1       3.470   0.661  -0.989  1.00  0.00     0.203 HD
BRANCH  18  22
HETATM   22  N6  UNL     1       6.018   1.377  -0.359  1.00  0.00    -0.233 N 
ATOM     23  H62 UNL     1       6.963   1.608  -0.054  1.00  0.00     0.174 HD
ATOM     24  H61 UNL     1       5.894   1.784  -1.286  1.00  0.00     0.174 HD
ENDBRANCH  18  22
ENDBRANCH   1  14
TORSDOF 9
