REMARK  4 active torsions:
REMARK  status: ('A' for Active; 'I' for Inactive)
REMARK    1  A    between atoms: N3_4  and  O1_6 
REMARK    2  A    between atoms: O1_6  and  N4_7 
REMARK    3  A    between atoms: C2_9  and  C3_10 
REMARK    4  A    between atoms: N5_15  and  O2_16 
ROOT
HETATM    1  N4  UNL     1       0.405  -0.379   0.944  1.00  0.00    -0.251 N 
ATOM      2  H4  UNL     1      -0.062  -1.201   1.327  1.00  0.00     0.196 HD
HETATM    3  C2  UNL     1      -0.287   0.457   0.257  1.00  0.00     0.148 C 
ENDROOT
BRANCH   3   4
HETATM    4  C3  UNL     1      -1.690   0.215   0.048  1.00  0.00     0.079 A 
HETATM    5  C4  UNL     1      -2.266  -0.920   0.594  1.00  0.00     0.033 A 
HETATM    6  C5  UNL     1      -3.609  -1.165   0.402  1.00  0.00     0.004 A 
HETATM    7  C6  UNL     1      -4.309  -0.240  -0.342  1.00  0.00     0.020 A 
HETATM    8  C7  UNL     1      -3.723   0.879  -0.875  1.00  0.00     0.123 A 
HETATM    9  N5  UNL     1      -2.412   1.096  -0.674  1.00  0.00    -0.235 N 
BRANCH   9  10
HETATM   10  O2  UNL     1      -1.804   2.218  -1.204  1.00  0.00    -0.283 OA
ATOM     11  H2  UNL     1      -2.313   2.839  -1.713  1.00  0.00     0.245 HD
ENDBRANCH   9  10
ENDBRANCH   3   4
BRANCH   1  12
HETATM   12  O1  UNL     1       1.739  -0.215   1.183  1.00  0.00    -0.155 OA
BRANCH  12  13
HETATM   13  N3  UNL     1       2.721  -0.889   0.503  1.00  0.00    -0.215 N 
HETATM   14  C1  UNL     1       3.748  -0.309  -0.025  1.00  0.00     0.222 C 
HETATM   15  N1  UNL     1       3.934   1.109   0.068  1.00  0.00    -0.065 NA
HETATM   16  N2  UNL     1       4.687  -1.135  -0.702  1.00  0.00    -0.065 NA
ATOM     17  H3  UNL     1       2.636  -1.901   0.409  1.00  0.00     0.199 HD
ENDBRANCH  12  13
ENDBRANCH   1  12
TORSDOF 4
