REMARK  6 active torsions:
REMARK  status: ('A' for Active; 'I' for Inactive)
REMARK    1  A    between atoms: N1_1  and  C1_5 
REMARK    2  A    between atoms: C1_5  and  C2_6 
REMARK    3  A    between atoms: C2_6  and  C3_7 
REMARK    4  A    between atoms: C3_7  and  C4_8 
REMARK    5  A    between atoms: C6_12  and  O2_13 
REMARK    6  A    between atoms: C7_15  and  O3_16 
ROOT
HETATM    1  C4  UNL     1      -0.615   0.051  -0.540  1.00  0.00     0.030 C 
HETATM    2  C5  UNL     1      -0.865  -1.388  -0.383  1.00  0.00     0.118 C 
HETATM    3  S1  UNL     1      -2.525  -1.508   0.238  1.00  0.00     0.047 S 
HETATM    4  O1  UNL     1      -2.465  -1.578   1.935  1.00  0.00    -0.255 OA
HETATM    5  C6  UNL     1      -3.026   0.145  -0.193  1.00  0.00     0.240 C 
HETATM    6  C7  UNL     1      -1.723   0.872   0.002  1.00  0.00     0.164 C 
ENDROOT
BRANCH   1   7
HETATM    7  C3  UNL     1       0.644   0.414   0.213  1.00  0.00     0.010 C 
BRANCH   7   8
HETATM    8  C2  UNL     1       1.875  -0.301  -0.256  1.00  0.00     0.028 C 
BRANCH   8   9
HETATM    9  C1  UNL     1       3.024   0.200   0.618  1.00  0.00     0.229 C 
BRANCH   9  10
HETATM   10  N1  UNL     1       4.265  -0.467   0.206  1.00  0.00    -0.079 N 
ATOM     11  H13 UNL     1       4.182  -1.484   0.219  1.00  0.00     0.274 HD
ATOM     12  H12 UNL     1       4.456  -0.352  -0.789  1.00  0.00     0.274 HD
ATOM     13  H11 UNL     1       5.032  -0.133   0.789  1.00  0.00     0.274 HD
ENDBRANCH   9  10
ENDBRANCH   8   9
ENDBRANCH   7   8
ENDBRANCH   1   7
BRANCH   6  14
HETATM   14  O3  UNL     1      -1.574   1.134   1.360  1.00  0.00    -0.392 OA
ATOM     15  H3  UNL     1      -2.284   1.660   1.708  1.00  0.00     0.210 HD
ENDBRANCH   6  14
BRANCH   5  16
HETATM   16  O2  UNL     1      -3.993   0.629   0.660  1.00  0.00    -0.380 OA
ATOM     17  H2  UNL     1      -4.260   1.511   0.430  1.00  0.00     0.211 HD
ENDBRANCH   5  16
TORSDOF 6
