REMARK  5 active torsions:
REMARK  status: ('A' for Active; 'I' for Inactive)
REMARK    1  A    between atoms: C3_5  and  O1_6 
REMARK    2  A    between atoms: O1_6  and  C4_7 
REMARK    3  A    between atoms: C9_19  and  C10_20 
REMARK    4  A    between atoms: C10_20  and  O3_22 
REMARK    5  A    between atoms: O3_22  and  C11_23 
ROOT
HETATM    1  C1  UNL     1      -0.672   0.643   2.212  1.00  0.00     0.071 C 
HETATM    2  C2  UNL     1       0.244  -0.096   1.286  1.00  0.00     0.041 A 
HETATM    3  N1  UNL     1       1.591  -0.232   1.432  1.00  0.00    -0.323 N 
ATOM      4  H1  UNL     1       2.149   0.155   2.193  1.00  0.00     0.169 HD
HETATM    5  C3  UNL     1       2.063  -0.961   0.406  1.00  0.00     0.231 A 
HETATM    6  N3  UNL     1       1.021  -1.271  -0.366  1.00  0.00    -0.315 N 
ATOM      7  H3  UNL     1       1.081  -1.822  -1.222  1.00  0.00     0.170 HD
HETATM    8  C9  UNL     1      -0.127  -0.759   0.136  1.00  0.00     0.134 A 
ENDROOT
BRANCH   5   9
HETATM    9  O1  UNL     1       3.411  -1.285   0.255  1.00  0.00    -0.262 OA
BRANCH   9  10
HETATM   10  C4  UNL     1       4.334  -0.469  -0.331  1.00  0.00     0.155 A 
HETATM   11  C5  UNL     1       4.956   0.505   0.402  1.00  0.00     0.082 A 
HETATM   12  C6  UNL     1       5.898   1.340  -0.191  1.00  0.00     0.064 A 
HETATM   13 CL1  UNL     1       6.706   2.588   0.718  1.00  0.00    -0.082 Cl
HETATM   14  C7  UNL     1       6.176   1.149  -1.526  1.00  0.00     0.112 A 
HETATM   15 CL2  UNL     1       7.369   2.185  -2.331  1.00  0.00    -0.078 Cl
HETATM   16  C8  UNL     1       5.546   0.173  -2.241  1.00  0.00     0.213 A 
HETATM   17  F1  UNL     1       5.831  -0.004  -3.557  1.00  0.00    -0.184 F 
HETATM   18  N2  UNL     1       4.642  -0.609  -1.621  1.00  0.00    -0.312 N 
ATOM     19  H2  UNL     1       4.174  -1.338  -2.160  1.00  0.00     0.170 HD
ENDBRANCH   9  10
ENDBRANCH   5   9
BRANCH   8  20
HETATM   20  C10 UNL     1      -1.473  -0.876  -0.414  1.00  0.00     0.312 C 
HETATM   21  O2  UNL     1      -1.713  -1.505  -1.475  1.00  0.00    -0.258 OA
BRANCH  20  22
HETATM   22  O3  UNL     1      -2.510  -0.281   0.246  1.00  0.00    -0.306 OA
BRANCH  22  23
HETATM   23  C11 UNL     1      -3.858  -0.311  -0.168  1.00  0.00     0.060 C 
HETATM   24  C12 UNL     1      -4.434  -1.685  -0.266  1.00  0.00     0.046 C 
HETATM   25  C13 UNL     1      -4.004   0.415  -1.508  1.00  0.00     0.046 C 
HETATM   26  C14 UNL     1      -4.655   0.469   0.855  1.00  0.00     0.046 C 
ENDBRANCH  22  23
ENDBRANCH  20  22
ENDBRANCH   8  20
TORSDOF 5
