REMARK  5 active torsions:
REMARK  status: ('A' for Active; 'I' for Inactive)
REMARK    1  A    between atoms: C2_2  and  N1_4 
REMARK    2  A    between atoms: C2_2  and  C4_8 
REMARK       I    between atoms: C4_8  and  N2_10 
REMARK    3  A    between atoms: C8_14  and  C9_15 
REMARK       I    between atoms: C9_15  and  N3_17 
REMARK    4  A    between atoms: N3_17  and  N4_19 
REMARK       I    between atoms: N4_19  and  C10_21 
REMARK       I    between atoms: C10_21  and  N6_25 
REMARK    5  A    between atoms: N6_25  and  O3_27 
ROOT
HETATM    1  C4  UNL     1      -1.914   0.420  -0.593  1.00  0.00     0.256 C 
HETATM    2  O1  UNL     1      -1.903   0.834  -1.813  1.00  0.00    -0.271 OA
HETATM    3  N2  UNL     1      -0.879  -0.397  -0.125  1.00  0.00    -0.337 N 
HETATM    4  C5  UNL     1      -0.714  -0.992   1.163  1.00  0.00     0.127 C 
HETATM    5  C6  UNL     1       0.468  -1.981   1.025  1.00  0.00     0.022 C 
HETATM    6  C7  UNL     1       0.497  -2.200  -0.501  1.00  0.00     0.037 C 
HETATM    7  C8  UNL     1       0.277  -0.770  -0.915  1.00  0.00     0.181 C 
ENDROOT
BRANCH   7   8
HETATM    8  C9  UNL     1       1.474  -0.002  -0.455  1.00  0.00     0.259 C 
HETATM    9  O2  UNL     1       1.452   0.811   0.486  1.00  0.00    -0.269 OA
HETATM   10  N3  UNL     1       2.689  -0.240  -1.154  1.00  0.00    -0.254 N 
ATOM     11  H3  UNL     1       2.701  -0.909  -1.924  1.00  0.00     0.190 HD
BRANCH  10  12
HETATM   12  N4  UNL     1       3.873   0.428  -0.804  1.00  0.00    -0.128 N 
HETATM   13  C10 UNL     1       4.548   0.236   0.423  1.00  0.00     0.710 C 
HETATM   14  N5  UNL     1       4.477  -0.901   1.006  1.00  0.00    -0.232 N 
HETATM   15  N6  UNL     1       5.301   1.274   1.022  1.00  0.00    -0.098 N 
ATOM     16  H52 UNL     1       3.934  -1.649   0.574  1.00  0.00     0.174 HD
ATOM     17  H51 UNL     1       4.964  -1.040   1.891  1.00  0.00     0.174 HD
ATOM     18  H6  UNL     1       4.854   2.042   1.523  1.00  0.00     0.213 HD
ATOM     19  H4  UNL     1       4.268   1.089  -1.473  1.00  0.00     0.205 HD
BRANCH  15  20
HETATM   20  O3  UNL     1       6.657   1.191   0.893  1.00  0.00    -0.276 OA
ATOM     21  H3  UNL     1       7.162   1.888   1.295  1.00  0.00     0.245 HD
ENDBRANCH  15  20
ENDBRANCH  10  12
ENDBRANCH   7   8
BRANCH   1  22
HETATM   22  C2  UNL     1      -3.036   0.844   0.239  1.00  0.00     0.196 C 
HETATM   23  C1  UNL     1      -3.122   2.377   0.062  1.00  0.00     0.056 C 
HETATM   24  C3  UNL     1      -4.363   0.300  -0.278  1.00  0.00     0.056 C 
BRANCH  22  25
HETATM   25  N1  UNL     1      -2.907   0.503   1.609  1.00  0.00    -0.062 N 
ATOM     26  H13 UNL     1      -2.116   0.978   2.044  1.00  0.00     0.275 HD
ATOM     27  H12 UNL     1      -3.656   0.907   2.171  1.00  0.00     0.275 HD
ATOM     28  H11 UNL     1      -2.850  -0.509   1.726  1.00  0.00     0.275 HD
ENDBRANCH  22  25
ENDBRANCH   1  22
TORSDOF 5
