REMARK  6 active torsions:
REMARK  status: ('A' for Active; 'I' for Inactive)
REMARK    1  A    between atoms: C2_2  and  C19_21 
REMARK    2  A    between atoms: C3_3  and  C4_4 
REMARK    3  A    between atoms: C4_4  and  C6_6 
REMARK    4  A    between atoms: C7_7  and  C8_8 
REMARK    5  A    between atoms: C8_8  and  N1_9 
REMARK    6  A    between atoms: N1_9  and  C9_11 
ROOT
HETATM    1  C8  UNL     1      -1.220  -1.794   0.090  1.00  0.00     0.209 C 
ENDROOT
BRANCH   1   2
HETATM    2  C7  UNL     1       0.223  -1.988   0.242  1.00  0.00    -0.087 C 
HETATM    3  C6  UNL     1       1.408  -2.138   0.388  1.00  0.00    -0.097 C 
BRANCH   3   4
HETATM    4  C4  UNL     1       2.880  -2.321   0.598  1.00  0.00     0.083 C 
HETATM    5  C5  UNL     1       3.146  -2.714   1.994  1.00  0.00     0.027 C 
BRANCH   4   6
HETATM    6  C3  UNL     1       3.516  -1.157   0.025  1.00  0.00    -0.007 C 
HETATM    7  C2  UNL     1       4.267  -0.206   0.485  1.00  0.00    -0.079 C 
HETATM    8  C1  UNL     1       4.681  -0.114   1.900  1.00  0.00     0.044 C 
BRANCH   7   9
HETATM    9  C19 UNL     1       4.796   0.903  -0.395  1.00  0.00    -0.029 C 
HETATM   10  C20 UNL     1       4.304   2.251   0.119  1.00  0.00     0.019 C 
HETATM   11  C21 UNL     1       6.301   0.864  -0.247  1.00  0.00     0.019 C 
HETATM   12  C22 UNL     1       4.398   0.752  -1.824  1.00  0.00     0.019 C 
ENDBRANCH   7   9
ENDBRANCH   4   6
ENDBRANCH   3   4
ENDBRANCH   1   2
BRANCH   1  13
HETATM   13  N1  UNL     1      -1.456  -0.408  -0.166  1.00  0.00    -0.403 N 
ATOM     14  H1  UNL     1      -0.698   0.272  -0.225  1.00  0.00     0.154 HD
BRANCH  13  15
HETATM   15  C9  UNL     1      -2.826  -0.040  -0.333  1.00  0.00     0.027 C 
HETATM   16  C10 UNL     1      -3.613  -0.317   0.956  1.00  0.00     0.035 C 
HETATM   17  C11 UNL     1      -5.003   0.221   0.849  1.00  0.00    -0.012 C 
HETATM   18  C12 UNL     1      -4.991   1.710   0.627  1.00  0.00     0.009 C 
HETATM   19  C16 UNL     1      -5.685  -0.433  -0.325  1.00  0.00     0.009 C 
HETATM   20  C13 UNL     1      -4.251   1.996  -0.654  1.00  0.00    -0.012 C 
HETATM   21  C14 UNL     1      -4.876   1.337  -1.847  1.00  0.00     0.009 C 
HETATM   22  C18 UNL     1      -2.847   1.473  -0.512  1.00  0.00     0.035 C 
HETATM   23  C15 UNL     1      -4.917  -0.150  -1.606  1.00  0.00    -0.012 C 
HETATM   24  C17 UNL     1      -3.539  -0.746  -1.436  1.00  0.00     0.035 C 
ENDBRANCH  13  15
ENDBRANCH   1  13
TORSDOF 6
