REMARK  6 active torsions:
REMARK  status: ('A' for Active; 'I' for Inactive)
REMARK    1  A    between atoms: C2_2  and  S1_3 
REMARK    2  A    between atoms: C2_2  and  C11_19 
REMARK    3  A    between atoms: S1_3  and  C3_4 
REMARK    4  A    between atoms: C5_9  and  C6_10 
REMARK    5  A    between atoms: C6_10  and  C7_11 
REMARK       I    between atoms: C11_19  and  N4_21 
REMARK    6  A    between atoms: N4_21  and  C12_23 
ROOT
HETATM    1  C3  UNL     1      -1.578  -0.688   0.816  1.00  0.00     0.148 A 
HETATM    2  N1  UNL     1      -2.169  -1.816   1.267  1.00  0.00    -0.326 N 
ATOM      3  H1  UNL     1      -1.771  -2.465   1.946  1.00  0.00     0.169 HD
HETATM    4  C4  UNL     1      -3.379  -1.942   0.668  1.00  0.00     0.128 A 
HETATM    5 CL1  UNL     1      -4.513  -3.249   0.936  1.00  0.00    -0.062 Cl
HETATM    6  C5  UNL     1      -3.543  -0.865  -0.177  1.00  0.00     0.058 A 
HETATM    7  N3  UNL     1      -2.429  -0.122  -0.063  1.00  0.00    -0.332 N 
HETATM    8  C10 UNL     1      -2.211   1.101  -0.792  1.00  0.00     0.158 C 
ENDROOT
BRANCH   1   9
HETATM    9  S1  UNL     1       0.016  -0.025   1.257  1.00  0.00    -0.080 SA
BRANCH   9  10
HETATM   10  C2  UNL     1       1.315  -0.671   0.161  1.00  0.00     0.143 C 
HETATM   11  C1  UNL     1       1.047  -0.125  -1.243  1.00  0.00     0.031 C 
BRANCH  10  12
HETATM   12  C11 UNL     1       2.641  -0.098   0.564  1.00  0.00     0.232 C 
HETATM   13  O1  UNL     1       2.692   0.605   1.585  1.00  0.00    -0.272 OA
HETATM   14  N4  UNL     1       3.816  -0.342  -0.191  1.00  0.00    -0.352 N 
ATOM     15  H4  UNL     1       3.784  -0.917  -1.033  1.00  0.00     0.163 HD
BRANCH  14  16
HETATM   16  C12 UNL     1       5.061   0.241   0.257  1.00  0.00     0.022 C 
HETATM   17  C13 UNL     1       4.995   1.750   0.311  1.00  0.00     0.037 C 
HETATM   18  C14 UNL     1       5.394  -0.293   1.622  1.00  0.00     0.037 C 
HETATM   19  C15 UNL     1       6.183  -0.104  -0.720  1.00  0.00     0.037 C 
ENDBRANCH  14  16
ENDBRANCH  10  12
ENDBRANCH   9  10
ENDBRANCH   1   9
BRANCH   6  20
HETATM   20  C6  UNL     1      -4.711  -0.607  -1.021  1.00  0.00     0.125 C 
BRANCH  20  21
HETATM   21  C7  UNL     1      -5.883  -0.084  -0.229  1.00  0.00     0.056 A 
HETATM   22  N2  UNL     1      -6.835  -0.798   0.354  1.00  0.00    -0.363 N 
HETATM   23  C8  UNL     1      -7.781  -0.197   1.002  1.00  0.00     0.095 A 
ATOM     24  H2  UNL     1      -6.823  -1.816   0.293  1.00  0.00     0.165 HD
HETATM   25  C9  UNL     1      -7.749   1.173   1.055  1.00  0.00     0.068 A 
HETATM   26  S2  UNL     1      -6.338   1.514   0.153  1.00  0.00    -0.087 SA
ENDBRANCH  20  21
ENDBRANCH   6  20
TORSDOF 6
