REMARK  13 active torsions:
REMARK  status: ('A' for Active; 'I' for Inactive)
REMARK    1  A    between atoms: C2_2  and  C3_3 
REMARK    2  A    between atoms: C2_2  and  C17_40 
REMARK    3  A    between atoms: C3_3  and  C4_4 
REMARK    4  A    between atoms: C4_4  and  N1_5 
REMARK    5  A    between atoms: C4_4  and  C5_9 
REMARK    6  A    between atoms: C5_9  and  N2_10 
REMARK    7  A    between atoms: C8_19  and  N5_20 
REMARK    8  A    between atoms: N5_20  and  C9_22 
REMARK    9  A    between atoms: C9_22  and  C10_23 
REMARK   10  A    between atoms: C10_23  and  C11_24 
REMARK   11  A    between atoms: C11_24  and  S1_25 
REMARK   12  A    between atoms: S1_25  and  C12_26 
REMARK   13  A    between atoms: C15_32  and  N8_33 
ROOT
HETATM    1  C12 UNL     1       4.871   1.000  -0.448  1.00  0.00     0.112 A 
HETATM    2  N6  UNL     1       5.618   2.049  -0.059  1.00  0.00    -0.336 N 
ATOM      3  H6  UNL     1       5.214   2.766   0.544  1.00  0.00     0.167 HD
HETATM    4  C13 UNL     1       6.913   2.156  -0.468  1.00  0.00     0.159 A 
HETATM    5  C14 UNL     1       7.741   3.265  -0.071  1.00  0.00     0.121 C 
HETATM    6  N7  UNL     1       8.414   4.171   0.236  1.00  0.00    -0.190 NA
HETATM    7  C15 UNL     1       7.487   1.203  -1.282  1.00  0.00     0.138 A 
HETATM    8  N9  UNL     1       6.749   0.150  -1.677  1.00  0.00    -0.327 N 
ATOM      9  H9  UNL     1       7.155  -0.566  -2.279  1.00  0.00     0.168 HD
HETATM   10  C16 UNL     1       5.468   0.049  -1.270  1.00  0.00     0.151 A 
HETATM   11  N10 UNL     1       4.672  -1.053  -1.674  1.00  0.00    -0.080 NA
ENDROOT
BRANCH   7  12
HETATM   12  N8  UNL     1       8.715   1.325  -1.657  1.00  0.00    -0.383 N 
ATOM     13  H82 UNL     1       9.275   2.123  -1.357  1.00  0.00     0.157 HD
ATOM     14  H81 UNL     1       9.140   0.620  -2.259  1.00  0.00     0.157 HD
ENDBRANCH   7  12
BRANCH   1  15
HETATM   15  S1  UNL     1       3.168   0.794   0.048  1.00  0.00    -0.109 SA
BRANCH  15  16
HETATM   16  C11 UNL     1       3.065  -0.148   1.617  1.00  0.00     0.082 C 
BRANCH  16  17
HETATM   17  C10 UNL     1       1.567  -0.254   1.929  1.00  0.00     0.031 C 
BRANCH  17  18
HETATM   18  C9  UNL     1       0.940  -0.978   0.775  1.00  0.00     0.139 C 
BRANCH  18  19
HETATM   19  N5  UNL     1      -0.478  -1.155   0.928  1.00  0.00    -0.226 N 
ATOM     20  H5  UNL     1      -0.952  -0.638   1.668  1.00  0.00     0.177 HD
BRANCH  19  21
HETATM   21  C8  UNL     1      -1.178  -1.929   0.183  1.00  0.00     0.688 A 
HETATM   22  N2  UNL     1      -2.527  -2.011   0.431  1.00  0.00    -0.130 N 
HETATM   23  C6  UNL     1      -3.305  -2.809  -0.321  1.00  0.00     0.344 A 
HETATM   24  O1  UNL     1      -4.559  -2.886  -0.084  1.00  0.00    -0.246 OA
HETATM   25  N3  UNL     1      -2.770  -3.538  -1.330  1.00  0.00    -0.259 N 
HETATM   26  C7  UNL     1      -1.451  -3.471  -1.588  1.00  0.00     0.342 A 
ATOM     27  H3  UNL     1      -3.369  -4.139  -1.896  1.00  0.00     0.175 HD
HETATM   28  O2  UNL     1      -0.952  -4.149  -2.527  1.00  0.00    -0.246 OA
HETATM   29  N4  UNL     1      -0.696  -2.661  -0.815  1.00  0.00    -0.141 N 
ATOM     30  H4  UNL     1       0.304  -2.608  -1.009  1.00  0.00     0.189 HD
BRANCH  22  31
HETATM   31  C5  UNL     1      -3.100  -1.214   1.477  1.00  0.00     0.185 C 
BRANCH  31  32
HETATM   32  C4  UNL     1      -3.399   0.220   1.072  1.00  0.00     0.203 C 
BRANCH  32  33
HETATM   33  C3  UNL     1      -4.351   0.290  -0.061  1.00  0.00     0.049 C 
BRANCH  33  34
HETATM   34  C2  UNL     1      -4.619   1.633  -0.645  1.00  0.00     0.085 C 
HETATM   35  C1  UNL     1      -5.584   1.387  -1.840  1.00  0.00     0.021 C 
BRANCH  34  36
HETATM   36  C17 UNL     1      -5.252   2.635   0.205  1.00  0.00     0.176 C 
HETATM   37  O3  UNL     1      -5.966   2.337   1.172  1.00  0.00    -0.648 OA
HETATM   38  O4  UNL     1      -5.046   4.002  -0.093  1.00  0.00    -0.648 OA
ENDBRANCH  34  36
ENDBRANCH  33  34
ENDBRANCH  32  33
BRANCH  32  39
HETATM   39  N1  UNL     1      -3.730   0.973   2.246  1.00  0.00    -0.073 N 
ATOM     40  H13 UNL     1      -3.886   1.948   1.992  1.00  0.00     0.274 HD
ATOM     41  H12 UNL     1      -4.662   0.711   2.567  1.00  0.00     0.274 HD
ATOM     42  H11 UNL     1      -3.075   0.925   3.026  1.00  0.00     0.274 HD
ENDBRANCH  32  39
ENDBRANCH  31  32
ENDBRANCH  22  31
ENDBRANCH  19  21
ENDBRANCH  18  19
ENDBRANCH  17  18
ENDBRANCH  16  17
ENDBRANCH  15  16
ENDBRANCH   1  15
TORSDOF 13
