REMARK  3 active torsions:
REMARK  status: ('A' for Active; 'I' for Inactive)
REMARK    1  A    between atoms: C2_2  and  N1_3 
REMARK    2  A    between atoms: C2_2  and  C3_7 
REMARK       I    between atoms: C3_7  and  N2_9 
REMARK    3  A    between atoms: N2_9  and  C4_11 
ROOT
HETATM    1  C3  UNL     1       1.005  -0.297  -0.759  1.00  0.00     0.248 C 
HETATM    2  O1  UNL     1       0.961  -0.418  -2.010  1.00  0.00    -0.271 OA
HETATM    3  N2  UNL     1      -0.200  -0.170  -0.028  1.00  0.00    -0.355 N 
ATOM      4  H2  UNL     1      -0.159  -0.071   0.986  1.00  0.00     0.162 HD
ENDROOT
BRANCH   1   5
HETATM    5  C2  UNL     1       2.337  -0.292  -0.103  1.00  0.00     0.270 C 
HETATM    6  C1  UNL     1       3.179   0.881  -0.546  1.00  0.00     0.050 C 
BRANCH   5   7
HETATM    7  N1  UNL     1       2.112  -0.142   1.322  1.00  0.00    -0.067 N 
ATOM      8  H13 UNL     1       2.976  -0.046   1.855  1.00  0.00     0.275 HD
ATOM      9  H12 UNL     1       1.704   0.759   1.570  1.00  0.00     0.275 HD
ATOM     10  H11 UNL     1       1.543  -0.934   1.621  1.00  0.00     0.275 HD
ENDBRANCH   5   7
ENDBRANCH   1   5
BRANCH   3  11
HETATM   11  C4  UNL     1      -1.488  -0.177  -0.685  1.00  0.00     0.084 C 
HETATM   12  C5  UNL     1      -2.450   0.881  -0.183  1.00  0.00     0.025 C 
HETATM   13  C6  UNL     1      -2.908  -0.127   0.863  1.00  0.00     0.004 C 
HETATM   14  C7  UNL     1      -2.432  -1.218  -0.098  1.00  0.00     0.025 C 
ENDBRANCH   3  11
TORSDOF 3
