REMARK  2 active torsions:
REMARK  status: ('A' for Active; 'I' for Inactive)
REMARK    1  A    between atoms: C2_2  and  C4_4 
REMARK    2  A    between atoms: C8_8  and  N1_9 
REMARK       I    between atoms: N1_9  and  C9_11 
ROOT
HETATM    1  C4  UNL     1      -0.747  -0.468   0.020  1.00  0.00     0.012 C 
HETATM    2  C5  UNL     1      -1.227  -0.462  -1.416  1.00  0.00     0.007 C 
HETATM    3  C6  UNL     1      -0.127  -1.295  -2.047  1.00  0.00     0.002 C 
HETATM    4  C7  UNL     1       1.108  -0.752  -1.388  1.00  0.00     0.025 C 
HETATM    5  C8  UNL     1       0.670  -0.028  -0.136  1.00  0.00     0.088 C 
ENDROOT
BRANCH   5   6
HETATM    6  N1  UNL     1       1.493  -0.297   1.000  1.00  0.00    -0.360 N 
HETATM    7  C9  UNL     1       2.865   0.078   0.965  1.00  0.00     0.182 C 
HETATM    8  N2  UNL     1       3.736  -0.474   1.764  1.00  0.00    -0.374 N 
HETATM    9  N3  UNL     1       3.361   1.065   0.068  1.00  0.00    -0.064 NA
ATOM     10  H22 UNL     1       3.380  -1.182   2.407  1.00  0.00     0.158 HD
ATOM     11  H21 UNL     1       4.720  -0.205   1.739  1.00  0.00     0.158 HD
ATOM     12  H1  UNL     1       1.102  -0.752   1.825  1.00  0.00     0.162 HD
ENDBRANCH   5   6
BRANCH   1  13
HETATM   13  C2  UNL     1      -1.576   0.369   0.924  1.00  0.00    -0.017 C 
HETATM   14  C1  UNL     1      -1.641   1.813   0.565  1.00  0.00     0.010 C 
HETATM   15  C3  UNL     1      -2.977  -0.230   0.957  1.00  0.00     0.010 C 
ENDBRANCH   1  13
TORSDOF 2
