REMARK  13 active torsions:
REMARK  status: ('A' for Active; 'I' for Inactive)
REMARK    1  A    between atoms: C2_2  and  C3_3 
REMARK    2  A    between atoms: C4_6  and  N2_7 
REMARK    3  A    between atoms: N2_7  and  C5_9 
REMARK    4  A    between atoms: C5_9  and  C6_10 
REMARK    5  A    between atoms: C6_10  and  N3_11 
REMARK    6  A    between atoms: C11_19  and  N5_20 
REMARK    7  A    between atoms: N5_20  and  C12_22 
REMARK    8  A    between atoms: C20_31  and  N7_32 
REMARK    9  A    between atoms: N7_32  and  C21_34 
REMARK   10  A    between atoms: C21_34  and  C22_35 
REMARK   11  A    between atoms: C22_35  and  C23_36 
REMARK   12  A    between atoms: C26_39  and  O2_40 
REMARK   13  A    between atoms: C28_42  and  O3_43 
ROOT
HETATM    1  C3  UNL     1      -1.002   2.191   0.737  1.00  0.00     0.056 A 
HETATM    2  N1  UNL     1      -2.318   1.952   0.472  1.00  0.00    -0.193 N 
ATOM      3  H1  UNL     1      -3.010   2.692   0.585  1.00  0.00     0.184 HD
HETATM    4  C4  UNL     1      -2.690   0.733   0.061  1.00  0.00     0.680 A 
HETATM    5  N4  UNL     1      -1.756  -0.237  -0.083  1.00  0.00    -0.175 N 
ATOM      6  H4  UNL     1      -2.060  -1.159  -0.397  1.00  0.00     0.186 HD
HETATM    7  C11 UNL     1      -0.466  -0.049   0.164  1.00  0.00     0.146 A 
HETATM    8  C20 UNL     1      -0.047   1.223   0.598  1.00  0.00     0.096 A 
ENDROOT
BRANCH   8   9
HETATM    9  N7  UNL     1       1.303   1.477   0.894  1.00  0.00    -0.385 N 
ATOM     10  H7  UNL     1       1.832   1.975   0.178  1.00  0.00     0.159 HD
BRANCH   9  11
HETATM   11  C21 UNL     1       2.023   1.126   2.069  1.00  0.00     0.124 C 
BRANCH  11  12
HETATM   12  C22 UNL     1       3.437   1.613   2.134  1.00  0.00     0.058 C 
BRANCH  12  13
HETATM   13  C23 UNL     1       4.310   1.120   1.045  1.00  0.00    -0.054 A 
HETATM   14  C24 UNL     1       4.524   1.796  -0.136  1.00  0.00     0.010 A 
HETATM   15  C25 UNL     1       5.343   1.297  -1.128  1.00  0.00     0.040 A 
HETATM   16  C26 UNL     1       5.999   0.090  -1.000  1.00  0.00     0.101 A 
HETATM   17  C28 UNL     1       5.795  -0.603   0.181  1.00  0.00     0.102 A 
HETATM   18  C30 UNL     1       4.977  -0.105   1.172  1.00  0.00     0.046 A 
BRANCH  16  19
HETATM   19  O2  UNL     1       6.825  -0.418  -1.994  1.00  0.00    -0.353 OA
HETATM   20  C27 UNL     1       7.009   0.321  -3.188  1.00  0.00     0.210 C 
ENDBRANCH  16  19
BRANCH  17  21
HETATM   21  O3  UNL     1       6.463  -1.819   0.294  1.00  0.00    -0.353 OA
HETATM   22  C29 UNL     1       6.334  -2.614   1.449  1.00  0.00     0.210 C 
ENDBRANCH  17  21
ENDBRANCH  12  13
ENDBRANCH  11  12
ENDBRANCH   9  11
ENDBRANCH   8   9
BRANCH   1  23
HETATM   23  C2  UNL     1      -0.690   3.560   1.168  1.00  0.00     0.055 C 
HETATM   24  C1  UNL     1      -0.506   3.697   2.655  1.00  0.00     0.011 C 
ENDBRANCH   1  23
BRANCH   7  25
HETATM   25  N5  UNL     1       0.455  -0.920   0.047  1.00  0.00    -0.367 N 
ATOM     26  H5  UNL     1       1.398  -0.608   0.279  1.00  0.00     0.161 HD
BRANCH  25  27
HETATM   27  C12 UNL     1       0.331  -2.278  -0.368  1.00  0.00     0.118 C 
HETATM   28  C13 UNL     1       1.028  -3.262   0.560  1.00  0.00     0.068 C 
HETATM   29  C14 UNL     1       1.025  -4.509  -0.337  1.00  0.00     0.154 C 
HETATM   30  C15 UNL     1      -0.388  -5.091  -0.400  1.00  0.00     0.049 C 
HETATM   31  C16 UNL     1       1.925  -5.575   0.211  1.00  0.00     0.049 C 
HETATM   32  N6  UNL     1       1.429  -3.975  -1.597  1.00  0.00     0.099 N 
HETATM   33  C17 UNL     1       2.815  -4.125  -1.910  1.00  0.00     0.311 C 
HETATM   34  C18 UNL     1       1.050  -2.591  -1.672  1.00  0.00     0.242 C 
HETATM   35  C19 UNL     1       0.150  -2.306  -2.849  1.00  0.00     0.045 C 
ENDBRANCH  25  27
ENDBRANCH   7  25
BRANCH   4  36
HETATM   36  N2  UNL     1      -3.942   0.488  -0.193  1.00  0.00    -0.224 N 
ATOM     37  H2  UNL     1      -4.214  -0.444  -0.506  1.00  0.00     0.177 HD
BRANCH  36  38
HETATM   38  C5  UNL     1      -4.953   1.504  -0.042  1.00  0.00     0.168 C 
BRANCH  38  39
HETATM   39  C6  UNL     1      -6.343   0.969  -0.120  1.00  0.00     0.292 C 
BRANCH  39  40
HETATM   40  N3  UNL     1      -7.296   2.021   0.037  1.00  0.00     0.094 N 
HETATM   41  C7  UNL     1      -7.352   2.631   1.323  1.00  0.00     0.298 C 
HETATM   42  C8  UNL     1      -8.257   3.854   1.211  1.00  0.00     0.198 C 
HETATM   43  O1  UNL     1      -7.693   4.844   0.428  1.00  0.00    -0.388 OA
HETATM   44  C9  UNL     1      -6.789   4.369  -0.508  1.00  0.00     0.198 C 
HETATM   45  C10 UNL     1      -7.189   3.000  -0.997  1.00  0.00     0.298 C 
ENDBRANCH  39  40
ENDBRANCH  38  39
ENDBRANCH  36  38
ENDBRANCH   4  36
TORSDOF 13
