REMARK  4 active torsions:
REMARK  status: ('A' for Active; 'I' for Inactive)
REMARK    1  A    between atoms: C3_5  and  O1_6 
REMARK    2  A    between atoms: O1_6  and  N2_7 
REMARK    3  A    between atoms: N2_7  and  C4_9 
REMARK    4  A    between atoms: C4_9  and  N3_10 
ROOT
HETATM    1  C1  UNL     1      -2.443  -0.347  -1.548  1.00  0.00     0.089 C 
HETATM    2  C2  UNL     1      -1.651   0.080  -0.365  1.00  0.00     0.096 A 
HETATM    3  N1  UNL     1      -0.311   0.149  -0.440  1.00  0.00    -0.309 N 
ATOM      4  H1  UNL     1       0.142  -0.097  -1.320  1.00  0.00     0.170 HD
HETATM    5  C3  UNL     1       0.459   0.529   0.598  1.00  0.00     0.263 A 
HETATM    6  N4  UNL     1      -0.185   0.842   1.734  1.00  0.00    -0.153 N 
ATOM      7  H4  UNL     1       0.355   1.135   2.548  1.00  0.00     0.188 HD
HETATM    8  C5  UNL     1      -1.528   0.778   1.825  1.00  0.00     0.680 A 
HETATM    9  N5  UNL     1      -2.116   1.086   2.932  1.00  0.00    -0.234 N 
ATOM     10  H51 UNL     1      -3.133   1.038   3.001  1.00  0.00     0.174 HD
ATOM     11  H52 UNL     1      -1.545   1.375   3.726  1.00  0.00     0.174 HD
HETATM   12  N6  UNL     1      -2.278   0.398   0.781  1.00  0.00    -0.181 N 
ATOM     13  H6  UNL     1      -3.294   0.351   0.854  1.00  0.00     0.185 HD
ENDROOT
BRANCH   5  14
HETATM   14  O1  UNL     1       1.854   0.590   0.486  1.00  0.00    -0.199 OA
BRANCH  14  15
HETATM   15  N2  UNL     1       2.453   0.256  -0.705  1.00  0.00    -0.254 N 
ATOM     16  H2  UNL     1       1.884   0.215  -1.551  1.00  0.00     0.195 HD
BRANCH  15  17
HETATM   17  C4  UNL     1       3.834  -0.033  -0.793  1.00  0.00     0.197 C 
BRANCH  17  18
HETATM   18  N3  UNL     1       4.444  -0.372   0.296  1.00  0.00    -0.394 N 
ATOM     19  H32 UNL     1       3.933  -0.424   1.177  1.00  0.00     0.156 HD
ATOM     20  H31 UNL     1       5.440  -0.581   0.233  1.00  0.00     0.156 HD
ENDBRANCH  17  18
ENDBRANCH  15  17
ENDBRANCH  14  15
ENDBRANCH   5  14
TORSDOF 4
