REMARK  14 active torsions:
REMARK  status: ('A' for Active; 'I' for Inactive)
REMARK    1  A    between atoms: C3_3  and  C4_4 
REMARK    2  A    between atoms: C5_5  and  O1_6 
REMARK    3  A    between atoms: C12_14  and  O2_15 
REMARK    4  A    between atoms: C12_14  and  C13_17 
REMARK    5  A    between atoms: C13_17  and  C15_19 
REMARK    6  A    between atoms: C15_19  and  N1_21 
REMARK    7  A    between atoms: N1_21  and  C16_23 
REMARK    8  A    between atoms: C16_23  and  C17_24 
REMARK    9  A    between atoms: C20_28  and  O3_29 
REMARK   10  A    between atoms: O3_29  and  C21_30 
REMARK   11  A    between atoms: C23_33  and  O5_34 
REMARK   12  A    between atoms: O5_34  and  C24_35 
REMARK   13  A    between atoms: C24_35  and  O7_37 
REMARK   14  A    between atoms: O7_37  and  C25_38 
ROOT
HETATM    1  C4  UNL     1       0.377   1.028  -1.643  1.00  0.00     0.028 C 
HETATM    2  C5  UNL     1      -0.178   2.463  -1.589  1.00  0.00     0.124 C 
HETATM    3  C6  UNL     1      -1.654   2.163  -1.365  1.00  0.00     0.044 C 
HETATM    4  C7  UNL     1      -1.551   1.183  -0.214  1.00  0.00    -0.006 C 
HETATM    5  C8  UNL     1      -1.285   1.926   1.072  1.00  0.00     0.019 C 
HETATM    6  C9  UNL     1      -0.359   0.288  -0.605  1.00  0.00     0.004 C 
HETATM    7  C10 UNL     1      -0.992  -0.979  -1.169  1.00  0.00     0.009 C 
HETATM    8  C11 UNL     1      -2.482  -0.753  -1.226  1.00  0.00     0.040 C 
HETATM    9  C12 UNL     1      -2.737   0.292  -0.171  1.00  0.00     0.075 C 
ENDROOT
BRANCH   1  10
HETATM   10  C3  UNL     1       1.850   1.152  -1.542  1.00  0.00     0.026 C 
HETATM   11  C2  UNL     1       2.659  -0.022  -1.600  1.00  0.00    -0.053 C 
HETATM   12  C1  UNL     1       2.514  -1.199  -2.257  1.00  0.00     0.017 C 
HETATM   13  C23 UNL     1       3.862   0.186  -0.778  1.00  0.00     0.192 C 
HETATM   14  C20 UNL     1       3.807   1.593  -0.333  1.00  0.00     0.166 C 
HETATM   15  C19 UNL     1       2.301   1.928  -0.331  1.00  0.00     0.045 C 
BRANCH  13  16
HETATM   16  O5  UNL     1       4.064  -0.763   0.215  1.00  0.00    -0.286 OA
BRANCH  16  17
HETATM   17  C24 UNL     1       5.123  -1.642   0.311  1.00  0.00     0.407 C 
HETATM   18  O6  UNL     1       5.997  -1.596  -0.575  1.00  0.00    -0.229 OA
BRANCH  17  19
HETATM   19  O7  UNL     1       5.263  -2.565   1.332  1.00  0.00    -0.298 OA
BRANCH  19  20
HETATM   20  C25 UNL     1       6.388  -3.418   1.331  1.00  0.00     0.176 C 
HETATM   21  C26 UNL     1       6.329  -4.222   0.034  1.00  0.00     0.034 C 
ENDBRANCH  19  20
ENDBRANCH  17  19
ENDBRANCH  16  17
ENDBRANCH  13  16
BRANCH  14  22
HETATM   22  O3  UNL     1       4.385   1.837   0.925  1.00  0.00    -0.313 OA
BRANCH  22  23
HETATM   23  C21 UNL     1       5.345   2.765   1.178  1.00  0.00     0.255 C 
HETATM   24  C22 UNL     1       5.876   2.929   2.546  1.00  0.00     0.126 C 
HETATM   25  O4  UNL     1       5.782   3.484   0.254  1.00  0.00    -0.266 OA
ENDBRANCH  22  23
ENDBRANCH  14  22
ENDBRANCH   1  10
BRANCH   2  26
HETATM   26  O1  UNL     1      -0.010   3.069  -2.810  1.00  0.00    -0.395 OA
ATOM     27  H1  UNL     1      -0.352   3.954  -2.777  1.00  0.00     0.210 HD
ENDBRANCH   2  26
BRANCH   9  28
HETATM   28  O2  UNL     1      -2.746  -0.297   1.113  1.00  0.00    -0.388 OA
ATOM     29  H2  UNL     1      -3.505  -0.867   1.141  1.00  0.00     0.210 HD
ENDBRANCH   9  28
BRANCH   9  30
HETATM   30  C13 UNL     1      -4.064   0.931  -0.390  1.00  0.00     0.078 C 
HETATM   31  C14 UNL     1      -4.401   1.991   0.647  1.00  0.00     0.020 C 
BRANCH  30  32
HETATM   32  C15 UNL     1      -5.192  -0.033  -0.382  1.00  0.00     0.080 C 
HETATM   33  S1  UNL     1      -6.083  -0.254  -1.757  1.00  0.00    -0.065 SA
BRANCH  32  34
HETATM   34  N1  UNL     1      -5.564  -0.795   0.753  1.00  0.00    -0.381 N 
ATOM     35  H1  UNL     1      -5.036  -0.683   1.619  1.00  0.00     0.160 HD
BRANCH  34  36
HETATM   36  C16 UNL     1      -6.678  -1.735   0.721  1.00  0.00     0.157 C 
BRANCH  36  37
HETATM   37  C17 UNL     1      -6.887  -2.428   2.024  1.00  0.00     0.183 C 
HETATM   38  C18 UNL     1      -5.658  -3.207   2.410  1.00  0.00     0.046 C 
HETATM   39  F1  UNL     1      -7.910  -3.345   1.852  1.00  0.00    -0.248 F 
ENDBRANCH  36  37
ENDBRANCH  34  36
ENDBRANCH  32  34
ENDBRANCH  30  32
ENDBRANCH   9  30
TORSDOF 14
