REMARK  12 active torsions:
REMARK  status: ('A' for Active; 'I' for Inactive)
REMARK    1  A    between atoms: O1_2  and  C2_3 
REMARK    2  A    between atoms: C4_5  and  C5_6 
REMARK    3  A    between atoms: C6_9  and  N2_10 
REMARK    4  A    between atoms: N2_10  and  C7_12 
REMARK    5  A    between atoms: C7_12  and  C9_14 
REMARK    6  A    between atoms: C15_24  and  C16_25 
REMARK    7  A    between atoms: C17_26  and  C18_27 
REMARK    8  A    between atoms: C18_27  and  O2_28 
REMARK    9  A    between atoms: C18_27  and  C19_30 
REMARK   10  A    between atoms: C19_30  and  O3_31 
REMARK   11  A    between atoms: C22_37  and  O4_38 
REMARK   12  A    between atoms: C24_40  and  O5_41 
ROOT
HETATM    1  C5  UNL     1       1.703   0.949  -0.569  1.00  0.00     0.117 A 
HETATM    2  N1  UNL     1       0.574   0.276  -0.350  1.00  0.00    -0.327 N 
ATOM      3  H1  UNL     1       0.626  -0.703  -0.069  1.00  0.00     0.169 HD
HETATM    4  C6  UNL     1      -0.625   0.851  -0.489  1.00  0.00     0.123 A 
HETATM    5  C15 UNL     1      -0.684   2.189  -0.874  1.00  0.00     0.077 A 
HETATM    6  C20 UNL     1       0.488   2.875  -1.098  1.00  0.00     0.114 A 
HETATM    7  N4  UNL     1       1.663   2.233  -0.939  1.00  0.00    -0.350 N 
ATOM      8  H4  UNL     1       2.535   2.735  -1.104  1.00  0.00     0.166 HD
ENDROOT
BRANCH   4   9
HETATM    9  N2  UNL     1      -1.752   0.256  -0.292  1.00  0.00    -0.367 N 
ATOM     10  H2  UNL     1      -2.638   0.747  -0.413  1.00  0.00     0.161 HD
BRANCH   9  11
HETATM   11  C7  UNL     1      -1.712  -1.138   0.109  1.00  0.00     0.115 C 
HETATM   12  C8  UNL     1      -1.492  -1.962  -1.104  1.00  0.00     0.037 C 
BRANCH  11  13
HETATM   13  C9  UNL     1      -2.877  -1.431   0.905  1.00  0.00     0.004 A 
HETATM   14  C10 UNL     1      -3.766  -2.423   0.571  1.00  0.00     0.038 A 
HETATM   15  C11 UNL     1      -4.889  -2.696   1.349  1.00  0.00     0.057 A 
HETATM   16 CL1  UNL     1      -5.985  -3.976   0.866  1.00  0.00    -0.082 Cl
HETATM   17  C12 UNL     1      -5.112  -1.950   2.484  1.00  0.00     0.028 A 
HETATM   18  C13 UNL     1      -6.314  -2.261   3.296  1.00  0.00     0.070 C 
HETATM   19  N3  UNL     1      -4.241  -0.979   2.811  1.00  0.00    -0.349 N 
HETATM   20  C14 UNL     1      -3.139  -0.711   2.047  1.00  0.00     0.112 A 
ATOM     21  H3  UNL     1      -4.407  -0.427   3.652  1.00  0.00     0.166 HD
HETATM   22 CL2  UNL     1      -2.100   0.582   2.601  1.00  0.00    -0.064 Cl
ENDBRANCH  11  13
ENDBRANCH   9  11
ENDBRANCH   4   9
BRANCH   5  23
HETATM   23  C16 UNL     1      -1.958   2.834  -1.033  1.00  0.00    -0.059 C 
HETATM   24  C17 UNL     1      -3.029   3.372  -1.187  1.00  0.00    -0.067 C 
BRANCH  24  25
HETATM   25  C18 UNL     1      -4.346   4.015  -1.370  1.00  0.00     0.220 C 
BRANCH  25  26
HETATM   26  O2  UNL     1      -5.189   3.051  -1.894  1.00  0.00    -0.381 OA
ATOM     27  H2  UNL     1      -6.036   3.465  -2.012  1.00  0.00     0.211 HD
ENDBRANCH  25  26
BRANCH  25  28
HETATM   28  C19 UNL     1      -4.878   4.544  -0.059  1.00  0.00     0.208 C 
BRANCH  28  29
HETATM   29  O3  UNL     1      -3.978   5.500   0.395  1.00  0.00    -0.397 OA
ATOM     30  H3  UNL     1      -4.313   5.833   1.220  1.00  0.00     0.209 HD
ENDBRANCH  28  29
ENDBRANCH  25  28
ENDBRANCH  24  25
ENDBRANCH   5  23
BRANCH   1  31
HETATM   31  C4  UNL     1       2.975   0.230  -0.390  1.00  0.00     0.013 A 
HETATM   32  C3  UNL     1       2.931  -1.106  -0.002  1.00  0.00     0.055 A 
HETATM   33  C2  UNL     1       4.048  -1.884   0.197  1.00  0.00     0.105 A 
HETATM   34  C24 UNL     1       5.266  -1.276  -0.006  1.00  0.00     0.135 A 
HETATM   35  C22 UNL     1       5.356   0.060  -0.395  1.00  0.00     0.105 A 
HETATM   36  C21 UNL     1       4.204   0.806  -0.584  1.00  0.00     0.055 A 
BRANCH  33  37
HETATM   37  O1  UNL     1       3.979  -3.215   0.584  1.00  0.00    -0.353 OA
HETATM   38  C1  UNL     1       2.690  -3.770   0.774  1.00  0.00     0.210 C 
ENDBRANCH  33  37
BRANCH  34  39
HETATM   39  O5  UNL     1       6.425  -2.005   0.178  1.00  0.00    -0.351 OA
HETATM   40  C25 UNL     1       6.982  -2.713  -0.904  1.00  0.00     0.210 C 
ENDBRANCH  34  39
BRANCH  35  41
HETATM   41  O4  UNL     1       6.603   0.636  -0.590  1.00  0.00    -0.353 OA
HETATM   42  C23 UNL     1       6.738   1.973  -0.980  1.00  0.00     0.210 C 
ENDBRANCH  35  41
ENDBRANCH   1  31
TORSDOF 12
