REMARK  14 active torsions:
REMARK  status: ('A' for Active; 'I' for Inactive)
REMARK    1  A    between atoms: C3_4  and  N1_5 
REMARK    2  A    between atoms: N1_5  and  C4_7 
REMARK    3  A    between atoms: C5_8  and  C6_9 
REMARK    4  A    between atoms: C6_9  and  N2_10 
REMARK    5  A    between atoms: C6_9  and  N3_14 
REMARK    6  A    between atoms: N6_22  and  N7_23 
REMARK    7  A    between atoms: N7_23  and  N8_25 
REMARK    8  A    between atoms: N8_25  and  C7_27 
REMARK    9  A    between atoms: N8_25  and  N10_33 
REMARK   10  A    between atoms: C7_27  and  C8_28 
REMARK   11  A    between atoms: C8_28  and  N9_29 
REMARK   12  A    between atoms: N10_33  and  N11_34 
REMARK   13  A    between atoms: C9_39  and  O2_40 
REMARK   14  A    between atoms: C9_39  and  C10_42 
ROOT
HETATM    1  C4  UNL     1       0.459  -1.696   0.518  1.00  0.00     0.179 A 
HETATM    2  C5  UNL     1       1.332  -2.798   0.479  1.00  0.00     0.132 A 
HETATM    3  N4  UNL     1       2.555  -2.339   0.212  1.00  0.00    -0.281 N 
ATOM      4  H4  UNL     1       3.391  -2.916   0.124  1.00  0.00     0.188 HD
HETATM    5  N5  UNL     1       2.523  -1.058   0.082  1.00  0.00    -0.218 N 
ATOM      6  H5  UNL     1       3.320  -0.455  -0.124  1.00  0.00     0.210 HD
HETATM    7  N6  UNL     1       1.252  -0.656   0.266  1.00  0.00    -0.135 N 
ENDROOT
BRANCH   1   8
HETATM    8  N1  UNL     1      -0.902  -1.851   0.798  1.00  0.00    -0.319 N 
ATOM      9  H1  UNL     1      -1.200  -2.807   0.990  1.00  0.00     0.169 HD
BRANCH   8  10
HETATM   10  C3  UNL     1      -1.939  -0.867   0.855  1.00  0.00     0.145 C 
HETATM   11  S1  UNL     1      -2.413   0.063   2.340  1.00  0.00    -0.084 SA
HETATM   12  C2  UNL     1      -3.482   1.261   1.469  1.00  0.00     0.116 C 
HETATM   13  C1  UNL     1      -2.822   2.588   1.303  1.00  0.00     0.027 C 
HETATM   14  C9  UNL     1      -3.711   0.491   0.205  1.00  0.00     0.227 C 
HETATM   15  N12 UNL     1      -2.728  -0.466  -0.031  1.00  0.00    -0.331 N 
ATOM     16  H12 UNL     1      -2.647  -0.859  -0.969  1.00  0.00     0.165 HD
BRANCH  14  17
HETATM   17  O2  UNL     1      -4.999  -0.088   0.356  1.00  0.00    -0.362 OA
ATOM     18  H2  UNL     1      -5.144  -0.576  -0.446  1.00  0.00     0.213 HD
ENDBRANCH  14  17
BRANCH  14  19
HETATM   19  C10 UNL     1      -3.768   1.427  -0.950  1.00  0.00     0.288 C 
HETATM   20  N13 UNL     1      -5.014   1.611  -1.604  1.00  0.00    -0.058 NA
HETATM   21  O3  UNL     1      -2.779   2.068  -1.386  1.00  0.00    -0.271 OA
ENDBRANCH  14  19
ENDBRANCH   8  10
ENDBRANCH   1   8
BRANCH   2  22
HETATM   22  C6  UNL     1       1.045  -4.232   0.661  1.00  0.00     0.432 C 
BRANCH  22  23
HETATM   23  N2  UNL     1      -0.079  -4.736  -0.056  1.00  0.00    -0.045 N 
ATOM     24  H23 UNL     1      -0.908  -4.185   0.166  1.00  0.00     0.277 HD
ATOM     25  H22 UNL     1       0.020  -4.525  -1.049  1.00  0.00     0.277 HD
ATOM     26  H21 UNL     1      -0.278  -5.729   0.070  1.00  0.00     0.277 HD
ENDBRANCH  22  23
BRANCH  22  27
HETATM   27  N3  UNL     1       2.204  -5.031   0.306  1.00  0.00    -0.045 N 
ATOM     28  H33 UNL     1       2.531  -4.826  -0.638  1.00  0.00     0.277 HD
ATOM     29  H32 UNL     1       3.036  -4.742   0.821  1.00  0.00     0.277 HD
ATOM     30  H31 UNL     1       2.005  -6.024   0.432  1.00  0.00     0.277 HD
ENDBRANCH  22  27
ENDBRANCH   2  22
BRANCH   7  31
HETATM   31  N7  UNL     1       0.836   0.688   0.198  1.00  0.00    -0.057 N 
ATOM     32  H7  UNL     1      -0.145   0.925   0.344  1.00  0.00     0.229 HD
BRANCH  31  33
HETATM   33  N8  UNL     1       1.780   1.715  -0.074  1.00  0.00     0.268 N 
HETATM   34  O1  UNL     1       1.255   2.817   0.582  1.00  0.00    -0.016 OA
BRANCH  33  35
HETATM   35  C7  UNL     1       1.883   2.082  -1.421  1.00  0.00     0.334 C 
BRANCH  35  36
HETATM   36  C8  UNL     1       2.833   1.409  -2.321  1.00  0.00     0.295 C 
BRANCH  36  37
HETATM   37  N9  UNL     1       4.215   1.479  -1.988  1.00  0.00    -0.074 N 
ATOM     38  H93 UNL     1       4.487   2.456  -1.880  1.00  0.00     0.274 HD
ATOM     39  H92 UNL     1       4.351   1.136  -1.037  1.00  0.00     0.274 HD
ATOM     40  H91 UNL     1       4.873   1.013  -2.612  1.00  0.00     0.274 HD
ENDBRANCH  36  37
ENDBRANCH  35  36
ENDBRANCH  33  35
BRANCH  33  41
HETATM   41  N10 UNL     1       2.932   1.434   0.623  1.00  0.00     0.159 NA
BRANCH  41  42
HETATM   42  N11 UNL     1       3.640   2.627   0.940  1.00  0.00    -0.313 N 
ATOM     43 2H11 UNL     1       3.322   3.560   0.678  1.00  0.00     0.174 HD
ATOM     44 1H11 UNL     1       4.494   2.419   1.457  1.00  0.00     0.174 HD
ENDBRANCH  41  42
ENDBRANCH  33  41
ENDBRANCH  31  33
ENDBRANCH   7  31
TORSDOF 14
