REMARK  3 active torsions:
REMARK  status: ('A' for Active; 'I' for Inactive)
REMARK    1  A    between atoms: C2_2  and  N1_5 
REMARK    2  A    between atoms: N1_5  and  C5_8 
REMARK    3  A    between atoms: C5_8  and  C6_9 
ROOT
HETATM    1  C5  UNL     1       0.278   0.140   0.640  1.00  0.00     0.294 C 
ENDROOT
BRANCH   1   2
HETATM    2  N1  UNL     1      -0.676  -0.772   0.030  1.00  0.00    -0.063 N 
ATOM      3  H12 UNL     1      -0.849  -1.579   0.629  1.00  0.00     0.278 HD
ATOM      4  H11 UNL     1      -0.267  -1.250  -0.773  1.00  0.00     0.278 HD
BRANCH   2   5
HETATM    5  C2  UNL     1      -1.902  -0.117  -0.325  1.00  0.00     0.115 C 
HETATM    6  C1  UNL     1      -1.667   0.925  -1.427  1.00  0.00     0.045 C 
HETATM    7  C3  UNL     1      -2.490   0.676   0.832  1.00  0.00     0.045 C 
HETATM    8  C4  UNL     1      -2.862  -1.139  -0.864  1.00  0.00     0.045 C 
ENDBRANCH   2   5
ENDBRANCH   1   2
BRANCH   1   9
HETATM    9  C6  UNL     1       1.577  -0.652   0.794  1.00  0.00     0.346 C 
HETATM   10  N2  UNL     1       2.606   0.058   1.479  1.00  0.00    -0.045 N 
HETATM   11  C7  UNL     1       3.509   0.463   0.435  1.00  0.00     0.261 C 
ATOM     12  H22 UNL     1       2.269   0.825   2.061  1.00  0.00     0.280 HD
ATOM     13  H21 UNL     1       3.047  -0.469   2.233  1.00  0.00     0.280 HD
HETATM   14  C8  UNL     1       3.240  -0.493  -0.701  1.00  0.00     0.198 C 
HETATM   15  O1  UNL     1       1.981  -0.972  -0.474  1.00  0.00    -0.356 OA
ENDBRANCH   1   9
TORSDOF 3
