REMARK  4 active torsions:
REMARK  status: ('A' for Active; 'I' for Inactive)
REMARK    1  A    between atoms: O1_2  and  C2_3 
REMARK    2  A    between atoms: C7_14  and  N4_15 
REMARK    3  A    between atoms: C8_17  and  N5_18 
REMARK       I    between atoms: N5_18  and  C9_20 
REMARK       I    between atoms: C9_20  and  N6_22 
REMARK    4  A    between atoms: N6_22  and  O3_24 
ROOT
HETATM    1  C2  UNL     1      -2.843   0.250  -0.288  1.00  0.00     0.175 A 
HETATM    2  N1  UNL     1      -3.648  -0.815  -0.449  1.00  0.00    -0.325 N 
ATOM      3  H1  UNL     1      -4.444  -0.741  -1.082  1.00  0.00     0.169 HD
HETATM    4  C3  UNL     1      -3.435  -1.978   0.201  1.00  0.00     0.080 A 
HETATM    5  C4  UNL     1      -4.335  -3.139   0.008  1.00  0.00     0.089 C 
HETATM    6  N2  UNL     1      -2.395  -2.089   1.033  1.00  0.00    -0.329 N 
ATOM      7  H2  UNL     1      -2.248  -2.975   1.516  1.00  0.00     0.168 HD
HETATM    8  C5  UNL     1      -1.528  -1.074   1.262  1.00  0.00     0.154 A 
HETATM    9  C6  UNL     1      -1.779   0.116   0.573  1.00  0.00     0.145 A 
HETATM   10  N3  UNL     1      -0.867   1.185   0.813  1.00  0.00    -0.182 N 
ATOM     11  H3  UNL     1      -0.991   2.082   0.343  1.00  0.00     0.184 HD
HETATM   12  C7  UNL     1       0.217   0.992   1.713  1.00  0.00     0.698 A 
HETATM   13  N7  UNL     1       0.414  -0.124   2.331  1.00  0.00    -0.130 N 
ATOM     14  H7  UNL     1       1.206  -0.211   2.967  1.00  0.00     0.205 HD
HETATM   15  N8  UNL     1      -0.433  -1.206   2.145  1.00  0.00    -0.269 N 
ATOM     16  H8  UNL     1      -0.268  -2.084   2.638  1.00  0.00     0.189 HD
ENDROOT
BRANCH  12  17
HETATM   17  N4  UNL     1       1.109   2.066   1.936  1.00  0.00    -0.186 N 
HETATM   18  C8  UNL     1       2.282   2.094   1.431  1.00  0.00     0.202 C 
ATOM     19  H4  UNL     1       0.806   2.845   2.520  1.00  0.00     0.185 HD
BRANCH  18  20
HETATM   20  N5  UNL     1       2.721   1.028   0.622  1.00  0.00    -0.303 N 
HETATM   21  C9  UNL     1       4.025   1.067   0.065  1.00  0.00     0.346 C 
HETATM   22  O2  UNL     1       4.777   2.043   0.293  1.00  0.00    -0.245 OA
HETATM   23  N6  UNL     1       4.492   0.016  -0.749  1.00  0.00    -0.215 N 
HETATM   24  C10 UNL     1       5.823   0.079  -1.304  1.00  0.00     0.190 C 
ATOM     25  H5  UNL     1       2.107   0.235   0.438  1.00  0.00     0.171 HD
BRANCH  23  26
HETATM   26  O3  UNL     1       3.704  -1.031  -1.002  1.00  0.00    -0.284 OA
ATOM     27  H3  UNL     1       4.019  -1.740  -1.551  1.00  0.00     0.245 HD
ENDBRANCH  23  26
ENDBRANCH  18  20
ENDBRANCH  12  17
BRANCH   1  28
HETATM   28  O1  UNL     1      -3.058   1.443  -0.951  1.00  0.00    -0.339 OA
HETATM   29  C1  UNL     1      -4.098   1.690  -1.841  1.00  0.00     0.211 C 
ENDBRANCH   1  28
TORSDOF 4
