REMARK  7 active torsions:
REMARK  status: ('A' for Active; 'I' for Inactive)
REMARK    1  A    between atoms: N1_1  and  O1_4 
REMARK    2  A    between atoms: O1_4  and  C1_5 
REMARK       I    between atoms: C1_5  and  N2_7 
REMARK    3  A    between atoms: N2_7  and  O3_8 
REMARK    4  A    between atoms: N2_7  and  C2_10 
REMARK    5  A    between atoms: C3_12  and  S2_13 
REMARK    6  A    between atoms: S2_13  and  N3_14 
REMARK    7  A    between atoms: C5_20  and  N4_21 
ROOT
HETATM    1  C2  UNL     1       0.343   0.135   0.322  1.00  0.00     0.143 A 
HETATM    2  S1  UNL     1      -0.949   1.271   0.147  1.00  0.00    -0.054 SA
HETATM    3  C3  UNL     1      -2.188   0.209  -0.317  1.00  0.00     0.124 A 
HETATM    4  C4  UNL     1      -1.566  -1.007  -0.327  1.00  0.00     0.072 A 
HETATM    5  C5  UNL     1      -0.270  -1.051  -0.000  1.00  0.00     0.141 A 
ENDROOT
BRANCH   1   6
HETATM    6  N2  UNL     1       1.693   0.363   0.711  1.00  0.00    -0.155 N 
HETATM    7  C1  UNL     1       2.788   0.131  -0.146  1.00  0.00     0.413 C 
HETATM    8  O2  UNL     1       2.727  -0.248  -1.340  1.00  0.00    -0.234 OA
BRANCH   7   9
HETATM    9  O1  UNL     1       4.092   0.326   0.344  1.00  0.00    -0.186 OA
BRANCH   9  10
HETATM   10  N1  UNL     1       5.210   0.115  -0.432  1.00  0.00    -0.301 N 
ATOM     11  H12 UNL     1       5.070  -0.193  -1.394  1.00  0.00     0.184 HD
ATOM     12  H11 UNL     1       6.156   0.256  -0.077  1.00  0.00     0.184 HD
ENDBRANCH   9  10
ENDBRANCH   7   9
BRANCH   6  13
HETATM   13  O3  UNL     1       1.916   0.826   1.952  1.00  0.00    -0.278 OA
ATOM     14  H3  UNL     1       1.178   0.982   2.530  1.00  0.00     0.245 HD
ENDBRANCH   6  13
ENDBRANCH   1   6
BRANCH   5  15
HETATM   15  N4  UNL     1       0.498  -2.284   0.032  1.00  0.00    -0.113 N 
HETATM   16  O6  UNL     1       1.410  -2.433   0.859  1.00  0.00    -0.532 OA
HETATM   17  O7  UNL     1       0.151  -3.243  -0.868  1.00  0.00    -0.532 OA
ENDBRANCH   5  15
BRANCH   3  18
HETATM   18  S2  UNL     1      -3.862   0.588  -0.675  1.00  0.00     0.263 S 
HETATM   19  O4  UNL     1      -4.542  -0.665  -1.106  1.00  0.00    -0.200 OA
HETATM   20  O5  UNL     1      -3.861   1.582  -1.829  1.00  0.00    -0.200 OA
BRANCH  18  21
HETATM   21  N3  UNL     1      -4.657   1.271   0.689  1.00  0.00    -0.324 N 
ATOM     22  H32 UNL     1      -4.198   1.429   1.586  1.00  0.00     0.169 HD
ATOM     23  H31 UNL     1      -5.631   1.491   0.481  1.00  0.00     0.169 HD
ENDBRANCH  18  21
ENDBRANCH   3  18
TORSDOF 7
