REMARK  11 active torsions:
REMARK  status: ('A' for Active; 'I' for Inactive)
REMARK    1  A    between atoms: C2_2  and  C3_3 
REMARK    2  A    between atoms: C3_3  and  N1_4 
REMARK    3  A    between atoms: C5_6  and  C6_7 
REMARK    4  A    between atoms: C6_7  and  N2_9 
REMARK    5  A    between atoms: N2_9  and  N3_11 
REMARK       I    between atoms: N3_11  and  C7_13 
REMARK    6  A    between atoms: C7_13  and  C8_15 
REMARK    7  A    between atoms: N6_20  and  C9_21 
REMARK    8  A    between atoms: C10_27  and  N9_28 
REMARK    9  A    between atoms: C11_33  and  N11_34 
REMARK   10  A    between atoms: N12_37  and  C12_38 
REMARK   11  A    between atoms: C12_38  and  C13_39 
REMARK       I    between atoms: C13_39  and  N13_41 
ROOT
HETATM    1  N3  UNL     1       2.008   1.356  -1.646  1.00  0.00    -0.262 N 
ATOM      2  H3  UNL     1       1.562   0.566  -1.180  1.00  0.00     0.190 HD
HETATM    3  C7  UNL     1       3.399   1.570  -1.536  1.00  0.00     0.306 C 
HETATM    4  O1  UNL     1       3.989   2.530  -2.092  1.00  0.00    -0.262 OA
ENDROOT
BRANCH   1   5
HETATM    5  N2  UNL     1       1.254   2.257  -2.412  1.00  0.00    -0.287 N 
ATOM      6  H2  UNL     1       1.741   2.896  -3.040  1.00  0.00     0.188 HD
BRANCH   5   7
HETATM    7  C6  UNL     1      -0.162   2.310  -2.343  1.00  0.00     0.130 C 
HETATM    8  S1  UNL     1      -1.016   3.370  -3.243  1.00  0.00    -0.058 SA
BRANCH   7   9
HETATM    9  C5  UNL     1      -0.925   1.422  -1.463  1.00  0.00     0.065 A 
HETATM   10  C4  UNL     1      -1.043   0.050  -1.537  1.00  0.00     0.129 A 
HETATM   11  N1  UNL     1      -1.846  -0.415  -0.530  1.00  0.00    -0.298 N 
HETATM   12  N12 UNL     1      -2.224   0.632   0.158  1.00  0.00    -0.266 N 
HETATM   13  C11 UNL     1      -1.691   1.769  -0.370  1.00  0.00     0.131 A 
BRANCH  11  14
HETATM   14  C3  UNL     1      -2.153  -1.815  -0.321  1.00  0.00     0.148 C 
BRANCH  14  15
HETATM   15  C2  UNL     1      -3.353  -2.291  -1.060  1.00  0.00     0.017 C 
HETATM   16  C1  UNL     1      -3.504  -3.782  -0.716  1.00  0.00     0.007 C 
ENDBRANCH  14  15
ENDBRANCH  11  14
BRANCH  12  17
HETATM   17  C12 UNL     1      -3.073   0.632   1.331  1.00  0.00     0.253 C 
BRANCH  17  18
HETATM   18  C13 UNL     1      -4.503   0.826   0.969  1.00  0.00     0.237 C 
HETATM   19  O3  UNL     1      -4.823   0.995  -0.253  1.00  0.00    -0.272 OA
HETATM   20  N13 UNL     1      -5.499   0.822   1.973  1.00  0.00    -0.364 N 
HETATM   21  C14 UNL     1      -6.885   1.013   1.593  1.00  0.00     0.149 C 
ATOM     22  H13 UNL     1      -5.246   0.687   2.952  1.00  0.00     0.161 HD
ENDBRANCH  17  18
ENDBRANCH  12  17
BRANCH  13  23
HETATM   23  N11 UNL     1      -1.854   2.984   0.057  1.00  0.00    -0.383 N 
ATOM     24 2H11 UNL     1      -1.455   3.835  -0.338  1.00  0.00     0.157 HD
ATOM     25 1H11 UNL     1      -2.421   3.241   0.865  1.00  0.00     0.157 HD
ENDBRANCH  13  23
ENDBRANCH   7   9
ENDBRANCH   5   7
ENDBRANCH   1   5
BRANCH   3  26
HETATM   26  C8  UNL     1       4.189   0.639  -0.744  1.00  0.00     0.208 A 
HETATM   27  N4  UNL     1       3.743  -0.458  -0.076  1.00  0.00    -0.264 N 
HETATM   28  N5  UNL     1       4.760  -1.028   0.516  1.00  0.00    -0.218 N 
ATOM     29  H4  UNL     1       2.776  -0.782  -0.042  1.00  0.00     0.190 HD
HETATM   30  N6  UNL     1       5.883  -0.351   0.269  1.00  0.00    -0.158 N 
ATOM     31  H5  UNL     1       4.703  -1.872   1.086  1.00  0.00     0.210 HD
HETATM   32  N10 UNL     1       5.516   0.657  -0.497  1.00  0.00    -0.255 N 
ATOM     33  H10 UNL     1       6.156   1.364  -0.859  1.00  0.00     0.191 HD
BRANCH  30  34
HETATM   34  C9  UNL     1       7.181  -0.682   0.753  1.00  0.00     0.214 A 
HETATM   35  N7  UNL     1       8.212  -1.182   0.016  1.00  0.00    -0.219 N 
HETATM   36  O2  UNL     1       9.250  -1.367   0.778  1.00  0.00    -0.153 OA
ATOM     37  H7  UNL     1       8.175  -1.381  -0.984  1.00  0.00     0.198 HD
HETATM   38  N8  UNL     1       8.965  -1.012   2.003  1.00  0.00    -0.222 N 
HETATM   39  C10 UNL     1       7.687  -0.579   2.032  1.00  0.00     0.171 A 
ATOM     40  H8  UNL     1       9.600  -1.055   2.800  1.00  0.00     0.198 HD
BRANCH  39  41
HETATM   41  N9  UNL     1       7.041  -0.146   3.059  1.00  0.00    -0.381 N 
ATOM     42  H92 UNL     1       6.075   0.181   3.081  1.00  0.00     0.157 HD
ATOM     43  H91 UNL     1       7.415  -0.070   4.005  1.00  0.00     0.157 HD
ENDBRANCH  39  41
ENDBRANCH  30  34
ENDBRANCH   3  26
TORSDOF 11
