REMARK  13 active torsions:
REMARK  status: ('A' for Active; 'I' for Inactive)
REMARK    1  A    between atoms: C2_2  and  O1_3 
REMARK    2  A    between atoms: O1_3  and  C3_4 
REMARK    3  A    between atoms: C3_4  and  C6_7 
REMARK    4  A    between atoms: C6_7  and  C7_8 
REMARK    5  A    between atoms: C8_9  and  O2_10 
REMARK    6  A    between atoms: O2_10  and  C9_11 
REMARK    7  A    between atoms: C10_13  and  C11_14 
REMARK    8  A    between atoms: C11_14  and  O4_15 
REMARK    9  A    between atoms: C12_17  and  O5_18 
REMARK   10  A    between atoms: C13_20  and  O6_21 
REMARK   11  A    between atoms: C14_23  and  O7_24 
REMARK   12  A    between atoms: O7_24  and  N1_25 
REMARK   13  A    between atoms: C21_35  and  O9_36 
ROOT
HETATM    1  C7  UNL     1       1.021   0.014  -0.175  1.00  0.00     0.049 C 
HETATM    2  C8  UNL     1      -0.235   0.471   0.576  1.00  0.00     0.132 C 
HETATM    3  C15 UNL     1      -0.046   1.837   1.195  1.00  0.00     0.042 C 
HETATM    4  C16 UNL     1       0.318   2.794   0.115  1.00  0.00     0.053 C 
HETATM    5  C17 UNL     1       1.622   2.421  -0.494  1.00  0.00     0.158 C 
HETATM    6  O8  UNL     1       2.284   3.388   0.262  1.00  0.00    -0.372 OA
HETATM    7  C18 UNL     1       1.060   4.027   0.502  1.00  0.00     0.060 C 
HETATM    8  C19 UNL     1       0.848   5.114  -0.547  1.00  0.00     0.046 C 
HETATM    9  C20 UNL     1       0.873   4.502   1.926  1.00  0.00     0.046 C 
HETATM   10  C21 UNL     1       2.105   1.031  -0.098  1.00  0.00     0.154 C 
ENDROOT
BRANCH   2  11
HETATM   11  O2  UNL     1      -1.333   0.581  -0.290  1.00  0.00    -0.353 OA
BRANCH  11  12
HETATM   12  C9  UNL     1      -2.406  -0.215   0.145  1.00  0.00     0.294 C 
HETATM   13  O3  UNL     1      -3.508   0.592   0.219  1.00  0.00    -0.348 OA
HETATM   14  C10 UNL     1      -4.710  -0.014   0.444  1.00  0.00     0.179 C 
HETATM   15  C12 UNL     1      -4.940  -1.304  -0.260  1.00  0.00     0.180 C 
HETATM   16  C13 UNL     1      -3.735  -2.168  -0.419  1.00  0.00     0.185 C 
HETATM   17  C14 UNL     1      -2.607  -1.265  -0.937  1.00  0.00     0.237 C 
BRANCH  14  18
HETATM   18  C11 UNL     1      -5.019  -0.164   1.936  1.00  0.00     0.198 C 
BRANCH  18  19
HETATM   19  O4  UNL     1      -4.081  -0.917   2.599  1.00  0.00    -0.398 OA
ATOM     20  H4  UNL     1      -4.273  -1.010   3.525  1.00  0.00     0.209 HD
ENDBRANCH  18  19
ENDBRANCH  14  18
BRANCH  15  21
HETATM   21  O5  UNL     1      -5.896  -2.026   0.487  1.00  0.00    -0.390 OA
ATOM     22  H5  UNL     1      -6.043  -2.850   0.037  1.00  0.00     0.210 HD
ENDBRANCH  15  21
BRANCH  16  23
HETATM   23  O6  UNL     1      -4.014  -3.084  -1.456  1.00  0.00    -0.390 OA
ATOM     24  H6  UNL     1      -3.246  -3.634  -1.557  1.00  0.00     0.210 HD
ENDBRANCH  16  23
BRANCH  17  25
HETATM   25  O7  UNL     1      -3.083  -0.691  -2.115  1.00  0.00    -0.274 OA
BRANCH  25  26
HETATM   26  N1  UNL     1      -2.283  -0.951  -3.170  1.00  0.00    -0.310 N 
ATOM     27  H12 UNL     1      -1.430  -1.506  -3.098  1.00  0.00     0.184 HD
ATOM     28  H11 UNL     1      -2.631  -0.531  -4.032  1.00  0.00     0.184 HD
ENDBRANCH  25  26
ENDBRANCH  17  25
ENDBRANCH  11  12
ENDBRANCH   2  11
BRANCH   1  29
HETATM   29  C6  UNL     1       1.420  -1.287   0.408  1.00  0.00     0.047 C 
BRANCH  29  30
HETATM   30  C3  UNL     1       2.604  -1.981  -0.143  1.00  0.00     0.054 C 
HETATM   31  C4  UNL     1       2.801  -3.250   0.707  1.00  0.00     0.045 C 
HETATM   32  C5  UNL     1       2.388  -2.495  -1.556  1.00  0.00     0.045 C 
BRANCH  30  33
HETATM   33  O1  UNL     1       3.769  -1.274  -0.035  1.00  0.00    -0.381 OA
BRANCH  33  34
HETATM   34  C2  UNL     1       4.885  -1.937  -0.480  1.00  0.00     0.164 C 
HETATM   35  C1  UNL     1       6.094  -1.021  -0.294  1.00  0.00     0.033 C 
ENDBRANCH  33  34
ENDBRANCH  30  33
ENDBRANCH  29  30
ENDBRANCH   1  29
BRANCH  10  36
HETATM   36  O9  UNL     1       2.753   1.095   1.138  1.00  0.00    -0.393 OA
ATOM     37  H9  UNL     1       3.445   1.744   1.187  1.00  0.00     0.210 HD
ENDBRANCH  10  36
TORSDOF 13
