REMARK  15 active torsions:
REMARK  status: ('A' for Active; 'I' for Inactive)
REMARK    1  A    between atoms: C2_2  and  C3_3 
REMARK    2  A    between atoms: C3_3  and  C4_4 
REMARK    3  A    between atoms: C4_4  and  C5_5 
REMARK    4  A    between atoms: C5_5  and  C6_6 
REMARK    5  A    between atoms: C6_6  and  C7_7 
REMARK    6  A    between atoms: C7_7  and  O1_8 
REMARK    7  A    between atoms: C7_7  and  C8_10 
REMARK    8  A    between atoms: C7_7  and  C20_31 
REMARK    9  A    between atoms: C8_10  and  N1_11 
REMARK   10  A    between atoms: C11_14  and  N2_15 
REMARK   11  A    between atoms: N2_15  and  C12_18 
REMARK   12  A    between atoms: C12_18  and  C13_19 
REMARK   13  A    between atoms: C20_31  and  O3_32 
REMARK   14  A    between atoms: C20_31  and  C21_34 
REMARK   15  A    between atoms: C21_34  and  C22_35 
ROOT
HETATM    1  N1  UNL     1       0.388   0.183   0.256  1.00  0.00    -0.281 N 
HETATM    2  C9  UNL     1       0.917  -0.036  -0.997  1.00  0.00     0.091 C 
HETATM    3  C10 UNL     1       2.203   0.642  -1.363  1.00  0.00     0.089 C 
HETATM    4  C11 UNL     1       2.746   1.669  -0.460  1.00  0.00     0.283 C 
HETATM    5  C19 UNL     1       1.769   2.195   0.484  1.00  0.00     0.267 C 
HETATM    6  O2  UNL     1       1.852   3.379   0.883  1.00  0.00    -0.269 OA
HETATM    7  N3  UNL     1       0.734   1.322   0.926  1.00  0.00    -0.263 N 
ATOM      8  H3  UNL     1       0.229   1.558   1.780  1.00  0.00     0.190 HD
ENDROOT
BRANCH   1   9
HETATM    9  C8  UNL     1      -0.586  -0.621   0.820  1.00  0.00     0.128 C 
BRANCH   9  10
HETATM   10  C7  UNL     1      -1.950  -0.489   0.152  1.00  0.00     0.117 C 
BRANCH  10  11
HETATM   11  C6  UNL     1      -2.237   1.028   0.080  1.00  0.00     0.046 C 
BRANCH  11  12
HETATM   12  C5  UNL     1      -3.501   1.321  -0.661  1.00  0.00     0.004 C 
BRANCH  12  13
HETATM   13  C4  UNL     1      -3.773   2.813  -0.751  1.00  0.00     0.000 C 
BRANCH  13  14
HETATM   14  C3  UNL     1      -2.676   3.562  -1.468  1.00  0.00    -0.000 C 
BRANCH  14  15
HETATM   15  C2  UNL     1      -2.985   5.040  -1.541  1.00  0.00    -0.005 C 
HETATM   16  C1  UNL     1      -3.126   5.650  -0.160  1.00  0.00     0.005 C 
ENDBRANCH  14  15
ENDBRANCH  13  14
ENDBRANCH  12  13
ENDBRANCH  11  12
ENDBRANCH  10  11
BRANCH  10  17
HETATM   17  O1  UNL     1      -1.862  -0.899  -1.146  1.00  0.00    -0.382 OA
ATOM     18  H1  UNL     1      -1.686  -1.831  -1.102  1.00  0.00     0.211 HD
ENDBRANCH  10  17
BRANCH  10  19
HETATM   19  C20 UNL     1      -3.015  -1.134   0.955  1.00  0.00     0.158 C 
BRANCH  19  20
HETATM   20  O3  UNL     1      -2.972  -0.449   2.232  1.00  0.00    -0.392 OA
ATOM     21  H3  UNL     1      -3.655  -0.863   2.747  1.00  0.00     0.210 HD
ENDBRANCH  19  20
BRANCH  19  22
HETATM   22  C21 UNL     1      -2.871  -2.560   1.329  1.00  0.00     0.039 C 
BRANCH  22  23
HETATM   23  C22 UNL     1      -2.775  -3.585   0.245  1.00  0.00    -0.008 C 
HETATM   24  C23 UNL     1      -2.664  -4.935   0.928  1.00  0.00     0.031 C 
HETATM   25  C24 UNL     1      -3.949  -5.645   1.114  1.00  0.00     0.168 C 
HETATM   26  O4  UNL     1      -4.938  -5.315   0.200  1.00  0.00    -0.391 OA
HETATM   27  C25 UNL     1      -4.347  -4.954  -1.006  1.00  0.00     0.168 C 
HETATM   28  C26 UNL     1      -3.852  -3.526  -0.780  1.00  0.00     0.031 C 
ENDBRANCH  22  23
ENDBRANCH  19  22
ENDBRANCH  10  19
ENDBRANCH   9  10
ENDBRANCH   1   9
BRANCH   4  29
HETATM   29  N2  UNL     1       4.009   1.341   0.180  1.00  0.00    -0.058 N 
ATOM     30  H22 UNL     1       4.242   2.025   0.900  1.00  0.00     0.278 HD
ATOM     31  H21 UNL     1       3.917   0.510   0.764  1.00  0.00     0.278 HD
BRANCH  29  32
HETATM   32  C12 UNL     1       5.078   1.195  -0.749  1.00  0.00     0.271 C 
BRANCH  32  33
HETATM   33  C13 UNL     1       6.367   0.849  -0.109  1.00  0.00    -0.031 A 
HETATM   34  C14 UNL     1       7.481   0.674  -0.903  1.00  0.00     0.010 A 
HETATM   35  C15 UNL     1       8.717   0.349  -0.382  1.00  0.00     0.021 A 
HETATM   36  C16 UNL     1       8.875   0.187   0.973  1.00  0.00     0.033 A 
HETATM   37  S1  UNL     1      10.482  -0.237   1.655  1.00  0.00    -0.051 SA
HETATM   38  C17 UNL     1       7.770   0.359   1.779  1.00  0.00     0.052 A 
HETATM   39 CL1  UNL     1       7.970   0.155   3.499  1.00  0.00    -0.083 Cl
HETATM   40  C18 UNL     1       6.521   0.689   1.246  1.00  0.00     0.034 A 
ENDBRANCH  32  33
ENDBRANCH  29  32
ENDBRANCH   4  29
TORSDOF 15
