REMARK  17 active torsions:
REMARK  status: ('A' for Active; 'I' for Inactive)
REMARK    1  A    between atoms: C1_2  and  C2_3 
REMARK       I    between atoms: C1_2  and  N1_7 
REMARK    2  A    between atoms: C2_3  and  C3_4 
REMARK    3  A    between atoms: C3_4  and  O2_5 
REMARK    4  A    between atoms: N1_7  and  C4_9 
REMARK    5  A    between atoms: C4_9  and  C5_10 
REMARK    6  A    between atoms: C5_10  and  C6_11 
REMARK    7  A    between atoms: C6_11  and  C7_12 
REMARK    8  A    between atoms: C7_12  and  C8_13 
REMARK    9  A    between atoms: C8_13  and  C9_14 
REMARK   10  A    between atoms: C9_14  and  O4_19 
REMARK   11  A    between atoms: N2_15  and  O3_17 
REMARK   12  A    between atoms: O4_19  and  C10_20 
REMARK   13  A    between atoms: C10_20  and  C11_21 
REMARK   14  A    between atoms: C11_21  and  N3_22 
REMARK   15  A    between atoms: C12_24  and  C13_25 
REMARK   16  A    between atoms: C14_26  and  O5_27 
REMARK   17  A    between atoms: C19_36  and  C20_37 
ROOT
HETATM    1  C10 UNL     1      -0.557  -0.512   1.839  1.00  0.00     0.196 C 
ENDROOT
BRANCH   1   2
HETATM    2  O4  UNL     1      -0.089  -0.395   0.565  1.00  0.00    -0.336 OA
BRANCH   2   3
HETATM    3  C9  UNL     1       0.734  -1.297  -0.067  1.00  0.00     0.137 C 
HETATM    4  N2  UNL     1       0.663  -2.508   0.262  1.00  0.00    -0.251 N 
ATOM      5  H2  UNL     1      -0.021  -2.696   0.995  1.00  0.00     0.196 HD
BRANCH   3   6
HETATM    6  C8  UNL     1       1.698  -0.843  -1.137  1.00  0.00     0.086 C 
BRANCH   6   7
HETATM    7  C7  UNL     1       3.115  -1.182  -0.787  1.00  0.00     0.012 C 
BRANCH   7   8
HETATM    8  C6  UNL     1       3.565  -0.564   0.512  1.00  0.00     0.029 C 
BRANCH   8   9
HETATM    9  C5  UNL     1       3.550   0.893   0.593  1.00  0.00    -0.010 C 
BRANCH   9  10
HETATM   10  C4  UNL     1       4.366   1.777  -0.251  1.00  0.00     0.087 C 
BRANCH  10  11
HETATM   11  N1  UNL     1       5.764   1.795  -0.168  1.00  0.00    -0.337 N 
HETATM   12  C1  UNL     1       6.719   0.833  -0.477  1.00  0.00     0.223 C 
HETATM   13  O1  UNL     1       6.483  -0.295  -0.931  1.00  0.00    -0.273 OA
ATOM     14  H1  UNL     1       6.151   2.671   0.182  1.00  0.00     0.168 HD
BRANCH  12  15
HETATM   15  C2  UNL     1       8.200   1.178  -0.241  1.00  0.00     0.129 C 
BRANCH  15  16
HETATM   16  C3  UNL     1       9.046   0.017  -0.661  1.00  0.00     0.173 C 
BRANCH  16  17
HETATM   17  O2  UNL     1       8.845  -0.260  -2.025  1.00  0.00    -0.400 OA
ATOM     18  H2  UNL     1       9.382  -0.997  -2.292  1.00  0.00     0.209 HD
ENDBRANCH  16  17
ENDBRANCH  15  16
ENDBRANCH  12  15
ENDBRANCH  10  11
ENDBRANCH   9  10
ENDBRANCH   8   9
ENDBRANCH   7   8
ENDBRANCH   6   7
ENDBRANCH   3   6
BRANCH   4  19
HETATM   19  O3  UNL     1       1.311  -3.599  -0.164  1.00  0.00    -0.288 OA
ATOM     20  H3  UNL     1       1.257  -4.514   0.085  1.00  0.00     0.244 HD
ENDBRANCH   4  19
ENDBRANCH   2   3
ENDBRANCH   1   2
BRANCH   1  21
HETATM   21  C11 UNL     1      -1.399  -1.685   2.202  1.00  0.00     0.146 C 
BRANCH  21  22
HETATM   22  N3  UNL     1      -2.565  -1.739   1.402  1.00  0.00    -0.396 N 
HETATM   23  C12 UNL     1      -3.288  -0.741   0.986  1.00  0.00     0.099 C 
ATOM     24  H3  UNL     1      -2.874  -2.669   1.119  1.00  0.00     0.158 HD
BRANCH  23  25
HETATM   25  C13 UNL     1      -4.429  -1.082   0.180  1.00  0.00     0.043 A 
HETATM   26  C14 UNL     1      -4.787  -2.393  -0.169  1.00  0.00     0.153 A 
HETATM   27  N4  UNL     1      -5.881  -2.388  -0.926  1.00  0.00    -0.336 N 
HETATM   28  C15 UNL     1      -6.264  -1.110  -1.093  1.00  0.00     0.047 A 
ATOM     29  H4  UNL     1      -6.347  -3.209  -1.312  1.00  0.00     0.168 HD
HETATM   30  C16 UNL     1      -7.322  -0.556  -1.789  1.00  0.00     0.049 A 
HETATM   31  C23 UNL     1      -5.372  -0.267  -0.409  1.00  0.00     0.013 A 
HETATM   32  C17 UNL     1      -7.529   0.802  -1.831  1.00  0.00     0.013 A 
HETATM   33 BR1  UNL     1      -9.000   1.539  -2.801  1.00  0.00    -0.051 Br
HETATM   34  C18 UNL     1      -6.663   1.638  -1.165  1.00  0.00     0.027 A 
HETATM   35  C19 UNL     1      -5.584   1.078  -0.456  1.00  0.00    -0.039 A 
BRANCH  26  36
HETATM   36  O5  UNL     1      -4.085  -3.531   0.229  1.00  0.00    -0.345 OA
ATOM     37  H5  UNL     1      -4.327  -4.419  -0.007  1.00  0.00     0.219 HD
ENDBRANCH  26  36
BRANCH  35  38
HETATM   38  C20 UNL     1      -4.718   2.040   0.267  1.00  0.00     0.019 A 
HETATM   39  C21 UNL     1      -4.802   3.542  -0.158  1.00  0.00     0.010 A 
HETATM   40  C22 UNL     1      -5.587   3.107   0.989  1.00  0.00     0.010 A 
ENDBRANCH  35  38
ENDBRANCH  23  25
ENDBRANCH  21  22
ENDBRANCH   1  21
TORSDOF 17
