REMARK  14 active torsions:
REMARK  status: ('A' for Active; 'I' for Inactive)
REMARK    1  A    between atoms: C2_2  and  O1_3 
REMARK    2  A    between atoms: C2_2  and  C3_6 
REMARK    3  A    between atoms: C3_6  and  C4_7 
REMARK    4  A    between atoms: C4_7  and  C5_8 
REMARK    5  A    between atoms: C5_8  and  C6_9 
REMARK    6  A    between atoms: C6_9  and  C7_10 
REMARK    7  A    between atoms: C6_9  and  C33_40 
REMARK    8  A    between atoms: C8_11  and  C9_13 
REMARK    9  A    between atoms: C9_13  and  C10_14 
REMARK   10  A    between atoms: C10_14  and  C11_15 
REMARK   11  A    between atoms: C14_18  and  C15_19 
REMARK   12  A    between atoms: C15_19  and  O2_20 
REMARK   13  A    between atoms: C33_40  and  C34_41 
REMARK   14  A    between atoms: C34_41  and  O4_42 
ROOT
HETATM    1  C11 UNL     1       0.611   1.628   0.806  1.00  0.00    -0.023 C 
HETATM    2  C12 UNL     1      -0.674   1.833   0.897  1.00  0.00    -0.074 C 
HETATM    3  C13 UNL     1      -1.242   3.158   1.301  1.00  0.00     0.042 C 
HETATM    4  C14 UNL     1      -2.767   2.967   1.333  1.00  0.00     0.023 C 
HETATM    5  C16 UNL     1      -2.931   1.916   0.325  1.00  0.00    -0.023 C 
HETATM    6  C17 UNL     1      -2.645   2.497  -1.023  1.00  0.00     0.017 C 
HETATM    7  C18 UNL     1      -4.161   1.054   0.399  1.00  0.00     0.004 C 
HETATM    8  C19 UNL     1      -5.423   1.808   0.602  1.00  0.00     0.033 C 
HETATM    9  C20 UNL     1      -6.575   0.875   0.559  1.00  0.00    -0.022 C 
HETATM   10  C21 UNL     1      -6.513  -0.291  -0.043  1.00  0.00    -0.068 C 
HETATM   11  C22 UNL     1      -7.721  -1.159  -0.033  1.00  0.00     0.113 C 
HETATM   12  C23 UNL     1      -7.295  -2.579   0.098  1.00  0.00     0.130 C 
HETATM   13  O3  UNL     1      -8.087  -3.460  -0.211  1.00  0.00    -0.298 OA
HETATM   14  C24 UNL     1      -5.939  -2.840   0.596  1.00  0.00     0.079 C 
HETATM   15  C25 UNL     1      -4.859  -2.120  -0.189  1.00  0.00     0.021 C 
HETATM   16  C26 UNL     1      -5.307  -0.794  -0.739  1.00  0.00    -0.016 C 
HETATM   17  C27 UNL     1      -5.801  -1.091  -2.178  1.00  0.00     0.020 C 
HETATM   18  C28 UNL     1      -4.201   0.235  -0.836  1.00  0.00     0.003 C 
HETATM   19  C29 UNL     1      -2.896  -0.371  -1.230  1.00  0.00     0.007 C 
HETATM   20  C30 UNL     1      -1.708  -0.059  -0.413  1.00  0.00     0.015 C 
HETATM   21  C31 UNL     1      -1.792   0.936   0.669  1.00  0.00    -0.013 C 
HETATM   22  C32 UNL     1      -2.042   0.215   1.977  1.00  0.00     0.021 C 
ENDROOT
BRANCH   1  23
HETATM   23  C10 UNL     1       1.364   0.431   0.438  1.00  0.00     0.033 C 
BRANCH  23  24
HETATM   24  C9  UNL     1       2.229   0.671  -0.807  1.00  0.00     0.054 C 
BRANCH  24  25
HETATM   25  C8  UNL     1       2.956  -0.634  -1.087  1.00  0.00     0.008 C 
HETATM   26  C7  UNL     1       4.243  -0.678  -1.086  1.00  0.00    -0.003 C 
HETATM   27 CL1  UNL     1       1.933  -1.999  -1.396  1.00  0.00    -0.089 Cl
BRANCH  26  28
HETATM   28  C6  UNL     1       5.185  -1.768  -1.319  1.00  0.00     0.011 C 
BRANCH  28  29
HETATM   29  C5  UNL     1       6.119  -1.936  -0.111  1.00  0.00     0.009 C 
BRANCH  29  30
HETATM   30  C4  UNL     1       6.883  -0.676   0.104  1.00  0.00     0.006 C 
BRANCH  30  31
HETATM   31  C3  UNL     1       7.856  -0.809   1.285  1.00  0.00     0.073 C 
BRANCH  31  32
HETATM   32  C2  UNL     1       8.568   0.522   1.405  1.00  0.00     0.199 C 
HETATM   33  C1  UNL     1       9.306   0.795   0.111  1.00  0.00     0.084 C 
HETATM   34  F1  UNL     1       7.639   1.514   1.586  1.00  0.00    -0.212 F 
BRANCH  32  35
HETATM   35  O1  UNL     1       9.427   0.516   2.494  1.00  0.00    -0.362 OA
ATOM     36  H1  UNL     1       8.964   0.345   3.306  1.00  0.00     0.213 HD
ENDBRANCH  32  35
ENDBRANCH  31  32
ENDBRANCH  30  31
ENDBRANCH  29  30
ENDBRANCH  28  29
BRANCH  28  37
HETATM   37  C33 UNL     1       4.556  -3.094  -1.666  1.00  0.00     0.034 C 
BRANCH  37  38
HETATM   38  C34 UNL     1       5.641  -4.111  -2.008  1.00  0.00     0.164 C 
BRANCH  38  39
HETATM   39  O4  UNL     1       6.427  -3.724  -3.073  1.00  0.00    -0.401 OA
ATOM     40  H4  UNL     1       7.102  -4.357  -3.286  1.00  0.00     0.209 HD
ENDBRANCH  38  39
ENDBRANCH  37  38
ENDBRANCH  28  37
ENDBRANCH  26  28
ENDBRANCH  24  25
ENDBRANCH  23  24
ENDBRANCH   1  23
BRANCH   4  41
HETATM   41  C15 UNL     1      -3.438   4.291   1.092  1.00  0.00     0.169 C 
BRANCH  41  42
HETATM   42  O2  UNL     1      -3.064   5.219   2.095  1.00  0.00    -0.400 OA
ATOM     43  H2  UNL     1      -3.488   6.055   1.943  1.00  0.00     0.209 HD
ENDBRANCH  41  42
ENDBRANCH   4  41
TORSDOF 14
