REMARK  21 active torsions:
REMARK  status: ('A' for Active; 'I' for Inactive)
REMARK    1  A    between atoms: C2_2  and  C3_3 
REMARK    2  A    between atoms: C3_3  and  C4_4 
REMARK    3  A    between atoms: C4_4  and  O1_5 
REMARK    4  A    between atoms: O1_5  and  C5_6 
REMARK       I    between atoms: C5_6  and  N1_8 
REMARK    5  A    between atoms: N1_8  and  C6_10 
REMARK    6  A    between atoms: C6_10  and  C7_11 
REMARK    7  A    between atoms: C7_11  and  C8_12 
REMARK    8  A    between atoms: C8_12  and  C9_13 
REMARK    9  A    between atoms: C9_13  and  C10_14 
REMARK   10  A    between atoms: C10_14  and  C11_15 
REMARK   11  A    between atoms: C11_15  and  C12_16 
REMARK   12  A    between atoms: C12_16  and  N2_17 
REMARK       I    between atoms: N2_17  and  C13_19 
REMARK   13  A    between atoms: C13_19  and  C14_21 
REMARK   14  A    between atoms: C19_28  and  C20_29 
REMARK   15  A    between atoms: C20_29  and  O4_30 
REMARK   16  A    between atoms: C20_29  and  N4_32 
REMARK   17  A    between atoms: N4_32  and  N5_34 
REMARK   18  A    between atoms: N5_34  and  C21_36 
REMARK   19  A    between atoms: C21_36  and  N6_38 
REMARK       I    between atoms: N6_38  and  C22_40 
REMARK   20  A    between atoms: C22_40  and  C23_42 
REMARK   21  A    between atoms: C27_46  and  C28_47 
ROOT
HETATM    1  C14 UNL     1      -1.437  -2.135  -2.670  1.00  0.00     0.042 C 
HETATM    2  C15 UNL     1      -2.060  -2.729  -3.883  1.00  0.00     0.018 C 
HETATM    3  C16 UNL     1      -1.250  -3.427  -4.931  1.00  0.00     0.069 C 
HETATM    4  N3  UNL     1      -3.313  -2.652  -4.004  1.00  0.00    -0.362 N 
ATOM      5  H3  UNL     1      -3.755  -3.072  -4.822  1.00  0.00     0.165 HD
HETATM    6  C17 UNL     1      -4.126  -2.005  -3.047  1.00  0.00     0.017 C 
HETATM    7  C18 UNL     1      -5.597  -2.056  -3.345  1.00  0.00     0.069 C 
HETATM    8  C19 UNL     1      -3.663  -1.393  -1.980  1.00  0.00     0.027 C 
HETATM    9  C27 UNL     1      -2.166  -1.006  -2.087  1.00  0.00     0.088 C 
ENDROOT
BRANCH   1  10
HETATM   10  C13 UNL     1       0.013  -2.074  -2.826  1.00  0.00     0.250 C 
HETATM   11  N2  UNL     1       0.931  -2.102  -1.716  1.00  0.00    -0.357 N 
ATOM     12  H2  UNL     1       0.554  -2.163  -0.770  1.00  0.00     0.162 HD
HETATM   13  O3  UNL     1       0.584  -1.990  -3.949  1.00  0.00    -0.268 OA
BRANCH  11  14
HETATM   14  C12 UNL     1       2.343  -2.048  -1.886  1.00  0.00     0.123 C 
BRANCH  14  15
HETATM   15  C11 UNL     1       3.174  -2.116  -0.666  1.00  0.00     0.020 C 
BRANCH  15  16
HETATM   16  C10 UNL     1       2.860  -0.974   0.257  1.00  0.00     0.002 C 
BRANCH  16  17
HETATM   17  C9  UNL     1       3.695  -1.054   1.502  1.00  0.00     0.000 C 
BRANCH  17  18
HETATM   18  C8  UNL     1       5.153  -0.988   1.200  1.00  0.00     0.002 C 
BRANCH  18  19
HETATM   19  C7  UNL     1       5.536   0.322   0.524  1.00  0.00     0.020 C 
BRANCH  19  20
HETATM   20  C6  UNL     1       7.016   0.358   0.234  1.00  0.00     0.125 C 
BRANCH  20  21
HETATM   21  N1  UNL     1       7.776   0.238   1.447  1.00  0.00    -0.337 N 
HETATM   22  C5  UNL     1       9.215   0.240   1.391  1.00  0.00     0.360 C 
HETATM   23  O2  UNL     1       9.766   0.356   0.263  1.00  0.00    -0.239 OA
ATOM     24  H1  UNL     1       7.298   0.152   2.344  1.00  0.00     0.164 HD
BRANCH  22  25
HETATM   25  O1  UNL     1       9.932   0.116   2.548  1.00  0.00    -0.304 OA
BRANCH  25  26
HETATM   26  C4  UNL     1      11.323   0.106   2.586  1.00  0.00     0.180 C 
BRANCH  26  27
HETATM   27  C3  UNL     1      11.946   1.373   2.117  1.00  0.00     0.026 C 
BRANCH  27  28
HETATM   28  C2  UNL     1      11.480   2.517   3.014  1.00  0.00    -0.002 C 
HETATM   29  C1  UNL     1      12.098   3.813   2.571  1.00  0.00     0.005 C 
ENDBRANCH  27  28
ENDBRANCH  26  27
ENDBRANCH  25  26
ENDBRANCH  22  25
ENDBRANCH  20  21
ENDBRANCH  19  20
ENDBRANCH  18  19
ENDBRANCH  17  18
ENDBRANCH  16  17
ENDBRANCH  15  16
ENDBRANCH  14  15
ENDBRANCH  11  14
ENDBRANCH   1  10
BRANCH   9  30
HETATM   30  C28 UNL     1      -1.949   0.296  -2.756  1.00  0.00     0.042 C 
HETATM   31  C29 UNL     1      -2.707   1.452  -2.184  1.00  0.00     0.033 C 
HETATM   32  C30 UNL     1      -2.172   0.352  -4.248  1.00  0.00     0.033 C 
HETATM   33 CL1  UNL     1      -0.226   0.787  -2.409  1.00  0.00    -0.119 Cl
ENDBRANCH   9  30
BRANCH   8  34
HETATM   34  C20 UNL     1      -4.463  -0.784  -0.987  1.00  0.00     0.164 C 
BRANCH  34  35
HETATM   35  O4  UNL     1      -3.749  -0.270   0.002  1.00  0.00    -0.345 OA
ATOM     36  H4  UNL     1      -4.287   0.139   0.670  1.00  0.00     0.219 HD
ENDBRANCH  34  35
BRANCH  34  37
HETATM   37  N4  UNL     1      -5.807  -0.571  -0.756  1.00  0.00    -0.277 N 
ATOM     38  H4  UNL     1      -6.479  -0.920  -1.440  1.00  0.00     0.189 HD
BRANCH  37  39
HETATM   39  N5  UNL     1      -6.300   0.112   0.391  1.00  0.00    -0.274 N 
ATOM     40  H5  UNL     1      -5.631   0.534   1.035  1.00  0.00     0.189 HD
BRANCH  39  41
HETATM   41  C21 UNL     1      -7.671   0.228   0.670  1.00  0.00     0.193 C 
HETATM   42  S1  UNL     1      -8.714  -0.464  -0.375  1.00  0.00    -0.039 SA
BRANCH  41  43
HETATM   43  N6  UNL     1      -8.191   0.904   1.794  1.00  0.00    -0.302 N 
HETATM   44  C22 UNL     1      -9.570   1.016   2.069  1.00  0.00     0.231 C 
HETATM   45  O5  UNL     1     -10.396   0.496   1.298  1.00  0.00    -0.272 OA
ATOM     46  H6  UNL     1      -7.534   1.336   2.444  1.00  0.00     0.171 HD
BRANCH  44  47
HETATM   47  C23 UNL     1     -10.100   1.739   3.251  1.00  0.00     0.030 C 
HETATM   48  C24 UNL     1      -9.491   1.192   4.520  1.00  0.00     0.025 C 
HETATM   49  C25 UNL     1      -9.865   3.232   3.136  1.00  0.00     0.025 C 
HETATM   50  C26 UNL     1     -11.598   1.553   3.366  1.00  0.00     0.025 C 
ENDBRANCH  44  47
ENDBRANCH  41  43
ENDBRANCH  39  41
ENDBRANCH  37  39
ENDBRANCH  34  37
ENDBRANCH   8  34
TORSDOF 21
