REMARK  4 active torsions:
REMARK  status: ('A' for Active; 'I' for Inactive)
REMARK    1  A    between atoms: N3_10  and  N4_12 
REMARK    2  A    between atoms: C11_20  and  O1_21 
REMARK    3  A    between atoms: C12_24  and  O3_25 
REMARK    4  A    between atoms: C14_28  and  N5_29 
ROOT
HETATM    1  N1  UNL     1       3.143   3.090  -0.308  1.00  0.00    -0.403 N 
ATOM      2  H11 UNL     1       2.209   3.485  -0.417  1.00  0.00     0.155 HD
ATOM      3  H12 UNL     1       3.954   3.670  -0.523  1.00  0.00     0.155 HD
HETATM    4  C1  UNL     1       3.315   1.898   0.087  1.00  0.00     0.019 C 
HETATM    5  C2  UNL     1       4.666   1.326   0.244  1.00  0.00     0.074 C 
HETATM    6  C3  UNL     1       4.695  -0.162   0.347  1.00  0.00     0.127 C 
HETATM    7  N2  UNL     1       3.583  -0.831  -0.268  1.00  0.00    -0.376 N 
ATOM      8  H2  UNL     1       3.709  -1.776  -0.632  1.00  0.00     0.160 HD
HETATM    9  C4  UNL     1       2.308  -0.207  -0.382  1.00  0.00     0.128 C 
HETATM   10  N3  UNL     1       1.439  -0.747  -1.110  1.00  0.00    -0.287 N 
ATOM     11  H3  UNL     1       1.734  -1.610  -1.567  1.00  0.00     0.188 HD
HETATM   12  C14 UNL     1       2.139   1.058   0.398  1.00  0.00     0.296 C 
ENDROOT
BRANCH  10  13
HETATM   13  N4  UNL     1       0.163  -0.356  -1.382  1.00  0.00    -0.302 N 
HETATM   14  C5  UNL     1      -0.895  -0.532  -0.715  1.00  0.00     0.041 C 
HETATM   15  C6  UNL     1      -0.859  -1.270   0.588  1.00  0.00     0.059 C 
HETATM   16  C13 UNL     1      -2.123   0.016  -1.283  1.00  0.00     0.057 A 
HETATM   17  C7  UNL     1      -1.968  -2.251   0.578  1.00  0.00     0.006 C 
HETATM   18  C8  UNL     1      -3.335  -1.820   0.849  1.00  0.00     0.005 C 
HETATM   19  C9  UNL     1      -3.723  -0.401   0.646  1.00  0.00     0.044 C 
HETATM   20  C10 UNL     1      -3.385   0.094  -0.721  1.00  0.00     0.017 A 
HETATM   21  C11 UNL     1      -4.228   0.688  -1.626  1.00  0.00     0.193 A 
HETATM   22  O2  UNL     1      -3.518   0.954  -2.673  1.00  0.00    -0.263 OA
HETATM   23  C12 UNL     1      -2.261   0.580  -2.531  1.00  0.00     0.198 A 
ATOM     24  H4  UNL     1       0.044   0.156  -2.256  1.00  0.00     0.186 HD
BRANCH  21  25
HETATM   25  O1  UNL     1      -5.574   0.912  -1.360  1.00  0.00    -0.340 OA
ATOM     26  H1  UNL     1      -6.158   1.323  -1.987  1.00  0.00     0.220 HD
ENDBRANCH  21  25
BRANCH  23  27
HETATM   27  O3  UNL     1      -1.210   0.696  -3.425  1.00  0.00    -0.340 OA
ATOM     28  H3  UNL     1      -0.305   0.427  -3.323  1.00  0.00     0.220 HD
ENDBRANCH  23  27
ENDBRANCH  10  13
BRANCH  12  29
HETATM   29  N5  UNL     1       2.154   0.686   1.822  1.00  0.00    -0.063 N 
ATOM     30  H53 UNL     1       3.029   0.236   2.091  1.00  0.00     0.275 HD
ATOM     31  H52 UNL     1       2.214   1.502   2.431  1.00  0.00     0.275 HD
ATOM     32  H51 UNL     1       1.343   0.106   2.037  1.00  0.00     0.275 HD
ENDBRANCH  12  29
TORSDOF 4
