REMARK  5 active torsions:
REMARK  status: ('A' for Active; 'I' for Inactive)
REMARK    1  A    between atoms: C2_2  and  C4_4 
REMARK    2  A    between atoms: C5_5  and  O1_6 
REMARK    3  A    between atoms: C9_11  and  O2_12 
REMARK    4  A    between atoms: C10_15  and  O4_16 
REMARK    5  A    between atoms: C12_19  and  O5_20 
ROOT
HETATM    1  C4  UNL     1      -0.967  -0.023   0.118  1.00  0.00     0.037 A 
HETATM    2  C5  UNL     1      -0.136  -1.146   0.218  1.00  0.00     0.086 A 
HETATM    3  C6  UNL     1       1.232  -1.061   0.111  1.00  0.00    -0.012 A 
HETATM    4  C7  UNL     1       2.088  -2.256   0.229  1.00  0.00     0.052 C 
HETATM    5  C8  UNL     1       1.759   0.197  -0.106  1.00  0.00     0.049 A 
HETATM    6  C9  UNL     1       3.043   0.699  -0.272  1.00  0.00     0.197 A 
HETATM    7  O3  UNL     1       2.977   2.011  -0.455  1.00  0.00    -0.263 OA
HETATM    8  C10 UNL     1       1.739   2.433  -0.425  1.00  0.00     0.199 A 
HETATM    9  C11 UNL     1       0.961   1.316  -0.208  1.00  0.00     0.072 A 
HETATM   10  C12 UNL     1      -0.422   1.223  -0.096  1.00  0.00     0.095 A 
ENDROOT
BRANCH   1  11
HETATM   11  C2  UNL     1      -2.407  -0.237   0.271  1.00  0.00    -0.056 C 
HETATM   12  C1  UNL     1      -2.895  -0.920   1.268  1.00  0.00     0.019 C 
HETATM   13  C3  UNL     1      -3.385   0.272  -0.751  1.00  0.00     0.048 C 
ENDBRANCH   1  11
BRANCH   2  14
HETATM   14  O1  UNL     1      -0.754  -2.366   0.432  1.00  0.00    -0.359 OA
ATOM     15  H1  UNL     1      -0.190  -3.128   0.500  1.00  0.00     0.217 HD
ENDBRANCH   2  14
BRANCH  10  16
HETATM   16  O5  UNL     1      -1.173   2.380  -0.201  1.00  0.00    -0.359 OA
ATOM     17  H5  UNL     1      -0.797   3.240  -0.349  1.00  0.00     0.217 HD
ENDBRANCH  10  16
BRANCH   8  18
HETATM   18  O4  UNL     1       1.308   3.760  -0.583  1.00  0.00    -0.340 OA
ATOM     19  H4  UNL     1       0.409   4.066  -0.561  1.00  0.00     0.220 HD
ENDBRANCH   8  18
BRANCH   6  20
HETATM   20  O2  UNL     1       4.190  -0.083  -0.245  1.00  0.00    -0.340 OA
ATOM     21  H2  UNL     1       5.068   0.260  -0.359  1.00  0.00     0.220 HD
ENDBRANCH   6  20
TORSDOF 5
