REMARK  1 active torsions:
REMARK  status: ('A' for Active; 'I' for Inactive)
REMARK    1  A    between atoms: C3_4  and  C4_5 
ROOT
HETATM    1  O1  UNL     1      -0.222   0.997  -3.453  1.00  0.00    -0.285 OA
HETATM    2  C1  UNL     1      -0.378   0.661  -2.226  1.00  0.00     0.210 A 
HETATM    3  C2  UNL     1       0.657   0.243  -1.293  1.00  0.00     0.085 A 
HETATM    4  C3  UNL     1       1.938   0.171  -1.579  1.00  0.00     0.046 C 
HETATM    5  N1  UNL     1       0.002  -0.027  -0.054  1.00  0.00    -0.351 N 
ATOM      6  H1  UNL     1       0.460  -0.342   0.802  1.00  0.00     0.166 HD
HETATM    7  C10 UNL     1      -1.406   0.216  -0.206  1.00  0.00     0.059 A 
HETATM    8  C11 UNL     1      -1.638   0.626  -1.500  1.00  0.00     0.044 A 
HETATM    9  C12 UNL     1      -2.930   0.926  -1.896  1.00  0.00     0.019 A 
HETATM   10  C13 UNL     1      -3.934   0.802  -0.978  1.00  0.00     0.013 A 
HETATM   11  C14 UNL     1      -3.710   0.392   0.318  1.00  0.00    -0.021 A 
HETATM   12  C15 UNL     1      -4.739   0.267   1.261  1.00  0.00     0.029 A 
HETATM   13  C16 UNL     1      -4.510  -0.140   2.554  1.00  0.00     0.088 A 
HETATM   14  N2  UNL     1      -3.246  -0.425   2.911  1.00  0.00    -0.374 N 
ATOM     15  H2  UNL     1      -3.052  -0.729   3.865  1.00  0.00     0.164 HD
HETATM   16  C17 UNL     1      -2.216  -0.315   2.020  1.00  0.00     0.102 A 
HETATM   17  C18 UNL     1      -2.426   0.091   0.723  1.00  0.00     0.017 A 
ENDROOT
BRANCH   4  18
HETATM   18  C4  UNL     1       2.991  -0.240  -0.688  1.00  0.00    -0.012 A 
HETATM   19  C5  UNL     1       2.864  -1.337   0.126  1.00  0.00     0.013 A 
HETATM   20  C6  UNL     1       3.903  -1.679   0.981  1.00  0.00     0.001 A 
HETATM   21  C7  UNL     1       5.084  -0.929   1.034  1.00  0.00     0.002 A 
HETATM   22  C8  UNL     1       5.193   0.153   0.221  1.00  0.00     0.024 A 
HETATM   23  C9  UNL     1       4.151   0.505  -0.643  1.00  0.00     0.044 A 
HETATM   24 CL1  UNL     1       4.401   1.926  -1.646  1.00  0.00    -0.083 Cl
ENDBRANCH   4  18
TORSDOF 1
