REMARK  5 active torsions:
REMARK  status: ('A' for Active; 'I' for Inactive)
REMARK    1  A    between atoms: N2_8  and  C7_9 
REMARK    2  A    between atoms: C7_9  and  C8_10 
REMARK    3  A    between atoms: C11_13  and  N3_14 
REMARK    4  A    between atoms: N3_14  and  S1_16 
REMARK    5  A    between atoms: S1_16  and  C12_19 
ROOT
HETATM    1  C8  UNL     1      -0.333   1.307   1.188  1.00  0.00    -0.040 A 
HETATM    2  C9  UNL     1      -0.261   0.282   2.116  1.00  0.00     0.011 A 
HETATM    3  C10 UNL     1       0.866  -0.501   2.109  1.00  0.00     0.031 A 
HETATM    4  C11 UNL     1       1.890  -0.269   1.204  1.00  0.00     0.042 A 
HETATM    5  C18 UNL     1       1.815   0.754   0.282  1.00  0.00     0.031 A 
HETATM    6  C19 UNL     1       0.668   1.550   0.289  1.00  0.00     0.011 A 
ENDROOT
BRANCH   1   7
HETATM    7  C7  UNL     1      -1.543   2.166   1.178  1.00  0.00     0.166 C 
BRANCH   7   8
HETATM    8  N2  UNL     1      -2.573   1.642   0.293  1.00  0.00    -0.361 N 
HETATM    9  C6  UNL     1      -2.641   1.988  -1.004  1.00  0.00     0.091 A 
HETATM   10  C5  UNL     1      -3.596   1.516  -1.868  1.00  0.00     0.029 A 
HETATM   11  C4  UNL     1      -4.538   0.633  -1.366  1.00  0.00    -0.023 A 
HETATM   12  C3  UNL     1      -5.535   0.105  -2.152  1.00  0.00     0.014 A 
HETATM   13  C21 UNL     1      -4.496   0.258  -0.041  1.00  0.00    -0.009 A 
HETATM   14  C2  UNL     1      -6.444  -0.769  -1.600  1.00  0.00     0.027 A 
HETATM   15  C1  UNL     1      -6.420  -1.160  -0.269  1.00  0.00     0.047 A 
HETATM   16  N1  UNL     1      -7.378  -2.064   0.263  1.00  0.00    -0.102 NA
HETATM   17  C22 UNL     1      -5.419  -0.627   0.514  1.00  0.00     0.040 A 
HETATM   18  C20 UNL     1      -3.490   0.785   0.772  1.00  0.00     0.103 A 
ENDBRANCH   7   8
ENDBRANCH   1   7
BRANCH   4  19
HETATM   19  N3  UNL     1       3.043  -1.111   1.238  1.00  0.00    -0.281 N 
ATOM     20  H3  UNL     1       3.464  -1.339   2.139  1.00  0.00     0.179 HD
BRANCH  19  21
HETATM   21  S1  UNL     1       3.741  -1.751  -0.195  1.00  0.00     0.263 S 
HETATM   22  O1  UNL     1       3.867  -3.255  -0.026  1.00  0.00    -0.200 OA
HETATM   23  O2  UNL     1       2.848  -1.545  -1.390  1.00  0.00    -0.200 OA
BRANCH  21  24
HETATM   24  C12 UNL     1       5.302  -1.027  -0.432  1.00  0.00     0.080 A 
HETATM   25  C13 UNL     1       5.549   0.113  -1.153  1.00  0.00     0.028 A 
HETATM   26  C14 UNL     1       6.816   0.655  -1.315  1.00  0.00     0.044 A 
HETATM   27  C15 UNL     1       7.885   0.031  -0.731  1.00  0.00     0.116 A 
HETATM   28  F1  UNL     1       9.152   0.526  -0.861  1.00  0.00    -0.206 F 
HETATM   29  C16 UNL     1       7.658  -1.117  -0.001  1.00  0.00     0.044 A 
HETATM   30  C17 UNL     1       6.393  -1.661   0.162  1.00  0.00     0.028 A 
ENDBRANCH  21  24
ENDBRANCH  19  21
ENDBRANCH   4  19
TORSDOF 5
