REMARK  6 active torsions:
REMARK  status: ('A' for Active; 'I' for Inactive)
REMARK    1  A    between atoms: N2_5  and  C3_6 
REMARK    2  A    between atoms: C3_6  and  C4_7 
REMARK    3  A    between atoms: C4_7  and  C5_8 
REMARK    4  A    between atoms: N3_9  and  C6_11 
REMARK    5  A    between atoms: C22_31  and  C23_32 
REMARK    6  A    between atoms: C23_32  and  C24_33 
ROOT
HETATM    1  C5  UNL     1      -0.907   2.047  -0.485  1.00  0.00     0.063 C 
HETATM    2  N3  UNL     1      -2.075   1.365  -0.531  1.00  0.00    -0.368 N 
ATOM      3  H3  UNL     1      -2.194   1.253  -1.538  1.00  0.00     0.165 HD
ENDROOT
BRANCH   2   4
HETATM    4  C6  UNL     1      -3.049   0.815  -0.127  1.00  0.00     0.055 C 
HETATM    5  C7  UNL     1      -3.288   0.736   1.259  1.00  0.00     0.018 A 
HETATM    6  C8  UNL     1      -2.854   1.860   1.914  1.00  0.00     0.019 A 
HETATM    7  C12 UNL     1      -3.875  -0.325   1.911  1.00  0.00     0.048 A 
HETATM    8  C9  UNL     1      -3.012   1.924   3.280  1.00  0.00     0.043 A 
HETATM    9  C10 UNL     1      -3.593   0.893   4.001  1.00  0.00     0.118 A 
HETATM   10  F1  UNL     1      -3.754   0.943   5.348  1.00  0.00    -0.206 F 
HETATM   11  C11 UNL     1      -4.010  -0.213   3.277  1.00  0.00     0.072 A 
HETATM   12  N4  UNL     1      -4.374  -1.491   1.398  1.00  0.00    -0.358 N 
HETATM   13  C13 UNL     1      -5.025  -1.593   0.188  1.00  0.00     0.017 C 
ATOM     14  H4  UNL     1      -4.256  -2.342   1.948  1.00  0.00     0.166 HD
HETATM   15  C14 UNL     1      -6.075  -2.638   0.093  1.00  0.00     0.069 C 
HETATM   16  C15 UNL     1      -4.789  -0.814  -0.940  1.00  0.00    -0.002 A 
HETATM   17  C16 UNL     1      -5.576  -1.237  -2.018  1.00  0.00     0.014 A 
HETATM   18  C20 UNL     1      -3.927   0.236  -1.086  1.00  0.00     0.004 A 
HETATM   19  C17 UNL     1      -5.474  -0.588  -3.227  1.00  0.00     0.001 A 
HETATM   20  C18 UNL     1      -4.586   0.485  -3.359  1.00  0.00     0.001 A 
HETATM   21  C19 UNL     1      -3.819   0.889  -2.288  1.00  0.00     0.014 A 
ENDBRANCH   2   4
BRANCH   1  22
HETATM   22  C4  UNL     1       0.055   1.775  -1.652  1.00  0.00     0.066 C 
BRANCH  22  23
HETATM   23  C3  UNL     1       0.455   0.325  -1.719  1.00  0.00     0.157 C 
BRANCH  23  24
HETATM   24  N2  UNL     1       1.127  -0.173  -0.565  1.00  0.00    -0.256 N 
HETATM   25  N1  UNL     1       0.564  -0.733   0.482  1.00  0.00    -0.296 N 
HETATM   26  C2  UNL     1       1.482  -1.094   1.391  1.00  0.00     0.054 A 
ATOM     27  H1  UNL     1      -0.440  -0.875   0.589  1.00  0.00     0.187 HD
HETATM   28  C1  UNL     1       1.249  -1.683   2.558  1.00  0.00     0.045 C 
HETATM   29  C22 UNL     1       2.710  -0.738   0.885  1.00  0.00     0.061 A 
HETATM   30  C21 UNL     1       2.451  -0.167  -0.336  1.00  0.00     0.274 A 
HETATM   31  O1  UNL     1       3.376   0.275  -1.075  1.00  0.00    -0.266 OA
BRANCH  29  32
HETATM   32  C23 UNL     1       3.856  -0.942   1.512  1.00  0.00     0.030 C 
BRANCH  32  33
HETATM   33  C24 UNL     1       5.141  -0.554   0.951  1.00  0.00    -0.035 A 
HETATM   34  C25 UNL     1       5.595   0.724   1.159  1.00  0.00     0.012 A 
HETATM   35  C26 UNL     1       6.827   1.094   0.622  1.00  0.00     0.007 A 
HETATM   36  C27 UNL     1       7.571   0.171  -0.111  1.00  0.00    -0.062 A 
HETATM   37  C28 UNL     1       8.871   0.652  -0.647  1.00  0.00     0.048 C 
HETATM   38  C29 UNL     1       7.103  -1.106  -0.311  1.00  0.00     0.007 A 
HETATM   39  C30 UNL     1       5.885  -1.453   0.227  1.00  0.00     0.012 A 
ENDBRANCH  32  33
ENDBRANCH  29  32
ENDBRANCH  23  24
ENDBRANCH  22  23
ENDBRANCH   1  22
TORSDOF 6
