REMARK  15 active torsions:
REMARK  status: ('A' for Active; 'I' for Inactive)
REMARK    1  A    between atoms: O1_2  and  C2_3 
REMARK    2  A    between atoms: C3_6  and  O2_7 
REMARK    3  A    between atoms: C3_6  and  C4_9 
REMARK       I    between atoms: C4_9  and  N2_11 
REMARK    4  A    between atoms: N2_11  and  C5_13 
REMARK    5  A    between atoms: C6_15  and  O5_16 
REMARK    6  A    between atoms: O5_16  and  C7_17 
REMARK    7  A    between atoms: N3_21  and  C10_22 
REMARK    8  A    between atoms: C10_22  and  O7_23 
REMARK    9  A    between atoms: C12_29  and  O9_30 
REMARK   10  A    between atoms: C13_32  and  C14_33 
REMARK   11  A    between atoms: C14_33  and  O10_34 
REMARK   12  A    between atoms: C14_33  and  O11_36 
REMARK   13  A    between atoms: O11_36  and  N5_37 
REMARK   14  A    between atoms: C16_41  and  O12_42 
REMARK   15  A    between atoms: C17_44  and  O13_45 
ROOT
HETATM    1  C5  UNL     1       0.401  -0.852   0.272  1.00  0.00     0.238 C 
HETATM    2  O4  UNL     1       1.096  -0.591   1.451  1.00  0.00    -0.333 OA
HETATM    3  C6  UNL     1       2.384  -1.153   1.263  1.00  0.00     0.298 C 
HETATM    4  C12 UNL     1       2.064  -2.498   0.577  1.00  0.00     0.186 C 
HETATM    5  C13 UNL     1       0.806  -2.237  -0.179  1.00  0.00     0.125 C 
ENDROOT
BRANCH   1   6
HETATM    6  N2  UNL     1      -1.028  -0.861   0.484  1.00  0.00    -0.330 N 
HETATM    7  C4  UNL     1      -1.922   0.021  -0.177  1.00  0.00     0.275 C 
HETATM    8  O3  UNL     1      -1.488   0.874  -1.001  1.00  0.00    -0.268 OA
ATOM      9  H2  UNL     1      -1.415  -1.537   1.143  1.00  0.00     0.165 HD
BRANCH   7  10
HETATM   10  C3  UNL     1      -3.384   0.006   0.044  1.00  0.00     0.215 C 
HETATM   11  N1  UNL     1      -3.809   1.303   0.472  1.00  0.00    -0.356 N 
HETATM   12  C2  UNL     1      -5.223   1.499   0.494  1.00  0.00     0.250 C 
ATOM     13  H1  UNL     1      -3.151   2.034   0.742  1.00  0.00     0.159 HD
HETATM   14  C17 UNL     1      -5.907   1.068  -0.781  1.00  0.00     0.195 C 
HETATM   15  C16 UNL     1      -5.511  -0.361  -1.128  1.00  0.00     0.156 C 
HETATM   16  C15 UNL     1      -4.018  -0.376  -1.295  1.00  0.00     0.105 C 
BRANCH  12  17
HETATM   17  O1  UNL     1      -5.477   2.866   0.656  1.00  0.00    -0.369 OA
HETATM   18  C1  UNL     1      -6.263   3.123   1.770  1.00  0.00     0.204 C 
ENDBRANCH  12  17
BRANCH  14  19
HETATM   19  O13 UNL     1      -7.285   1.089  -0.582  1.00  0.00    -0.389 OA
ATOM     20  H13 UNL     1      -7.715   0.818  -1.384  1.00  0.00     0.210 HD
ENDBRANCH  14  19
BRANCH  15  21
HETATM   21  O12 UNL     1      -6.111  -0.662  -2.350  1.00  0.00    -0.393 OA
ATOM     22  H12 UNL     1      -7.055  -0.653  -2.244  1.00  0.00     0.210 HD
ENDBRANCH  15  21
BRANCH  10  23
HETATM   23  O2  UNL     1      -3.775  -0.958   0.962  1.00  0.00    -0.363 OA
ATOM     24  H2  UNL     1      -3.493  -1.819   0.678  1.00  0.00     0.213 HD
ENDBRANCH  10  23
ENDBRANCH   7  10
ENDBRANCH   1   6
BRANCH   5  25
HETATM   25  C14 UNL     1       0.987  -2.306  -1.678  1.00  0.00     0.295 C 
BRANCH  25  26
HETATM   26  O10 UNL     1      -0.201  -1.976  -2.325  1.00  0.00    -0.368 OA
ATOM     27  H10 UNL     1      -0.087  -2.019  -3.267  1.00  0.00     0.212 HD
ENDBRANCH  25  26
BRANCH  25  28
HETATM   28  O11 UNL     1       1.461  -3.524  -2.098  1.00  0.00    -0.254 OA
BRANCH  28  29
HETATM   29  N5  UNL     1       2.653  -3.462  -2.700  1.00  0.00    -0.308 N 
ATOM     30  H52 UNL     1       3.152  -2.582  -2.828  1.00  0.00     0.184 HD
ATOM     31  H51 UNL     1       3.005  -4.367  -3.012  1.00  0.00     0.184 HD
ENDBRANCH  28  29
ENDBRANCH  25  28
ENDBRANCH   5  25
BRANCH   3  32
HETATM   32  O5  UNL     1       3.155  -0.342   0.478  1.00  0.00    -0.312 OA
BRANCH  32  33
HETATM   33  C7  UNL     1       4.318   0.310   0.615  1.00  0.00     0.146 A 
HETATM   34  C8  UNL     1       4.765   1.059  -0.485  1.00  0.00     0.118 A 
HETATM   35  C9  UNL     1       5.941   1.742  -0.400  1.00  0.00     0.266 A 
HETATM   36  O6  UNL     1       6.325   2.408  -1.397  1.00  0.00    -0.266 OA
HETATM   37  N3  UNL     1       6.714   1.744   0.693  1.00  0.00    -0.231 N 
HETATM   38  N4  UNL     1       6.302   1.050   1.716  1.00  0.00    -0.257 N 
HETATM   39  C11 UNL     1       5.140   0.342   1.709  1.00  0.00     0.293 A 
ATOM     40  H4  UNL     1       6.876   1.037   2.559  1.00  0.00     0.190 HD
HETATM   41  O8  UNL     1       4.831  -0.293   2.742  1.00  0.00    -0.264 OA
BRANCH  37  42
HETATM   42  C10 UNL     1       7.956   2.504   0.693  1.00  0.00     0.317 C 
BRANCH  42  43
HETATM   43  O7  UNL     1       7.626   3.788   1.160  1.00  0.00    -0.380 OA
ATOM     44  H7  UNL     1       8.436   4.284   1.160  1.00  0.00     0.211 HD
ENDBRANCH  42  43
ENDBRANCH  37  42
ENDBRANCH  32  33
ENDBRANCH   3  32
BRANCH   4  45
HETATM   45  O9  UNL     1       1.822  -3.417   1.586  1.00  0.00    -0.390 OA
ATOM     46  H9  UNL     1       1.625  -4.245   1.164  1.00  0.00     0.210 HD
ENDBRANCH   4  45
TORSDOF 15
