REMARK  11 active torsions:
REMARK  status: ('A' for Active; 'I' for Inactive)
REMARK    1  A    between atoms: C2_2  and  O1_3 
REMARK    2  A    between atoms: C2_2  and  C3_5 
REMARK    3  A    between atoms: C6_10  and  N2_11 
REMARK    4  A    between atoms: C11_22  and  N6_23 
REMARK    5  A    between atoms: N6_23  and  C12_25 
REMARK    6  A    between atoms: C12_25  and  C13_26 
REMARK    7  A    between atoms: C17_33  and  N8_34 
REMARK    8  A    between atoms: N8_34  and  C18_36 
REMARK    9  A    between atoms: C18_36  and  C19_37 
REMARK   10  A    between atoms: C19_37  and  O3_38 
REMARK   11  A    between atoms: N10_43  and  O4_44 
ROOT
HETATM    1  C3  UNL     1      -2.433  -2.305  -2.064  1.00  0.00     0.139 A 
HETATM    2  N1  UNL     1      -1.187  -2.687  -1.734  1.00  0.00    -0.337 N 
ATOM      3  H1  UNL     1      -0.725  -3.565  -1.970  1.00  0.00     0.167 HD
HETATM    4  C4  UNL     1      -0.682  -1.664  -1.028  1.00  0.00     0.114 A 
HETATM    5  C5  UNL     1      -1.589  -0.639  -0.904  1.00  0.00     0.140 A 
HETATM    6  C6  UNL     1      -1.240   0.500  -0.210  1.00  0.00     0.151 A 
HETATM    7  N4  UNL     1      -0.012   0.554   0.319  1.00  0.00    -0.261 N 
ATOM      8  H4  UNL     1       0.232   1.403   0.828  1.00  0.00     0.190 HD
HETATM    9  N5  UNL     1       0.899  -0.367   0.248  1.00  0.00    -0.065 N 
HETATM   10  C11 UNL     1       2.112  -0.243   0.809  1.00  0.00     0.719 A 
HETATM   11  N7  UNL     1       2.984  -1.307   0.656  1.00  0.00    -0.020 N 
ATOM     12  H7  UNL     1       3.911  -1.233   1.075  1.00  0.00     0.203 HD
HETATM   13  C17 UNL     1       2.682  -2.418  -0.005  1.00  0.00     0.694 A 
HETATM   14  N9  UNL     1       1.462  -2.502  -0.550  1.00  0.00    -0.171 N 
ATOM     15  H9  UNL     1       1.208  -3.346  -1.063  1.00  0.00     0.186 HD
HETATM   16  C20 UNL     1       0.558  -1.508  -0.443  1.00  0.00     0.190 A 
HETATM   17  N10 UNL     1      -2.679  -1.062  -1.562  1.00  0.00    -0.204 N 
ENDROOT
BRANCH   6  18
HETATM   18  N2  UNL     1      -2.139   1.577  -0.037  1.00  0.00    -0.361 N 
HETATM   19  C7  UNL     1      -3.376   1.547   0.699  1.00  0.00     0.152 C 
HETATM   20  C8  UNL     1      -3.364   2.569   1.829  1.00  0.00     0.252 C 
HETATM   21  N3  UNL     1      -2.521   3.703   1.486  1.00  0.00    -0.072 N 
HETATM   22  C9  UNL     1      -2.646   3.964   0.052  1.00  0.00     0.252 C 
ATOM     23  H32 UNL     1      -2.726   4.527   2.052  1.00  0.00     0.277 HD
ATOM     24  H31 UNL     1      -1.552   3.570   1.775  1.00  0.00     0.277 HD
HETATM   25  C10 UNL     1      -1.809   2.878  -0.644  1.00  0.00     0.152 C 
ENDBRANCH   6  18
BRANCH  17  26
HETATM   26  O4  UNL     1      -3.834  -0.336  -1.692  1.00  0.00    -0.281 OA
ATOM     27  H4  UNL     1      -4.005   0.530  -1.342  1.00  0.00     0.245 HD
ENDBRANCH  17  26
BRANCH   1  28
HETATM   28  C2  UNL     1      -3.406  -3.111  -2.858  1.00  0.00     0.184 C 
HETATM   29  C1  UNL     1      -3.999  -4.236  -2.058  1.00  0.00     0.048 C 
BRANCH  28  30
HETATM   30  O1  UNL     1      -2.747  -3.654  -3.951  1.00  0.00    -0.388 OA
ATOM     31  H1  UNL     1      -2.372  -2.943  -4.457  1.00  0.00     0.210 HD
ENDBRANCH  28  30
ENDBRANCH   1  28
BRANCH  10  32
HETATM   32  N6  UNL     1       2.470   0.759   1.436  1.00  0.00    -0.197 N 
ATOM     33  H6  UNL     1       3.426   0.600   1.754  1.00  0.00     0.183 HD
BRANCH  32  34
HETATM   34  C12 UNL     1       2.083   2.014   1.877  1.00  0.00     0.143 C 
BRANCH  34  35
HETATM   35  C13 UNL     1       2.772   3.141   1.179  1.00  0.00     0.090 A 
HETATM   36  C14 UNL     1       2.398   3.670  -0.020  1.00  0.00     0.040 A 
HETATM   37  C15 UNL     1       3.298   4.696  -0.314  1.00  0.00     0.027 A 
HETATM   38  C16 UNL     1       4.170   4.716   0.749  1.00  0.00     0.142 A 
HETATM   39  O2  UNL     1       3.817   3.780   1.602  1.00  0.00    -0.321 OA
ENDBRANCH  34  35
ENDBRANCH  32  34
ENDBRANCH  10  32
BRANCH  13  40
HETATM   40  N8  UNL     1       3.543  -3.397  -0.122  1.00  0.00    -0.223 N 
ATOM     41  H8  UNL     1       3.251  -4.224  -0.642  1.00  0.00     0.177 HD
BRANCH  40  42
HETATM   42  C18 UNL     1       4.856  -3.390   0.424  1.00  0.00     0.164 C 
BRANCH  42  43
HETATM   43  C19 UNL     1       4.750  -3.860   1.881  1.00  0.00     0.184 C 
BRANCH  43  44
HETATM   44  O3  UNL     1       4.206  -5.155   1.848  1.00  0.00    -0.399 OA
ATOM     45  H3  UNL     1       4.140  -5.446   2.750  1.00  0.00     0.209 HD
ENDBRANCH  43  44
ENDBRANCH  42  43
ENDBRANCH  40  42
ENDBRANCH  13  40
TORSDOF 11
