REMARK  10 active torsions:
REMARK  status: ('A' for Active; 'I' for Inactive)
REMARK    1  A    between atoms: N1_1  and  C1_4 
REMARK    2  A    between atoms: C1_4  and  C2_5 
REMARK    3  A    between atoms: N2_7  and  C4_8 
REMARK    4  A    between atoms: C6_14  and  N5_15 
REMARK    5  A    between atoms: C7_18  and  C8_19 
REMARK    6  A    between atoms: C9_24  and  C10_25 
REMARK       I    between atoms: C10_25  and  N8_27 
REMARK    7  A    between atoms: N9_30  and  C13_31 
REMARK    8  A    between atoms: C13_31  and  C14_32 
REMARK    9  A    between atoms: C13_31  and  C15_37 
REMARK   10  A    between atoms: C14_32  and  N10_33 
ROOT
HETATM    1  C2  UNL     1      -2.317   2.840  -0.744  1.00  0.00     0.030 A 
HETATM    2  C3  UNL     1      -3.279   2.162   0.052  1.00  0.00     0.133 A 
HETATM    3  N2  UNL     1      -2.762   0.960   0.349  1.00  0.00    -0.248 N 
HETATM    4  N7  UNL     1      -1.561   0.848  -0.202  1.00  0.00    -0.287 N 
ATOM      5  H7  UNL     1      -0.954   0.031  -0.129  1.00  0.00     0.188 HD
HETATM    6  C9  UNL     1      -1.257   2.008  -0.891  1.00  0.00     0.129 A 
ENDROOT
BRANCH   6   7
HETATM    7  C10 UNL     1      -0.018   2.222  -1.612  1.00  0.00     0.272 C 
HETATM    8  O2  UNL     1       0.188   3.299  -2.213  1.00  0.00    -0.266 OA
HETATM    9  N8  UNL     1       0.989   1.196  -1.641  1.00  0.00    -0.343 N 
HETATM   10  C11 UNL     1       2.209   1.444  -2.363  1.00  0.00     0.156 C 
HETATM   11  C17 UNL     1       0.857  -0.070  -0.990  1.00  0.00     0.156 C 
HETATM   12  C12 UNL     1       3.325   1.253  -1.361  1.00  0.00     0.293 C 
HETATM   13  N9  UNL     1       3.333  -0.089  -0.904  1.00  0.00     0.105 N 
HETATM   14  C16 UNL     1       2.167  -0.831  -1.292  1.00  0.00     0.293 C 
BRANCH  13  15
HETATM   15  C13 UNL     1       3.663  -0.241   0.490  1.00  0.00     0.318 C 
BRANCH  15  16
HETATM   16  C14 UNL     1       5.046   0.263   0.821  1.00  0.00     0.273 C 
BRANCH  16  17
HETATM   17  N10 UNL     1       5.293   0.072   2.238  1.00  0.00    -0.077 N 
ATOM     18 3H10 UNL     1       4.574   0.503   2.819  1.00  0.00     0.274 HD
ATOM     19 2H10 UNL     1       5.152  -0.895   2.530  1.00  0.00     0.274 HD
ATOM     20 1H10 UNL     1       6.228   0.413   2.462  1.00  0.00     0.274 HD
ENDBRANCH  16  17
ENDBRANCH  15  16
BRANCH  15  21
HETATM   21  C15 UNL     1       3.691  -1.708   0.792  1.00  0.00     0.148 A 
HETATM   22  N11 UNL     1       3.104  -2.337   1.840  1.00  0.00    -0.270 N 
HETATM   23  N12 UNL     1       3.381  -3.627   1.735  1.00  0.00    -0.227 N 
ATOM     24  H11 UNL     1       2.550  -1.897   2.575  1.00  0.00     0.190 HD
HETATM   25  N13 UNL     1       4.114  -3.867   0.680  1.00  0.00    -0.227 N 
ATOM     26  H12 UNL     1       3.064  -4.340   2.391  1.00  0.00     0.210 HD
HETATM   27  N14 UNL     1       4.305  -2.691   0.099  1.00  0.00    -0.270 N 
ATOM     28  H13 UNL     1       4.466  -4.772   0.368  1.00  0.00     0.210 HD
ATOM     29  H14 UNL     1       4.843  -2.548  -0.756  1.00  0.00     0.190 HD
ENDBRANCH  15  21
ENDBRANCH  13  15
ENDBRANCH   6   7
BRANCH   1  30
HETATM   30  C1  UNL     1      -2.611   4.175  -1.214  1.00  0.00     0.096 C 
BRANCH  30  31
HETATM   31  N1  UNL     1      -1.868   4.917  -1.930  1.00  0.00    -0.407 N 
ATOM     32  H12 UNL     1      -0.970   4.511  -2.193  1.00  0.00     0.155 HD
ATOM     33  H11 UNL     1      -2.075   5.859  -2.262  1.00  0.00     0.155 HD
ENDBRANCH  30  31
ENDBRANCH   1  30
BRANCH   3  34
HETATM   34  C4  UNL     1      -3.447   0.020   1.154  1.00  0.00     0.146 A 
HETATM   35  N3  UNL     1      -3.306   0.069   2.512  1.00  0.00    -0.336 N 
HETATM   36  C5  UNL     1      -3.936  -0.802   3.311  1.00  0.00     0.183 A 
ATOM     37  H3  UNL     1      -2.708   0.784   2.926  1.00  0.00     0.168 HD
HETATM   38  N4  UNL     1      -4.733  -1.757   2.818  1.00  0.00    -0.338 N 
HETATM   39  C6  UNL     1      -4.915  -1.859   1.494  1.00  0.00     0.119 A 
ATOM     40  H4  UNL     1      -5.202  -2.407   3.449  1.00  0.00     0.168 HD
HETATM   41  C7  UNL     1      -4.252  -0.944   0.637  1.00  0.00     0.118 A 
BRANCH  39  42
HETATM   42  N5  UNL     1      -5.673  -2.763   0.972  1.00  0.00    -0.385 N 
ATOM     43  H52 UNL     1      -6.150  -3.421   1.588  1.00  0.00     0.157 HD
ATOM     44  H51 UNL     1      -5.812  -2.841  -0.036  1.00  0.00     0.157 HD
ENDBRANCH  39  42
BRANCH  41  45
HETATM   45  C8  UNL     1      -4.460  -1.071  -0.786  1.00  0.00     0.272 C 
HETATM   46  N6  UNL     1      -5.309  -2.090  -1.277  1.00  0.00    -0.057 NA
HETATM   47  O1  UNL     1      -3.922  -0.317  -1.615  1.00  0.00    -0.271 OA
ENDBRANCH  41  45
ENDBRANCH   3  34
TORSDOF 10
