REMARK  12 active torsions:
REMARK  status: ('A' for Active; 'I' for Inactive)
REMARK    1  A    between atoms: N1_1  and  C1_5 
REMARK    2  A    between atoms: C2_8  and  N3_9 
REMARK    3  A    between atoms: N3_9  and  N4_11 
REMARK    4  A    between atoms: N4_11  and  C3_13 
REMARK    5  A    between atoms: C9_21  and  C10_22 
REMARK    6  A    between atoms: C10_22  and  N6_23 
REMARK    7  A    between atoms: N7_26  and  N8_28 
REMARK       I    between atoms: N8_28  and  C12_30 
REMARK    8  A    between atoms: C12_30  and  C13_32 
REMARK    9  A    between atoms: C13_32  and  C14_33 
REMARK   10  A    between atoms: C13_32  and  C15_36 
REMARK   11  A    between atoms: C14_33  and  O3_34 
REMARK   12  A    between atoms: C15_36  and  C16_37 
ROOT
HETATM    1  N6  UNL     1       0.472   1.997   0.688  1.00  0.00    -0.056 NA
HETATM    2  O1  UNL     1      -0.536   1.813   1.608  1.00  0.00    -0.207 OA
HETATM    3  C11 UNL     1      -1.745   1.467   0.972  1.00  0.00     0.268 C 
HETATM    4  N7  UNL     1      -2.505   0.475   1.340  1.00  0.00    -0.261 N 
ATOM      5  H7  UNL     1      -2.248  -0.113   2.132  1.00  0.00     0.190 HD
HETATM    6  N9  UNL     1      -1.978   2.358  -0.101  1.00  0.00    -0.233 N 
ATOM      7  H9  UNL     1      -2.870   2.606  -0.529  1.00  0.00     0.183 HD
HETATM    8  S1  UNL     1      -0.405   2.928  -0.518  1.00  0.00     0.328 S 
HETATM    9  O5  UNL     1      -0.017   2.553  -1.900  1.00  0.00    -0.186 OA
HETATM   10  O6  UNL     1      -0.268   4.403  -0.255  1.00  0.00    -0.186 OA
ENDROOT
BRANCH   1  11
HETATM   11  C10 UNL     1       0.773   0.707   0.119  1.00  0.00     0.178 C 
BRANCH  11  12
HETATM   12  C9  UNL     1       2.159   0.676  -0.500  1.00  0.00     0.181 C 
HETATM   13  N5  UNL     1       3.153   0.964   0.498  1.00  0.00    -0.210 N 
HETATM   14  C2  UNL     1       4.471   0.428   0.545  1.00  0.00     0.691 C 
ATOM     15  H5  UNL     1       2.890   1.612   1.241  1.00  0.00     0.179 HD
HETATM   16  N2  UNL     1       4.769  -0.759   0.203  1.00  0.00    -0.187 N 
HETATM   17  C1  UNL     1       3.863  -1.758  -0.287  1.00  0.00     0.362 C 
ATOM     18  H2  UNL     1       5.749  -1.028   0.285  1.00  0.00     0.180 HD
HETATM   19  S2  UNL     1       2.424  -1.023  -1.084  1.00  0.00    -0.088 SA
BRANCH  14  20
HETATM   20  N3  UNL     1       5.510   1.275   1.009  1.00  0.00    -0.132 N 
ATOM     21  H3  UNL     1       5.356   1.850   1.837  1.00  0.00     0.205 HD
BRANCH  20  22
HETATM   22  N4  UNL     1       6.721   1.333   0.361  1.00  0.00    -0.287 N 
ATOM     23  H4  UNL     1       6.993   2.205  -0.092  1.00  0.00     0.187 HD
BRANCH  22  24
HETATM   24  C3  UNL     1       7.603   0.231   0.298  1.00  0.00     0.048 A 
HETATM   25  C4  UNL     1       7.788  -0.524  -0.842  1.00  0.00     0.031 A 
HETATM   26  C5  UNL     1       8.655  -1.595  -0.875  1.00  0.00     0.002 A 
HETATM   27  C6  UNL     1       9.373  -1.946   0.257  1.00  0.00     0.000 A 
HETATM   28  C7  UNL     1       9.207  -1.209   1.410  1.00  0.00     0.002 A 
HETATM   29  C8  UNL     1       8.336  -0.143   1.419  1.00  0.00     0.031 A 
ENDBRANCH  22  24
ENDBRANCH  20  22
ENDBRANCH  14  20
BRANCH  17  30
HETATM   30  N1  UNL     1       4.481  -2.675  -1.233  1.00  0.00    -0.049 N 
ATOM     31  H13 UNL     1       4.912  -2.165  -2.004  1.00  0.00     0.277 HD
ATOM     32  H12 UNL     1       5.314  -3.105  -0.831  1.00  0.00     0.277 HD
ATOM     33  H11 UNL     1       3.837  -3.385  -1.581  1.00  0.00     0.277 HD
ENDBRANCH  17  30
ENDBRANCH  11  12
ENDBRANCH   1  11
BRANCH   4  34
HETATM   34  N8  UNL     1      -3.690   0.234   0.618  1.00  0.00    -0.267 N 
HETATM   35  C12 UNL     1      -4.479  -0.891   0.896  1.00  0.00     0.242 C 
HETATM   36  O2  UNL     1      -4.108  -1.684   1.822  1.00  0.00    -0.271 OA
ATOM     37  H8  UNL     1      -3.977   0.884  -0.114  1.00  0.00     0.190 HD
BRANCH  35  38
HETATM   38  C13 UNL     1      -5.726  -1.160   0.123  1.00  0.00     0.105 C 
BRANCH  38  39
HETATM   39  C14 UNL     1      -6.646  -1.989   0.935  1.00  0.00     0.178 C 
BRANCH  39  40
HETATM   40  O3  UNL     1      -6.989  -1.321   2.123  1.00  0.00    -0.400 OA
ATOM     41  H3  UNL     1      -7.579  -1.853   2.644  1.00  0.00     0.209 HD
ENDBRANCH  39  40
ENDBRANCH  38  39
BRANCH  38  42
HETATM   42  C15 UNL     1      -6.180   0.047  -0.551  1.00  0.00     0.048 C 
BRANCH  42  43
HETATM   43  C16 UNL     1      -7.408   0.066  -1.373  1.00  0.00     0.124 C 
HETATM   44  C17 UNL     1      -8.741  -0.208  -0.823  1.00  0.00     0.058 C 
HETATM   45  C18 UNL     1      -8.749   1.314  -0.626  1.00  0.00     0.170 C 
HETATM   46  O4  UNL     1      -7.805   1.404  -1.619  1.00  0.00    -0.386 OA
ENDBRANCH  42  43
ENDBRANCH  38  42
ENDBRANCH  35  38
ENDBRANCH   4  34
TORSDOF 12
