REMARK  10 active torsions:
REMARK  status: ('A' for Active; 'I' for Inactive)
REMARK    1  A    between atoms: S1_2  and  C2_3 
REMARK    2  A    between atoms: C4_8  and  N2_9 
REMARK       I    between atoms: N2_9  and  C5_11 
REMARK    3  A    between atoms: C5_11  and  C6_13 
REMARK    4  A    between atoms: C6_13  and  O3_15 
REMARK    5  A    between atoms: O3_15  and  C8_16 
REMARK    6  A    between atoms: C8_16  and  C11_19 
REMARK       I    between atoms: C11_19  and  N3_21 
REMARK    7  A    between atoms: N3_21  and  N4_23 
REMARK    8  A    between atoms: N4_23  and  C12_25 
REMARK    9  A    between atoms: C12_25  and  C13_26 
REMARK   10  A    between atoms: C13_26  and  N5_27 
ROOT
HETATM    1  N2  UNL     1      -0.706   0.688   0.110  1.00  0.00    -0.333 N 
ATOM      2  H2  UNL     1      -0.437   1.448  -0.515  1.00  0.00     0.164 HD
HETATM    3  C5  UNL     1       0.324  -0.141   0.551  1.00  0.00     0.247 C 
HETATM    4  O2  UNL     1       0.151  -1.147   1.314  1.00  0.00    -0.271 OA
ENDROOT
BRANCH   1   5
HETATM    5  C4  UNL     1      -2.105   0.596   0.434  1.00  0.00     0.312 C 
HETATM    6  C3  UNL     1      -2.763  -0.553  -0.207  1.00  0.00     0.257 C 
HETATM    7  N1  UNL     1      -4.104  -0.679  -0.600  1.00  0.00    -0.337 N 
HETATM    8  O1  UNL     1      -1.995  -1.567  -0.425  1.00  0.00    -0.270 OA
HETATM    9  C2  UNL     1      -4.844   0.076  -1.561  1.00  0.00     0.239 C 
ATOM     10  H1  UNL     1      -4.627  -1.418  -0.131  1.00  0.00     0.164 HD
HETATM   11  C17 UNL     1      -4.910   1.526  -1.337  1.00  0.00     0.251 C 
HETATM   12  N8  UNL     1      -5.757   2.110  -0.360  1.00  0.00    -0.353 N 
HETATM   13  O7  UNL     1      -4.168   2.283  -2.060  1.00  0.00    -0.270 OA
HETATM   14  C16 UNL     1      -7.126   1.724  -0.106  1.00  0.00     0.182 C 
ATOM     15  H8  UNL     1      -5.368   2.862   0.209  1.00  0.00     0.162 HD
HETATM   16  C15 UNL     1      -7.264   0.914   1.168  1.00  0.00     0.177 C 
HETATM   17  N7  UNL     1      -6.211   0.921   2.019  1.00  0.00    -0.397 NA
HETATM   18  C14 UNL     1      -5.456   0.727   2.924  1.00  0.00     0.240 C 
HETATM   19  S3  UNL     1      -3.870   1.631   2.882  1.00  0.00     0.054 SA
HETATM   20  N6  UNL     1      -5.533  -0.096   4.092  1.00  0.00    -0.059 NA
HETATM   21  S2  UNL     1      -2.323   0.399   2.207  1.00  0.00     0.237 S 
HETATM   22  O5  UNL     1      -2.687  -1.014   2.528  1.00  0.00    -0.213 OA
HETATM   23  O6  UNL     1      -1.087   0.815   2.957  1.00  0.00    -0.213 OA
BRANCH   9  24
HETATM   24  S1  UNL     1      -4.313  -0.253  -3.286  1.00  0.00    -0.139 SA
HETATM   25  C1  UNL     1      -4.696  -1.984  -3.696  1.00  0.00     0.092 C 
ENDBRANCH   9  24
ENDBRANCH   1   5
BRANCH   3  26
HETATM   26  C6  UNL     1       1.757   0.098   0.151  1.00  0.00     0.211 C 
HETATM   27  C7  UNL     1       2.186   1.262   1.076  1.00  0.00     0.050 C 
BRANCH  26  28
HETATM   28  O3  UNL     1       2.535  -0.990   0.500  1.00  0.00    -0.357 OA
BRANCH  28  29
HETATM   29  C8  UNL     1       3.457  -1.401  -0.424  1.00  0.00     0.137 C 
HETATM   30  C9  UNL     1       3.897  -2.815   0.095  1.00  0.00     0.056 C 
HETATM   31  C10 UNL     1       3.004  -1.570  -1.821  1.00  0.00     0.056 C 
BRANCH  29  32
HETATM   32  C11 UNL     1       4.779  -0.665  -0.307  1.00  0.00     0.269 C 
HETATM   33  O4  UNL     1       4.938   0.081   0.650  1.00  0.00    -0.268 OA
HETATM   34  N3  UNL     1       5.749  -0.873  -1.290  1.00  0.00    -0.272 N 
ATOM     35  H3  UNL     1       5.515  -1.508  -2.053  1.00  0.00     0.189 HD
BRANCH  34  36
HETATM   36  N4  UNL     1       6.990  -0.292  -1.311  1.00  0.00    -0.332 N 
ATOM     37  H4  UNL     1       7.604  -0.377  -2.121  1.00  0.00     0.180 HD
BRANCH  36  38
HETATM   38  C12 UNL     1       7.382   0.431  -0.161  1.00  0.00     0.166 C 
BRANCH  38  39
HETATM   39  C13 UNL     1       8.803   0.983  -0.278  1.00  0.00     0.250 C 
BRANCH  39  40
HETATM   40  N5  UNL     1       9.079   1.690   0.944  1.00  0.00    -0.078 N 
ATOM     41  H53 UNL     1       8.386   2.407   1.158  1.00  0.00     0.274 HD
ATOM     42  H52 UNL     1       8.937   1.120   1.778  1.00  0.00     0.274 HD
ATOM     43  H51 UNL     1      10.027   2.058   0.866  1.00  0.00     0.274 HD
ENDBRANCH  39  40
ENDBRANCH  38  39
ENDBRANCH  36  38
ENDBRANCH  34  36
ENDBRANCH  29  32
ENDBRANCH  28  29
ENDBRANCH  26  28
ENDBRANCH   3  26
TORSDOF 10
