REMARK  1 active torsions:
REMARK  status: ('A' for Active; 'I' for Inactive)
REMARK    1  A    between atoms: C1_2  and  C2_4 
ROOT
HETATM    1  C2  UNL     1      -1.453  -0.499  -0.437  1.00  0.00     0.143 C 
HETATM    2  N2  UNL     1      -1.806  -1.805  -0.967  1.00  0.00    -0.094 NA
HETATM    3  C3  UNL     1      -0.306  -0.339   0.144  1.00  0.00     0.133 C 
HETATM    4  N3  UNL     1       0.076   0.898   0.709  1.00  0.00    -0.291 N 
ATOM      5  H3  UNL     1      -0.640   1.373   1.258  1.00  0.00     0.187 HD
HETATM    6  N4  UNL     1       1.312   1.561   0.615  1.00  0.00    -0.251 N 
ATOM      7  H4  UNL     1       1.294   2.578   0.693  1.00  0.00     0.191 HD
HETATM    8  C4  UNL     1       2.578   0.959   0.423  1.00  0.00     0.341 C 
HETATM    9  O2  UNL     1       3.547   1.740   0.208  1.00  0.00    -0.245 OA
HETATM   10  N5  UNL     1       2.976  -0.424   0.427  1.00  0.00    -0.271 N 
ATOM     11  H5  UNL     1       3.966  -0.632   0.555  1.00  0.00     0.174 HD
HETATM   12  C5  UNL     1       2.088  -1.520   0.265  1.00  0.00     0.302 C 
HETATM   13  O3  UNL     1       2.658  -2.635   0.207  1.00  0.00    -0.264 OA
HETATM   14  C6  UNL     1       0.613  -1.516   0.158  1.00  0.00     0.269 C 
HETATM   15  O4  UNL     1       0.027  -2.607   0.066  1.00  0.00    -0.280 OA
ENDROOT
BRANCH   1  16
HETATM   16  C1  UNL     1      -2.447   0.516  -0.586  1.00  0.00     0.281 C 
HETATM   17  N1  UNL     1      -2.386   1.867  -0.196  1.00  0.00    -0.056 NA
HETATM   18  O1  UNL     1      -3.573   0.205  -1.154  1.00  0.00    -0.270 OA
ENDBRANCH   1  16
TORSDOF 1
