REMARK  1 active torsions:
REMARK  status: ('A' for Active; 'I' for Inactive)
REMARK    1  A    between atoms: C2_2  and  C4_4 
ROOT
HETATM    1  C4  UNL     1       1.408  -0.481   0.208  1.00  0.00     0.214 C 
HETATM    2  C5  UNL     1       0.656  -0.522  -1.106  1.00  0.00     0.044 C 
HETATM    3  C6  UNL     1      -0.760  -0.671  -0.579  1.00  0.00     0.019 C 
HETATM    4  C7  UNL     1      -1.799  -0.201  -1.558  1.00  0.00     0.012 C 
HETATM    5  C8  UNL     1      -2.865   0.593  -0.834  1.00  0.00     0.079 C 
HETATM    6  C9  UNL     1      -3.132   0.067   0.554  1.00  0.00     0.245 C 
HETATM    7  F1  UNL     1      -3.726  -1.165   0.497  1.00  0.00    -0.206 F 
HETATM    8  F2  UNL     1      -4.030   0.954   1.144  1.00  0.00    -0.206 F 
HETATM    9  C10 UNL     1      -1.885   0.080   1.420  1.00  0.00     0.112 C 
HETATM   10  C11 UNL     1      -0.727   0.391   0.533  1.00  0.00     0.196 C 
HETATM   11  N1  UNL     1       0.557   0.248   1.122  1.00  0.00    -0.062 N 
ATOM     12  H11 UNL     1       0.960   1.142   1.401  1.00  0.00     0.278 HD
ATOM     13  H12 UNL     1       0.517  -0.183   2.046  1.00  0.00     0.278 HD
ENDROOT
BRANCH   1  14
HETATM   14  C2  UNL     1       2.774   0.038   0.090  1.00  0.00    -0.063 C 
HETATM   15  C1  UNL     1       3.227   0.403  -1.098  1.00  0.00     0.016 C 
HETATM   16  C3  UNL     1       3.658   0.161   1.275  1.00  0.00     0.044 C 
ENDBRANCH   1  14
TORSDOF 1
