REMARK  14 active torsions:
REMARK  status: ('A' for Active; 'I' for Inactive)
REMARK    1  A    between atoms: C2_2  and  C3_3 
REMARK    2  A    between atoms: C3_3  and  C5_5 
REMARK    3  A    between atoms: C7_10  and  C8_11 
REMARK    4  A    between atoms: C11_16  and  O2_17 
REMARK    5  A    between atoms: C12_19  and  C13_20 
REMARK    6  A    between atoms: C13_20  and  C14_21 
REMARK    7  A    between atoms: C14_21  and  C15_22 
REMARK    8  A    between atoms: C17_29  and  C18_30 
REMARK    9  A    between atoms: C18_30  and  C19_31 
REMARK   10  A    between atoms: C22_36  and  O5_37 
REMARK   11  A    between atoms: C23_39  and  C24_40 
REMARK   12  A    between atoms: C24_40  and  C25_41 
REMARK   13  A    between atoms: C29_48  and  C30_49 
REMARK   14  A    between atoms: C30_49  and  C31_50 
ROOT
HETATM    1  C5  UNL     1       3.357  -1.157   0.271  1.00  0.00     0.180 C 
HETATM    2  N1  UNL     1       2.394  -2.161   0.685  1.00  0.00    -0.346 N 
ATOM      3  H1  UNL     1       2.384  -2.360   1.685  1.00  0.00     0.163 HD
HETATM    4  C6  UNL     1       1.482  -2.895  -0.068  1.00  0.00     0.241 C 
HETATM    5  O1  UNL     1       1.619  -4.168  -0.107  1.00  0.00    -0.271 OA
HETATM    6  C7  UNL     1       0.321  -2.362  -0.863  1.00  0.00     0.179 C 
HETATM    7  N2  UNL     1      -0.774  -2.197   0.052  1.00  0.00    -0.359 N 
ATOM      8  H2  UNL     1      -0.586  -1.490   0.762  1.00  0.00     0.162 HD
HETATM    9  C11 UNL     1      -2.017  -2.769   0.195  1.00  0.00     0.135 C 
HETATM   10  C12 UNL     1      -3.345  -2.489  -0.395  1.00  0.00     0.159 C 
HETATM   11  N4  UNL     1      -3.338  -1.771  -1.625  1.00  0.00    -0.347 N 
ATOM     12  H4  UNL     1      -2.999  -2.337  -2.403  1.00  0.00     0.163 HD
HETATM   13  C16 UNL     1      -3.685  -0.476  -2.022  1.00  0.00     0.241 C 
HETATM   14  O4  UNL     1      -4.376  -0.431  -3.114  1.00  0.00    -0.271 OA
HETATM   15  C17 UNL     1      -3.398   0.833  -1.424  1.00  0.00     0.175 C 
HETATM   16  N5  UNL     1      -2.227   1.432  -2.133  1.00  0.00    -0.359 N 
ATOM     17  H5  UNL     1      -1.997   0.992  -3.024  1.00  0.00     0.162 HD
HETATM   18  C22 UNL     1      -1.416   2.469  -1.785  1.00  0.00     0.135 C 
HETATM   19  C23 UNL     1      -0.530   2.706  -0.615  1.00  0.00     0.159 C 
HETATM   20  N6  UNL     1       0.436   1.592  -0.616  1.00  0.00    -0.347 N 
ATOM     21  H6  UNL     1       0.100   0.721  -0.204  1.00  0.00     0.163 HD
HETATM   22  C28 UNL     1       1.731   1.560  -1.095  1.00  0.00     0.241 C 
HETATM   23  O6  UNL     1       2.024   0.956  -2.206  1.00  0.00    -0.271 OA
HETATM   24  C29 UNL     1       2.940   2.184  -0.440  1.00  0.00     0.177 C 
HETATM   25  N7  UNL     1       3.375   1.416   0.695  1.00  0.00    -0.346 N 
ATOM     26  H7  UNL     1       3.958   1.928   1.357  1.00  0.00     0.163 HD
HETATM   27  C34 UNL     1       3.133   0.090   1.040  1.00  0.00     0.241 C 
HETATM   28  O7  UNL     1       2.634  -0.111   2.213  1.00  0.00    -0.271 OA
ENDROOT
BRANCH  10  29
HETATM   29  C13 UNL     1      -4.318  -2.023   0.638  1.00  0.00     0.042 C 
BRANCH  29  30
HETATM   30  C14 UNL     1      -4.580  -2.975   1.765  1.00  0.00     0.102 C 
BRANCH  30  31
HETATM   31  C15 UNL     1      -5.637  -2.433   2.691  1.00  0.00     0.231 C 
HETATM   32  N3  UNL     1      -6.037  -3.120   3.856  1.00  0.00    -0.062 NA
HETATM   33  O3  UNL     1      -6.172  -1.340   2.413  1.00  0.00    -0.277 OA
ENDBRANCH  30  31
ENDBRANCH  29  30
ENDBRANCH  10  29
BRANCH   9  34
HETATM   34  O2  UNL     1      -2.065  -3.775   1.024  1.00  0.00    -0.348 OA
ATOM     35  H2  UNL     1      -2.923  -4.170   1.123  1.00  0.00     0.219 HD
ENDBRANCH   9  34
BRANCH   6  36
HETATM   36  C8  UNL     1       0.088  -3.127  -2.107  1.00  0.00     0.009 C 
HETATM   37  C9  UNL     1      -0.219  -4.562  -2.015  1.00  0.00     0.012 C 
HETATM   38  C10 UNL     1       1.406  -2.996  -2.904  1.00  0.00     0.012 C 
ENDBRANCH   6  36
BRANCH  15  39
HETATM   39  C18 UNL     1      -4.505   1.806  -1.490  1.00  0.00     0.038 C 
BRANCH  39  40
HETATM   40  C19 UNL     1      -5.807   1.708  -0.910  1.00  0.00    -0.020 C 
HETATM   41  C20 UNL     1      -6.687   0.597  -1.361  1.00  0.00     0.009 C 
HETATM   42  C21 UNL     1      -5.854   1.753   0.611  1.00  0.00     0.009 C 
ENDBRANCH  39  40
ENDBRANCH  15  39
BRANCH  18  43
HETATM   43  O5  UNL     1      -1.381   3.475  -2.620  1.00  0.00    -0.348 OA
ATOM     44  H5  UNL     1      -0.815   4.198  -2.377  1.00  0.00     0.219 HD
ENDBRANCH  18  43
BRANCH   1  45
HETATM   45  C3  UNL     1       4.757  -1.716   0.580  1.00  0.00     0.013 C 
HETATM   46  C4  UNL     1       4.948  -2.926  -0.280  1.00  0.00     0.012 C 
BRANCH  45  47
HETATM   47  C2  UNL     1       4.941  -2.000   2.030  1.00  0.00     0.002 C 
HETATM   48  C1  UNL     1       6.364  -2.513   2.210  1.00  0.00     0.005 C 
ENDBRANCH  45  47
ENDBRANCH   1  45
BRANCH  19  49
HETATM   49  C24 UNL     1      -1.240   2.799   0.703  1.00  0.00     0.037 C 
BRANCH  49  50
HETATM   50  C25 UNL     1      -0.208   3.076   1.810  1.00  0.00    -0.020 C 
HETATM   51  C26 UNL     1      -0.991   3.134   3.122  1.00  0.00     0.009 C 
HETATM   52  C27 UNL     1       0.242   4.527   1.585  1.00  0.00     0.009 C 
ENDBRANCH  49  50
ENDBRANCH  19  49
BRANCH  24  53
HETATM   53  C30 UNL     1       3.992   2.442  -1.445  1.00  0.00     0.038 C 
BRANCH  53  54
HETATM   54  C31 UNL     1       5.258   3.079  -1.041  1.00  0.00    -0.020 C 
HETATM   55  C32 UNL     1       6.110   2.388  -0.039  1.00  0.00     0.009 C 
HETATM   56  C33 UNL     1       5.060   4.535  -0.625  1.00  0.00     0.009 C 
ENDBRANCH  53  54
ENDBRANCH  24  53
TORSDOF 14
