REMARK  7 active torsions:
REMARK  status: ('A' for Active; 'I' for Inactive)
REMARK    1  A    between atoms: C3_3  and  C4_4 
REMARK    2  A    between atoms: C4_4  and  C5_5 
REMARK    3  A    between atoms: C5_5  and  O1_6 
REMARK    4  A    between atoms: O1_6  and  C6_7 
REMARK    5  A    between atoms: C6_7  and  C7_8 
REMARK    6  A    between atoms: C7_8  and  N1_9 
REMARK    7  A    between atoms: N1_9  and  C8_12 
ROOT
HETATM    1  C6  UNL     1       0.806  -0.582   1.194  1.00  0.00     0.195 C 
ENDROOT
BRANCH   1   2
HETATM    2  O1  UNL     1       0.005   0.413   1.681  1.00  0.00    -0.389 OA
BRANCH   2   3
HETATM    3  C5  UNL     1      -0.827   0.995   0.733  1.00  0.00     0.168 C 
BRANCH   3   4
HETATM    4  C4  UNL     1      -1.838  -0.010   0.284  1.00  0.00     0.031 C 
BRANCH   4   5
HETATM    5  C3  UNL     1      -2.797   0.387  -0.771  1.00  0.00    -0.013 C 
HETATM    6  C2  UNL     1      -3.744  -0.833  -1.011  1.00  0.00     0.005 C 
HETATM    7  C1  UNL     1      -4.699  -0.181  -0.001  1.00  0.00     0.001 C 
HETATM    8  C11 UNL     1      -4.018   1.134  -0.391  1.00  0.00     0.005 C 
ENDBRANCH   4   5
ENDBRANCH   3   4
ENDBRANCH   2   3
ENDBRANCH   1   2
BRANCH   1   9
HETATM    9  C7  UNL     1       1.877   0.013   0.273  1.00  0.00     0.258 C 
BRANCH   9  10
HETATM   10  N1  UNL     1       2.721  -1.014  -0.283  1.00  0.00    -0.069 N 
ATOM     11  H12 UNL     1       2.973  -1.709   0.419  1.00  0.00     0.277 HD
ATOM     12  H11 UNL     1       2.203  -1.615  -0.923  1.00  0.00     0.277 HD
BRANCH  10  13
HETATM   13  C8  UNL     1       3.891  -0.457  -0.915  1.00  0.00     0.186 A 
HETATM   14  C9  UNL     1       5.280  -0.598  -0.414  1.00  0.00     0.035 A 
HETATM   15  C10 UNL     1       4.558   0.638  -0.025  1.00  0.00     0.035 A 
ENDBRANCH  10  13
ENDBRANCH   9  10
ENDBRANCH   1   9
TORSDOF 7
