REMARK  7 active torsions:
REMARK  status: ('A' for Active; 'I' for Inactive)
REMARK    1  A    between atoms: C3_3  and  O1_4 
REMARK    2  A    between atoms: O1_4  and  C4_5 
REMARK    3  A    between atoms: C4_5  and  C5_6 
REMARK    4  A    between atoms: C5_6  and  N1_7 
REMARK    5  A    between atoms: N1_7  and  C6_9 
REMARK    6  A    between atoms: C6_9  and  C7_10 
REMARK    7  A    between atoms: C7_10  and  C8_11 
ROOT
HETATM    1  C5  UNL     1      -0.127  -1.139   1.047  1.00  0.00     0.140 C 
ENDROOT
BRANCH   1   2
HETATM    2  C4  UNL     1      -1.097  -1.023  -0.137  1.00  0.00     0.187 C 
BRANCH   2   3
HETATM    3  O1  UNL     1      -2.195  -0.400   0.286  1.00  0.00    -0.384 OA
BRANCH   3   4
HETATM    4  C3  UNL     1      -3.230  -0.142  -0.503  1.00  0.00     0.121 C 
HETATM    5  C2  UNL     1      -4.634  -0.330  -0.092  1.00  0.00     0.032 C 
HETATM    6  C1  UNL     1      -4.742   1.149   0.301  1.00  0.00     0.005 C 
HETATM    7  C11 UNL     1      -3.515   1.368  -0.566  1.00  0.00     0.032 C 
ENDBRANCH   3   4
ENDBRANCH   2   3
ENDBRANCH   1   2
BRANCH   1   8
HETATM    8  N1  UNL     1       1.085  -1.796   0.690  1.00  0.00    -0.419 N 
ATOM      9  H1  UNL     1       1.328  -2.717   1.056  1.00  0.00     0.153 HD
BRANCH   8  10
HETATM   10  C6  UNL     1       1.941  -1.091  -0.210  1.00  0.00     0.114 C 
BRANCH  10  11
HETATM   11  C7  UNL     1       2.506   0.124   0.485  1.00  0.00     0.024 C 
BRANCH  11  12
HETATM   12  C8  UNL     1       3.427   0.912  -0.423  1.00  0.00    -0.013 A 
HETATM   13  C9  UNL     1       4.633   0.315  -0.996  1.00  0.00     0.005 A 
HETATM   14  C10 UNL     1       4.790   1.270   0.205  1.00  0.00     0.005 A 
ENDBRANCH  11  12
ENDBRANCH  10  11
ENDBRANCH   8  10
ENDBRANCH   1   8
TORSDOF 7
