REMARK  7 active torsions:
REMARK  status: ('A' for Active; 'I' for Inactive)
REMARK    1  A    between atoms: C2_2  and  C3_3 
REMARK    2  A    between atoms: C3_3  and  N1_4 
REMARK    3  A    between atoms: C4_6  and  N2_7 
REMARK    4  A    between atoms: N2_7  and  O1_9 
REMARK    5  A    between atoms: O1_9  and  C5_10 
REMARK    6  A    between atoms: C7_12  and  C12_17 
REMARK    7  A    between atoms: C9_14  and  C10_15 
ROOT
HETATM    1  O1  UNL     1       0.269   0.369  -0.164  1.00  0.00    -0.274 OA
ENDROOT
BRANCH   1   2
HETATM    2  N2  UNL     1       1.137  -0.406   0.521  1.00  0.00    -0.262 N 
ATOM      3  H2  UNL     1       1.303  -0.192   1.504  1.00  0.00     0.195 HD
BRANCH   2   4
HETATM    4  C4  UNL     1       1.829  -1.500  -0.052  1.00  0.00     0.200 C 
HETATM    5  N1  UNL     1       3.075  -1.396  -0.332  1.00  0.00    -0.381 N 
ATOM      6  H1  UNL     1       3.574  -2.184  -0.745  1.00  0.00     0.160 HD
BRANCH   5   7
HETATM    7  C3  UNL     1       3.774  -0.157  -0.061  1.00  0.00     0.147 C 
BRANCH   7   8
HETATM    8  C2  UNL     1       5.052  -0.060  -0.770  1.00  0.00    -0.018 C 
HETATM    9  C1  UNL     1       6.178   0.072  -0.100  1.00  0.00     0.008 C 
ENDBRANCH   7   8
ENDBRANCH   5   7
ENDBRANCH   2   4
ENDBRANCH   1   2
BRANCH   1  10
HETATM   10  C5  UNL     1      -1.002  -0.123   0.042  1.00  0.00     0.157 C 
HETATM   11  C6  UNL     1      -1.717  -0.406  -1.281  1.00  0.00     0.040 C 
HETATM   12  C7  UNL     1      -2.925   0.495  -1.228  1.00  0.00    -0.007 C 
HETATM   13  C8  UNL     1      -2.291   1.729  -0.560  1.00  0.00     0.012 C 
HETATM   14  C9  UNL     1      -1.810   0.978   0.694  1.00  0.00     0.022 C 
BRANCH  12  15
HETATM   15  C12 UNL     1      -3.879   0.072  -0.139  1.00  0.00    -0.005 A 
HETATM   16  C10 UNL     1      -3.095   0.389   1.170  1.00  0.00    -0.003 A 
HETATM   17  C11 UNL     1      -3.525  -0.983   0.824  1.00  0.00     0.011 A 
ENDBRANCH  12  15
ENDBRANCH   1  10
TORSDOF 7
