REMARK  2 active torsions:
REMARK  status: ('A' for Active; 'I' for Inactive)
REMARK    1  A    between atoms: O1_3  and  C2_4 
REMARK    2  A    between atoms: C2_4  and  C3_6 
ROOT
HETATM    1  N1  UNL     1       4.883  -1.433  -0.297  1.00  0.00    -0.163 NA
HETATM    2  C1  UNL     1       3.727  -1.393  -0.284  1.00  0.00     0.237 C 
HETATM    3  O1  UNL     1       2.367  -1.324  -0.277  1.00  0.00    -0.200 OA
ENDROOT
BRANCH   3   4
HETATM    4  C2  UNL     1       1.646  -0.165  -0.229  1.00  0.00     0.317 C 
HETATM    5  O2  UNL     1       2.254   0.932  -0.188  1.00  0.00    -0.258 OA
BRANCH   4   6
HETATM    6  C3  UNL     1       0.190  -0.176  -0.224  1.00  0.00     0.149 A 
HETATM    7  C4  UNL     1      -0.549   0.986  -0.176  1.00  0.00     0.142 A 
HETATM    8  N2  UNL     1       0.123   2.234  -0.130  1.00  0.00    -0.081 NA
HETATM    9  N3  UNL     1      -1.916   0.972  -0.172  1.00  0.00    -0.296 N 
HETATM   10  C5  UNL     1      -2.551  -0.210  -0.216  1.00  0.00     0.328 A 
ATOM     11  H3  UNL     1      -2.444   1.844  -0.136  1.00  0.00     0.171 HD
HETATM   12  O3  UNL     1      -3.824  -0.233  -0.212  1.00  0.00    -0.247 OA
HETATM   13  N4  UNL     1      -1.845  -1.352  -0.263  1.00  0.00    -0.275 N 
HETATM   14  C6  UNL     1      -0.505  -1.361  -0.268  1.00  0.00     0.269 A 
ATOM     15  H4  UNL     1      -2.345  -2.241  -0.296  1.00  0.00     0.173 HD
HETATM   16  O4  UNL     1       0.093  -2.465  -0.313  1.00  0.00    -0.267 OA
ENDBRANCH   4   6
ENDBRANCH   3   4
TORSDOF 2
