REMARK  5 active torsions:
REMARK  status: ('A' for Active; 'I' for Inactive)
REMARK    1  A    between atoms: C2_2  and  O2_4 
REMARK    2  A    between atoms: O2_4  and  C3_5 
REMARK    3  A    between atoms: C4_6  and  N1_7 
REMARK    4  A    between atoms: N1_7  and  O3_9 
REMARK    5  A    between atoms: C5_13  and  N3_14 
ROOT
HETATM    1  C3  UNL     1      -0.030  -0.323  -0.393  1.00  0.00     0.193 A 
HETATM    2  C4  UNL     1       0.689   0.831  -0.576  1.00  0.00     0.180 A 
HETATM    3  N2  UNL     1       2.044   0.842  -0.405  1.00  0.00    -0.172 N 
ATOM      4  H2  UNL     1       2.564   1.708  -0.545  1.00  0.00     0.186 HD
HETATM    5  C5  UNL     1       2.697  -0.276  -0.055  1.00  0.00     0.680 A 
HETATM    6  N4  UNL     1       2.000  -1.407   0.125  1.00  0.00    -0.154 N 
ATOM      7  H4  UNL     1       2.499  -2.256   0.391  1.00  0.00     0.187 HD
HETATM    8  C6  UNL     1       0.646  -1.462  -0.035  1.00  0.00     0.297 A 
HETATM    9  O4  UNL     1       0.028  -2.554   0.146  1.00  0.00    -0.264 OA
ENDROOT
BRANCH   1  10
HETATM   10  O2  UNL     1      -1.398  -0.312  -0.571  1.00  0.00    -0.269 OA
BRANCH  10  11
HETATM   11  C2  UNL     1      -2.302  -0.042   0.435  1.00  0.00     0.260 C 
HETATM   12  C1  UNL     1      -3.766  -0.033   0.233  1.00  0.00     0.126 C 
HETATM   13  O1  UNL     1      -1.849   0.208   1.581  1.00  0.00    -0.265 OA
ENDBRANCH  10  11
ENDBRANCH   1  10
BRANCH   2  14
HETATM   14  N1  UNL     1       0.068   2.068  -0.950  1.00  0.00    -0.250 N 
ATOM     15  H1  UNL     1      -0.323   2.208  -1.882  1.00  0.00     0.196 HD
BRANCH  14  16
HETATM   16  O3  UNL     1       0.028   2.956  -0.092  1.00  0.00    -0.288 OA
ATOM     17  H3  UNL     1      -0.383   3.776  -0.340  1.00  0.00     0.244 HD
ENDBRANCH  14  16
ENDBRANCH   2  14
BRANCH   5  18
HETATM   18  N3  UNL     1       3.994  -0.303   0.117  1.00  0.00    -0.234 N 
ATOM     19  H32 UNL     1       4.524   0.557  -0.020  1.00  0.00     0.174 HD
ATOM     20  H31 UNL     1       4.491  -1.153   0.383  1.00  0.00     0.174 HD
ENDBRANCH   5  18
TORSDOF 5
