REMARK  9 active torsions:
REMARK  status: ('A' for Active; 'I' for Inactive)
REMARK    1  A    between atoms: C2_2  and  C4_4 
REMARK    2  A    between atoms: C4_4  and  C5_5 
REMARK    3  A    between atoms: C5_5  and  N1_6 
REMARK    4  A    between atoms: C5_5  and  C13_23 
REMARK       I    between atoms: N1_6  and  C6_8 
REMARK    5  A    between atoms: C6_8  and  C7_10 
REMARK    6  A    between atoms: C7_10  and  C8_11 
REMARK    7  A    between atoms: C7_10  and  N4_19 
REMARK    8  A    between atoms: C8_11  and  C9_12 
REMARK    9  A    between atoms: N4_19  and  C12_21 
ROOT
HETATM    1  C7  UNL     1       1.891  -1.730  -0.193  1.00  0.00     0.181 C 
ENDROOT
BRANCH   1   2
HETATM    2  C6  UNL     1       0.460  -1.583   0.128  1.00  0.00     0.241 C 
HETATM    3  N1  UNL     1      -0.390  -0.532  -0.365  1.00  0.00    -0.346 N 
ATOM      4  H1  UNL     1       0.005   0.176  -0.985  1.00  0.00     0.163 HD
HETATM    5  O1  UNL     1      -0.070  -2.425   0.877  1.00  0.00    -0.271 OA
BRANCH   3   6
HETATM    6  C5  UNL     1      -1.781  -0.452  -0.008  1.00  0.00     0.177 C 
BRANCH   6   7
HETATM    7  C4  UNL     1      -2.255   0.818   0.589  1.00  0.00     0.067 C 
BRANCH   7   8
HETATM    8  C2  UNL     1      -2.159   2.041  -0.181  1.00  0.00    -0.091 C 
HETATM    9  C1  UNL     1      -3.257   2.709  -0.515  1.00  0.00     0.014 C 
HETATM   10  C3  UNL     1      -0.863   2.599  -0.609  1.00  0.00     0.042 C 
ENDBRANCH   7   8
ENDBRANCH   6   7
BRANCH   6  11
HETATM   11  C13 UNL     1      -2.602  -0.855  -1.203  1.00  0.00     0.254 C 
HETATM   12  N5  UNL     1      -3.995  -0.871  -1.137  1.00  0.00    -0.060 NA
HETATM   13  O3  UNL     1      -2.035  -1.176  -2.254  1.00  0.00    -0.275 OA
ENDBRANCH   6  11
ENDBRANCH   3   6
ENDBRANCH   1   2
BRANCH   1  14
HETATM   14  C8  UNL     1       2.765  -1.237   0.940  1.00  0.00     0.093 C 
BRANCH  14  15
HETATM   15  C9  UNL     1       2.598   0.164   1.307  1.00  0.00     0.028 A 
HETATM   16  C10 UNL     1       1.711   0.619   2.260  1.00  0.00     0.114 A 
HETATM   17  N2  UNL     1       1.811   1.947   2.370  1.00  0.00    -0.360 N 
HETATM   18  C11 UNL     1       2.751   2.340   1.497  1.00  0.00     0.180 A 
ATOM     19  H2  UNL     1       1.275   2.547   2.997  1.00  0.00     0.166 HD
HETATM   20  N3  UNL     1       3.235   1.269   0.847  1.00  0.00    -0.354 N 
ATOM     21  H3  UNL     1       3.959   1.284   0.129  1.00  0.00     0.166 HD
ENDBRANCH  14  15
ENDBRANCH   1  14
BRANCH   1  22
HETATM   22  N4  UNL     1       2.252  -3.137  -0.351  1.00  0.00    -0.355 N 
ATOM     23  H4  UNL     1       2.052  -3.790   0.407  1.00  0.00     0.162 HD
BRANCH  22  24
HETATM   24  C12 UNL     1       2.872  -3.616  -1.530  1.00  0.00     0.349 C 
HETATM   25  O2  UNL     1       3.110  -2.801  -2.449  1.00  0.00    -0.284 OA
ENDBRANCH  22  24
ENDBRANCH   1  22
TORSDOF 9
