REMARK  5 active torsions:
REMARK  status: ('A' for Active; 'I' for Inactive)
REMARK    1  A    between atoms: C2_4  and  C3_5 
REMARK    2  A    between atoms: C2_4  and  C9_26 
REMARK    3  A    between atoms: C6_15  and  N5_16 
REMARK    4  A    between atoms: C7_21  and  N7_22 
REMARK    5  A    between atoms: C9_26  and  C10_28 
ROOT
HETATM    1  C3  UNL     1      -1.227  -1.135  -0.327  1.00  0.00     0.081 A 
HETATM    2  N2  UNL     1      -1.912  -1.904  -1.275  1.00  0.00    -0.330 N 
ATOM      3  H2  UNL     1      -1.510  -2.818  -1.482  1.00  0.00     0.168 HD
HETATM    4  C4  UNL     1      -2.995  -1.600  -1.924  1.00  0.00     0.181 A 
HETATM    5 CL1  UNL     1      -3.706  -2.743  -3.105  1.00  0.00    -0.045 Cl
HETATM    6  N3  UNL     1      -3.591  -0.422  -1.715  1.00  0.00    -0.317 N 
ATOM      7  H3  UNL     1      -4.437  -0.153  -2.217  1.00  0.00     0.170 HD
HETATM    8  C5  UNL     1      -3.019   0.389  -0.810  1.00  0.00     0.139 A 
HETATM    9  N4  UNL     1      -3.662   1.528  -0.471  1.00  0.00    -0.176 N 
ATOM     10  H4  UNL     1      -4.504   1.781  -0.987  1.00  0.00     0.186 HD
HETATM   11  C6  UNL     1      -3.245   2.347   0.517  1.00  0.00     0.679 A 
HETATM   12  N6  UNL     1      -2.141   2.015   1.203  1.00  0.00    -0.176 N 
ATOM     13  H6  UNL     1      -1.818   2.622   1.957  1.00  0.00     0.186 HD
HETATM   14  C7  UNL     1      -1.445   0.884   0.911  1.00  0.00     0.131 A 
HETATM   15  C8  UNL     1      -1.856   0.060  -0.106  1.00  0.00     0.082 A 
ENDROOT
BRANCH   1  16
HETATM   16  C2  UNL     1      -0.087  -1.730   0.262  1.00  0.00     0.084 C 
HETATM   17  N1  UNL     1      -0.100  -3.060   0.356  1.00  0.00    -0.391 N 
HETATM   18  C1  UNL     1      -1.032  -4.016  -0.015  1.00  0.00     0.146 C 
ATOM     19  H1  UNL     1       0.740  -3.450   0.784  1.00  0.00     0.159 HD
BRANCH  16  20
HETATM   20  C9  UNL     1       1.327  -1.349   0.246  1.00  0.00     0.118 C 
HETATM   21  N8  UNL     1       2.015  -2.095   1.383  1.00  0.00    -0.096 NA
BRANCH  20  22
HETATM   22  C10 UNL     1       1.998  -0.110   0.201  1.00  0.00     0.123 C 
HETATM   23  N9  UNL     1       2.841   0.300   1.099  1.00  0.00    -0.375 N 
HETATM   24  C11 UNL     1       3.490   1.581   0.989  1.00  0.00     0.123 C 
ATOM     25  H9  UNL     1       3.048  -0.298   1.899  1.00  0.00     0.161 HD
HETATM   26  C12 UNL     1       4.041   1.669  -0.435  1.00  0.00     0.039 C 
HETATM   27  C13 UNL     1       2.850   1.718  -1.343  1.00  0.00     0.123 C 
HETATM   28  N10 UNL     1       1.829   0.799  -0.907  1.00  0.00    -0.375 N 
ATOM     29  H10 UNL     1       0.940   0.791  -1.408  1.00  0.00     0.161 HD
ENDBRANCH  20  22
ENDBRANCH  16  20
ENDBRANCH   1  16
BRANCH  14  30
HETATM   30  N7  UNL     1      -0.568   0.493   1.755  1.00  0.00    -0.384 N 
ATOM     31  H72 UNL     1      -0.262   1.106   2.511  1.00  0.00     0.157 HD
ATOM     32  H71 UNL     1      -0.046  -0.355   1.536  1.00  0.00     0.157 HD
ENDBRANCH  14  30
BRANCH  11  33
HETATM   33  N5  UNL     1      -3.931   3.406   0.750  1.00  0.00    -0.234 N 
ATOM     34  H52 UNL     1      -4.770   3.658   0.228  1.00  0.00     0.174 HD
ATOM     35  H51 UNL     1      -3.616   4.025   1.497  1.00  0.00     0.174 HD
ENDBRANCH  11  33
TORSDOF 5
