REMARK  16 active torsions:
REMARK  status: ('A' for Active; 'I' for Inactive)
REMARK    1  A    between atoms: C2_2  and  O1_3 
REMARK    2  A    between atoms: O1_3  and  C3_4 
REMARK    3  A    between atoms: C3_4  and  C4_6 
REMARK    4  A    between atoms: C4_6  and  N1_7 
REMARK    5  A    between atoms: C5_8  and  S1_9 
REMARK    6  A    between atoms: S1_9  and  C6_10 
REMARK    7  A    between atoms: C6_10  and  C7_11 
REMARK    8  A    between atoms: C9_13  and  C10_14 
REMARK    9  A    between atoms: C10_14  and  C11_15 
REMARK   10  A    between atoms: C13_20  and  N4_21 
REMARK   11  A    between atoms: N6_28  and  N7_29 
REMARK   12  A    between atoms: C16_36  and  C17_37 
REMARK       I    between atoms: C17_37  and  N9_39 
REMARK   13  A    between atoms: C19_43  and  S4_44 
REMARK   14  A    between atoms: S4_44  and  C20_45 
REMARK   15  A    between atoms: C20_45  and  C21_46 
REMARK   16  A    between atoms: N12_48  and  O4_50 
ROOT
HETATM    1  C17 UNL     1      -2.118   2.030  -2.389  1.00  0.00     0.283 C 
HETATM    2  O3  UNL     1      -0.981   2.421  -2.842  1.00  0.00    -0.265 OA
HETATM    3  N9  UNL     1      -3.270   2.776  -2.707  1.00  0.00    -0.258 N 
ATOM      4  H9  UNL     1      -4.192   2.500  -2.369  1.00  0.00     0.181 HD
HETATM    5  C18 UNL     1      -3.091   3.936  -3.523  1.00  0.00     0.184 C 
HETATM    6  N10 UNL     1      -2.945   4.865  -4.188  1.00  0.00    -0.172 NA
ENDROOT
BRANCH   1   7
HETATM    7  C16 UNL     1      -2.193   0.840  -1.571  1.00  0.00     0.137 A 
HETATM    8  N8  UNL     1      -1.139  -0.006  -1.455  1.00  0.00    -0.330 N 
HETATM    9  C5  UNL     1      -1.472  -1.014  -0.658  1.00  0.00     0.148 A 
ATOM     10  H8  UNL     1      -0.233   0.114  -1.909  1.00  0.00     0.168 HD
HETATM   11  N1  UNL     1      -2.755  -0.799  -0.268  1.00  0.00    -0.310 N 
HETATM   12  C19 UNL     1      -3.222   0.354  -0.825  1.00  0.00     0.107 A 
BRANCH   9  13
HETATM   13  S1  UNL     1      -0.424  -2.383  -0.191  1.00  0.00    -0.089 SA
BRANCH  13  14
HETATM   14  C6  UNL     1       0.463  -2.041   1.320  1.00  0.00     0.124 C 
BRANCH  14  15
HETATM   15  C7  UNL     1       1.539  -1.053   1.127  1.00  0.00    -0.010 A 
HETATM   16  C8  UNL     1       2.009  -0.487  -0.015  1.00  0.00     0.038 A 
HETATM   17  C9  UNL     1       3.091   0.377   0.270  1.00  0.00     0.039 A 
HETATM   18  N6  UNL     1       3.248   0.309   1.581  1.00  0.00    -0.259 N 
HETATM   19  C15 UNL     1       2.339  -0.538   2.140  1.00  0.00     0.110 A 
HETATM   20  S3  UNL     1       2.142  -0.964   3.859  1.00  0.00    -0.030 SA
BRANCH  17  21
HETATM   21  C10 UNL     1       3.829   1.122  -0.770  1.00  0.00     0.104 C 
BRANCH  21  22
HETATM   22  C11 UNL     1       5.257   0.818  -0.916  1.00  0.00     0.028 A 
HETATM   23  C12 UNL     1       6.240   1.580  -0.343  1.00  0.00     0.141 A 
HETATM   24  N2  UNL     1       5.973   2.833   0.272  1.00  0.00    -0.081 NA
HETATM   25  N3  UNL     1       7.533   1.190  -0.433  1.00  0.00    -0.178 N 
HETATM   26  C13 UNL     1       7.824   0.049  -1.094  1.00  0.00     0.678 A 
ATOM     27  H3  UNL     1       8.274   1.748  -0.009  1.00  0.00     0.185 HD
HETATM   28  N5  UNL     1       6.881  -0.699  -1.658  1.00  0.00    -0.181 N 
HETATM   29  C14 UNL     1       5.579  -0.363  -1.601  1.00  0.00     0.126 A 
ATOM     30  H5  UNL     1       7.152  -1.552  -2.148  1.00  0.00     0.185 HD
HETATM   31  S2  UNL     1       4.424  -1.275  -2.302  1.00  0.00    -0.059 SA
BRANCH  26  32
HETATM   32  N4  UNL     1       9.059  -0.329  -1.181  1.00  0.00    -0.234 N 
ATOM     33  H42 UNL     1       9.783   0.245  -0.748  1.00  0.00     0.174 HD
ATOM     34  H41 UNL     1       9.279  -1.191  -1.680  1.00  0.00     0.174 HD
ENDBRANCH  26  32
ENDBRANCH  21  22
ENDBRANCH  17  21
BRANCH  18  35
HETATM   35  N7  UNL     1       4.172   0.954   2.435  1.00  0.00    -0.338 N 
ATOM     36  H72 UNL     1       4.853   1.588   2.016  1.00  0.00     0.177 HD
ATOM     37  H71 UNL     1       4.293   0.902   3.446  1.00  0.00     0.177 HD
ENDBRANCH  18  35
ENDBRANCH  14  15
ENDBRANCH  13  14
ENDBRANCH   9  13
BRANCH  11  38
HETATM   38  C4  UNL     1      -3.475  -1.691   0.601  1.00  0.00     0.243 C 
BRANCH  38  39
HETATM   39  C3  UNL     1      -4.246  -2.713  -0.101  1.00  0.00     0.277 C 
HETATM   40  O2  UNL     1      -4.275  -2.743  -1.354  1.00  0.00    -0.263 OA
BRANCH  39  41
HETATM   41  O1  UNL     1      -4.965  -3.672   0.578  1.00  0.00    -0.321 OA
BRANCH  41  42
HETATM   42  C2  UNL     1      -5.729  -4.678  -0.010  1.00  0.00     0.174 C 
HETATM   43  C1  UNL     1      -4.984  -5.595  -0.909  1.00  0.00     0.034 C 
ENDBRANCH  41  42
ENDBRANCH  39  41
ENDBRANCH  38  39
ENDBRANCH  11  38
BRANCH  12  44
HETATM   44  S4  UNL     1      -4.869   0.941  -0.527  1.00  0.00    -0.102 SA
BRANCH  44  45
HETATM   45  C20 UNL     1      -5.018   1.907   0.966  1.00  0.00     0.155 C 
BRANCH  45  46
HETATM   46  C21 UNL     1      -4.317   3.180   0.950  1.00  0.00     0.122 C 
HETATM   47  N11 UNL     1      -4.707   4.328   0.209  1.00  0.00    -0.085 NA
HETATM   48  N12 UNL     1      -3.233   3.326   1.662  1.00  0.00    -0.259 N 
ATOM     49  H12 UNL     1      -2.731   4.214   1.661  1.00  0.00     0.195 HD
BRANCH  48  50
HETATM   50  O4  UNL     1      -2.781   2.279   2.406  1.00  0.00    -0.289 OA
ATOM     51  H4  UNL     1      -1.992   2.385   2.924  1.00  0.00     0.244 HD
ENDBRANCH  48  50
ENDBRANCH  45  46
ENDBRANCH  44  45
ENDBRANCH  12  44
ENDBRANCH   1   7
TORSDOF 16
