REMARK  8 active torsions:
REMARK  status: ('A' for Active; 'I' for Inactive)
REMARK    1  A    between atoms: C2_2  and  N1_3 
REMARK    2  A    between atoms: N1_3  and  C4_5 
REMARK    3  A    between atoms: C4_5  and  C5_6 
REMARK    4  A    between atoms: C5_6  and  C6_7 
REMARK    5  A    between atoms: C15_20  and  C16_21 
REMARK    6  A    between atoms: C16_21  and  O3_23 
REMARK    7  A    between atoms: C16_21  and  C18_25 
REMARK    8  A    between atoms: C23_30  and  O4_31 
ROOT
HETATM    1  C6  UNL     1      -3.240  -1.543   0.240  1.00  0.00    -0.025 A 
HETATM    2  C7  UNL     1      -4.591  -2.196  -0.198  1.00  0.00     0.016 C 
HETATM    3  C8  UNL     1      -2.204  -1.770  -0.713  1.00  0.00     0.092 A 
HETATM    4  C9  UNL     1      -1.872  -2.909  -1.530  1.00  0.00     0.225 C 
HETATM    5  O1  UNL     1      -2.458  -3.157  -2.601  1.00  0.00    -0.273 OA
HETATM    6  N2  UNL     1      -0.833  -3.739  -1.045  1.00  0.00    -0.328 N 
ATOM      7  H2  UNL     1      -0.480  -4.472  -1.660  1.00  0.00     0.165 HD
HETATM    8  C10 UNL     1      -0.235  -3.610   0.282  1.00  0.00     0.143 C 
HETATM    9  C11 UNL     1      -0.602  -4.894   1.000  1.00  0.00     0.072 C 
HETATM   10  O2  UNL     1       1.186  -3.571   0.218  1.00  0.00    -0.319 OA
HETATM   11  C12 UNL     1       1.732  -2.370  -0.320  1.00  0.00     0.078 A 
HETATM   12  C13 UNL     1       2.793  -2.371  -1.192  1.00  0.00     0.038 A 
HETATM   13  C14 UNL     1       3.271  -1.154  -1.682  1.00  0.00     0.013 A 
HETATM   14  C15 UNL     1       2.691   0.037  -1.301  1.00  0.00    -0.019 A 
HETATM   15  C25 UNL     1       1.642  -0.020  -0.434  1.00  0.00     0.020 A 
HETATM   16  C26 UNL     1       1.125  -1.217   0.088  1.00  0.00    -0.024 A 
HETATM   17  C27 UNL     1       0.026  -1.236   1.048  1.00  0.00     0.051 C 
HETATM   18  C28 UNL     1      -0.794  -2.422   1.031  1.00  0.00     0.051 C 
HETATM   19  C29 UNL     1      -2.232  -2.388   0.713  1.00  0.00     0.017 A 
ENDROOT
BRANCH  14  20
HETATM   20  C16 UNL     1       3.237   1.306  -1.852  1.00  0.00     0.111 C 
HETATM   21  C17 UNL     1       4.098   1.003  -3.056  1.00  0.00     0.057 C 
BRANCH  20  22
HETATM   22  O3  UNL     1       2.134   2.018  -2.342  1.00  0.00    -0.380 OA
ATOM     23  H3  UNL     1       2.483   2.829  -2.694  1.00  0.00     0.211 HD
ENDBRANCH  20  22
BRANCH  20  24
HETATM   24  C18 UNL     1       3.909   2.143  -0.852  1.00  0.00     0.014 A 
HETATM   25  C19 UNL     1       3.456   3.425  -0.583  1.00  0.00     0.013 A 
HETATM   26  C20 UNL     1       4.033   4.269   0.341  1.00  0.00     0.001 A 
HETATM   27  C21 UNL     1       5.127   3.822   1.047  1.00  0.00     0.003 A 
HETATM   28  C22 UNL     1       5.606   2.560   0.811  1.00  0.00     0.037 A 
HETATM   29  C23 UNL     1       5.014   1.738  -0.115  1.00  0.00     0.077 A 
BRANCH  29  30
HETATM   30  O4  UNL     1       5.510   0.487  -0.330  1.00  0.00    -0.355 OA
HETATM   31  C24 UNL     1       6.618  -0.101   0.316  1.00  0.00     0.210 C 
ENDBRANCH  29  30
ENDBRANCH  20  24
ENDBRANCH  14  20
BRANCH   1  32
HETATM   32  C5  UNL     1      -3.529  -0.154   0.732  1.00  0.00     0.040 C 
BRANCH  32  33
HETATM   33  C4  UNL     1      -4.172   0.693  -0.383  1.00  0.00     0.272 C 
BRANCH  33  34
HETATM   34  N1  UNL     1      -4.418   2.004   0.159  1.00  0.00     0.083 N 
HETATM   35  C3  UNL     1      -5.166   1.956   1.388  1.00  0.00     0.309 C 
BRANCH  34  36
HETATM   36  C2  UNL     1      -5.025   2.872  -0.819  1.00  0.00     0.267 C 
HETATM   37  C1  UNL     1      -4.887   4.294  -0.284  1.00  0.00     0.037 C 
ENDBRANCH  34  36
ENDBRANCH  33  34
ENDBRANCH  32  33
ENDBRANCH   1  32
TORSDOF 8
