REMARK  18 active torsions:
REMARK  status: ('A' for Active; 'I' for Inactive)
REMARK    1  A    between atoms: S1_2  and  C2_3 
REMARK    2  A    between atoms: C2_3  and  C3_4 
REMARK    3  A    between atoms: C3_4  and  C4_5 
REMARK    4  A    between atoms: C4_5  and  N1_6 
REMARK    5  A    between atoms: C4_5  and  C6_15 
REMARK    6  A    between atoms: N1_6  and  C5_8 
REMARK    7  A    between atoms: C5_8  and  O1_9 
REMARK    8  A    between atoms: N2_11  and  O2_13 
REMARK       I    between atoms: C6_15  and  N3_17 
REMARK    9  A    between atoms: N3_17  and  C7_19 
REMARK   10  A    between atoms: C7_19  and  C8_20 
REMARK   11  A    between atoms: N4_23  and  C11_24 
REMARK   12  A    between atoms: C11_24  and  C12_25 
REMARK   13  A    between atoms: C12_25  and  C13_27 
REMARK   14  A    between atoms: C16_30  and  C17_31 
REMARK   15  A    between atoms: C20_34  and  C21_35 
REMARK   16  A    between atoms: C21_35  and  C22_36 
REMARK   17  A    between atoms: C22_36  and  N5_37 
REMARK   18  A    between atoms: C25_40  and  C26_41 
ROOT
HETATM    1  C11 UNL     1      -1.323  -0.937   1.654  1.00  0.00     0.211 C 
ENDROOT
BRANCH   1   2
HETATM    2  N4  UNL     1      -2.735  -0.844   1.815  1.00  0.00    -0.359 N 
HETATM    3  C10 UNL     1      -3.343   0.296   2.245  1.00  0.00     0.091 A 
HETATM    4  C9  UNL     1      -4.695   0.429   2.415  1.00  0.00     0.026 A 
HETATM    5  C8  UNL     1      -5.538  -0.660   2.136  1.00  0.00    -0.038 A 
HETATM    6  C34 UNL     1      -4.928  -1.807   1.702  1.00  0.00     0.026 A 
HETATM    7  C33 UNL     1      -3.531  -1.889   1.545  1.00  0.00     0.091 A 
BRANCH   5   8
HETATM    8  C7  UNL     1      -6.980  -0.452   2.357  1.00  0.00     0.161 C 
BRANCH   8   9
HETATM    9  N3  UNL     1      -7.699   0.035   1.223  1.00  0.00    -0.355 N 
HETATM   10  C6  UNL     1      -8.198  -0.781   0.208  1.00  0.00     0.240 C 
HETATM   11  O3  UNL     1      -8.048  -2.031   0.239  1.00  0.00    -0.271 OA
ATOM     12  H3  UNL     1      -7.857   1.040   1.151  1.00  0.00     0.162 HD
BRANCH  10  13
HETATM   13  C4  UNL     1      -8.945  -0.209  -0.970  1.00  0.00     0.178 C 
BRANCH  13  14
HETATM   14  C3  UNL     1      -9.561   1.105  -0.687  1.00  0.00     0.045 C 
BRANCH  14  15
HETATM   15  C2  UNL     1     -10.688   1.158   0.287  1.00  0.00     0.076 C 
BRANCH  15  16
HETATM   16  S1  UNL     1     -11.199   2.924   0.435  1.00  0.00    -0.173 SA
HETATM   17  C1  UNL     1     -11.894   3.551  -1.094  1.00  0.00     0.089 C 
ENDBRANCH  15  16
ENDBRANCH  14  15
ENDBRANCH  13  14
BRANCH  13  18
HETATM   18  N1  UNL     1      -9.759  -1.229  -1.547  1.00  0.00    -0.342 N 
ATOM     19  H1  UNL     1      -9.468  -1.586  -2.457  1.00  0.00     0.164 HD
BRANCH  18  20
HETATM   20  C5  UNL     1     -10.921  -1.793  -0.991  1.00  0.00     0.237 C 
HETATM   21  N2  UNL     1     -11.998  -1.894  -1.661  1.00  0.00    -0.233 N 
ATOM     22  H2  UNL     1     -11.993  -1.552  -2.622  1.00  0.00     0.198 HD
BRANCH  20  23
HETATM   23  O1  UNL     1     -10.902  -2.253   0.317  1.00  0.00    -0.331 OA
ATOM     24  H1  UNL     1     -11.687  -2.634   0.693  1.00  0.00     0.221 HD
ENDBRANCH  20  23
BRANCH  21  25
HETATM   25  O2  UNL     1     -13.181  -2.439  -1.174  1.00  0.00    -0.287 OA
ATOM     26  H2  UNL     1     -13.985  -2.514  -1.674  1.00  0.00     0.244 HD
ENDBRANCH  21  25
ENDBRANCH  18  20
ENDBRANCH  13  18
ENDBRANCH  10  13
ENDBRANCH   8   9
ENDBRANCH   5   8
ENDBRANCH   1   2
BRANCH   1  27
HETATM   27  C12 UNL     1      -0.781  -0.590   0.347  1.00  0.00     0.177 C 
HETATM   28  O4  UNL     1      -1.529  -0.400  -0.625  1.00  0.00    -0.291 OA
BRANCH  27  29
HETATM   29  C13 UNL     1       0.655  -0.461   0.177  1.00  0.00     0.011 A 
HETATM   30  C14 UNL     1       1.512  -0.647   1.275  1.00  0.00     0.016 A 
HETATM   31  C15 UNL     1       2.890  -0.501   1.146  1.00  0.00     0.013 A 
HETATM   32  C16 UNL     1       3.425  -0.171  -0.065  1.00  0.00    -0.026 A 
HETATM   33  C31 UNL     1       2.615   0.017  -1.164  1.00  0.00     0.013 A 
HETATM   34  C32 UNL     1       1.227  -0.135  -1.018  1.00  0.00     0.016 A 
BRANCH  32  35
HETATM   35  C17 UNL     1       4.865   0.004  -0.137  1.00  0.00    -0.026 A 
HETATM   36  C18 UNL     1       5.429   0.883  -1.033  1.00  0.00     0.013 A 
HETATM   37  C19 UNL     1       6.790   1.066  -1.079  1.00  0.00     0.008 A 
HETATM   38  C20 UNL     1       7.642   0.385  -0.237  1.00  0.00    -0.057 A 
HETATM   39  C29 UNL     1       7.069  -0.503   0.667  1.00  0.00     0.008 A 
HETATM   40  C30 UNL     1       5.702  -0.685   0.711  1.00  0.00     0.013 A 
BRANCH  38  41
HETATM   41  C21 UNL     1       9.095   0.628  -0.327  1.00  0.00     0.058 C 
BRANCH  41  42
HETATM   42  C22 UNL     1       9.742  -0.354  -1.302  1.00  0.00     0.132 C 
BRANCH  42  43
HETATM   43  N5  UNL     1      11.151  -0.038  -1.339  1.00  0.00    -0.366 N 
HETATM   44  C23 UNL     1      11.651   0.837  -2.218  1.00  0.00     0.091 A 
HETATM   45  C24 UNL     1      13.016   1.145  -2.257  1.00  0.00     0.035 A 
HETATM   46  C25 UNL     1      13.881   0.530  -1.363  1.00  0.00     0.043 A 
HETATM   47  C27 UNL     1      13.350  -0.366  -0.467  1.00  0.00     0.035 A 
HETATM   48  C28 UNL     1      11.984  -0.629  -0.479  1.00  0.00     0.091 A 
BRANCH  46  49
HETATM   49  C26 UNL     1      15.298   0.854  -1.411  1.00  0.00     0.209 C 
HETATM   50  O5  UNL     1      15.758   1.678  -2.245  1.00  0.00    -0.644 OA
HETATM   51  O6  UNL     1      16.168   0.266  -0.545  1.00  0.00    -0.644 OA
ENDBRANCH  46  49
ENDBRANCH  42  43
ENDBRANCH  41  42
ENDBRANCH  38  41
ENDBRANCH  32  35
ENDBRANCH  27  29
ENDBRANCH   1  27
TORSDOF 18
