REMARK  9 active torsions:
REMARK  status: ('A' for Active; 'I' for Inactive)
REMARK    1  A    between atoms: C2_2  and  C3_3 
REMARK    2  A    between atoms: C5_5  and  C6_6 
REMARK    3  A    between atoms: N2_11  and  C8_12 
REMARK    4  A    between atoms: C8_12  and  C9_13 
REMARK    5  A    between atoms: C9_13  and  C10_14 
REMARK    6  A    between atoms: C10_14  and  C11_15 
REMARK    7  A    between atoms: C11_15  and  C12_16 
REMARK    8  A    between atoms: C16_20  and  C17_21 
REMARK    9  A    between atoms: N3_25  and  C19_26 
ROOT
HETATM    1  C6  UNL     1      -1.355  -1.449   0.028  1.00  0.00     0.161 A 
HETATM    2  N1  UNL     1      -0.439  -1.193  -1.044  1.00  0.00    -0.354 N 
ATOM      3  H1  UNL     1      -0.705  -1.469  -1.989  1.00  0.00     0.163 HD
HETATM    4  C7  UNL     1       0.810  -0.579  -0.850  1.00  0.00     0.175 A 
HETATM    5  S1  UNL     1       1.731  -0.323  -2.174  1.00  0.00    -0.041 SA
HETATM    6  N2  UNL     1       1.205  -0.194   0.472  1.00  0.00    -0.327 N 
HETATM    7  C14 UNL     1       0.284  -0.459   1.543  1.00  0.00     0.025 A 
HETATM    8  C15 UNL     1       0.754  -0.088   2.924  1.00  0.00     0.069 C 
HETATM    9  C16 UNL     1      -0.888  -1.030   1.354  1.00  0.00     0.068 A 
ENDROOT
BRANCH   1  10
HETATM   10  C5  UNL     1      -2.667  -0.873  -0.369  1.00  0.00    -0.013 A 
HETATM   11  C4  UNL     1      -3.706  -1.623  -0.705  1.00  0.00     0.040 A 
HETATM   12  C3  UNL     1      -4.791  -0.726  -1.027  1.00  0.00     0.030 A 
HETATM   13  N3  UNL     1      -4.313   0.602  -0.856  1.00  0.00    -0.357 N 
HETATM   14  C18 UNL     1      -3.098   0.498  -0.480  1.00  0.00     0.100 A 
BRANCH  12  15
HETATM   15  C2  UNL     1      -6.036  -1.026  -1.414  1.00  0.00    -0.002 C 
HETATM   16  C1  UNL     1      -6.400  -2.478  -1.545  1.00  0.00     0.038 C 
ENDBRANCH  12  15
BRANCH  13  17
HETATM   17  C19 UNL     1      -5.110   1.791  -1.088  1.00  0.00     0.124 C 
HETATM   18  C20 UNL     1      -4.383   3.061  -0.792  1.00  0.00     0.027 C 
ENDBRANCH  13  17
ENDBRANCH   1  10
BRANCH   9  19
HETATM   19  C17 UNL     1      -1.796  -1.250   2.458  1.00  0.00     0.209 C 
HETATM   20  O1  UNL     1      -2.929  -1.820   2.258  1.00  0.00    -0.644 OA
HETATM   21  O2  UNL     1      -1.550  -0.888   3.755  1.00  0.00    -0.644 OA
ENDBRANCH   9  19
BRANCH   6  22
HETATM   22  C8  UNL     1       2.499   0.403   0.609  1.00  0.00     0.131 C 
BRANCH  22  23
HETATM   23  C9  UNL     1       3.624  -0.582   0.455  1.00  0.00     0.020 C 
BRANCH  23  24
HETATM   24  C10 UNL     1       4.994   0.031   0.580  1.00  0.00     0.002 C 
BRANCH  24  25
HETATM   25  C11 UNL     1       5.222   1.082  -0.489  1.00  0.00    -0.000 C 
BRANCH  25  26
HETATM   26  C12 UNL     1       6.615   1.652  -0.315  1.00  0.00    -0.005 C 
HETATM   27  C13 UNL     1       7.660   0.563  -0.449  1.00  0.00     0.005 C 
ENDBRANCH  25  26
ENDBRANCH  24  25
ENDBRANCH  23  24
ENDBRANCH  22  23
ENDBRANCH   6  22
TORSDOF 9
