REMARK  9 active torsions:
REMARK  status: ('A' for Active; 'I' for Inactive)
REMARK    1  A    between atoms: C3_3  and  C4_4 
REMARK    2  A    between atoms: C5_5  and  C6_6 
REMARK    3  A    between atoms: N3_20  and  C16_21 
REMARK    4  A    between atoms: C16_21  and  C17_22 
REMARK    5  A    between atoms: C17_22  and  C18_23 
REMARK    6  A    between atoms: C18_23  and  C19_24 
REMARK    7  A    between atoms: C19_24  and  C20_25 
REMARK    8  A    between atoms: C20_25  and  C21_26 
REMARK    9  A    between atoms: C21_26  and  C22_27 
ROOT
HETATM    1  C1  UNL     1      10.344   3.521  -1.691  1.00  0.00     0.113 C 
HETATM    2  C2  UNL     1       8.991   2.986  -1.463  1.00  0.00    -0.097 C 
HETATM    3  C3  UNL     1       7.882   2.551  -1.265  1.00  0.00    -0.015 C 
ENDROOT
BRANCH   3   4
HETATM    4  C4  UNL     1       6.590   2.037  -1.013  1.00  0.00    -0.011 C 
HETATM    5  C5  UNL     1       5.484   1.613  -0.784  1.00  0.00    -0.064 C 
BRANCH   5   6
HETATM    6  C6  UNL     1       4.147   1.121  -0.491  1.00  0.00     0.069 C 
HETATM    7  C7  UNL     1       3.937  -0.062   0.030  1.00  0.00    -0.054 A 
HETATM    8  C8  UNL     1       4.848  -1.157   0.446  1.00  0.00     0.073 A 
HETATM    9  C24 UNL     1       2.829  -0.862   0.441  1.00  0.00     0.052 A 
HETATM   10  C9  UNL     1       3.650  -2.062   0.777  1.00  0.00     0.244 A 
HETATM   11  N1  UNL     1       3.402  -2.220   2.193  1.00  0.00     0.091 N 
HETATM   12  C10 UNL     1       3.670  -3.566   2.651  1.00  0.00     0.310 C 
HETATM   13  C11 UNL     1       1.974  -1.894   2.349  1.00  0.00     0.283 C 
HETATM   14  C12 UNL     1       1.882  -0.648   1.487  1.00  0.00     0.067 A 
HETATM   15  C13 UNL     1       1.480  -0.854   0.030  1.00  0.00    -0.011 A 
HETATM   16  C14 UNL     1       0.394  -0.916  -0.736  1.00  0.00     0.128 A 
HETATM   17  N2  UNL     1       0.387  -1.139  -2.161  1.00  0.00    -0.292 N 
HETATM   18  N4  UNL     1      -0.977  -0.787  -0.377  1.00  0.00    -0.279 N 
HETATM   19  C15 UNL     1      -0.956  -1.136  -2.599  1.00  0.00     0.342 A 
ATOM     20  H2  UNL     1       1.209  -1.275  -2.750  1.00  0.00     0.172 HD
HETATM   21  O1  UNL     1      -1.346  -1.303  -3.800  1.00  0.00    -0.245 OA
HETATM   22  N3  UNL     1      -1.824  -0.913  -1.468  1.00  0.00    -0.241 N 
ATOM     23  H4  UNL     1      -1.301  -0.621   0.576  1.00  0.00     0.189 HD
BRANCH  22  24
HETATM   24  C16 UNL     1      -3.259  -0.868  -1.605  1.00  0.00     0.154 C 
BRANCH  24  25
HETATM   25  C17 UNL     1      -3.691   0.574  -1.897  1.00  0.00     0.022 C 
BRANCH  25  26
HETATM   26  C18 UNL     1      -3.320   1.439  -0.767  1.00  0.00     0.002 C 
BRANCH  26  27
HETATM   27  C19 UNL     1      -3.901   1.115   0.541  1.00  0.00     0.000 C 
BRANCH  27  28
HETATM   28  C20 UNL     1      -5.335   1.235   0.747  1.00  0.00     0.000 C 
BRANCH  28  29
HETATM   29  C21 UNL     1      -6.332   0.449  -0.010  1.00  0.00    -0.000 C 
BRANCH  29  30
HETATM   30  C22 UNL     1      -7.732   0.820   0.607  1.00  0.00    -0.005 C 
HETATM   31  C23 UNL     1      -7.707   0.442   2.071  1.00  0.00     0.005 C 
ENDBRANCH  29  30
ENDBRANCH  28  29
ENDBRANCH  27  28
ENDBRANCH  26  27
ENDBRANCH  25  26
ENDBRANCH  24  25
ENDBRANCH  22  24
ENDBRANCH   5   6
ENDBRANCH   3   4
TORSDOF 9
