REMARK  4 active torsions:
REMARK  status: ('A' for Active; 'I' for Inactive)
REMARK    1  A    between atoms: C2_2  and  O1_3 
REMARK    2  A    between atoms: C8_10  and  C9_11 
REMARK    3  A    between atoms: C9_11  and  C10_12 
REMARK    4  A    between atoms: C10_12  and  N1_13 
ROOT
HETATM    1  C1  UNL     1      -4.323   1.301  -0.926  1.00  0.00     0.078 C 
HETATM    2  C2  UNL     1      -3.454   0.614   0.085  1.00  0.00     0.159 C 
HETATM    3  C3  UNL     1      -3.707  -0.847   0.221  1.00  0.00     0.071 C 
HETATM    4  C4  UNL     1      -2.345  -1.500   0.020  1.00  0.00     0.043 C 
HETATM    5  C5  UNL     1      -1.431  -0.340   0.083  1.00  0.00     0.065 C 
HETATM    6  C6  UNL     1      -0.825  -0.102   1.447  1.00  0.00     0.038 C 
HETATM    7  C7  UNL     1       0.205   0.982   1.107  1.00  0.00     0.007 C 
HETATM    8  C8  UNL     1       0.594   0.728  -0.309  1.00  0.00    -0.010 C 
HETATM    9  C13 UNL     1      -0.186  -0.485  -0.771  1.00  0.00     0.043 C 
HETATM   10  O2  UNL     1      -2.132   0.800  -0.275  1.00  0.00    -0.345 OA
ENDROOT
BRANCH   8  11
HETATM   11  C9  UNL     1       2.069   0.583  -0.524  1.00  0.00     0.026 C 
BRANCH  11  12
HETATM   12  C10 UNL     1       2.688  -0.539   0.237  1.00  0.00     0.150 C 
BRANCH  12  13
HETATM   13  N1  UNL     1       4.119  -0.541  -0.083  1.00  0.00    -0.287 N 
HETATM   14  C11 UNL     1       4.713  -1.209  -1.089  1.00  0.00     0.201 A 
HETATM   15  N2  UNL     1       6.040  -0.972  -1.075  1.00  0.00    -0.346 N 
HETATM   16  C12 UNL     1       6.275  -0.152  -0.054  1.00  0.00     0.198 A 
ATOM     17  H2  UNL     1       6.731  -1.349  -1.723  1.00  0.00     0.167 HD
HETATM   18  N3  UNL     1       5.085   0.104   0.544  1.00  0.00    -0.293 N 
ATOM     19  H3  UNL     1       4.956   0.706   1.357  1.00  0.00     0.188 HD
ENDBRANCH  12  13
ENDBRANCH  11  12
ENDBRANCH   8  11
BRANCH   2  20
HETATM   20  O1  UNL     1      -3.673   1.212   1.323  1.00  0.00    -0.366 OA
ATOM     21  H1  UNL     1      -3.123   0.777   1.963  1.00  0.00     0.213 HD
ENDBRANCH   2  20
TORSDOF 4
