REMARK  9 active torsions:
REMARK  status: ('A' for Active; 'I' for Inactive)
REMARK    1  A    between atoms: N1_1  and  C1_4 
REMARK    2  A    between atoms: C1_4  and  N2_5 
REMARK    3  A    between atoms: N2_5  and  C2_7 
REMARK    4  A    between atoms: C2_7  and  C6_17 
REMARK    5  A    between atoms: N3_8  and  C3_10 
REMARK    6  A    between atoms: C3_10  and  C4_11 
REMARK    7  A    between atoms: C3_10  and  C5_14 
REMARK    8  A    between atoms: C6_17  and  O4_18 
REMARK    9  A    between atoms: C6_17  and  C7_20 
ROOT
HETATM    1  C2  UNL     1      -0.655   0.697  -0.112  1.00  0.00     0.112 C 
HETATM    2  N3  UNL     1      -2.001   0.641  -0.283  1.00  0.00    -0.334 N 
ATOM      3  H3  UNL     1      -2.266   1.086  -1.162  1.00  0.00     0.167 HD
ENDROOT
BRANCH   1   4
HETATM    4  N2  UNL     1      -0.158   1.909   0.007  1.00  0.00    -0.340 N 
ATOM      5  H2  UNL     1       0.846   2.001   0.164  1.00  0.00     0.168 HD
BRANCH   4   6
HETATM    6  C1  UNL     1      -0.933   3.099  -0.069  1.00  0.00     0.174 C 
BRANCH   6   7
HETATM    7  N1  UNL     1      -1.478   3.541   0.963  1.00  0.00    -0.395 N 
ATOM      8  H12 UNL     1      -1.359   3.042   1.844  1.00  0.00     0.156 HD
ATOM      9  H11 UNL     1      -2.034   4.394   0.908  1.00  0.00     0.156 HD
ENDBRANCH   6   7
ENDBRANCH   4   6
ENDBRANCH   1   4
BRANCH   1  10
HETATM   10  C6  UNL     1       0.240  -0.462  -0.160  1.00  0.00     0.189 C 
BRANCH  10  11
HETATM   11  O4  UNL     1      -0.179  -1.560   0.575  1.00  0.00    -0.388 OA
ATOM     12  H4  UNL     1       0.401  -2.312   0.544  1.00  0.00     0.210 HD
ENDBRANCH  10  11
BRANCH  10  13
HETATM   13  C7  UNL     1       1.653  -0.239   0.411  1.00  0.00     0.022 C 
HETATM   14  C8  UNL     1       2.477   0.761  -0.234  1.00  0.00     0.007 C 
HETATM   15  C9  UNL     1       3.612   0.237  -1.099  1.00  0.00     0.000 C 
HETATM   16  C10 UNL     1       4.526  -0.706  -0.395  1.00  0.00     0.000 C 
HETATM   17  C11 UNL     1       3.789  -1.527   0.644  1.00  0.00     0.000 C 
HETATM   18  C12 UNL     1       2.343  -1.608   0.252  1.00  0.00     0.007 C 
ENDBRANCH  10  13
ENDBRANCH   1  10
BRANCH   2  19
HETATM   19  C3  UNL     1      -3.152   0.152   0.389  1.00  0.00     0.176 C 
BRANCH  19  20
HETATM   20  C4  UNL     1      -3.303  -1.272   0.551  1.00  0.00     0.288 C 
HETATM   21  N4  UNL     1      -3.852  -2.096  -0.489  1.00  0.00    -0.056 NA
HETATM   22  O1  UNL     1      -2.933  -1.911   1.608  1.00  0.00    -0.269 OA
ENDBRANCH  19  20
BRANCH  19  23
HETATM   23  C5  UNL     1      -4.411   0.839   0.143  1.00  0.00     0.232 C 
HETATM   24  O2  UNL     1      -4.447   1.976  -0.398  1.00  0.00    -0.643 OA
HETATM   25  O3  UNL     1      -5.646   0.272   0.508  1.00  0.00    -0.643 OA
ENDBRANCH  19  23
ENDBRANCH   2  19
TORSDOF 9
