REMARK  11 active torsions:
REMARK  status: ('A' for Active; 'I' for Inactive)
REMARK    1  A    between atoms: C2_2  and  N1_3 
REMARK       I    between atoms: N1_3  and  C3_5 
REMARK    2  A    between atoms: C3_5  and  O2_7 
REMARK    3  A    between atoms: O2_7  and  C4_8 
REMARK    4  A    between atoms: C4_8  and  C5_9 
REMARK    5  A    between atoms: C6_11  and  C7_12 
REMARK    6  A    between atoms: C8_13  and  C9_14 
REMARK    7  A    between atoms: C10_16  and  C11_17 
REMARK    8  A    between atoms: C11_17  and  C12_18 
REMARK    9  A    between atoms: C13_20  and  C14_21 
REMARK   10  A    between atoms: C16_23  and  O5_24 
REMARK   11  A    between atoms: C17_26  and  O6_27 
ROOT
HETATM    1  C5  UNL     1       1.618  -0.791  -0.542  1.00  0.00     0.178 C 
HETATM    2  O3  UNL     1       0.233  -0.907  -0.655  1.00  0.00    -0.369 OA
HETATM    3  C6  UNL     1      -0.148   0.147  -1.442  1.00  0.00     0.176 C 
HETATM    4  C16 UNL     1       1.001   0.464  -2.386  1.00  0.00     0.182 C 
HETATM    5  C17 UNL     1       1.990  -0.624  -2.019  1.00  0.00     0.180 C 
ENDROOT
BRANCH   3   6
HETATM    6  C7  UNL     1      -0.550   1.314  -0.640  1.00  0.00     0.006 C 
HETATM    7  C8  UNL     1      -1.774   1.418  -0.177  1.00  0.00     0.004 C 
BRANCH   7   8
HETATM    8  C9  UNL     1      -2.763   0.370  -0.451  1.00  0.00     0.151 A 
HETATM    9  O4  UNL     1      -3.629   0.787  -1.439  1.00  0.00    -0.376 OA
HETATM   10  C10 UNL     1      -4.758   0.677  -0.582  1.00  0.00     0.130 A 
HETATM   11  C13 UNL     1      -3.899   0.214   0.521  1.00  0.00     0.047 A 
BRANCH  10  12
HETATM   12  C11 UNL     1      -5.697  -0.293  -1.244  1.00  0.00     0.043 C 
BRANCH  12  13
HETATM   13  C12 UNL     1      -6.982  -0.553  -0.549  1.00  0.00     0.088 C 
HETATM   14 BR1  UNL     1      -6.685  -1.325   1.181  1.00  0.00    -0.096 Br
ENDBRANCH  12  13
ENDBRANCH  10  12
BRANCH  11  15
HETATM   15  C14 UNL     1      -3.787   1.074   1.758  1.00  0.00     0.005 C 
HETATM   16  C15 UNL     1      -2.538   0.758   2.548  1.00  0.00     0.006 C 
ENDBRANCH  11  15
ENDBRANCH   7   8
ENDBRANCH   3   6
BRANCH   4  17
HETATM   17  O5  UNL     1       1.565   1.703  -2.103  1.00  0.00    -0.390 OA
ATOM     18  H5  UNL     1       2.283   1.901  -2.693  1.00  0.00     0.210 HD
ENDBRANCH   4  17
BRANCH   1  19
HETATM   19  C4  UNL     1       2.268  -1.963   0.079  1.00  0.00     0.215 C 
BRANCH  19  20
HETATM   20  O2  UNL     1       3.655  -1.786   0.152  1.00  0.00    -0.301 OA
BRANCH  20  21
HETATM   21  C3  UNL     1       4.343  -0.822   0.840  1.00  0.00     0.360 C 
HETATM   22  N1  UNL     1       5.784  -0.747   0.830  1.00  0.00    -0.337 N 
ATOM     23  H1  UNL     1       6.309  -1.437   0.292  1.00  0.00     0.164 HD
HETATM   24  O1  UNL     1       3.698   0.026   1.503  1.00  0.00    -0.239 OA
BRANCH  22  25
HETATM   25  C2  UNL     1       6.501   0.259   1.547  1.00  0.00     0.120 C 
HETATM   26  C1  UNL     1       7.991   0.078   1.347  1.00  0.00     0.026 C 
ENDBRANCH  22  25
ENDBRANCH  20  21
ENDBRANCH  19  20
ENDBRANCH   1  19
BRANCH   5  27
HETATM   27  O6  UNL     1       1.682  -1.747  -2.747  1.00  0.00    -0.390 OA
ATOM     28  H6  UNL     1       1.913  -1.643  -3.663  1.00  0.00     0.210 HD
ENDBRANCH   5  27
TORSDOF 11
