REMARK  11 active torsions:
REMARK  status: ('A' for Active; 'I' for Inactive)
REMARK    1  A    between atoms: N1_1  and  C1_4 
REMARK    2  A    between atoms: C2_7  and  N3_8 
REMARK    3  A    between atoms: C5_11  and  C6_12 
REMARK    4  A    between atoms: C5_11  and  N4_15 
REMARK    5  A    between atoms: C6_12  and  O1_13 
REMARK    6  A    between atoms: N4_15  and  C7_18 
REMARK    7  A    between atoms: C7_18  and  C8_19 
REMARK    8  A    between atoms: C8_19  and  O2_20 
REMARK    9  A    between atoms: C8_19  and  C9_22 
REMARK   10  A    between atoms: C9_22  and  O3_23 
REMARK   11  A    between atoms: N8_37  and  N9_38 
ROOT
HETATM    1  C1  UNL     1      -2.898  -0.034   1.253  1.00  0.00     0.149 A 
HETATM    2  N2  UNL     1      -1.597   0.056   1.104  1.00  0.00    -0.174 N 
ATOM      3  H2  UNL     1      -1.008  -0.375   1.817  1.00  0.00     0.186 HD
HETATM    4  C2  UNL     1      -0.980   0.679   0.073  1.00  0.00     0.684 A 
HETATM    5  N5  UNL     1      -1.715   1.300  -0.965  1.00  0.00    -0.167 N 
ATOM      6  H5  UNL     1      -1.257   1.771  -1.745  1.00  0.00     0.186 HD
HETATM    7  C11 UNL     1      -2.973   1.235  -0.866  1.00  0.00     0.198 A 
HETATM    8  C12 UNL     1      -3.618   0.602   0.206  1.00  0.00     0.173 A 
HETATM    9  N6  UNL     1      -4.983   0.507   0.583  1.00  0.00    -0.154 N 
HETATM   10  O4  UNL     1      -5.855   1.613   0.829  1.00  0.00    -0.252 OA
HETATM   11  C13 UNL     1      -6.094   2.216  -0.550  1.00  0.00     0.287 C 
HETATM   12  C14 UNL     1      -5.193   1.416  -1.271  1.00  0.00     0.149 C 
HETATM   13  N7  UNL     1      -5.239   0.101  -1.367  1.00  0.00    -0.357 N 
ATOM     14  H7  UNL     1      -4.579  -0.379  -1.979  1.00  0.00     0.162 HD
HETATM   15  C15 UNL     1      -6.241  -0.701  -0.595  1.00  0.00     0.263 C 
HETATM   16  N8  UNL     1      -5.256  -0.900   0.702  1.00  0.00    -0.101 NA
HETATM   17  O5  UNL     1      -3.956   1.804  -1.926  1.00  0.00    -0.276 OA
ENDROOT
BRANCH   4  18
HETATM   18  N3  UNL     1       0.420   0.739  -0.029  1.00  0.00    -0.215 N 
HETATM   19  C3  UNL     1       1.203   1.383  -1.066  1.00  0.00     0.144 C 
HETATM   20  C4  UNL     1       2.643   1.066  -0.776  1.00  0.00     0.063 C 
HETATM   21  C5  UNL     1       2.507  -0.275  -0.029  1.00  0.00     0.164 C 
HETATM   22  C10 UNL     1       1.354   0.147   0.908  1.00  0.00     0.182 C 
BRANCH  21  23
HETATM   23  C6  UNL     1       1.965  -1.341  -0.908  1.00  0.00     0.204 C 
BRANCH  23  24
HETATM   24  O1  UNL     1       2.778  -1.788  -1.920  1.00  0.00    -0.398 OA
ATOM     25  H1  UNL     1       2.431  -2.470  -2.483  1.00  0.00     0.209 HD
ENDBRANCH  23  24
ENDBRANCH  21  23
BRANCH  21  26
HETATM   26  N4  UNL     1       3.671  -0.544   0.717  1.00  0.00    -0.060 N 
ATOM     27  H42 UNL     1       3.796   0.155   1.449  1.00  0.00     0.278 HD
ATOM     28  H41 UNL     1       3.542  -1.376   1.292  1.00  0.00     0.278 HD
BRANCH  26  29
HETATM   29  C7  UNL     1       4.843  -0.658  -0.063  1.00  0.00     0.267 C 
BRANCH  29  30
HETATM   30  C8  UNL     1       6.035  -0.895   0.876  1.00  0.00     0.167 C 
BRANCH  30  31
HETATM   31  O2  UNL     1       5.795  -2.080   1.585  1.00  0.00    -0.392 OA
ATOM     32  H2  UNL     1       6.532  -2.227   2.166  1.00  0.00     0.210 HD
ENDBRANCH  30  31
BRANCH  30  33
HETATM   33  C9  UNL     1       6.025   0.223   1.903  1.00  0.00     0.197 C 
BRANCH  33  34
HETATM   34  O3  UNL     1       6.252   1.469   1.339  1.00  0.00    -0.398 OA
ATOM     35  H3  UNL     1       6.246   2.169   1.982  1.00  0.00     0.209 HD
ENDBRANCH  33  34
ENDBRANCH  30  33
ENDBRANCH  29  30
ENDBRANCH  26  29
ENDBRANCH  21  26
ENDBRANCH   4  18
BRANCH   1  36
HETATM   36  N1  UNL     1      -3.685  -0.636   2.065  1.00  0.00    -0.383 N 
ATOM     37  H12 UNL     1      -3.168  -1.093   2.817  1.00  0.00     0.157 HD
ATOM     38  H11 UNL     1      -4.696  -0.706   2.181  1.00  0.00     0.157 HD
ENDBRANCH   1  36
BRANCH  16  39
HETATM   39  N9  UNL     1      -4.557  -1.756  -0.211  1.00  0.00    -0.342 NA
ATOM     40  H92 UNL     1      -3.945  -1.880   0.595  1.00  0.00     0.172 HD
ATOM     41  H91 UNL     1      -4.751  -2.754  -0.127  1.00  0.00     0.172 HD
ENDBRANCH  16  39
TORSDOF 11
