REMARK  13 active torsions:
REMARK  status: ('A' for Active; 'I' for Inactive)
REMARK    1  A    between atoms: C2_3  and  N2_4 
REMARK    2  A    between atoms: N2_4  and  C3_6 
REMARK    3  A    between atoms: C4_9  and  N4_10 
REMARK       I    between atoms: N5_13  and  C5_14 
REMARK    4  A    between atoms: C5_14  and  C6_16 
REMARK    5  A    between atoms: C6_16  and  O2_17 
REMARK    6  A    between atoms: C6_16  and  O3_19 
REMARK    7  A    between atoms: C7_25  and  N8_26 
REMARK    8  A    between atoms: C8_31  and  O4_32 
REMARK    9  A    between atoms: O4_32  and  C9_33 
REMARK   10  A    between atoms: C9_33  and  C10_34 
REMARK   11  A    between atoms: C10_34  and  C11_35 
REMARK   12  A    between atoms: C11_35  and  O6_37 
REMARK   13  A    between atoms: O6_37  and  C12_38 
ROOT
HETATM    1  C1  UNL     1       0.194   2.462  -0.040  1.00  0.00     0.179 C 
HETATM    2  N1  UNL     1       0.024   1.211   0.638  1.00  0.00    -0.149 N 
HETATM    3  C2  UNL     1      -1.157   0.934   1.202  1.00  0.00     0.716 A 
HETATM    4  N7  UNL     1      -1.302  -0.238   1.833  1.00  0.00    -0.022 N 
ATOM      5  H7  UNL     1      -2.194  -0.469   2.270  1.00  0.00     0.203 HD
HETATM    6  C7  UNL     1      -0.267  -1.127   1.898  1.00  0.00     0.693 A 
HETATM    7  N9  UNL     1       0.914  -0.805   1.312  1.00  0.00    -0.154 N 
ATOM      8  H9  UNL     1       1.693  -1.462   1.354  1.00  0.00     0.188 HD
HETATM    9  C8  UNL     1       1.068   0.363   0.680  1.00  0.00     0.254 A 
ENDROOT
BRANCH   3  10
HETATM   10  N2  UNL     1      -2.209   1.863   1.124  1.00  0.00    -0.019 N 
ATOM     11  H2  UNL     1      -1.989   2.827   1.377  1.00  0.00     0.203 HD
BRANCH  10  12
HETATM   12  C3  UNL     1      -3.402   1.625   0.772  1.00  0.00     0.727 A 
HETATM   13  N3  UNL     1      -4.375   2.539   0.710  1.00  0.00    -0.019 N 
HETATM   14  C4  UNL     1      -5.509   1.964   0.305  1.00  0.00     0.715 A 
ATOM     15  H3  UNL     1      -4.267   3.527   0.938  1.00  0.00     0.203 HD
HETATM   16  N5  UNL     1      -5.266   0.620   0.093  1.00  0.00    -0.032 N 
HETATM   17  C5  UNL     1      -6.249  -0.295  -0.343  1.00  0.00     0.314 C 
HETATM   18  N6  UNL     1      -3.994   0.469   0.386  1.00  0.00    -0.107 N 
HETATM   19  O1  UNL     1      -7.432   0.161  -0.551  1.00  0.00    -0.265 OA
ATOM     20  H6  UNL     1      -3.504  -0.424   0.329  1.00  0.00     0.207 HD
BRANCH  14  21
HETATM   21  N4  UNL     1      -6.661   2.545   0.130  1.00  0.00    -0.232 N 
ATOM     22  H42 UNL     1      -6.840   3.537   0.286  1.00  0.00     0.174 HD
ATOM     23  H41 UNL     1      -7.528   2.105  -0.180  1.00  0.00     0.174 HD
ENDBRANCH  14  21
BRANCH  17  24
HETATM   24  C6  UNL     1      -6.047  -1.709  -0.579  1.00  0.00     0.351 C 
BRANCH  24  25
HETATM   25  O2  UNL     1      -4.754  -2.103  -0.330  1.00  0.00    -0.363 OA
ATOM     26  H2  UNL     1      -4.621  -3.031  -0.485  1.00  0.00     0.213 HD
ENDBRANCH  24  25
BRANCH  24  27
HETATM   27  O3  UNL     1      -6.265  -1.937  -1.959  1.00  0.00    -0.363 OA
ATOM     28  H3  UNL     1      -6.132  -2.865  -2.114  1.00  0.00     0.213 HD
ENDBRANCH  24  27
ENDBRANCH  17  24
ENDBRANCH  10  12
ENDBRANCH   3  10
BRANCH   9  29
HETATM   29  O4  UNL     1       2.266   0.696   0.083  1.00  0.00    -0.321 OA
BRANCH  29  30
HETATM   30  C9  UNL     1       3.326  -0.229   0.156  1.00  0.00     0.188 C 
BRANCH  30  31
HETATM   31  C10 UNL     1       4.567   0.277  -0.542  1.00  0.00     0.138 C 
BRANCH  31  32
HETATM   32  C11 UNL     1       5.647  -0.734  -0.433  1.00  0.00     0.268 C 
HETATM   33  O5  UNL     1       5.442  -1.792   0.163  1.00  0.00    -0.265 OA
BRANCH  32  34
HETATM   34  O6  UNL     1       6.857  -0.470  -1.001  1.00  0.00    -0.248 OA
BRANCH  34  35
HETATM   35  C12 UNL     1       7.943  -1.307  -0.980  1.00  0.00     0.232 C 
HETATM   36  N10 UNL     1       7.958  -2.424  -0.434  1.00  0.00    -0.367 N 
ATOM     37 2H10 UNL     1       7.134  -2.788   0.044  1.00  0.00     0.159 HD
ATOM     38 1H10 UNL     1       8.766  -3.047  -0.418  1.00  0.00     0.159 HD
HETATM   39  N11 UNL     1       9.118  -0.788  -1.661  1.00  0.00    -0.056 NA
ENDBRANCH  34  35
ENDBRANCH  32  34
ENDBRANCH  31  32
ENDBRANCH  30  31
ENDBRANCH  29  30
ENDBRANCH   9  29
BRANCH   6  40
HETATM   40  N8  UNL     1      -0.355  -2.258   2.488  1.00  0.00    -0.234 N 
ATOM     41  H82 UNL     1      -1.243  -2.500   2.928  1.00  0.00     0.174 HD
ATOM     42  H81 UNL     1       0.418  -2.922   2.537  1.00  0.00     0.174 HD
ENDBRANCH   6  40
TORSDOF 13
