REMARK  8 active torsions:
REMARK  status: ('A' for Active; 'I' for Inactive)
REMARK    1  A    between atoms: O1_2  and  C2_3 
REMARK    2  A    between atoms: C2_3  and  O2_4 
REMARK    3  A    between atoms: C2_3  and  C3_6 
REMARK    4  A    between atoms: C4_11  and  N3_12 
REMARK       I    between atoms: N3_12  and  C5_14 
REMARK       I    between atoms: C5_14  and  N5_18 
REMARK    5  A    between atoms: N5_18  and  N6_20 
REMARK    6  A    between atoms: C8_31  and  N10_32 
REMARK    7  A    between atoms: N11_36  and  C9_37 
REMARK    8  A    between atoms: C9_37  and  C10_38 
ROOT
HETATM    1  C3  UNL     1      -0.877  -1.374  -1.013  1.00  0.00     0.208 C 
HETATM    2  N1  UNL     1      -2.049  -1.802  -0.232  1.00  0.00    -0.307 N 
ATOM      3  H1  UNL     1      -1.931  -2.597   0.396  1.00  0.00     0.181 HD
HETATM    4  N2  UNL     1      -3.311  -1.204  -0.284  1.00  0.00    -0.134 N 
ATOM      5  H2  UNL     1      -4.107  -1.821  -0.120  1.00  0.00     0.205 HD
HETATM    6  C4  UNL     1      -3.596   0.056  -0.519  1.00  0.00     0.725 C 
HETATM    7  N7  UNL     1      -2.602   1.075  -0.769  1.00  0.00    -0.130 N 
ATOM      8  H7  UNL     1      -2.917   1.946  -1.195  1.00  0.00     0.205 HD
HETATM    9  N8  UNL     1      -1.234   0.956  -0.469  1.00  0.00    -0.286 N 
ATOM     10  H8  UNL     1      -0.797   1.814  -0.132  1.00  0.00     0.187 HD
HETATM   11  C6  UNL     1      -0.415  -0.085  -0.551  1.00  0.00     0.077 C 
HETATM   12  C7  UNL     1       0.928   0.233  -0.125  1.00  0.00     0.036 C 
HETATM   13  N9  UNL     1       1.942  -0.522  -0.074  1.00  0.00    -0.348 N 
ATOM     14  H9  UNL     1       1.789  -1.484  -0.375  1.00  0.00     0.163 HD
HETATM   15  C8  UNL     1       3.278  -0.212   0.349  1.00  0.00     0.385 C 
HETATM   16  N11 UNL     1       3.549   1.183   0.424  1.00  0.00    -0.361 N 
HETATM   17  C11 UNL     1       2.565   2.010  -0.205  1.00  0.00     0.127 C 
HETATM   18  C12 UNL     1       1.197   1.650   0.336  1.00  0.00     0.078 C 
ENDROOT
BRANCH   1  19
HETATM   19  C2  UNL     1       0.052  -2.484  -1.242  1.00  0.00     0.286 C 
BRANCH  19  20
HETATM   20  O1  UNL     1       0.604  -3.109  -0.162  1.00  0.00    -0.364 OA
HETATM   21  C1  UNL     1       0.281  -4.454  -0.081  1.00  0.00     0.204 C 
ENDBRANCH  19  20
BRANCH  19  22
HETATM   22  O2  UNL     1       0.970  -2.175  -2.262  1.00  0.00    -0.369 OA
ATOM     23  H2  UNL     1       0.586  -1.740  -3.014  1.00  0.00     0.212 HD
ENDBRANCH  19  22
ENDBRANCH   1  19
BRANCH   6  24
HETATM   24  N3  UNL     1      -4.934   0.473  -0.531  1.00  0.00    -0.018 N 
HETATM   25  C5  UNL     1      -5.674   0.902   0.595  1.00  0.00     0.709 C 
HETATM   26  N4  UNL     1      -6.178   0.045   1.419  1.00  0.00    -0.233 N 
HETATM   27  N5  UNL     1      -5.839   2.306   0.782  1.00  0.00    -0.072 N 
ATOM     28  H42 UNL     1      -6.060  -0.959   1.285  1.00  0.00     0.174 HD
ATOM     29  H41 UNL     1      -6.712   0.354   2.231  1.00  0.00     0.174 HD
ATOM     30  H5  UNL     1      -5.842   2.946  -0.012  1.00  0.00     0.212 HD
ATOM     31  H3  UNL     1      -5.416   0.466  -1.430  1.00  0.00     0.203 HD
BRANCH  27  32
HETATM   32  N6  UNL     1      -5.996   2.774   2.082  1.00  0.00    -0.024 N 
HETATM   33  O3  UNL     1      -5.043   3.166   2.776  1.00  0.00    -0.516 OA
HETATM   34  O4  UNL     1      -7.254   2.803   2.622  1.00  0.00    -0.516 OA
ENDBRANCH  27  32
ENDBRANCH   6  24
BRANCH  15  35
HETATM   35  N10 UNL     1       3.646  -0.818   1.606  1.00  0.00    -0.041 N 
ATOM     36 3H10 UNL     1       2.973  -0.574   2.333  1.00  0.00     0.279 HD
ATOM     37 2H10 UNL     1       3.505  -1.828   1.573  1.00  0.00     0.279 HD
ATOM     38 1H10 UNL     1       4.595  -0.598   1.907  1.00  0.00     0.279 HD
ENDBRANCH  15  35
BRANCH  16  39
HETATM   39  C9  UNL     1       4.875   1.607   0.193  1.00  0.00     0.233 C 
BRANCH  39  40
HETATM   40  C10 UNL     1       5.400   1.460  -1.159  1.00  0.00     0.191 C 
HETATM   41  O5  UNL     1       4.686   0.974  -2.072  1.00  0.00    -0.647 OA
HETATM   42  O6  UNL     1       6.687   1.841  -1.498  1.00  0.00    -0.647 OA
ENDBRANCH  39  40
ENDBRANCH  16  39
TORSDOF 8
