REMARK  6 active torsions:
REMARK  status: ('A' for Active; 'I' for Inactive)
REMARK    1  A    between atoms: N1_1  and  C1_4 
REMARK    2  A    between atoms: N5_11  and  N6_12 
REMARK       I    between atoms: N6_12  and  C2_14 
REMARK       I    between atoms: C2_14  and  N8_16 
REMARK    3  A    between atoms: N8_16  and  S1_18 
REMARK    4  A    between atoms: S1_18  and  C3_21 
REMARK    5  A    between atoms: C5_25  and  C6_26 
REMARK    6  A    between atoms: N10_29  and  N11_30 
ROOT
HETATM    1  N6  UNL     1       2.097  -1.931   0.905  1.00  0.00    -0.235 N 
ATOM      2  H6  UNL     1       1.692  -2.792   1.273  1.00  0.00     0.192 HD
HETATM    3  C2  UNL     1       1.422  -1.200  -0.121  1.00  0.00     0.219 C 
HETATM    4  N7  UNL     1       1.749  -1.547  -1.462  1.00  0.00    -0.061 NA
HETATM    5  N8  UNL     1       0.560  -0.271   0.172  1.00  0.00    -0.251 N 
ATOM      6  H8  UNL     1       0.349  -0.046   1.144  1.00  0.00     0.181 HD
ENDROOT
BRANCH   5   7
HETATM    7  S1  UNL     1      -0.215   0.569  -1.108  1.00  0.00     0.284 S 
HETATM    8  O1  UNL     1      -0.344  -0.389  -2.284  1.00  0.00    -0.199 OA
HETATM    9  O2  UNL     1       0.684   1.685  -1.543  1.00  0.00    -0.199 OA
BRANCH   7  10
HETATM   10  C3  UNL     1      -1.772   1.166  -0.632  1.00  0.00     0.188 A 
HETATM   11  C4  UNL     1      -2.142   2.495  -0.631  1.00  0.00     0.135 A 
HETATM   12  N9  UNL     1      -3.413   2.520  -0.198  1.00  0.00    -0.342 N 
HETATM   13  C5  UNL     1      -3.804   1.238   0.057  1.00  0.00     0.205 A 
ATOM     14  H9  UNL     1      -3.988   3.354  -0.080  1.00  0.00     0.167 HD
HETATM   15  N10 UNL     1      -2.790   0.398  -0.210  1.00  0.00    -0.226 N 
BRANCH  13  16
HETATM   16  C6  UNL     1      -5.124   0.888   0.542  1.00  0.00     0.247 C 
HETATM   17  O3  UNL     1      -5.395  -0.314   0.748  1.00  0.00    -0.642 OA
HETATM   18  O4  UNL     1      -6.103   1.831   0.787  1.00  0.00    -0.642 OA
ENDBRANCH  13  16
BRANCH  15  19
HETATM   19  N11 UNL     1      -2.833  -0.992  -0.064  1.00  0.00    -0.336 N 
ATOM     20 2H11 UNL     1      -2.063  -1.630  -0.267  1.00  0.00     0.177 HD
ATOM     21 1H11 UNL     1      -3.606  -1.575   0.256  1.00  0.00     0.177 HD
ENDBRANCH  15  19
ENDBRANCH   7  10
ENDBRANCH   5   7
BRANCH   1  22
HETATM   22  N5  UNL     1       3.316  -1.460   1.402  1.00  0.00    -0.001 N 
HETATM   23  C1  UNL     1       3.976  -0.355   1.026  1.00  0.00     0.729 A 
HETATM   24  N2  UNL     1       5.117  -0.260   1.753  1.00  0.00    -0.114 N 
HETATM   25  N3  UNL     1       5.147  -1.297   2.560  1.00  0.00    -0.212 N 
ATOM     26  H2  UNL     1       5.819   0.477   1.686  1.00  0.00     0.207 HD
HETATM   27  N4  UNL     1       4.057  -2.012   2.339  1.00  0.00    -0.191 N 
ATOM     28  H3  UNL     1       5.880  -1.512   3.236  1.00  0.00     0.210 HD
ATOM     29  H4  UNL     1       3.822  -2.875   2.829  1.00  0.00     0.212 HD
BRANCH  23  30
HETATM   30  N1  UNL     1       3.609   0.495   0.126  1.00  0.00    -0.230 N 
ATOM     31  H12 UNL     1       4.111   1.336  -0.160  1.00  0.00     0.174 HD
ATOM     32  H11 UNL     1       2.751   0.424  -0.421  1.00  0.00     0.174 HD
ENDBRANCH  23  30
ENDBRANCH   1  22
TORSDOF 6
