REMARK  12 active torsions:
REMARK  status: ('A' for Active; 'I' for Inactive)
REMARK       I    between atoms: N2_7  and  C5_8 
REMARK    1  A    between atoms: C5_8  and  C6_10 
REMARK    2  A    between atoms: C10_16  and  N4_17 
REMARK    3  A    between atoms: N5_21  and  C14_22 
REMARK    4  A    between atoms: C14_22  and  C15_23 
REMARK    5  A    between atoms: C15_23  and  C16_24 
REMARK    6  A    between atoms: C16_24  and  C17_25 
REMARK    7  A    between atoms: C17_25  and  C18_26 
REMARK    8  A    between atoms: C18_26  and  C19_27 
REMARK    9  A    between atoms: C19_27  and  C20_28 
REMARK   10  A    between atoms: C20_28  and  C21_29 
REMARK   11  A    between atoms: C21_29  and  N6_30 
REMARK   12  A    between atoms: N6_30  and  C23_32 
ROOT
HETATM    1  N4  UNL     1      -1.781   0.882   1.546  1.00  0.00    -0.368 N 
HETATM    2  C11 UNL     1      -2.012   1.787   0.407  1.00  0.00     0.205 C 
HETATM    3  C12 UNL     1      -1.099   1.459  -0.647  1.00  0.00    -0.134 C 
HETATM    4  C13 UNL     1      -0.099   0.862  -1.434  1.00  0.00     0.353 C 
HETATM    5  N5  UNL     1       0.564  -0.243  -0.682  1.00  0.00     0.100 N 
HETATM    6  C26 UNL     1      -0.214  -0.748   0.419  1.00  0.00     0.293 C 
HETATM    7  C27 UNL     1      -0.552   0.040   1.594  1.00  0.00     0.154 C 
ENDROOT
BRANCH   1   8
HETATM    8  C10 UNL     1      -2.649   0.766   2.612  1.00  0.00     0.049 A 
HETATM    9  C6  UNL     1      -3.800   0.051   2.614  1.00  0.00     0.074 A 
HETATM   10  C7  UNL     1      -4.617  -0.027   3.769  1.00  0.00     0.106 A 
HETATM   11  N3  UNL     1      -4.232   0.626   4.871  1.00  0.00    -0.374 N 
HETATM   12  C8  UNL     1      -3.107   1.353   4.940  1.00  0.00     0.090 A 
ATOM     13  H3  UNL     1      -4.823   0.568   5.700  1.00  0.00     0.164 HD
HETATM   14  C9  UNL     1      -2.325   1.421   3.820  1.00  0.00     0.047 A 
BRANCH   9  15
HETATM   15  C5  UNL     1      -4.250  -0.649   1.418  1.00  0.00     0.257 C 
HETATM   16  N2  UNL     1      -5.233  -0.153   0.529  1.00  0.00    -0.348 N 
HETATM   17  C4  UNL     1      -5.572  -0.946  -0.632  1.00  0.00     0.131 C 
HETATM   18  C28 UNL     1      -5.928   1.084   0.744  1.00  0.00     0.131 C 
HETATM   19  C3  UNL     1      -6.922  -0.609  -1.180  1.00  0.00     0.083 C 
HETATM   20  C2  UNL     1      -7.912  -0.237  -0.094  1.00  0.00     0.168 C 
HETATM   21  O1  UNL     1      -9.095   0.101  -0.722  1.00  0.00    -0.241 OA
HETATM   22  C29 UNL     1      -7.409   0.979   0.630  1.00  0.00     0.083 C 
HETATM   23  N9  UNL     1      -8.198  -1.334   0.781  1.00  0.00    -0.307 N 
HETATM   24  N1  UNL     1     -10.070  -0.711  -0.294  1.00  0.00    -0.209 N 
HETATM   25  C1  UNL     1     -11.492  -0.588  -0.553  1.00  0.00     0.191 C 
HETATM   26  C30 UNL     1      -9.517  -1.771   0.489  1.00  0.00     0.344 C 
HETATM   27  O3  UNL     1     -10.051  -2.847   0.848  1.00  0.00    -0.245 OA
ATOM     28  H9  UNL     1      -7.571  -1.728   1.483  1.00  0.00     0.167 HD
HETATM   29  O2  UNL     1      -3.706  -1.769   1.202  1.00  0.00    -0.267 OA
ENDBRANCH   9  15
ENDBRANCH   1   8
BRANCH   5  30
HETATM   30  C14 UNL     1       1.888   0.115  -0.288  1.00  0.00     0.273 C 
BRANCH  30  31
HETATM   31  C15 UNL     1       2.857   0.256  -1.427  1.00  0.00     0.030 C 
BRANCH  31  32
HETATM   32  C16 UNL     1       2.990  -1.040  -2.205  1.00  0.00     0.002 C 
BRANCH  32  33
HETATM   33  C17 UNL     1       3.936  -0.904  -3.343  1.00  0.00     0.000 C 
BRANCH  33  34
HETATM   34  C18 UNL     1       5.335  -0.530  -3.003  1.00  0.00     0.000 C 
BRANCH  34  35
HETATM   35  C19 UNL     1       5.996  -1.527  -2.102  1.00  0.00     0.002 C 
BRANCH  35  36
HETATM   36  C20 UNL     1       7.418  -1.143  -1.776  1.00  0.00     0.020 C 
BRANCH  36  37
HETATM   37  C21 UNL     1       7.561   0.174  -1.083  1.00  0.00     0.124 C 
BRANCH  37  38
HETATM   38  N6  UNL     1       8.945   0.459  -0.817  1.00  0.00    -0.371 N 
HETATM   39  C22 UNL     1       9.852   0.730  -1.898  1.00  0.00     0.151 C 
BRANCH  38  40
HETATM   40  C23 UNL     1       9.412   0.470   0.518  1.00  0.00     0.118 A 
HETATM   41  C24 UNL     1       9.911  -0.590   1.250  1.00  0.00     0.068 A 
HETATM   42  C25 UNL     1      10.240  -0.117   2.488  1.00  0.00     0.111 A 
HETATM   43  N7  UNL     1       9.948   1.205   2.510  1.00  0.00    -0.310 N 
HETATM   44  N8  UNL     1       9.460   1.540   1.344  1.00  0.00    -0.286 N 
ATOM     45  H7  UNL     1      10.085   1.833   3.302  1.00  0.00     0.186 HD
ATOM     46  H8  UNL     1       9.157   2.481   1.092  1.00  0.00     0.188 HD
ENDBRANCH  38  40
ENDBRANCH  37  38
ENDBRANCH  36  37
ENDBRANCH  35  36
ENDBRANCH  34  35
ENDBRANCH  33  34
ENDBRANCH  32  33
ENDBRANCH  31  32
ENDBRANCH  30  31
ENDBRANCH   5  30
TORSDOF 12
