REMARK  11 active torsions:
REMARK  status: ('A' for Active; 'I' for Inactive)
REMARK    1  A    between atoms: C6_6  and  C7_7 
REMARK    2  A    between atoms: C7_7  and  C8_9 
REMARK    3  A    between atoms: C11_13  and  O2_14 
REMARK    4  A    between atoms: C14_19  and  C15_20 
REMARK    5  A    between atoms: C15_20  and  O3_21 
REMARK    6  A    between atoms: N1_23  and  O4_25 
REMARK    7  A    between atoms: C19_31  and  C20_32 
REMARK    8  A    between atoms: C20_32  and  C21_33 
REMARK    9  A    between atoms: C21_33  and  C22_34 
REMARK   10  A    between atoms: C22_34  and  C23_35 
REMARK   11  A    between atoms: C23_35  and  C24_36 
ROOT
HETATM    1  C1  UNL     1      -2.865  -1.030  -1.825  1.00  0.00     0.010 C 
HETATM    2  C2  UNL     1      -1.852  -0.811  -0.781  1.00  0.00    -0.012 C 
HETATM    3  C3  UNL     1      -1.051   0.439  -1.243  1.00  0.00     0.029 C 
HETATM    4  C4  UNL     1       0.049   0.644  -0.221  1.00  0.00     0.085 C 
HETATM    5  C5  UNL     1       1.158   1.447  -0.919  1.00  0.00     0.040 C 
HETATM    6  C6  UNL     1       2.343   0.931  -0.051  1.00  0.00     0.093 C 
HETATM    7  C14 UNL     1       2.058  -0.556  -0.048  1.00  0.00     0.172 C 
HETATM    8  N2  UNL     1       0.625  -0.619   0.036  1.00  0.00    -0.375 N 
HETATM    9  C16 UNL     1       0.120  -1.429   1.051  1.00  0.00     0.064 C 
HETATM   10  C17 UNL     1      -1.220  -1.192   1.600  1.00  0.00     0.024 C 
HETATM   11  C18 UNL     1      -1.155  -0.325   2.853  1.00  0.00     0.016 C 
HETATM   12  C19 UNL     1      -2.264  -0.657   0.624  1.00  0.00    -0.002 C 
ENDROOT
BRANCH   6  13
HETATM   13  C7  UNL     1       3.566   1.341  -0.708  1.00  0.00     0.166 C 
HETATM   14  O1  UNL     1       3.550   1.900  -1.854  1.00  0.00    -0.292 OA
BRANCH  13  15
HETATM   15  C8  UNL     1       4.865   1.131  -0.096  1.00  0.00     0.014 A 
HETATM   16  C9  UNL     1       5.003   0.596   1.166  1.00  0.00     0.042 A 
HETATM   17  C10 UNL     1       6.273   0.399   1.721  1.00  0.00     0.069 A 
HETATM   18 CL1  UNL     1       6.461  -0.281   3.325  1.00  0.00    -0.081 Cl
HETATM   19  C11 UNL     1       7.386   0.740   1.008  1.00  0.00     0.109 A 
HETATM   20  C12 UNL     1       7.292   1.277  -0.255  1.00  0.00     0.069 A 
HETATM   21 CL2  UNL     1       8.695   1.724  -1.194  1.00  0.00    -0.081 Cl
HETATM   22  C13 UNL     1       6.039   1.457  -0.771  1.00  0.00     0.042 A 
BRANCH  19  23
HETATM   23  O2  UNL     1       8.688   0.568   1.506  1.00  0.00    -0.357 OA
ATOM     24  H2  UNL     1       9.463   0.805   1.010  1.00  0.00     0.217 HD
ENDBRANCH  19  23
ENDBRANCH  13  15
ENDBRANCH   6  13
BRANCH   7  25
HETATM   25  C15 UNL     1       2.530  -1.253  -1.267  1.00  0.00     0.159 C 
HETATM   26  N1  UNL     1       1.666  -1.866  -2.023  1.00  0.00    -0.249 N 
ATOM     27  H1  UNL     1       0.681  -1.853  -1.759  1.00  0.00     0.196 HD
BRANCH  25  28
HETATM   28  O3  UNL     1       3.845  -1.310  -1.683  1.00  0.00    -0.347 OA
ATOM     29  H3  UNL     1       4.148  -1.757  -2.465  1.00  0.00     0.219 HD
ENDBRANCH  25  28
BRANCH  26  30
HETATM   30  O4  UNL     1       2.040  -2.528  -3.162  1.00  0.00    -0.288 OA
ATOM     31  H4  UNL     1       1.409  -2.975  -3.714  1.00  0.00     0.244 HD
ENDBRANCH  26  30
ENDBRANCH   7  25
BRANCH  12  32
HETATM   32  C20 UNL     1      -3.588  -1.119   1.018  1.00  0.00     0.005 C 
BRANCH  32  33
HETATM   33  C21 UNL     1      -4.828  -0.551   0.452  1.00  0.00     0.001 C 
BRANCH  33  34
HETATM   34  C22 UNL     1      -5.013   0.906   0.647  1.00  0.00     0.009 C 
BRANCH  34  35
HETATM   35  C23 UNL     1      -6.302   1.398   0.088  1.00  0.00     0.117 C 
BRANCH  35  36
HETATM   36  C24 UNL     1      -6.516   1.241  -1.379  1.00  0.00     0.387 C 
HETATM   37  F1  UNL     1      -5.549   1.880  -2.147  1.00  0.00    -0.171 F 
HETATM   38  F2  UNL     1      -7.690   2.010  -1.697  1.00  0.00    -0.171 F 
HETATM   39  F3  UNL     1      -6.843  -0.005  -1.829  1.00  0.00    -0.171 F 
ENDBRANCH  35  36
ENDBRANCH  34  35
ENDBRANCH  33  34
ENDBRANCH  32  33
ENDBRANCH  12  32
TORSDOF 11
