REMARK  2 active torsions:
REMARK  status: ('A' for Active; 'I' for Inactive)
REMARK    1  A    between atoms: C3_4  and  O1_5 
REMARK    2  A    between atoms: C6_9  and  C7_10 
ROOT
HETATM    1  N1  UNL     1       1.511  -2.098  -2.425  1.00  0.00    -0.197 NA
HETATM    2  C1  UNL     1       1.747  -1.518  -1.444  1.00  0.00     0.067 C 
HETATM    3  C2  UNL     1       2.063  -0.811  -0.232  1.00  0.00     0.126 C 
HETATM    4  C3  UNL     1       2.660   0.555  -0.533  1.00  0.00     0.136 C 
HETATM    5  C4  UNL     1       2.130   1.484   0.521  1.00  0.00     0.033 C 
HETATM    6  C5  UNL     1       0.962   0.797   1.192  1.00  0.00     0.009 C 
HETATM    7  C6  UNL     1       0.876  -0.599   0.613  1.00  0.00     0.010 C 
ENDROOT
BRANCH   4   8
HETATM    8  O1  UNL     1       4.055   0.541  -0.465  1.00  0.00    -0.394 OA
ATOM      9  H1  UNL     1       4.428   1.394  -0.653  1.00  0.00     0.210 HD
ENDBRANCH   4   8
BRANCH   7  10
HETATM   10  C7  UNL     1      -0.469  -0.861   0.003  1.00  0.00    -0.009 C 
HETATM   11  C8  UNL     1      -0.848  -0.041  -1.156  1.00  0.00     0.005 C 
HETATM   12  C9  UNL     1      -1.957   0.936  -0.956  1.00  0.00     0.000 C 
HETATM   13  C10 UNL     1      -3.066   0.483  -0.085  1.00  0.00     0.000 C 
HETATM   14  C11 UNL     1      -2.854  -0.888   0.513  1.00  0.00     0.000 C 
HETATM   15  C12 UNL     1      -1.474  -0.858   1.135  1.00  0.00     0.005 C 
ENDBRANCH   7  10
TORSDOF 2
