REMARK  12 active torsions:
REMARK  status: ('A' for Active; 'I' for Inactive)
REMARK    1  A    between atoms: C3_3  and  N1_4 
REMARK    2  A    between atoms: C8_13  and  N4_14 
REMARK    3  A    between atoms: N4_14  and  N5_16 
REMARK    4  A    between atoms: N5_16  and  O1_20 
REMARK    5  A    between atoms: C9_22  and  C10_23 
REMARK    6  A    between atoms: C10_23  and  C11_24 
REMARK    7  A    between atoms: C10_23  and  O3_27 
REMARK    8  A    between atoms: C11_24  and  O2_25 
REMARK    9  A    between atoms: O3_27  and  C12_28 
REMARK   10  A    between atoms: C13_29  and  O4_30 
REMARK   11  A    between atoms: C13_29  and  C14_32 
REMARK   12  A    between atoms: C14_32  and  N7_33 
ROOT
HETATM    1  N7  UNL     1       4.595   0.681   0.593  1.00  0.00    -0.268 N 
HETATM    2  N8  UNL     1       5.371   1.570   1.196  1.00  0.00    -0.282 N 
ATOM      3  H8  UNL     1       5.036   2.379   1.720  1.00  0.00     0.188 HD
HETATM    4  C15 UNL     1       6.677   1.247   1.015  1.00  0.00     0.155 A 
HETATM    5  N9  UNL     1       7.828   1.908   1.478  1.00  0.00    -0.080 NA
HETATM    6  C16 UNL     1       6.691   0.109   0.269  1.00  0.00     0.132 A 
HETATM    7  C17 UNL     1       7.857  -0.620  -0.189  1.00  0.00     0.107 C 
HETATM    8  N10 UNL     1       8.795  -1.223  -0.546  1.00  0.00    -0.191 NA
HETATM    9  C18 UNL     1       5.360  -0.241   0.007  1.00  0.00     0.140 A 
HETATM   10  N11 UNL     1       5.060  -1.271  -0.691  1.00  0.00    -0.383 N 
ATOM     11 1H11 UNL     1       5.645  -1.976  -1.139  1.00  0.00     0.157 HD
ATOM     12 2H11 UNL     1       4.091  -1.526  -0.882  1.00  0.00     0.157 HD
ENDROOT
BRANCH   1  13
HETATM   13  C14 UNL     1       3.118   0.626   0.502  1.00  0.00     0.217 C 
BRANCH  13  14
HETATM   14  C13 UNL     1       2.626   1.340  -0.644  1.00  0.00     0.085 C 
HETATM   15  C12 UNL     1       1.398   1.381  -1.351  1.00  0.00     0.176 C 
BRANCH  15  16
HETATM   16  O3  UNL     1       0.266   0.683  -1.265  1.00  0.00    -0.320 OA
BRANCH  16  17
HETATM   17  C10 UNL     1       0.216  -0.640  -1.190  1.00  0.00     0.106 C 
BRANCH  17  18
HETATM   18  C9  UNL     1      -0.548  -1.338  -0.191  1.00  0.00     0.111 A 
HETATM   19  C3  UNL     1      -1.735  -0.870   0.382  1.00  0.00     0.128 A 
HETATM   20  C2  UNL     1      -2.072  -1.710   1.410  1.00  0.00     0.056 A 
HETATM   21  C1  UNL     1      -3.259  -1.650   2.299  1.00  0.00     0.072 C 
HETATM   22  N13 UNL     1      -1.132  -2.669   1.473  1.00  0.00    -0.298 N 
HETATM   23  N12 UNL     1      -0.252  -2.447   0.538  1.00  0.00    -0.294 N 
HETATM   24  C19 UNL     1      -1.063  -3.794   2.401  1.00  0.00     0.177 C 
ATOM     25  H12 UNL     1       0.564  -3.036   0.372  1.00  0.00     0.187 HD
BRANCH  19  26
HETATM   26  N1  UNL     1      -2.566   0.132  -0.179  1.00  0.00    -0.085 N 
HETATM   27  N2  UNL     1      -3.142  -0.292  -1.402  1.00  0.00    -0.308 N 
HETATM   28  C4  UNL     1      -4.242   0.397  -1.878  1.00  0.00     0.123 C 
ATOM     29  H2  UNL     1      -2.756  -1.083  -1.917  1.00  0.00     0.181 HD
HETATM   30  C5  UNL     1      -5.559  -0.032  -1.295  1.00  0.00     0.031 C 
HETATM   31  C7  UNL     1      -4.445   1.790  -1.371  1.00  0.00     0.123 C 
HETATM   32  C6  UNL     1      -5.889   1.424  -1.115  1.00  0.00     0.030 C 
HETATM   33  N3  UNL     1      -3.744   2.163  -0.211  1.00  0.00    -0.216 N 
HETATM   34  C8  UNL     1      -2.846   1.370   0.356  1.00  0.00     0.717 C 
ATOM     35  H3  UNL     1      -3.933   3.074   0.208  1.00  0.00     0.178 HD
BRANCH  34  36
HETATM   36  N4  UNL     1      -2.253   1.936   1.499  1.00  0.00    -0.089 N 
ATOM     37  H4  UNL     1      -1.271   2.211   1.481  1.00  0.00     0.210 HD
BRANCH  36  38
HETATM   38  N5  UNL     1      -3.008   2.122   2.658  1.00  0.00    -0.087 N 
HETATM   39  N6  UNL     1      -4.140   2.653   2.720  1.00  0.00    -0.303 N 
ATOM     40  H62 UNL     1      -4.568   2.988   1.857  1.00  0.00     0.181 HD
ATOM     41  H61 UNL     1      -4.692   2.789   3.567  1.00  0.00     0.181 HD
BRANCH  38  42
HETATM   42  O1  UNL     1      -2.426   1.667   3.832  1.00  0.00    -0.253 OA
ATOM     43  H1  UNL     1      -2.940   1.794   4.621  1.00  0.00     0.248 HD
ENDBRANCH  38  42
ENDBRANCH  36  38
ENDBRANCH  34  36
ENDBRANCH  19  26
ENDBRANCH  17  18
BRANCH  17  44
HETATM   44  C11 UNL     1       0.551  -1.471  -2.445  1.00  0.00     0.231 C 
BRANCH  44  45
HETATM   45  O2  UNL     1       0.439  -2.794  -2.076  1.00  0.00    -0.394 OA
ATOM     46  H2  UNL     1       0.645  -3.306  -2.849  1.00  0.00     0.209 HD
ENDBRANCH  44  45
ENDBRANCH  17  44
ENDBRANCH  16  17
ENDBRANCH  15  16
BRANCH  14  47
HETATM   47  O4  UNL     1       3.519   2.143  -1.174  1.00  0.00    -0.361 OA
ATOM     48  H4  UNL     1       4.342   2.116  -0.700  1.00  0.00     0.217 HD
ENDBRANCH  14  47
ENDBRANCH  13  14
ENDBRANCH   1  13
TORSDOF 12
