REMARK  12 active torsions:
REMARK  status: ('A' for Active; 'I' for Inactive)
REMARK    1  A    between atoms: C6_6  and  C7_7 
REMARK    2  A    between atoms: C8_10  and  N2_11 
REMARK    3  A    between atoms: C9_17  and  C10_18 
REMARK    4  A    between atoms: C12_24  and  N8_25 
REMARK    5  A    between atoms: N8_25  and  C13_27 
REMARK    6  A    between atoms: C13_27  and  O1_28 
REMARK    7  A    between atoms: C13_27  and  C14_30 
REMARK    8  A    between atoms: C14_30  and  O2_31 
REMARK    9  A    between atoms: C14_30  and  C15_33 
REMARK   10  A    between atoms: C15_33  and  O3_34 
REMARK   11  A    between atoms: C17_39  and  N10_40 
REMARK   12  A    between atoms: C20_43  and  N11_44 
ROOT
HETATM    1  C10 UNL     1      -4.016  -2.312  -2.932  1.00  0.00     0.156 C 
HETATM    2  N5  UNL     1      -5.369  -2.045  -2.600  1.00  0.00    -0.079 NA
HETATM    3  N6  UNL     1      -3.782  -3.106  -3.902  1.00  0.00    -0.280 N 
ATOM      4  H6  UNL     1      -4.608  -3.500  -4.352  1.00  0.00     0.179 HD
HETATM    5  C11 UNL     1      -2.584  -3.506  -4.427  1.00  0.00     0.183 C 
HETATM    6  N7  UNL     1      -1.586  -3.855  -4.887  1.00  0.00    -0.172 NA
ENDROOT
BRANCH   1   7
HETATM    7  C9  UNL     1      -2.910  -1.694  -2.222  1.00  0.00     0.121 A 
HETATM    8  N4  UNL     1      -1.580  -1.870  -2.495  1.00  0.00    -0.272 N 
HETATM    9  N3  UNL     1      -0.837  -1.146  -1.669  1.00  0.00    -0.067 N 
ATOM     10  H4  UNL     1      -1.212  -2.473  -3.231  1.00  0.00     0.188 HD
HETATM   11  C8  UNL     1       0.487  -0.984  -1.541  1.00  0.00     0.700 A 
HETATM   12  C16 UNL     1      -1.617  -0.474  -0.832  1.00  0.00     0.176 A 
HETATM   13  N1  UNL     1       0.971  -0.175  -0.604  1.00  0.00    -0.174 N 
HETATM   14  C7  UNL     1       0.225   0.522   0.261  1.00  0.00     0.135 A 
ATOM     15  H1  UNL     1       1.984  -0.078  -0.540  1.00  0.00     0.186 HD
HETATM   16  N9  UNL     1      -1.100   0.355   0.128  1.00  0.00    -0.324 N 
ATOM     17  H9  UNL     1      -1.733   0.854   0.753  1.00  0.00     0.169 HD
HETATM   18  C12 UNL     1      -2.929  -0.808  -1.165  1.00  0.00     0.109 A 
BRANCH  11  19
HETATM   19  N2  UNL     1       1.276  -1.609  -2.321  1.00  0.00    -0.233 N 
ATOM     20  H22 UNL     1       2.284  -1.486  -2.224  1.00  0.00     0.174 HD
ATOM     21  H21 UNL     1       0.905  -2.230  -3.040  1.00  0.00     0.174 HD
ENDBRANCH  11  19
BRANCH  14  22
HETATM   22  C6  UNL     1       0.792   1.377   1.293  1.00  0.00     0.037 A 
HETATM   23  C5  UNL     1      -0.054   1.971   2.236  1.00  0.00     0.017 A 
HETATM   24  C4  UNL     1       0.453   2.767   3.220  1.00  0.00     0.002 A 
HETATM   25  C3  UNL     1       1.795   2.998   3.301  1.00  0.00     0.009 A 
HETATM   26  C2  UNL     1       2.633   2.431   2.394  1.00  0.00    -0.033 A 
HETATM   27  C1  UNL     1       4.113   2.658   2.446  1.00  0.00     0.050 C 
HETATM   28  C17 UNL     1       2.148   1.602   1.361  1.00  0.00     0.070 A 
BRANCH  28  29
HETATM   29  N10 UNL     1       3.111   1.059   0.455  1.00  0.00    -0.289 N 
HETATM   30  C18 UNL     1       3.549   1.760  -0.736  1.00  0.00     0.157 C 
HETATM   31  C19 UNL     1       4.720   0.972  -1.240  1.00  0.00     0.099 C 
HETATM   32  C20 UNL     1       4.713  -0.242  -0.392  1.00  0.00     0.095 C 
HETATM   33  N12 UNL     1       3.822  -0.132   0.503  1.00  0.00    -0.286 N 
ATOM     34  H12 UNL     1       3.643  -0.856   1.198  1.00  0.00     0.188 HD
BRANCH  32  35
HETATM   35  N11 UNL     1       5.595  -1.372  -0.573  1.00  0.00    -0.378 N 
HETATM   36  C21 UNL     1       5.704  -2.369   0.468  1.00  0.00     0.150 C 
HETATM   37  C22 UNL     1       6.362  -1.499  -1.790  1.00  0.00     0.150 C 
ENDBRANCH  32  35
ENDBRANCH  28  29
ENDBRANCH  14  22
BRANCH  18  38
HETATM   38  N8  UNL     1      -4.073  -0.322  -0.464  1.00  0.00    -0.357 N 
ATOM     39  H8  UNL     1      -4.607   0.438  -0.886  1.00  0.00     0.162 HD
BRANCH  38  40
HETATM   40  C13 UNL     1      -4.518  -0.837   0.799  1.00  0.00     0.249 C 
BRANCH  40  41
HETATM   41  O1  UNL     1      -4.779  -2.177   0.791  1.00  0.00    -0.374 OA
ATOM     42  H1  UNL     1      -5.074  -2.518   1.627  1.00  0.00     0.212 HD
ENDBRANCH  40  41
BRANCH  40  43
HETATM   43  C14 UNL     1      -5.732  -0.067   1.264  1.00  0.00     0.190 C 
BRANCH  43  44
HETATM   44  O2  UNL     1      -6.157  -0.589   2.493  1.00  0.00    -0.389 OA
ATOM     45  H2  UNL     1      -6.920  -0.105   2.785  1.00  0.00     0.210 HD
ENDBRANCH  43  44
BRANCH  43  46
HETATM   46  C15 UNL     1      -5.443   1.416   1.385  1.00  0.00     0.200 C 
BRANCH  46  47
HETATM   47  O3  UNL     1      -6.587   2.101   1.782  1.00  0.00    -0.398 OA
ATOM     48  H3  UNL     1      -6.406   3.030   1.858  1.00  0.00     0.209 HD
ENDBRANCH  46  47
ENDBRANCH  43  46
ENDBRANCH  40  43
ENDBRANCH  38  40
ENDBRANCH  18  38
ENDBRANCH   1   7
TORSDOF 12
