REMARK  2 active torsions:
REMARK  status: ('A' for Active; 'I' for Inactive)
REMARK    1  A    between atoms: N1_1  and  N2_4 
REMARK       I    between atoms: N2_4  and  C1_6 
REMARK    2  A    between atoms: C1_6  and  C2_8 
ROOT
HETATM    1  C2  UNL     1      -0.132  -0.042   0.342  1.00  0.00     0.117 A 
HETATM    2  C3  UNL     1      -0.867   1.137   0.459  1.00  0.00     0.115 A 
HETATM    3  N3  UNL     1      -2.160   1.139   0.059  1.00  0.00    -0.318 N 
ATOM      4  H3  UNL     1      -2.699   2.001   0.146  1.00  0.00     0.170 HD
HETATM    5  C4  UNL     1      -2.768   0.037  -0.454  1.00  0.00     0.327 A 
HETATM    6  O2  UNL     1      -3.988   0.083  -0.811  1.00  0.00    -0.247 OA
HETATM    7  N4  UNL     1      -2.050  -1.082  -0.556  1.00  0.00    -0.275 N 
ATOM      8  H4  UNL     1      -2.489  -1.922  -0.934  1.00  0.00     0.173 HD
HETATM    9  C5  UNL     1      -0.749  -1.132  -0.169  1.00  0.00     0.266 A 
HETATM   10  O3  UNL     1      -0.071  -2.200  -0.271  1.00  0.00    -0.267 OA
ENDROOT
BRANCH   1  11
HETATM   11  C1  UNL     1       1.287   0.070   0.704  1.00  0.00     0.276 C 
HETATM   12  N2  UNL     1       2.232  -0.270  -0.315  1.00  0.00    -0.272 N 
ATOM     13  H2  UNL     1       1.897  -0.570  -1.230  1.00  0.00     0.189 HD
HETATM   14  O1  UNL     1       1.608   0.462   1.850  1.00  0.00    -0.266 OA
BRANCH  12  15
HETATM   15  N1  UNL     1       3.606  -0.197  -0.076  1.00  0.00    -0.342 N 
ATOM     16  H12 UNL     1       3.924   0.105   0.845  1.00  0.00     0.176 HD
ATOM     17  H11 UNL     1       4.280  -0.439  -0.802  1.00  0.00     0.176 HD
ENDBRANCH  12  15
ENDBRANCH   1  11
TORSDOF 2
