REMARK  9 active torsions:
REMARK  status: ('A' for Active; 'I' for Inactive)
REMARK    1  A    between atoms: C2_2  and  C4_4 
REMARK    2  A    between atoms: C8_10  and  C9_11 
REMARK    3  A    between atoms: C9_11  and  N2_12 
REMARK    4  A    between atoms: N2_12  and  C10_13 
REMARK    5  A    between atoms: N2_12  and  C17_22 
REMARK    6  A    between atoms: C10_13  and  C11_14 
REMARK    7  A    between atoms: C20_27  and  N4_28 
REMARK       I    between atoms: N4_28  and  C21_30 
REMARK    8  A    between atoms: C21_30  and  C22_32 
REMARK    9  A    between atoms: C22_32  and  C23_33 
ROOT
HETATM    1  N2  UNL     1       0.101   1.676  -0.247  1.00  0.00    -0.358 N 
ENDROOT
BRANCH   1   2
HETATM    2  C9  UNL     1       1.183   1.587   0.679  1.00  0.00     0.163 C 
BRANCH   2   3
HETATM    3  C8  UNL     1       2.252   0.633   0.278  1.00  0.00    -0.039 A 
HETATM    4  C7  UNL     1       2.096  -0.379  -0.618  1.00  0.00     0.011 A 
HETATM    5  C6  UNL     1       3.103  -1.219  -0.959  1.00  0.00     0.031 A 
HETATM    6  C5  UNL     1       4.388  -1.103  -0.405  1.00  0.00     0.050 A 
HETATM    7  N1  UNL     1       5.417  -1.854  -0.666  1.00  0.00    -0.352 N 
HETATM    8  C30 UNL     1       4.558  -0.089   0.499  1.00  0.00     0.034 A 
HETATM    9  C4  UNL     1       6.572  -1.628  -0.067  1.00  0.00     0.055 A 
ATOM     10  H1  UNL     1       5.332  -2.619  -1.335  1.00  0.00     0.166 HD
HETATM   11  S1  UNL     1       6.203  -0.281   0.923  1.00  0.00    -0.074 SA
HETATM   12  C29 UNL     1       3.505   0.775   0.843  1.00  0.00     0.030 A 
BRANCH   9  13
HETATM   13  C2  UNL     1       7.875  -2.370  -0.224  1.00  0.00     0.035 C 
HETATM   14  C1  UNL     1       8.086  -3.087   1.115  1.00  0.00     0.016 C 
HETATM   15  C3  UNL     1       9.003  -1.448  -0.562  1.00  0.00     0.016 C 
ENDBRANCH   9  13
ENDBRANCH   2   3
ENDBRANCH   1   2
BRANCH   1  16
HETATM   16  C10 UNL     1       0.211   2.149  -1.576  1.00  0.00     0.166 C 
BRANCH  16  17
HETATM   17  C11 UNL     1       0.410   3.579  -1.796  1.00  0.00    -0.002 A 
HETATM   18  C12 UNL     1       0.446   4.556  -0.836  1.00  0.00     0.015 A 
HETATM   19  C13 UNL     1       0.624   5.871  -1.208  1.00  0.00     0.043 A 
HETATM   20  C14 UNL     1       0.768   6.250  -2.523  1.00  0.00     0.119 A 
HETATM   21  F1  UNL     1       0.944   7.538  -2.902  1.00  0.00    -0.206 F 
HETATM   22  C15 UNL     1       0.732   5.273  -3.493  1.00  0.00     0.085 A 
HETATM   23  C16 UNL     1       0.556   3.953  -3.152  1.00  0.00     0.127 A 
HETATM   24  F2  UNL     1       0.530   3.046  -4.154  1.00  0.00    -0.205 F 
ENDBRANCH  16  17
ENDBRANCH   1  16
BRANCH   1  25
HETATM   25  C17 UNL     1      -1.186   1.237   0.243  1.00  0.00     0.120 A 
HETATM   26  C18 UNL     1      -2.028   2.160   0.812  1.00  0.00     0.066 A 
HETATM   27  C19 UNL     1      -3.253   1.745   1.280  1.00  0.00     0.110 A 
HETATM   28  N3  UNL     1      -3.603   0.457   1.174  1.00  0.00    -0.201 N 
HETATM   29  C20 UNL     1      -2.798  -0.466   0.623  1.00  0.00     0.686 A 
ATOM     30  H3  UNL     1      -4.515   0.166   1.525  1.00  0.00     0.183 HD
HETATM   31  N5  UNL     1      -1.597  -0.034   0.169  1.00  0.00    -0.176 N 
ATOM     32  H5  UNL     1      -0.969  -0.718  -0.254  1.00  0.00     0.186 HD
BRANCH  29  33
HETATM   33  N4  UNL     1      -3.125  -1.725   0.521  1.00  0.00    -0.159 N 
HETATM   34  C21 UNL     1      -4.383  -2.138   1.014  1.00  0.00     0.240 C 
HETATM   35  O1  UNL     1      -4.596  -2.185   2.248  1.00  0.00    -0.272 OA
ATOM     36  H4  UNL     1      -2.486  -2.396   0.095  1.00  0.00     0.187 HD
BRANCH  34  37
HETATM   37  C22 UNL     1      -5.440  -2.513   0.058  1.00  0.00     0.145 C 
BRANCH  37  38
HETATM   38  C23 UNL     1      -6.697  -2.910   0.739  1.00  0.00    -0.004 A 
HETATM   39  C24 UNL     1      -7.756  -2.024   0.741  1.00  0.00     0.056 A 
HETATM   40  C25 UNL     1      -8.917  -2.412   1.379  1.00  0.00     0.158 A 
HETATM   41  F3  UNL     1      -9.962  -1.558   1.388  1.00  0.00    -0.203 F 
HETATM   42  C26 UNL     1      -9.032  -3.630   1.994  1.00  0.00     0.196 A 
HETATM   43  F4  UNL     1     -10.182  -3.985   2.612  1.00  0.00    -0.199 F 
HETATM   44  C27 UNL     1      -7.983  -4.503   1.991  1.00  0.00     0.197 A 
HETATM   45  F5  UNL     1      -8.052  -5.727   2.592  1.00  0.00    -0.199 F 
HETATM   46  C28 UNL     1      -6.792  -4.138   1.352  1.00  0.00     0.165 A 
HETATM   47  F6  UNL     1      -5.770  -5.000   1.354  1.00  0.00    -0.202 F 
ENDBRANCH  37  38
ENDBRANCH  34  37
ENDBRANCH  29  33
ENDBRANCH   1  25
TORSDOF 9
