REMARK  10 active torsions:
REMARK  status: ('A' for Active; 'I' for Inactive)
REMARK    1  A    between atoms: N1_1  and  C1_5 
REMARK    2  A    between atoms: C1_5  and  C2_6 
REMARK    3  A    between atoms: C2_6  and  C3_7 
REMARK    4  A    between atoms: C3_7  and  C4_8 
REMARK    5  A    between atoms: C4_8  and  N2_9 
REMARK    6  A    between atoms: C4_8  and  C5_13 
REMARK    7  A    between atoms: C5_13  and  N3_14 
REMARK    8  A    between atoms: C5_13  and  N4_18 
REMARK    9  A    between atoms: N4_18  and  C6_20 
REMARK   10  A    between atoms: C6_20  and  C7_21 
ROOT
HETATM    1  C5  UNL     1      -1.974  -1.389   0.636  1.00  0.00     0.312 C 
ENDROOT
BRANCH   1   2
HETATM    2  C4  UNL     1      -3.362  -1.525   0.035  1.00  0.00     0.233 C 
BRANCH   2   3
HETATM    3  C3  UNL     1      -3.674  -0.419  -0.915  1.00  0.00     0.038 C 
BRANCH   3   4
HETATM    4  C2  UNL     1      -3.594   0.990  -0.534  1.00  0.00     0.029 C 
BRANCH   4   5
HETATM    5  C1  UNL     1      -4.609   1.407   0.509  1.00  0.00     0.229 C 
BRANCH   5   6
HETATM    6  N1  UNL     1      -4.442   2.806   0.870  1.00  0.00    -0.079 N 
ATOM      7  H13 UNL     1      -3.488   3.005   1.173  1.00  0.00     0.274 HD
ATOM      8  H12 UNL     1      -4.474   3.412   0.050  1.00  0.00     0.274 HD
ATOM      9  H11 UNL     1      -5.126   3.087   1.573  1.00  0.00     0.274 HD
ENDBRANCH   5   6
ENDBRANCH   4   5
ENDBRANCH   3   4
ENDBRANCH   2   3
BRANCH   2  10
HETATM   10  N2  UNL     1      -3.566  -2.799  -0.595  1.00  0.00    -0.071 N 
ATOM     11  H23 UNL     1      -4.506  -2.885  -0.982  1.00  0.00     0.274 HD
ATOM     12  H22 UNL     1      -3.036  -2.883  -1.463  1.00  0.00     0.274 HD
ATOM     13  H21 UNL     1      -3.353  -3.556   0.055  1.00  0.00     0.274 HD
ENDBRANCH   2  10
ENDBRANCH   1   2
BRANCH   1  14
HETATM   14  N3  UNL     1      -1.964  -0.165   1.476  1.00  0.00    -0.056 N 
ATOM     15  H33 UNL     1      -2.259   0.668   0.966  1.00  0.00     0.276 HD
ATOM     16  H32 UNL     1      -2.703  -0.161   2.179  1.00  0.00     0.276 HD
ATOM     17  H31 UNL     1      -1.032  -0.074   1.880  1.00  0.00     0.276 HD
ENDBRANCH   1  14
BRANCH   1  18
HETATM   18  N4  UNL     1      -0.920  -1.250  -0.270  1.00  0.00    -0.367 N 
ATOM     19  H4  UNL     1      -0.901  -0.400  -0.834  1.00  0.00     0.161 HD
BRANCH  18  20
HETATM   20  C6  UNL     1       0.119  -2.180  -0.474  1.00  0.00     0.143 C 
BRANCH  20  21
HETATM   21  C7  UNL     1       1.356  -1.321  -0.229  1.00  0.00     0.187 A 
HETATM   22  N5  UNL     1       2.552  -1.166  -0.711  1.00  0.00    -0.318 N 
HETATM   23  C8  UNL     1       3.210  -0.167  -0.034  1.00  0.00     0.138 A 
ATOM     24  H5  UNL     1       2.946  -1.707  -1.481  1.00  0.00     0.169 HD
HETATM   25  C9  UNL     1       4.535   0.384  -0.039  1.00  0.00     0.010 A 
HETATM   26  N6  UNL     1       2.313   0.271   0.917  1.00  0.00    -0.242 N 
HETATM   27  C10 UNL     1       5.689  -0.275  -0.311  1.00  0.00     0.015 A 
HETATM   28  C14 UNL     1       4.618   1.768   0.141  1.00  0.00     0.015 A 
HETATM   29  C11 UNL     1       6.893   0.386  -0.411  1.00  0.00     0.001 A 
HETATM   30  C12 UNL     1       6.963   1.698  -0.234  1.00  0.00     0.000 A 
HETATM   31  C13 UNL     1       5.817   2.438   0.060  1.00  0.00     0.001 A 
HETATM   32  O1  UNL     1       1.259  -0.428   0.766  1.00  0.00    -0.217 OA
ATOM     33  H6  UNL     1       2.464   1.009   1.605  1.00  0.00     0.196 HD
ENDBRANCH  20  21
ENDBRANCH  18  20
ENDBRANCH   1  18
TORSDOF 10
