REMARK  2 active torsions:
REMARK  status: ('A' for Active; 'I' for Inactive)
REMARK    1  A    between atoms: N1_1  and  N2_4 
REMARK    2  A    between atoms: N2_4  and  N3_6 
ROOT
HETATM    1  N3  UNL     1       1.604  -0.944  -0.617  1.00  0.00    -0.294 N 
ATOM      2  H3  UNL     1       1.751  -1.933  -0.821  1.00  0.00     0.188 HD
HETATM    3  C1  UNL     1       0.423  -0.557  -0.260  1.00  0.00     0.019 C 
HETATM    4  C2  UNL     1       0.225   0.864   0.029  1.00  0.00     0.055 C 
HETATM    5  C3  UNL     1      -1.200   1.317  -0.014  1.00  0.00     0.006 C 
HETATM    6  C4  UNL     1      -2.187   0.303   0.460  1.00  0.00     0.002 C 
HETATM    7  C5  UNL     1      -2.004  -1.075  -0.033  1.00  0.00     0.022 C 
HETATM    8  C6  UNL     1      -0.630  -1.577  -0.171  1.00  0.00     0.105 C 
HETATM    9 BR1  UNL     1      -0.195  -2.747   1.327  1.00  0.00    -0.085 Br
ENDROOT
BRANCH   1  10
HETATM   10  N2  UNL     1       2.673  -0.082  -0.735  1.00  0.00    -0.249 N 
ATOM     11  H2  UNL     1       3.124   0.032  -1.643  1.00  0.00     0.207 HD
BRANCH  10  12
HETATM   12  N1  UNL     1       3.153   0.641   0.363  1.00  0.00    -0.331 N 
ATOM     13  H12 UNL     1       2.690   0.516   1.263  1.00  0.00     0.178 HD
ATOM     14  H11 UNL     1       3.944   1.279   0.276  1.00  0.00     0.178 HD
ENDBRANCH  10  12
ENDBRANCH   1  10
TORSDOF 2
