REMARK  6 active torsions:
REMARK  status: ('A' for Active; 'I' for Inactive)
REMARK    1  A    between atoms: C2_2  and  C3_3 
REMARK    2  A    between atoms: C3_3  and  C4_4 
REMARK    3  A    between atoms: C4_4  and  C5_5 
REMARK    4  A    between atoms: C6_6  and  C7_7 
REMARK    5  A    between atoms: C7_7  and  O1_8 
REMARK    6  A    between atoms: N1_23  and  O2_25 
ROOT
HETATM    1  C1  UNL     1       2.350  -0.739   0.839  1.00  0.00     0.025 C 
HETATM    2  C2  UNL     1       1.200   0.212   0.585  1.00  0.00     0.004 C 
HETATM    3  C8  UNL     1       0.229  -0.508  -0.297  1.00  0.00     0.024 C 
HETATM    4  C9  UNL     1      -1.122   0.167  -0.398  1.00  0.00     0.007 C 
HETATM    5  C10 UNL     1      -1.893  -0.398  -1.551  1.00  0.00    -0.043 C 
HETATM    6  C11 UNL     1      -2.051   0.704  -2.610  1.00  0.00     0.015 C 
HETATM    7  C12 UNL     1      -1.122  -1.505  -2.246  1.00  0.00     0.015 C 
HETATM    8  C13 UNL     1      -3.261  -0.895  -1.268  1.00  0.00     0.009 C 
HETATM    9  C14 UNL     1      -3.486  -1.511   0.057  1.00  0.00     0.002 C 
HETATM   10  C15 UNL     1      -2.390  -1.339   1.043  1.00  0.00     0.014 C 
HETATM   11  C16 UNL     1      -1.781   0.038   0.920  1.00  0.00    -0.012 C 
HETATM   12  C17 UNL     1      -2.883   1.077   1.117  1.00  0.00     0.021 C 
HETATM   13  C18 UNL     1      -0.819   0.264   2.020  1.00  0.00    -0.040 A 
HETATM   14  C19 UNL     1       0.473   0.344   1.907  1.00  0.00    -0.006 A 
HETATM   15  C20 UNL     1       1.280   0.589   3.096  1.00  0.00     0.112 A 
HETATM   16  N1  UNL     1       2.550   0.710   3.100  1.00  0.00    -0.265 N 
ATOM     17  H1  UNL     1       3.059   0.634   2.219  1.00  0.00     0.194 HD
HETATM   18  C21 UNL     1       0.628   0.739   4.415  1.00  0.00     0.201 A 
HETATM   19  O3  UNL     1       1.308   0.950   5.456  1.00  0.00    -0.286 OA
HETATM   20  C22 UNL     1      -0.809   0.635   4.460  1.00  0.00     0.058 A 
HETATM   21  C23 UNL     1      -1.480   0.415   3.349  1.00  0.00     0.012 A 
ENDROOT
BRANCH   2  22
HETATM   22  C3  UNL     1       1.592   1.519   0.073  1.00  0.00    -0.012 C 
BRANCH  22  23
HETATM   23  C4  UNL     1       2.346   1.759  -1.144  1.00  0.00    -0.003 C 
BRANCH  23  24
HETATM   24  C5  UNL     1       1.871   1.356  -2.451  1.00  0.00    -0.002 C 
HETATM   25  C6  UNL     1       2.518   0.537  -3.263  1.00  0.00    -0.001 C 
BRANCH  25  26
HETATM   26  C7  UNL     1       3.811  -0.131  -3.046  1.00  0.00     0.191 C 
BRANCH  26  27
HETATM   27  O1  UNL     1       3.665  -1.544  -3.099  1.00  0.00    -0.397 OA
ATOM     28  H1  UNL     1       4.500  -1.975  -2.959  1.00  0.00     0.209 HD
ENDBRANCH  26  27
ENDBRANCH  25  26
ENDBRANCH  23  24
ENDBRANCH  22  23
ENDBRANCH   2  22
BRANCH  16  29
HETATM   29  O2  UNL     1       3.241   0.937   4.246  1.00  0.00    -0.289 OA
ATOM     30  H2  UNL     1       4.187   1.027   4.249  1.00  0.00     0.244 HD
ENDBRANCH  16  29
TORSDOF 6
