REMARK  6 active torsions:
REMARK  status: ('A' for Active; 'I' for Inactive)
REMARK    1  A    between atoms: C2_2  and  C4_4 
REMARK    2  A    between atoms: C4_4  and  C5_5 
REMARK    3  A    between atoms: C5_5  and  C6_6 
REMARK    4  A    between atoms: C6_6  and  O2_8 
REMARK    5  A    between atoms: O2_8  and  C7_9 
REMARK    6  A    between atoms: C18_20  and  O3_21 
ROOT
HETATM    1  C7  UNL     1       1.065  -0.257   0.800  1.00  0.00     0.269 C 
HETATM    2  C8  UNL     1       1.182  -1.675   0.289  1.00  0.00     0.061 C 
HETATM    3  C9  UNL     1       0.077  -2.044  -0.635  1.00  0.00     0.006 C 
HETATM    4  C10 UNL     1      -1.060  -1.074  -0.715  1.00  0.00     0.012 C 
HETATM    5  C11 UNL     1      -1.793  -0.828   0.543  1.00  0.00    -0.014 C 
HETATM    6  C12 UNL     1      -1.974  -2.167   1.245  1.00  0.00     0.018 C 
HETATM    7  C13 UNL     1      -1.129   0.089   1.521  1.00  0.00     0.133 C 
HETATM    8  C14 UNL     1      -1.221   1.541   1.198  1.00  0.00     0.033 C 
HETATM    9  C15 UNL     1      -2.478   2.000   0.582  1.00  0.00     0.007 C 
HETATM   10  C16 UNL     1      -3.105   1.026  -0.391  1.00  0.00    -0.007 C 
HETATM   11  C17 UNL     1      -4.422   1.616  -0.786  1.00  0.00     0.036 C 
HETATM   12  C18 UNL     1      -5.487   0.601  -1.084  1.00  0.00     0.118 C 
HETATM   13  C19 UNL     1      -4.952  -0.745  -1.440  1.00  0.00     0.032 C 
HETATM   14  C20 UNL     1      -4.118  -1.282  -0.304  1.00  0.00     0.008 C 
HETATM   15  C21 UNL     1      -3.199  -0.294   0.307  1.00  0.00     0.000 C 
HETATM   16  O4  UNL     1       0.169  -0.230   1.815  1.00  0.00    -0.355 OA
ENDROOT
BRANCH   1  17
HETATM   17  O2  UNL     1       2.293   0.280   1.219  1.00  0.00    -0.290 OA
BRANCH  17  18
HETATM   18  C6  UNL     1       2.997   1.255   0.586  1.00  0.00     0.261 C 
HETATM   19  O1  UNL     1       2.521   1.728  -0.471  1.00  0.00    -0.265 OA
BRANCH  18  20
HETATM   20  C5  UNL     1       4.292   1.724   1.153  1.00  0.00     0.111 C 
BRANCH  20  21
HETATM   21  C4  UNL     1       5.317   0.607   1.151  1.00  0.00     0.013 C 
BRANCH  21  22
HETATM   22  C2  UNL     1       5.508   0.167  -0.293  1.00  0.00    -0.022 C 
HETATM   23  C1  UNL     1       6.525  -0.961  -0.306  1.00  0.00     0.009 C 
HETATM   24  C3  UNL     1       5.966   1.325  -1.140  1.00  0.00     0.009 C 
ENDBRANCH  21  22
ENDBRANCH  20  21
ENDBRANCH  18  20
ENDBRANCH  17  18
ENDBRANCH   1  17
BRANCH  12  25
HETATM   25  O3  UNL     1      -6.410   0.469  -0.037  1.00  0.00    -0.396 OA
ATOM     26  H3  UNL     1      -7.084  -0.173  -0.226  1.00  0.00     0.210 HD
ENDBRANCH  12  25
TORSDOF 6
