REMARK  2 active torsions:
REMARK  status: ('A' for Active; 'I' for Inactive)
REMARK    1  A    between atoms: C8_12  and  N3_13 
REMARK    2  A    between atoms: N3_13  and  C9_15 
ROOT
HETATM    1  N1  UNL     1      -4.826  -1.372   1.053  1.00  0.00    -0.101 NA
HETATM    2  C1  UNL     1      -3.499  -1.500   0.477  1.00  0.00     0.060 A 
HETATM    3  C2  UNL     1      -2.974  -2.750   0.303  1.00  0.00     0.077 A 
HETATM    4  S1  UNL     1      -1.445  -2.427  -0.381  1.00  0.00    -0.096 SA
HETATM    5  C3  UNL     1      -1.519  -0.710  -0.426  1.00  0.00     0.056 A 
HETATM    6  C4  UNL     1      -2.756  -0.450   0.104  1.00  0.00    -0.013 A 
HETATM    7  C5  UNL     1      -3.262   0.977   0.254  1.00  0.00     0.043 C 
HETATM    8  C6  UNL     1      -2.143   1.758   0.884  1.00  0.00     0.024 C 
HETATM    9  C7  UNL     1      -1.269   2.428  -0.171  1.00  0.00     0.121 C 
HETATM   10  N2  UNL     1      -0.378   1.477  -0.814  1.00  0.00    -0.375 N 
ATOM     11  H2  UNL     1       0.449   1.891  -1.245  1.00  0.00     0.161 HD
HETATM   12  C8  UNL     1      -0.462   0.195  -0.929  1.00  0.00     0.115 C 
ENDROOT
BRANCH  12  13
HETATM   13  N3  UNL     1       0.565  -0.518  -1.620  1.00  0.00    -0.371 N 
ATOM     14  H3  UNL     1       0.306  -1.027  -2.465  1.00  0.00     0.161 HD
BRANCH  13  15
HETATM   15  C9  UNL     1       1.925  -0.565  -1.207  1.00  0.00     0.083 C 
HETATM   16  C10 UNL     1       2.075  -1.170   0.198  1.00  0.00     0.025 C 
HETATM   17  C11 UNL     1       3.577  -1.215   0.455  1.00  0.00     0.002 C 
HETATM   18  C12 UNL     1       4.080   0.200   0.695  1.00  0.00     0.000 C 
HETATM   19  C13 UNL     1       3.112   1.218   0.095  1.00  0.00     0.002 C 
HETATM   20  C14 UNL     1       2.648   0.750  -1.282  1.00  0.00     0.025 C 
ENDBRANCH  13  15
ENDBRANCH  12  13
TORSDOF 2
