REMARK  4 active torsions:
REMARK  status: ('A' for Active; 'I' for Inactive)
REMARK    1  A    between atoms: N2_5  and  N3_7 
REMARK    2  A    between atoms: N3_7  and  C4_9 
REMARK    3  A    between atoms: C4_9  and  C5_11 
REMARK    4  A    between atoms: N4_15  and  O1_16 
ROOT
HETATM    1  C1  UNL     1      -3.051  -0.529   0.468  1.00  0.00     0.082 C 
HETATM    2  C2  UNL     1      -2.090   0.578   0.702  1.00  0.00     0.101 C 
HETATM    3  C3  UNL     1      -2.280   1.441   1.813  1.00  0.00     0.114 C 
HETATM    4  N1  UNL     1      -2.452   2.160   2.719  1.00  0.00    -0.190 NA
HETATM    5  N2  UNL     1      -1.084   0.782  -0.075  1.00  0.00    -0.294 N 
ATOM      6  H2  UNL     1      -0.435   1.548   0.104  1.00  0.00     0.187 HD
ENDROOT
BRANCH   5   7
HETATM    7  N3  UNL     1      -0.901  -0.059  -1.157  1.00  0.00    -0.287 N 
ATOM      8  H3  UNL     1      -1.663  -0.214  -1.817  1.00  0.00     0.188 HD
BRANCH   7   9
HETATM    9  C4  UNL     1       0.334  -0.700  -1.348  1.00  0.00     0.151 C 
HETATM   10  S1  UNL     1       0.627  -1.709  -2.604  1.00  0.00    -0.056 SA
BRANCH   9  11
HETATM   11  C5  UNL     1       1.426  -0.460  -0.377  1.00  0.00     0.141 A 
HETATM   12  S2  UNL     1       1.707  -1.236   1.113  1.00  0.00    -0.077 SA
HETATM   13  C6  UNL     1       3.114  -0.393   1.572  1.00  0.00     0.071 A 
HETATM   14  C7  UNL     1       3.295   0.467   0.516  1.00  0.00     0.131 A 
HETATM   15  N4  UNL     1       2.426   0.415  -0.461  1.00  0.00    -0.226 N 
BRANCH  15  16
HETATM   16  O1  UNL     1       2.501   1.248  -1.604  1.00  0.00    -0.282 OA
ATOM     17  H1  UNL     1       3.215   1.872  -1.664  1.00  0.00     0.245 HD
ENDBRANCH  15  16
ENDBRANCH   9  11
ENDBRANCH   7   9
ENDBRANCH   5   7
TORSDOF 4
