REMARK  7 active torsions:
REMARK  status: ('A' for Active; 'I' for Inactive)
REMARK    1  A    between atoms: O1_1  and  C1_3 
REMARK    2  A    between atoms: C1_3  and  C2_4 
REMARK    3  A    between atoms: C2_4  and  C3_5 
REMARK    4  A    between atoms: C3_5  and  N1_6 
REMARK    5  A    between atoms: N2_9  and  C6_10 
REMARK    6  A    between atoms: C13_17  and  C14_18 
REMARK    7  A    between atoms: C14_18  and  O2_19 
ROOT
HETATM    1  N1  UNL     1      -1.604  -0.715   0.175  1.00  0.00    -0.382 N 
HETATM    2  C4  UNL     1      -0.723  -0.958  -0.868  1.00  0.00     0.103 C 
HETATM    3  C5  UNL     1       0.721  -1.142  -0.534  1.00  0.00     0.102 C 
HETATM    4  N2  UNL     1       1.296   0.005   0.041  1.00  0.00    -0.384 N 
HETATM    5  C11 UNL     1       0.563   1.222  -0.138  1.00  0.00     0.125 C 
HETATM    6  C12 UNL     1      -0.397   1.314   1.012  1.00  0.00     0.047 C 
HETATM    7  C13 UNL     1      -1.430   0.286   1.125  1.00  0.00     0.108 C 
ENDROOT
BRANCH   1   8
HETATM    8  C3  UNL     1      -2.990  -1.025  -0.126  1.00  0.00     0.125 C 
BRANCH   8   9
HETATM    9  C2  UNL     1      -3.502  -0.032  -1.161  1.00  0.00     0.046 C 
BRANCH   9  10
HETATM   10  C1  UNL     1      -4.959  -0.341  -1.473  1.00  0.00     0.165 C 
BRANCH  10  11
HETATM   11  O1  UNL     1      -5.449   0.560  -2.421  1.00  0.00    -0.401 OA
ATOM     12  H1  UNL     1      -6.359   0.367  -2.616  1.00  0.00     0.209 HD
ENDBRANCH  10  11
ENDBRANCH   9  10
ENDBRANCH   8   9
ENDBRANCH   1   8
BRANCH   7  13
HETATM   13  C14 UNL     1      -1.387  -0.341   2.531  1.00  0.00     0.189 C 
BRANCH  13  14
HETATM   14  O2  UNL     1      -1.212   0.696   3.474  1.00  0.00    -0.399 OA
ATOM     15  H2  UNL     1      -1.185   0.309   4.341  1.00  0.00     0.209 HD
ENDBRANCH  13  14
ENDBRANCH   7  13
BRANCH   4  16
HETATM   16  C6  UNL     1       2.661   0.214   0.002  1.00  0.00     0.083 C 
HETATM   17  C7  UNL     1       3.577  -0.733   0.685  1.00  0.00     0.025 C 
HETATM   18  C8  UNL     1       4.940  -0.153   0.278  1.00  0.00     0.002 C 
HETATM   19  C9  UNL     1       4.709   0.609  -1.010  1.00  0.00     0.002 C 
HETATM   20  C10 UNL     1       3.271   0.254  -1.401  1.00  0.00     0.025 C 
ENDBRANCH   4  16
TORSDOF 7
