REMARK  2 active torsions:
REMARK  status: ('A' for Active; 'I' for Inactive)
REMARK    1  A    between atoms: C2_7  and  S2_8 
REMARK    2  A    between atoms: S2_8  and  C3_9 
ROOT
HETATM    1  C3  UNL     1      -1.084  -0.248  -0.283  1.00  0.00     0.281 C 
HETATM    2  C4  UNL     1      -1.213   0.594   0.957  1.00  0.00     0.278 C 
HETATM    3  N3  UNL     1      -2.635   0.776   1.134  1.00  0.00    -0.049 N 
ATOM      4  H31 UNL     1      -2.918   1.755   1.097  1.00  0.00     0.279 HD
ATOM      5  H32 UNL     1      -2.945   0.583   2.086  1.00  0.00     0.279 HD
HETATM    6  C5  UNL     1      -3.298  -0.032   0.158  1.00  0.00     0.464 C 
HETATM    7  N4  UNL     1      -2.319  -1.012  -0.244  1.00  0.00    -0.036 N 
ATOM      8  H41 UNL     1      -2.285  -1.845   0.344  1.00  0.00     0.280 HD
ATOM      9  H42 UNL     1      -2.541  -1.505  -1.109  1.00  0.00     0.280 HD
ENDROOT
BRANCH   1  10
HETATM   10  S2  UNL     1       0.239  -1.445  -0.207  1.00  0.00    -0.068 SA
BRANCH  10  11
HETATM   11  C2  UNL     1       1.845  -0.703  -0.169  1.00  0.00     0.131 A 
HETATM   12  N2  UNL     1       2.991  -1.348  -0.107  1.00  0.00    -0.286 N 
HETATM   13  N1  UNL     1       4.086  -0.708  -0.086  1.00  0.00    -0.283 N 
ATOM     14  H2  UNL     1       2.998  -2.367  -0.076  1.00  0.00     0.188 HD
HETATM   15  C1  UNL     1       4.062   0.623  -0.129  1.00  0.00     0.159 A 
ATOM     16  H1  UNL     1       4.974  -1.207  -0.037  1.00  0.00     0.188 HD
HETATM   17  S1  UNL     1       5.351   1.661  -0.116  1.00  0.00    -0.051 SA
HETATM   18  S3  UNL     1       2.378   0.937  -0.201  1.00  0.00    -0.033 SA
ENDBRANCH  10  11
ENDBRANCH   1  10
TORSDOF 2
