REMARK  12 active torsions:
REMARK  status: ('A' for Active; 'I' for Inactive)
REMARK    1  A    between atoms: C1_2  and  C2_4 
REMARK    2  A    between atoms: C4_8  and  N3_9 
REMARK    3  A    between atoms: N3_9  and  C5_11 
REMARK    4  A    between atoms: C5_11  and  C6_12 
REMARK    5  A    between atoms: C6_12  and  C7_13 
REMARK    6  A    between atoms: C7_13  and  C8_14 
REMARK    7  A    between atoms: C15_23  and  N5_24 
REMARK    8  A    between atoms: C18_27  and  C19_28 
REMARK    9  A    between atoms: C19_28  and  N6_29 
REMARK   10  A    between atoms: N6_29  and  C20_32 
REMARK   11  A    between atoms: C20_32  and  C21_33 
REMARK   12  A    between atoms: C21_33  and  N7_34 
ROOT
HETATM    1  C2  UNL     1      -0.821  -3.675  -0.849  1.00  0.00     0.142 A 
HETATM    2  N2  UNL     1      -2.145  -4.012  -0.755  1.00  0.00    -0.355 N 
ATOM      3  H2  UNL     1      -2.453  -4.892  -1.169  1.00  0.00     0.165 HD
HETATM    4  C3  UNL     1      -3.055  -3.241  -0.146  1.00  0.00     0.137 A 
HETATM    5  C4  UNL     1      -2.657  -2.058   0.413  1.00  0.00     0.118 A 
HETATM    6  N4  UNL     1      -1.359  -1.725   0.324  1.00  0.00    -0.326 N 
ATOM      7  H4  UNL     1      -1.060  -0.844   0.741  1.00  0.00     0.169 HD
HETATM    8  C15 UNL     1      -0.418  -2.496  -0.291  1.00  0.00     0.137 A 
ENDROOT
BRANCH   8   9
HETATM    9  N5  UNL     1       0.945  -2.038  -0.316  1.00  0.00    -0.365 N 
HETATM   10  C16 UNL     1       1.439  -1.189  -1.374  1.00  0.00     0.125 C 
HETATM   11  C17 UNL     1       2.937  -1.164  -1.456  1.00  0.00     0.026 C 
HETATM   12  C18 UNL     1       3.578  -0.804  -0.150  1.00  0.00     0.014 C 
HETATM   13  C26 UNL     1       2.653  -1.066   1.017  1.00  0.00     0.026 C 
HETATM   14  C27 UNL     1       1.879  -2.377   0.744  1.00  0.00     0.125 C 
BRANCH  12  15
HETATM   15  C19 UNL     1       4.057   0.634  -0.162  1.00  0.00     0.237 C 
BRANCH  15  16
HETATM   16  N6  UNL     1       4.678   1.011   1.073  1.00  0.00    -0.073 N 
ATOM     17  H62 UNL     1       4.793   2.024   1.116  1.00  0.00     0.277 HD
ATOM     18  H61 UNL     1       4.032   0.874   1.850  1.00  0.00     0.277 HD
BRANCH  16  19
HETATM   19  C20 UNL     1       5.919   0.360   1.341  1.00  0.00     0.262 C 
BRANCH  19  20
HETATM   20  C21 UNL     1       7.051   0.729   0.431  1.00  0.00     0.300 C 
BRANCH  20  21
HETATM   21  N7  UNL     1       7.408   2.117   0.443  1.00  0.00     0.094 N 
HETATM   22  C22 UNL     1       7.999   2.546   1.697  1.00  0.00     0.298 C 
HETATM   23  C23 UNL     1       9.345   1.907   1.906  1.00  0.00     0.198 C 
HETATM   24  O2  UNL     1      10.180   2.270   0.871  1.00  0.00    -0.388 OA
HETATM   25  C24 UNL     1       9.720   1.739  -0.315  1.00  0.00     0.198 C 
HETATM   26  C25 UNL     1       8.368   2.326  -0.649  1.00  0.00     0.298 C 
ENDBRANCH  20  21
ENDBRANCH  19  20
ENDBRANCH  16  19
ENDBRANCH  15  16
ENDBRANCH  12  15
ENDBRANCH   8   9
BRANCH   1  27
HETATM   27  C1  UNL     1       0.091  -4.579  -1.540  1.00  0.00     0.285 C 
HETATM   28  N1  UNL     1      -0.395  -5.826  -2.068  1.00  0.00    -0.056 NA
HETATM   29  O1  UNL     1       1.285  -4.315  -1.696  1.00  0.00    -0.269 OA
ENDBRANCH   1  27
BRANCH   5  30
HETATM   30  N3  UNL     1      -3.518  -1.292   0.992  1.00  0.00    -0.375 N 
ATOM     31  H3  UNL     1      -3.166  -0.422   1.391  1.00  0.00     0.161 HD
BRANCH  30  32
HETATM   32  C5  UNL     1      -4.923  -1.545   1.129  1.00  0.00     0.121 C 
BRANCH  32  33
HETATM   33  C6  UNL     1      -5.731  -1.192  -0.103  1.00  0.00     0.020 C 
BRANCH  33  34
HETATM   34  C7  UNL     1      -5.656   0.243  -0.496  1.00  0.00     0.006 C 
BRANCH  34  35
HETATM   35  C8  UNL     1      -6.152   1.193   0.547  1.00  0.00    -0.014 C 
HETATM   36  C9  UNL     1      -6.043   2.598   0.060  1.00  0.00     0.004 C 
HETATM   37  C10 UNL     1      -7.014   3.012  -0.975  1.00  0.00     0.000 C 
HETATM   38  C11 UNL     1      -8.336   2.332  -0.986  1.00  0.00     0.000 C 
HETATM   39  C12 UNL     1      -9.128   2.462   0.290  1.00  0.00     0.000 C 
HETATM   40  C13 UNL     1      -8.340   2.017   1.503  1.00  0.00     0.000 C 
HETATM   41  C14 UNL     1      -7.492   0.842   1.103  1.00  0.00     0.004 C 
ENDBRANCH  34  35
ENDBRANCH  33  34
ENDBRANCH  32  33
ENDBRANCH  30  32
ENDBRANCH   5  30
TORSDOF 12
