REMARK  12 active torsions:
REMARK  status: ('A' for Active; 'I' for Inactive)
REMARK    1  A    between atoms: C2_2  and  C3_3 
REMARK    2  A    between atoms: C3_3  and  C5_5 
REMARK    3  A    between atoms: C6_8  and  O1_9 
REMARK    4  A    between atoms: C7_11  and  C8_12 
REMARK    5  A    between atoms: C8_12  and  C9_13 
REMARK    6  A    between atoms: C12_18  and  O2_19 
REMARK    7  A    between atoms: C13_21  and  C14_22 
REMARK    8  A    between atoms: C14_22  and  C15_23 
REMARK    9  A    between atoms: C19_30  and  C20_31 
REMARK   10  A    between atoms: C23_36  and  O4_37 
REMARK   11  A    between atoms: C24_39  and  C25_40 
REMARK   12  A    between atoms: C25_40  and  C26_41 
ROOT
HETATM    1  C5  UNL     1       1.462   2.090  -0.720  1.00  0.00     0.087 C 
HETATM    2  N1  UNL     1       0.350   2.716  -0.119  1.00  0.00    -0.325 N 
ATOM      3  H1  UNL     1       0.626   3.144   0.765  1.00  0.00     0.169 HD
HETATM    4  C6  UNL     1      -0.999   2.933  -0.350  1.00  0.00     0.168 C 
HETATM    5  C7  UNL     1      -2.196   2.039  -0.244  1.00  0.00     0.082 C 
HETATM    6  N2  UNL     1      -1.998   0.705  -0.697  1.00  0.00    -0.336 N 
ATOM      7  H2  UNL     1      -1.062   0.614  -1.092  1.00  0.00     0.168 HD
HETATM    8  C12 UNL     1      -2.649  -0.499  -0.778  1.00  0.00     0.139 C 
HETATM    9  C13 UNL     1      -3.325  -1.369   0.188  1.00  0.00     0.159 C 
HETATM   10  N3  UNL     1      -2.403  -2.261   0.894  1.00  0.00    -0.347 N 
ATOM     11  H3  UNL     1      -2.604  -2.419   1.881  1.00  0.00     0.163 HD
HETATM   12  C18 UNL     1      -1.283  -2.923   0.386  1.00  0.00     0.241 C 
HETATM   13  O3  UNL     1      -1.317  -4.212   0.391  1.00  0.00    -0.271 OA
HETATM   14  C19 UNL     1      -0.025  -2.388  -0.172  1.00  0.00     0.179 C 
HETATM   15  N4  UNL     1       0.900  -1.998   0.901  1.00  0.00    -0.356 N 
ATOM     16  H4  UNL     1       1.511  -2.742   1.238  1.00  0.00     0.162 HD
HETATM   17  C23 UNL     1       1.067  -0.783   1.519  1.00  0.00     0.160 C 
HETATM   18  C24 UNL     1       1.572   0.520   1.040  1.00  0.00     0.066 C 
HETATM   19  N5  UNL     1       1.707   0.695  -0.357  1.00  0.00    -0.345 N 
ATOM     20  H5  UNL     1       1.942  -0.046  -1.017  1.00  0.00     0.167 HD
ENDROOT
BRANCH  18  21
HETATM   21  C25 UNL     1       2.711   1.000   1.889  1.00  0.00     0.100 C 
BRANCH  21  22
HETATM   22  C26 UNL     1       3.904   0.185   1.977  1.00  0.00    -0.052 A 
HETATM   23  C27 UNL     1       4.169  -0.812   2.890  1.00  0.00     0.008 A 
HETATM   24  C28 UNL     1       5.344  -1.542   2.900  1.00  0.00     0.007 A 
HETATM   25  C29 UNL     1       6.332  -1.302   1.975  1.00  0.00    -0.062 A 
HETATM   26  C30 UNL     1       7.583  -2.104   2.010  1.00  0.00     0.048 C 
HETATM   27  C31 UNL     1       6.106  -0.316   1.049  1.00  0.00     0.007 A 
HETATM   28  C32 UNL     1       4.926   0.413   1.044  1.00  0.00     0.008 A 
ENDBRANCH  21  22
ENDBRANCH  18  21
BRANCH  17  29
HETATM   29  O4  UNL     1       0.723  -0.742   2.777  1.00  0.00    -0.345 OA
ATOM     30  H4  UNL     1       0.839   0.098   3.205  1.00  0.00     0.219 HD
ENDBRANCH  17  29
BRANCH   1  31
HETATM   31  C3  UNL     1       1.767   2.355  -2.148  1.00  0.00     0.049 C 
HETATM   32  C4  UNL     1       3.089   1.777  -2.599  1.00  0.00     0.018 C 
BRANCH  31  33
HETATM   33  C2  UNL     1       0.710   1.998  -3.146  1.00  0.00     0.007 C 
HETATM   34  C1  UNL     1       1.049   2.554  -4.511  1.00  0.00     0.006 C 
ENDBRANCH  31  33
ENDBRANCH   1  31
BRANCH  14  35
HETATM   35  C20 UNL     1       0.699  -3.460  -1.007  1.00  0.00     0.009 C 
HETATM   36  C21 UNL     1       1.984  -2.900  -1.573  1.00  0.00     0.012 C 
HETATM   37  C22 UNL     1      -0.151  -4.023  -2.094  1.00  0.00     0.012 C 
ENDBRANCH  14  35
BRANCH   4  38
HETATM   38  O1  UNL     1      -1.352   4.133  -0.733  1.00  0.00    -0.344 OA
ATOM     39  H1  UNL     1      -2.277   4.282  -0.891  1.00  0.00     0.219 HD
ENDBRANCH   4  38
BRANCH   5  40
HETATM   40  C8  UNL     1      -3.117   2.332   0.847  1.00  0.00     0.011 C 
BRANCH  40  41
HETATM   41  C9  UNL     1      -2.814   2.374   2.263  1.00  0.00     0.002 C 
HETATM   42  C10 UNL     1      -1.782   3.431   2.690  1.00  0.00     0.013 C 
HETATM   43  C11 UNL     1      -2.429   1.135   3.005  1.00  0.00     0.013 C 
ENDBRANCH  40  41
ENDBRANCH   5  40
BRANCH   9  44
HETATM   44  C14 UNL     1      -4.541  -2.084  -0.277  1.00  0.00     0.037 C 
BRANCH  44  45
HETATM   45  C15 UNL     1      -5.725  -1.318  -0.693  1.00  0.00    -0.020 C 
HETATM   46  C16 UNL     1      -6.267  -0.449   0.432  1.00  0.00     0.009 C 
HETATM   47  C17 UNL     1      -5.685  -0.554  -1.966  1.00  0.00     0.009 C 
ENDBRANCH  44  45
ENDBRANCH   9  44
BRANCH   8  48
HETATM   48  O2  UNL     1      -2.694  -1.034  -1.985  1.00  0.00    -0.348 OA
ATOM     49  H2  UNL     1      -3.145  -1.868  -2.041  1.00  0.00     0.219 HD
ENDBRANCH   8  48
TORSDOF 12
