REMARK  11 active torsions:
REMARK  status: ('A' for Active; 'I' for Inactive)
REMARK    1  A    between atoms: C2_3  and  C4_5 
REMARK    2  A    between atoms: C4_5  and  N2_7 
REMARK    3  A    between atoms: C4_5  and  C22_33 
REMARK       I    between atoms: N2_7  and  C6_9 
REMARK    4  A    between atoms: C6_9  and  C7_11 
REMARK    5  A    between atoms: C7_11  and  N3_13 
REMARK    6  A    between atoms: N3_13  and  C9_15 
REMARK    7  A    between atoms: C9_15  and  O2_16 
REMARK    8  A    between atoms: C9_15  and  C10_18 
REMARK    9  A    between atoms: C14_25  and  C15_26 
REMARK   10  A    between atoms: C15_26  and  C16_27 
REMARK   11  A    between atoms: C16_27  and  C19_30 
ROOT
HETATM    1  C1  UNL     1       5.590  -3.107  -2.560  1.00  0.00     0.221 C 
HETATM    2  N1  UNL     1       4.786  -2.405  -2.113  1.00  0.00    -0.464 NA
HETATM    3  C2  UNL     1       3.805  -1.596  -1.570  1.00  0.00     0.189 C 
HETATM    4  C3  UNL     1       3.416  -0.406  -2.362  1.00  0.00     0.050 C 
ENDROOT
BRANCH   3   5
HETATM    5  C4  UNL     1       4.049  -1.292  -0.059  1.00  0.00     0.088 C 
HETATM    6  C5  UNL     1       4.090  -2.669   0.576  1.00  0.00     0.047 C 
BRANCH   5   7
HETATM    7  N2  UNL     1       2.902  -0.628   0.408  1.00  0.00    -0.340 N 
HETATM    8  C6  UNL     1       2.288  -0.189   1.549  1.00  0.00     0.264 C 
HETATM    9  O1  UNL     1       2.670  -0.353   2.704  1.00  0.00    -0.266 OA
ATOM     10  H2  UNL     1       2.316  -0.386  -0.391  1.00  0.00     0.164 HD
BRANCH   8  11
HETATM   11  C7  UNL     1       0.986   0.592   1.437  1.00  0.00     0.075 C 
HETATM   12  C8  UNL     1       0.410   1.099   2.675  1.00  0.00     0.074 C 
BRANCH  11  13
HETATM   13  N3  UNL     1       0.519   0.759   0.333  1.00  0.00    -0.339 N 
ATOM     14  H3  UNL     1       1.172   0.299  -0.301  1.00  0.00     0.167 HD
BRANCH  13  15
HETATM   15  C9  UNL     1      -0.437   1.254  -0.456  1.00  0.00     0.126 C 
BRANCH  15  16
HETATM   16  O2  UNL     1      -0.009   1.532  -1.683  1.00  0.00    -0.349 OA
ATOM     17  H2  UNL     1      -0.689   1.884  -2.245  1.00  0.00     0.219 HD
ENDBRANCH  15  16
BRANCH  15  18
HETATM   18  C10 UNL     1      -1.864   1.548  -0.238  1.00  0.00     0.134 C 
HETATM   19  C11 UNL     1      -2.476   1.842  -1.643  1.00  0.00     0.147 C 
HETATM   20  N4  UNL     1      -2.495   0.402  -1.766  1.00  0.00    -0.316 N 
HETATM   21  C12 UNL     1      -2.440  -0.960  -2.148  1.00  0.00     0.246 C 
HETATM   22  C14 UNL     1      -2.836   0.359  -0.372  1.00  0.00     0.152 C 
HETATM   23  O3  UNL     1      -2.499  -1.461  -3.307  1.00  0.00    -0.271 OA
HETATM   24  C13 UNL     1      -2.286  -1.736  -0.879  1.00  0.00     0.273 C 
HETATM   25  O4  UNL     1      -2.298  -0.775   0.148  1.00  0.00    -0.351 OA
BRANCH  22  26
HETATM   26  C15 UNL     1      -4.131   0.809   0.150  1.00  0.00     0.071 C 
BRANCH  26  27
HETATM   27  C16 UNL     1      -5.336  -0.039   0.148  1.00  0.00    -0.040 C 
HETATM   28  C17 UNL     1      -5.294  -1.307   0.916  1.00  0.00     0.015 C 
HETATM   29  C18 UNL     1      -5.849  -0.327  -1.261  1.00  0.00     0.015 C 
BRANCH  27  30
HETATM   30  C19 UNL     1      -6.436   0.840   0.791  1.00  0.00    -0.015 C 
HETATM   31  C20 UNL     1      -7.761   0.163   0.848  1.00  0.00     0.010 C 
HETATM   32  C21 UNL     1      -6.557   2.118  -0.001  1.00  0.00     0.010 C 
ENDBRANCH  27  30
ENDBRANCH  26  27
ENDBRANCH  22  26
ENDBRANCH  15  18
ENDBRANCH  13  15
ENDBRANCH  11  13
ENDBRANCH   8  11
ENDBRANCH   5   7
BRANCH   5  33
HETATM   33  C22 UNL     1       5.325  -0.622   0.186  1.00  0.00    -0.025 A 
HETATM   34  C23 UNL     1       6.034  -0.066  -0.830  1.00  0.00     0.027 A 
HETATM   35  C24 UNL     1       7.233   0.616  -0.579  1.00  0.00     0.090 A 
HETATM   36  N5  UNL     1       7.691   0.715   0.705  1.00  0.00    -0.371 N 
HETATM   37  C25 UNL     1       8.909   1.450   0.947  1.00  0.00     0.154 C 
HETATM   38  C26 UNL     1       6.979   0.152   1.701  1.00  0.00     0.090 A 
HETATM   39  C27 UNL     1       5.796  -0.522   1.475  1.00  0.00     0.027 A 
ENDBRANCH   5  33
ENDBRANCH   3   5
TORSDOF 11
