REMARK  14 active torsions:
REMARK  status: ('A' for Active; 'I' for Inactive)
REMARK    1  A    between atoms: N1_2  and  C2_3 
REMARK    2  A    between atoms: N1_2  and  N7_28 
REMARK    3  A    between atoms: C5_6  and  C6_7 
REMARK    4  A    between atoms: C10_15  and  N3_16 
REMARK    5  A    between atoms: C13_29  and  C14_30 
REMARK    6  A    between atoms: C14_30  and  O4_31 
REMARK    7  A    between atoms: C14_30  and  N8_33 
REMARK    8  A    between atoms: N8_33  and  C15_36 
REMARK    9  A    between atoms: C15_36  and  O5_37 
REMARK   10  A    between atoms: C15_36  and  C16_39 
REMARK   11  A    between atoms: C16_39  and  O6_40 
REMARK   12  A    between atoms: C16_39  and  C17_42 
REMARK   13  A    between atoms: C17_42  and  O7_43 
REMARK   14  A    between atoms: C18_47  and  N10_48 
ROOT
HETATM    1  N7  UNL     1      -1.601  -0.029   1.027  1.00  0.00    -0.065 N 
HETATM    2  C13 UNL     1      -2.491   0.580   0.242  1.00  0.00     0.194 A 
HETATM    3  N9  UNL     1      -3.353   1.402   0.867  1.00  0.00    -0.173 N 
ATOM      4  H9  UNL     1      -4.042   1.877   0.284  1.00  0.00     0.185 HD
HETATM    5  C18 UNL     1      -3.392   1.654   2.171  1.00  0.00     0.692 A 
HETATM    6  N11 UNL     1      -2.484   1.027   2.941  1.00  0.00    -0.021 N 
ATOM      7  H11 UNL     1      -2.482   1.195   3.947  1.00  0.00     0.203 HD
HETATM    8  C19 UNL     1      -1.563   0.169   2.405  1.00  0.00     0.713 A 
HETATM    9  N12 UNL     1      -0.717  -0.426   3.025  1.00  0.00    -0.232 N 
ATOM     10 1H12 UNL     1      -0.689  -0.281   4.034  1.00  0.00     0.174 HD
ATOM     11 2H12 UNL     1      -0.030  -1.066   2.625  1.00  0.00     0.174 HD
ENDROOT
BRANCH   1  12
HETATM   12  N1  UNL     1      -0.628  -0.886   0.522  1.00  0.00    -0.257 N 
HETATM   13  C1  UNL     1      -0.952  -2.213   0.039  1.00  0.00     0.181 C 
BRANCH  12  14
HETATM   14  C2  UNL     1       0.744  -0.548   0.490  1.00  0.00     0.137 A 
HETATM   15  C3  UNL     1       1.651  -1.366   1.068  1.00  0.00     0.054 A 
HETATM   16  C4  UNL     1       2.982  -1.036   1.073  1.00  0.00     0.036 A 
HETATM   17  C5  UNL     1       3.385   0.134   0.483  1.00  0.00     0.059 A 
HETATM   18  N5  UNL     1       2.452   0.920  -0.083  1.00  0.00    -0.298 N 
HETATM   19  N6  UNL     1       1.145   0.585  -0.081  1.00  0.00    -0.284 N 
ATOM     20  H5  UNL     1       2.740   1.793  -0.526  1.00  0.00     0.187 HD
ATOM     21  H6  UNL     1       0.462   1.203  -0.519  1.00  0.00     0.188 HD
BRANCH  17  22
HETATM   22  C6  UNL     1       4.759   0.584   0.598  1.00  0.00     0.018 A 
HETATM   23  C7  UNL     1       5.008   1.678   1.445  1.00  0.00     0.097 A 
HETATM   24  C8  UNL     1       6.281   2.136   1.558  1.00  0.00     0.290 A 
HETATM   25  O1  UNL     1       6.589   3.107   2.289  1.00  0.00    -0.260 OA
HETATM   26  O2  UNL     1       7.271   1.572   0.886  1.00  0.00    -0.257 OA
HETATM   27  C9  UNL     1       7.115   0.566   0.090  1.00  0.00     0.183 A 
HETATM   28  N2  UNL     1       8.164   0.053  -0.560  1.00  0.00    -0.169 N 
HETATM   29  C12 UNL     1       5.823   0.031  -0.082  1.00  0.00     0.097 A 
HETATM   30  C10 UNL     1       8.020  -0.998  -1.413  1.00  0.00     0.680 A 
ATOM     31  H2  UNL     1       9.089   0.456  -0.414  1.00  0.00     0.186 HD
HETATM   32  N4  UNL     1       6.764  -1.500  -1.572  1.00  0.00    -0.155 N 
HETATM   33  C11 UNL     1       5.694  -1.011  -0.935  1.00  0.00     0.275 A 
ATOM     34  H4  UNL     1       6.633  -2.287  -2.208  1.00  0.00     0.187 HD
HETATM   35  O3  UNL     1       4.556  -1.536  -1.148  1.00  0.00    -0.267 OA
BRANCH  30  36
HETATM   36  N3  UNL     1       8.976  -1.461  -2.013  1.00  0.00    -0.234 N 
ATOM     37  H32 UNL     1       9.917  -1.085  -1.894  1.00  0.00     0.174 HD
ATOM     38  H31 UNL     1       8.868  -2.249  -2.652  1.00  0.00     0.174 HD
ENDBRANCH  30  36
ENDBRANCH  17  22
ENDBRANCH  12  14
ENDBRANCH   1  12
BRANCH   2  39
HETATM   39  C14 UNL     1      -2.531   0.359  -1.219  1.00  0.00     0.393 C 
BRANCH  39  40
HETATM   40  O4  UNL     1      -1.748   1.211  -1.961  1.00  0.00    -0.364 OA
ATOM     41  H4  UNL     1      -1.774   1.069  -2.900  1.00  0.00     0.212 HD
ENDBRANCH  39  40
BRANCH  39  42
HETATM   42  N8  UNL     1      -3.927   0.630  -1.644  1.00  0.00    -0.013 N 
ATOM     43  H82 UNL     1      -4.225   1.575  -1.404  1.00  0.00     0.283 HD
ATOM     44  H81 UNL     1      -4.013   0.702  -2.658  1.00  0.00     0.283 HD
BRANCH  42  45
HETATM   45  C15 UNL     1      -4.806  -0.373  -1.094  1.00  0.00     0.353 C 
BRANCH  45  46
HETATM   46  O5  UNL     1      -4.531  -1.565  -1.812  1.00  0.00    -0.368 OA
ATOM     47  H5  UNL     1      -5.110  -2.226  -1.450  1.00  0.00     0.212 HD
ENDBRANCH  45  46
BRANCH  45  48
HETATM   48  C16 UNL     1      -6.251  -0.055  -1.410  1.00  0.00     0.198 C 
BRANCH  48  49
HETATM   49  O6  UNL     1      -6.996  -1.099  -0.815  1.00  0.00    -0.389 OA
ATOM     50  H6  UNL     1      -7.903  -0.899  -1.013  1.00  0.00     0.210 HD
ENDBRANCH  48  49
BRANCH  48  51
HETATM   51  C17 UNL     1      -6.743   1.207  -0.729  1.00  0.00     0.200 C 
BRANCH  51  52
HETATM   52  O7  UNL     1      -8.095   1.377  -0.935  1.00  0.00    -0.398 OA
ATOM     53  H7  UNL     1      -8.403   2.168  -0.508  1.00  0.00     0.209 HD
ENDBRANCH  51  52
ENDBRANCH  48  51
ENDBRANCH  45  48
ENDBRANCH  42  45
ENDBRANCH  39  42
ENDBRANCH   2  39
BRANCH   5  54
HETATM   54  N10 UNL     1      -4.219   2.441   2.750  1.00  0.00    -0.234 N 
ATOM     55 2H10 UNL     1      -4.907   2.916   2.166  1.00  0.00     0.174 HD
ATOM     56 1H10 UNL     1      -4.249   2.634   3.751  1.00  0.00     0.174 HD
ENDBRANCH   5  54
TORSDOF 14
