REMARK  8 active torsions:
REMARK  status: ('A' for Active; 'I' for Inactive)
REMARK    1  A    between atoms: C4_6  and  C5_7 
REMARK    2  A    between atoms: C5_7  and  C6_8 
REMARK    3  A    between atoms: C7_9  and  C8_10 
REMARK    4  A    between atoms: C8_10  and  O3_11 
REMARK    5  A    between atoms: C9_13  and  C10_14 
REMARK    6  A    between atoms: C10_14  and  C11_15 
REMARK    7  A    between atoms: C11_15  and  C12_16 
REMARK    8  A    between atoms: C16_20  and  O4_21 
ROOT
HETATM    1  C12 UNL     1      -0.524   0.269   1.172  1.00  0.00    -0.009 C 
HETATM    2  C13 UNL     1      -0.902   1.743   0.966  1.00  0.00     0.010 C 
HETATM    3  C14 UNL     1      -2.350   2.016   1.003  1.00  0.00    -0.003 C 
HETATM    4  C15 UNL     1      -2.589   3.478   0.898  1.00  0.00     0.037 C 
HETATM    5  C16 UNL     1      -2.558   4.031  -0.486  1.00  0.00     0.118 C 
HETATM    6  C17 UNL     1      -3.171   3.165  -1.531  1.00  0.00     0.032 C 
HETATM    7  C18 UNL     1      -2.637   1.731  -1.468  1.00  0.00     0.012 C 
HETATM    8  C19 UNL     1      -2.997   1.209  -0.101  1.00  0.00    -0.036 C 
HETATM    9  C20 UNL     1      -4.507   1.443   0.060  1.00  0.00     0.016 C 
HETATM   10  C21 UNL     1      -2.751  -0.222   0.118  1.00  0.00    -0.001 C 
HETATM   11  C22 UNL     1      -3.292  -1.021  -1.043  1.00  0.00     0.006 C 
HETATM   12  C23 UNL     1      -3.459  -2.446  -0.571  1.00  0.00     0.010 C 
HETATM   13  C24 UNL     1      -2.723  -2.755   0.677  1.00  0.00    -0.036 A 
HETATM   14  C25 UNL     1      -3.522  -3.439   1.796  1.00  0.00     0.016 C 
HETATM   15  C26 UNL     1      -1.328  -3.314   0.405  1.00  0.00    -0.005 A 
HETATM   16  C27 UNL     1      -0.902  -3.565  -0.997  1.00  0.00     0.011 C 
HETATM   17  C28 UNL     1      -1.515  -2.024   1.026  1.00  0.00     0.003 A 
HETATM   18  C29 UNL     1      -1.331  -0.669   0.344  1.00  0.00    -0.001 C 
ENDROOT
BRANCH   1  19
HETATM   19  C11 UNL     1       0.961   0.262   0.921  1.00  0.00     0.006 C 
BRANCH  19  20
HETATM   20  C10 UNL     1       1.669  -1.013   1.035  1.00  0.00     0.012 C 
BRANCH  20  21
HETATM   21  C9  UNL     1       3.148  -0.970   0.806  1.00  0.00     0.054 C 
HETATM   22  C2  UNL     1       3.762  -2.314   0.944  1.00  0.00     0.014 C 
HETATM   23  C1  UNL     1       3.408  -3.330   1.691  1.00  0.00     0.025 C 
HETATM   24  C3  UNL     1       4.914  -2.310   0.044  1.00  0.00     0.289 C 
HETATM   25  O1  UNL     1       5.935  -3.042   0.069  1.00  0.00    -0.260 OA
HETATM   26  O2  UNL     1       4.693  -1.331  -0.882  1.00  0.00    -0.311 OA
HETATM   27  C4  UNL     1       3.586  -0.519  -0.526  1.00  0.00     0.144 C 
BRANCH  27  28
HETATM   28  C5  UNL     1       4.120   0.898  -0.452  1.00  0.00     0.060 C 
BRANCH  28  29
HETATM   29  C6  UNL     1       4.676   1.317  -1.749  1.00  0.00    -0.026 C 
HETATM   30  C7  UNL     1       5.927   1.679  -1.912  1.00  0.00    -0.005 C 
BRANCH  30  31
HETATM   31  C8  UNL     1       6.996   1.748  -0.909  1.00  0.00     0.191 C 
BRANCH  31  32
HETATM   32  O3  UNL     1       8.034   0.880  -1.307  1.00  0.00    -0.397 OA
ATOM     33  H3  UNL     1       8.726   0.925  -0.658  1.00  0.00     0.209 HD
ENDBRANCH  31  32
ENDBRANCH  30  31
ENDBRANCH  28  29
ENDBRANCH  27  28
ENDBRANCH  20  21
ENDBRANCH  19  20
ENDBRANCH   1  19
BRANCH   5  34
HETATM   34  O4  UNL     1      -3.278   5.239  -0.471  1.00  0.00    -0.396 OA
ATOM     35  H4  UNL     1      -3.258   5.591  -1.353  1.00  0.00     0.210 HD
ENDBRANCH   5  34
TORSDOF 8
