REMARK  9 active torsions:
REMARK  status: ('A' for Active; 'I' for Inactive)
REMARK    1  A    between atoms: C4_4  and  O1_5 
REMARK    2  A    between atoms: C8_10  and  C9_11 
REMARK    3  A    between atoms: C9_11  and  O2_13 
REMARK    4  A    between atoms: O2_13  and  N1_14 
REMARK    5  A    between atoms: C18_24  and  C19_25 
REMARK    6  A    between atoms: C19_25  and  C20_26 
REMARK    7  A    between atoms: C19_25  and  C25_31 
REMARK    8  A    between atoms: C20_26  and  C21_27 
REMARK    9  A    between atoms: C21_27  and  C22_28 
ROOT
HETATM    1  C1  UNL     1       2.166   3.233  -2.310  1.00  0.00     0.013 C 
HETATM    2  C2  UNL     1       1.711   2.357  -1.612  1.00  0.00    -0.103 C 
HETATM    3  C3  UNL     1       1.161   1.258  -0.765  1.00  0.00     0.064 C 
HETATM    4  C4  UNL     1       1.857   1.420   0.562  1.00  0.00     0.141 C 
HETATM    5  C5  UNL     1       3.328   1.092   0.474  1.00  0.00     0.043 C 
HETATM    6  C6  UNL     1       3.478  -0.364   0.157  1.00  0.00    -0.032 C 
HETATM    7  C7  UNL     1       3.712  -1.194   1.417  1.00  0.00     0.016 C 
HETATM    8  C8  UNL     1       4.584  -0.511  -0.828  1.00  0.00     0.025 C 
HETATM    9  C11 UNL     1       4.165  -1.539  -1.817  1.00  0.00     0.008 C 
HETATM   10  C12 UNL     1       2.916  -2.128  -1.208  1.00  0.00     0.006 C 
HETATM   11  C13 UNL     1       2.249  -0.988  -0.485  1.00  0.00     0.000 C 
HETATM   12  C14 UNL     1       1.557  -0.034  -1.426  1.00  0.00     0.018 C 
HETATM   13  C15 UNL     1       0.371  -0.689  -2.101  1.00  0.00     0.034 C 
HETATM   14  C16 UNL     1      -0.781  -0.800  -1.167  1.00  0.00    -0.022 C 
HETATM   15  C17 UNL     1      -1.117   0.230  -0.399  1.00  0.00    -0.069 C 
HETATM   16  C18 UNL     1      -2.137   0.534   0.620  1.00  0.00     0.026 C 
HETATM   17  C27 UNL     1      -2.234   2.038   0.556  1.00  0.00     0.011 C 
HETATM   18  C28 UNL     1      -0.704   2.320   0.543  1.00  0.00     0.016 C 
HETATM   19  C29 UNL     1      -0.293   1.473  -0.638  1.00  0.00     0.001 C 
HETATM   20  C30 UNL     1      -0.933   2.141  -1.836  1.00  0.00     0.022 C 
ENDROOT
BRANCH   4  21
HETATM   21  O1  UNL     1       1.823   2.797   0.913  1.00  0.00    -0.394 OA
ATOM     22  H1  UNL     1       2.262   2.899   1.749  1.00  0.00     0.210 HD
ENDBRANCH   4  21
BRANCH  16  23
HETATM   23  C19 UNL     1      -3.462  -0.188   0.445  1.00  0.00     0.063 C 
BRANCH  23  24
HETATM   24  C20 UNL     1      -4.416   0.289   1.524  1.00  0.00     0.013 C 
BRANCH  24  25
HETATM   25  C21 UNL     1      -5.792  -0.193   1.519  1.00  0.00     0.005 C 
BRANCH  25  26
HETATM   26  C22 UNL     1      -6.703   0.204   0.422  1.00  0.00    -0.023 C 
HETATM   27  C23 UNL     1      -6.393  -0.121  -0.973  1.00  0.00     0.009 C 
HETATM   28  C24 UNL     1      -8.061  -0.474   0.742  1.00  0.00     0.009 C 
ENDBRANCH  25  26
ENDBRANCH  24  25
ENDBRANCH  23  24
BRANCH  23  29
HETATM   29  C25 UNL     1      -3.156  -1.618   0.916  1.00  0.00     0.127 C 
HETATM   30  C26 UNL     1      -3.997  -2.784   0.744  1.00  0.00     0.091 C 
HETATM   31  O3  UNL     1      -2.070  -1.765   1.508  1.00  0.00    -0.298 OA
ENDBRANCH  23  29
ENDBRANCH  16  23
BRANCH   8  32
HETATM   32  C9  UNL     1       5.944  -0.783  -0.275  1.00  0.00     0.152 C 
HETATM   33  C10 UNL     1       6.968  -0.911  -1.427  1.00  0.00     0.042 C 
BRANCH  32  34
HETATM   34  O2  UNL     1       6.453   0.296   0.477  1.00  0.00    -0.282 OA
BRANCH  34  35
HETATM   35  N1  UNL     1       7.027  -0.069   1.619  1.00  0.00    -0.311 N 
ATOM     36  H12 UNL     1       7.086  -1.045   1.911  1.00  0.00     0.184 HD
ATOM     37  H11 UNL     1       7.395   0.711   2.163  1.00  0.00     0.184 HD
ENDBRANCH  34  35
ENDBRANCH  32  34
ENDBRANCH   8  32
TORSDOF 9
