REMARK  12 active torsions:
REMARK  status: ('A' for Active; 'I' for Inactive)
REMARK    1  A    between atoms: C3_4  and  C4_5 
REMARK    2  A    between atoms: C4_5  and  O2_6 
REMARK    3  A    between atoms: C4_5  and  O3_8 
REMARK    4  A    between atoms: C5_11  and  C6_12 
REMARK    5  A    between atoms: C6_12  and  N1_13 
REMARK    6  A    between atoms: N1_13  and  N2_14 
REMARK    7  A    between atoms: N2_14  and  C7_16 
REMARK    8  A    between atoms: C7_16  and  O5_17 
REMARK    9  A    between atoms: C7_16  and  C8_19 
REMARK   10  A    between atoms: C7_16  and  C14_25 
REMARK   11  A    between atoms: C17_28  and  N3_29 
REMARK   12  A    between atoms: C18_33  and  O9_34 
ROOT
HETATM    1  N2  UNL     1      -0.414   0.411   0.578  1.00  0.00    -0.296 N 
ATOM      2  H2  UNL     1      -0.305   0.270   1.582  1.00  0.00     0.179 HD
ENDROOT
BRANCH   1   3
HETATM    3  N1  UNL     1       0.534   1.165  -0.037  1.00  0.00    -0.136 NA
BRANCH   3   4
HETATM    4  C6  UNL     1       1.326   0.422  -0.946  1.00  0.00     0.202 C 
BRANCH   4   5
HETATM    5  C5  UNL     1       2.722   0.116  -0.590  1.00  0.00     0.106 A 
HETATM    6  O4  UNL     1       3.810   0.755  -0.651  1.00  0.00    -0.310 OA
HETATM    7  C3  UNL     1       4.983   0.330  -0.310  1.00  0.00     0.111 A 
HETATM    8  C2  UNL     1       5.122  -0.956   0.189  1.00  0.00     0.095 A 
HETATM    9  C1  UNL     1       4.008  -1.741   0.294  1.00  0.00     0.209 A 
HETATM   10  O1  UNL     1       4.102  -2.938   0.752  1.00  0.00    -0.285 OA
HETATM   11  C18 UNL     1       2.814  -1.228  -0.089  1.00  0.00     0.147 A 
BRANCH   7  12
HETATM   12  C4  UNL     1       6.231   1.163  -0.452  1.00  0.00     0.312 C 
BRANCH  12  13
HETATM   13  O2  UNL     1       6.159   2.420   0.009  1.00  0.00    -0.365 OA
ATOM     14  H2  UNL     1       6.946   2.945  -0.081  1.00  0.00     0.213 HD
ENDBRANCH  12  13
BRANCH  12  15
HETATM   15  O3  UNL     1       6.445   1.137  -1.873  1.00  0.00    -0.365 OA
ATOM     16  H3  UNL     1       7.232   1.662  -1.963  1.00  0.00     0.213 HD
ENDBRANCH  12  15
ENDBRANCH   7  12
BRANCH  11  17
HETATM   17  O9  UNL     1       1.676  -1.989  -0.003  1.00  0.00    -0.355 OA
ATOM     18  H9  UNL     1       0.839  -1.629  -0.272  1.00  0.00     0.218 HD
ENDBRANCH  11  17
ENDBRANCH   4   5
ENDBRANCH   3   4
ENDBRANCH   1   3
BRANCH   1  19
HETATM   19  C7  UNL     1      -1.510  -0.185  -0.015  1.00  0.00     0.222 C 
BRANCH  19  20
HETATM   20  O5  UNL     1      -1.269  -1.154  -0.944  1.00  0.00    -0.361 OA
ATOM     21  H5  UNL     1      -2.023  -1.564  -1.352  1.00  0.00     0.213 HD
ENDBRANCH  19  20
BRANCH  19  22
HETATM   22  C8  UNL     1      -2.471   0.787  -0.621  1.00  0.00     0.004 A 
HETATM   23  C9  UNL     1      -2.543   2.053  -0.093  1.00  0.00     0.012 A 
HETATM   24  C10 UNL     1      -3.473   2.963  -0.606  1.00  0.00     0.001 A 
HETATM   25  C11 UNL     1      -4.291   2.573  -1.620  1.00  0.00     0.000 A 
HETATM   26  C12 UNL     1      -4.228   1.325  -2.153  1.00  0.00     0.001 A 
HETATM   27  C13 UNL     1      -3.288   0.406  -1.637  1.00  0.00     0.012 A 
ENDBRANCH  19  22
BRANCH  19  28
HETATM   28  C14 UNL     1      -2.384  -0.869   1.057  1.00  0.00     0.117 A 
HETATM   29  C15 UNL     1      -2.215  -0.888   2.392  1.00  0.00     0.043 A 
HETATM   30  C16 UNL     1      -3.252  -1.620   2.905  1.00  0.00     0.065 A 
HETATM   31  C17 UNL     1      -4.019  -2.014   1.843  1.00  0.00     0.215 A 
HETATM   32  O8  UNL     1      -3.442  -1.530   0.748  1.00  0.00    -0.288 OA
BRANCH  31  33
HETATM   33  N3  UNL     1      -5.208  -2.783   1.893  1.00  0.00    -0.090 N 
HETATM   34  O6  UNL     1      -5.668  -3.161   2.993  1.00  0.00    -0.530 OA
HETATM   35  O7  UNL     1      -5.889  -3.127   0.749  1.00  0.00    -0.530 OA
ENDBRANCH  31  33
ENDBRANCH  19  28
ENDBRANCH   1  19
TORSDOF 12
