REMARK  9 active torsions:
REMARK  status: ('A' for Active; 'I' for Inactive)
REMARK    1  A    between atoms: S1_2  and  C2_4 
REMARK    2  A    between atoms: C2_4  and  C3_5 
REMARK    3  A    between atoms: C3_5  and  S2_6 
REMARK    4  A    between atoms: S2_6  and  C4_7 
REMARK    5  A    between atoms: C4_7  and  C5_8 
REMARK    6  A    between atoms: C7_10  and  O2_11 
REMARK    7  A    between atoms: C8_13  and  O3_14 
REMARK    8  A    between atoms: C9_16  and  C10_17 
REMARK    9  A    between atoms: C10_17  and  N1_18 
ROOT
HETATM    1  C5  UNL     1      -0.552  -0.077   0.058  1.00  0.00     0.134 C 
HETATM    2  C6  UNL     1      -1.011  -1.121  -0.910  1.00  0.00     0.067 C 
HETATM    3  C7  UNL     1      -2.297  -0.735  -1.616  1.00  0.00     0.151 C 
HETATM    4  C8  UNL     1      -3.282  -0.139  -0.646  1.00  0.00     0.177 C 
HETATM    5  C9  UNL     1      -2.727  -0.357   0.753  1.00  0.00     0.178 C 
HETATM    6  O4  UNL     1      -1.566   0.391   0.861  1.00  0.00    -0.375 OA
ENDROOT
BRANCH   1   7
HETATM    7  C4  UNL     1       0.164   1.073  -0.656  1.00  0.00     0.105 C 
BRANCH   7   8
HETATM    8  S2  UNL     1       1.609   0.500  -1.548  1.00  0.00    -0.166 SA
BRANCH   8   9
HETATM    9  C3  UNL     1       2.902  -0.116  -0.437  1.00  0.00     0.086 C 
BRANCH   9  10
HETATM   10  C2  UNL     1       3.428   1.019   0.375  1.00  0.00     0.118 C 
BRANCH  10  11
HETATM   11  S1  UNL     1       4.705   0.523   1.499  1.00  0.00     0.011 S 
HETATM   12  C1  UNL     1       6.094  -0.176   0.654  1.00  0.00     0.127 C 
HETATM   13  O1  UNL     1       5.229   1.781   2.448  1.00  0.00    -0.258 OA
ENDBRANCH  10  11
ENDBRANCH   9  10
ENDBRANCH   8   9
ENDBRANCH   7   8
ENDBRANCH   1   7
BRANCH   3  14
HETATM   14  O2  UNL     1      -2.839  -1.884  -2.164  1.00  0.00    -0.393 OA
ATOM     15  H2  UNL     1      -3.644  -1.642  -2.606  1.00  0.00     0.210 HD
ENDBRANCH   3  14
BRANCH   5  16
HETATM   16  C10 UNL     1      -3.769   0.161   1.716  1.00  0.00     0.264 C 
BRANCH  16  17
HETATM   17  N1  UNL     1      -3.338   0.097   3.078  1.00  0.00    -0.077 N 
ATOM     18  H13 UNL     1      -3.047  -0.849   3.326  1.00  0.00     0.274 HD
ATOM     19  H12 UNL     1      -2.449   0.581   3.204  1.00  0.00     0.274 HD
ATOM     20  H11 UNL     1      -4.042   0.447   3.728  1.00  0.00     0.274 HD
ENDBRANCH  16  17
ENDBRANCH   5  16
BRANCH   4  21
HETATM   21  O3  UNL     1      -3.411   1.228  -0.896  1.00  0.00    -0.390 OA
ATOM     22  H3  UNL     1      -4.033   1.604  -0.284  1.00  0.00     0.210 HD
ENDBRANCH   4  21
TORSDOF 9
