REMARK  6 active torsions:
REMARK  status: ('A' for Active; 'I' for Inactive)
REMARK    1  A    between atoms: N1_1  and  C1_5 
REMARK    2  A    between atoms: N2_8  and  C4_9 
REMARK    3  A    between atoms: C4_9  and  C5_10 
REMARK    4  A    between atoms: C5_10  and  C6_11 
REMARK    5  A    between atoms: C6_11  and  N3_12 
REMARK    6  A    between atoms: C12_18  and  O1_19 
ROOT
HETATM    1  C1  UNL     1       4.070   0.455  -0.688  1.00  0.00     0.215 C 
HETATM    2  C2  UNL     1       4.043  -0.836   0.062  1.00  0.00     0.065 C 
HETATM    3  C3  UNL     1       2.736  -1.540  -0.028  1.00  0.00     0.274 C 
HETATM    4  N2  UNL     1       1.593  -0.648  -0.297  1.00  0.00     0.091 N 
HETATM    5  C11 UNL     1       1.830   0.619   0.400  1.00  0.00     0.306 C 
HETATM    6  C12 UNL     1       2.946   1.367  -0.253  1.00  0.00     0.176 C 
ENDROOT
BRANCH   4   7
HETATM    7  C4  UNL     1       0.379  -1.272   0.227  1.00  0.00     0.274 C 
BRANCH   7   8
HETATM    8  C5  UNL     1      -0.811  -0.565  -0.338  1.00  0.00     0.060 C 
BRANCH   8   9
HETATM    9  C6  UNL     1      -2.089  -1.171   0.238  1.00  0.00     0.274 C 
BRANCH   9  10
HETATM   10  N3  UNL     1      -3.209  -0.555  -0.366  1.00  0.00     0.088 N 
HETATM   11  C7  UNL     1      -4.441  -0.942   0.210  1.00  0.00     0.272 C 
HETATM   12  C8  UNL     1      -5.236   0.346   0.413  1.00  0.00     0.032 C 
HETATM   13  C9  UNL     1      -4.636   1.226  -0.683  1.00  0.00     0.032 C 
HETATM   14  C10 UNL     1      -3.148   0.835  -0.558  1.00  0.00     0.272 C 
ENDBRANCH   9  10
ENDBRANCH   8   9
ENDBRANCH   7   8
ENDBRANCH   4   7
BRANCH   6  15
HETATM   15  O1  UNL     1       3.476   2.243   0.721  1.00  0.00    -0.392 OA
ATOM     16  H1  UNL     1       2.770   2.816   0.994  1.00  0.00     0.210 HD
ENDBRANCH   6  15
BRANCH   1  17
HETATM   17  N1  UNL     1       5.369   1.066  -0.453  1.00  0.00    -0.072 N 
ATOM     18  H13 UNL     1       5.584   1.176   0.538  1.00  0.00     0.274 HD
ATOM     19  H12 UNL     1       6.147   0.451  -0.690  1.00  0.00     0.274 HD
ATOM     20  H11 UNL     1       5.387   1.948  -0.965  1.00  0.00     0.274 HD
ENDBRANCH   1  17
TORSDOF 6
