REMARK  1 active torsions:
REMARK  status: ('A' for Active; 'I' for Inactive)
REMARK    1  A    between atoms: C4_4  and  C5_5 
ROOT
HETATM    1  C5  UNL     1       0.827  -0.073   0.394  1.00  0.00     0.015 C 
HETATM    2  C6  UNL     1       1.606   1.094  -0.143  1.00  0.00     0.008 C 
HETATM    3  C7  UNL     1       3.081   0.977   0.036  1.00  0.00     0.028 C 
HETATM    4  C8  UNL     1       3.521  -0.452   0.338  1.00  0.00     0.232 C 
HETATM    5  N1  UNL     1       2.731  -1.297  -0.572  1.00  0.00    -0.075 N 
ATOM      6  H11 UNL     1       3.165  -2.199  -0.767  1.00  0.00     0.277 HD
ATOM      7  H12 UNL     1       2.716  -0.955  -1.533  1.00  0.00     0.277 HD
HETATM    8  C9  UNL     1       1.421  -1.407   0.017  1.00  0.00     0.237 C 
ENDROOT
BRANCH   1   9
HETATM    9  C4  UNL     1      -0.576  -0.040  -0.162  1.00  0.00    -0.009 C 
HETATM   10  C3  UNL     1      -1.327   1.205   0.196  1.00  0.00     0.005 C 
HETATM   11  C2  UNL     1      -2.569   1.249  -0.703  1.00  0.00     0.000 C 
HETATM   12  C1  UNL     1      -3.369   0.017  -0.430  1.00  0.00     0.000 C 
HETATM   13  C11 UNL     1      -2.773  -0.806   0.701  1.00  0.00     0.000 C 
HETATM   14  C10 UNL     1      -1.378  -1.222   0.350  1.00  0.00     0.005 C 
ENDBRANCH   1   9
TORSDOF 1
