REMARK  9 active torsions:
REMARK  status: ('A' for Active; 'I' for Inactive)
REMARK    1  A    between atoms: O1_2  and  C2_3 
REMARK    2  A    between atoms: C2_3  and  C3_4 
REMARK    3  A    between atoms: C3_4  and  N1_5 
REMARK    4  A    between atoms: N1_5  and  C4_7 
REMARK    5  A    between atoms: C4_7  and  N2_9 
REMARK    6  A    between atoms: N2_9  and  C5_10 
REMARK    7  A    between atoms: N2_9  and  C11_19 
REMARK    8  A    between atoms: C5_10  and  C6_11 
REMARK    9  A    between atoms: C11_19  and  C12_20 
ROOT
HETATM    1  N2  UNL     1      -0.307   0.891   0.335  1.00  0.00    -0.347 N 
ENDROOT
BRANCH   1   2
HETATM    2  C4  UNL     1       0.910   0.361  -0.152  1.00  0.00     0.170 C 
HETATM    3  S1  UNL     1       1.715   1.224  -1.314  1.00  0.00    -0.041 SA
BRANCH   2   4
HETATM    4  N1  UNL     1       1.449  -0.879   0.266  1.00  0.00    -0.365 N 
ATOM      5  H1  UNL     1       0.928  -1.426   0.951  1.00  0.00     0.161 HD
BRANCH   4   6
HETATM    6  C3  UNL     1       2.695  -1.409  -0.225  1.00  0.00     0.148 C 
BRANCH   6   7
HETATM    7  C2  UNL     1       3.841  -0.629   0.330  1.00  0.00     0.186 C 
BRANCH   7   8
HETATM    8  O1  UNL     1       5.065  -1.093  -0.118  1.00  0.00    -0.394 OA
HETATM    9  C1  UNL     1       5.329  -2.400   0.216  1.00  0.00     0.201 C 
ENDBRANCH   7   8
ENDBRANCH   6   7
ENDBRANCH   4   6
ENDBRANCH   2   4
ENDBRANCH   1   2
BRANCH   1  10
HETATM   10  C5  UNL     1      -0.735   2.196  -0.162  1.00  0.00     0.182 C 
BRANCH  10  11
HETATM   11  C6  UNL     1       0.186   3.288   0.202  1.00  0.00     0.027 A 
HETATM   12  C7  UNL     1       0.027   4.461  -0.540  1.00  0.00     0.028 A 
HETATM   13  C8  UNL     1       0.808   5.570  -0.314  1.00  0.00     0.022 A 
HETATM   14  C9  UNL     1       1.763   5.491   0.677  1.00  0.00     0.026 A 
HETATM   15 BR1  UNL     1       2.855   7.015   1.007  1.00  0.00    -0.050 Br
HETATM   16  C10 UNL     1       1.884   4.319   1.382  1.00  0.00     0.107 A 
HETATM   17  N3  UNL     1       1.114   3.241   1.151  1.00  0.00    -0.366 N 
ATOM     18  H3  UNL     1       1.242   2.392   1.702  1.00  0.00     0.165 HD
ENDBRANCH  10  11
ENDBRANCH   1  10
BRANCH   1  19
HETATM   19  C11 UNL     1      -1.216   0.253   1.248  1.00  0.00     0.182 C 
BRANCH  19  20
HETATM   20  C12 UNL     1      -2.051  -0.809   0.628  1.00  0.00     0.028 A 
HETATM   21  C13 UNL     1      -2.000  -2.178   0.690  1.00  0.00     0.040 A 
HETATM   22  C14 UNL     1      -3.002  -2.763  -0.057  1.00  0.00    -0.008 A 
HETATM   23  C15 UNL     1      -3.403  -4.055  -0.337  1.00  0.00     0.014 A 
HETATM   24  C19 UNL     1      -3.694  -1.693  -0.599  1.00  0.00     0.042 A 
HETATM   25  C16 UNL     1      -4.481  -4.347  -1.146  1.00  0.00     0.001 A 
HETATM   26  C17 UNL     1      -5.164  -3.270  -1.681  1.00  0.00     0.002 A 
HETATM   27  C18 UNL     1      -4.778  -1.974  -1.412  1.00  0.00     0.030 A 
HETATM   28  N4  UNL     1      -3.123  -0.553  -0.187  1.00  0.00    -0.357 N 
ATOM     29  H4  UNL     1      -3.443   0.380  -0.445  1.00  0.00     0.166 HD
ENDBRANCH  19  20
ENDBRANCH   1  19
TORSDOF 9
