REMARK  5 active torsions:
REMARK  status: ('A' for Active; 'I' for Inactive)
REMARK    1  A    between atoms: N2_4  and  N3_6 
REMARK    2  A    between atoms: C1_8  and  C2_9 
REMARK    3  A    between atoms: C2_9  and  N4_10 
REMARK    4  A    between atoms: N4_10  and  C3_12 
REMARK    5  A    between atoms: C3_12  and  C4_13 
ROOT
HETATM    1  C2  UNL     1       1.265  -0.131  -0.617  1.00  0.00     0.160 C 
ENDROOT
BRANCH   1   2
HETATM    2  C1  UNL     1       1.788  -1.390   0.008  1.00  0.00     0.100 C 
HETATM    3  N3  UNL     1       2.933  -1.433   0.588  1.00  0.00    -0.300 N 
ATOM      4  H3  UNL     1       3.239  -2.316   0.996  1.00  0.00     0.187 HD
BRANCH   3   5
HETATM    5  N2  UNL     1       3.780  -0.322   0.685  1.00  0.00    -0.250 N 
HETATM    6  N1  UNL     1       4.659  -0.044  -0.188  1.00  0.00    -0.331 N 
ATOM      7  H12 UNL     1       4.739  -0.669  -0.990  1.00  0.00     0.178 HD
ATOM      8  H11 UNL     1       5.276   0.765  -0.117  1.00  0.00     0.178 HD
ATOM      9  H2  UNL     1       3.686   0.292   1.494  1.00  0.00     0.207 HD
ENDBRANCH   3   5
ENDBRANCH   1   2
BRANCH   1  10
HETATM   10  N4  UNL     1       0.169  -0.439  -1.498  1.00  0.00    -0.412 N 
ATOM     11  H4  UNL     1       0.250  -0.320  -2.508  1.00  0.00     0.153 HD
BRANCH  10  12
HETATM   12  C3  UNL     1      -1.021  -0.912  -0.907  1.00  0.00     0.170 C 
BRANCH  12  13
HETATM   13  C4  UNL     1      -1.764   0.125  -0.074  1.00  0.00     0.020 A 
HETATM   14  C5  UNL     1      -2.938   0.679  -0.133  1.00  0.00     0.019 A 
HETATM   15  C6  UNL     1      -2.702   1.485   1.039  1.00  0.00     0.148 A 
HETATM   16  N5  UNL     1      -1.445   0.827   1.094  1.00  0.00    -0.389 N 
ATOM     17  H5  UNL     1      -0.643   0.855   1.723  1.00  0.00     0.159 HD
ENDBRANCH  12  13
ENDBRANCH  10  12
ENDBRANCH   1  10
TORSDOF 5
