REMARK  11 active torsions:
REMARK  status: ('A' for Active; 'I' for Inactive)
REMARK    1  A    between atoms: C4_4  and  C5_5 
REMARK    2  A    between atoms: C5_5  and  C6_6 
REMARK    3  A    between atoms: C10_10  and  C11_11 
REMARK    4  A    between atoms: C11_11  and  C12_12 
REMARK    5  A    between atoms: C12_12  and  C13_13 
REMARK    6  A    between atoms: C13_13  and  C14_14 
REMARK    7  A    between atoms: C21_21  and  S1_22 
REMARK    8  A    between atoms: S1_22  and  N1_25 
REMARK    9  A    between atoms: N1_25  and  C22_27 
REMARK   10  A    between atoms: C22_27  and  C23_28 
REMARK   11  A    between atoms: C23_28  and  O3_29 
ROOT
HETATM    1  C1  UNL     1      -0.223  -2.664   0.559  1.00  0.00     0.044 C 
HETATM    2  C2  UNL     1      -1.199  -1.836   0.804  1.00  0.00     0.038 A 
HETATM    3  C3  UNL     1      -1.706  -0.824  -0.103  1.00  0.00     0.029 A 
HETATM    4  C4  UNL     1      -1.112  -0.571  -1.308  1.00  0.00    -0.021 A 
HETATM    5  C19 UNL     1      -1.652   0.446  -2.109  1.00  0.00     0.014 A 
HETATM    6  C20 UNL     1      -2.727   1.184  -1.742  1.00  0.00     0.028 A 
HETATM    7  C21 UNL     1      -3.345   0.935  -0.507  1.00  0.00     0.107 A 
HETATM    8  C24 UNL     1      -2.829  -0.048   0.281  1.00  0.00     0.070 A 
HETATM    9  N2  UNL     1      -3.416  -0.295   1.562  1.00  0.00    -0.350 N 
ATOM     10  H2  UNL     1      -4.223   0.252   1.863  1.00  0.00     0.166 HD
HETATM   11  C25 UNL     1      -2.885  -1.294   2.417  1.00  0.00     0.183 A 
HETATM   12  N3  UNL     1      -1.880  -2.001   2.088  1.00  0.00    -0.347 N 
HETATM   13  C26 UNL     1      -1.415  -2.992   3.028  1.00  0.00     0.157 C 
ENDROOT
BRANCH   4  14
HETATM   14  C5  UNL     1       0.064  -1.232  -1.834  1.00  0.00     0.024 C 
BRANCH  14  15
HETATM   15  C6  UNL     1       1.264  -0.641  -1.816  1.00  0.00    -0.025 A 
HETATM   16  C7  UNL     1       1.412   0.641  -1.282  1.00  0.00     0.019 A 
HETATM   17  C8  UNL     1       2.623   1.302  -1.240  1.00  0.00    -0.055 A 
HETATM   18  C9  UNL     1       2.737   2.682  -0.661  1.00  0.00     0.049 C 
HETATM   19  C10 UNL     1       3.739   0.693  -1.737  1.00  0.00    -0.051 A 
HETATM   20  C16 UNL     1       3.623  -0.567  -2.267  1.00  0.00     0.019 A 
HETATM   21  C17 UNL     1       2.407  -1.220  -2.305  1.00  0.00    -0.035 A 
HETATM   22  C18 UNL     1       2.416  -2.424  -2.833  1.00  0.00     0.024 C 
BRANCH  19  23
HETATM   23  C11 UNL     1       5.089   1.352  -1.719  1.00  0.00     0.039 C 
BRANCH  23  24
HETATM   24  C12 UNL     1       5.698   1.305  -0.328  1.00  0.00     0.005 C 
BRANCH  24  25
HETATM   25  C13 UNL     1       5.870  -0.129   0.133  1.00  0.00    -0.000 C 
BRANCH  25  26
HETATM   26  C14 UNL     1       6.473  -0.136   1.511  1.00  0.00    -0.005 C 
HETATM   27  C15 UNL     1       5.632   0.570   2.533  1.00  0.00     0.005 C 
ENDBRANCH  25  26
ENDBRANCH  24  25
ENDBRANCH  23  24
ENDBRANCH  19  23
ENDBRANCH  14  15
ENDBRANCH   4  14
BRANCH   7  28
HETATM   28  S1  UNL     1      -4.763   1.845  -0.175  1.00  0.00     0.261 S 
HETATM   29  O1  UNL     1      -4.870   3.036  -1.131  1.00  0.00    -0.200 OA
HETATM   30  O2  UNL     1      -4.772   2.489   1.196  1.00  0.00    -0.200 OA
BRANCH  28  31
HETATM   31  N1  UNL     1      -6.168   0.901  -0.334  1.00  0.00    -0.313 N 
ATOM     32  H1  UNL     1      -6.417   0.458  -1.218  1.00  0.00     0.172 HD
BRANCH  31  33
HETATM   33  C22 UNL     1      -6.968   0.761   0.809  1.00  0.00     0.158 C 
BRANCH  33  34
HETATM   34  C23 UNL     1      -8.176  -0.125   0.421  1.00  0.00     0.184 C 
BRANCH  34  35
HETATM   35  O3  UNL     1      -9.008  -0.301   1.513  1.00  0.00    -0.399 OA
ATOM     36  H3  UNL     1      -9.750  -0.845   1.275  1.00  0.00     0.209 HD
ENDBRANCH  34  35
ENDBRANCH  33  34
ENDBRANCH  31  33
ENDBRANCH  28  31
ENDBRANCH   7  28
TORSDOF 11
