REMARK  9 active torsions:
REMARK  status: ('A' for Active; 'I' for Inactive)
REMARK    1  A    between atoms: C2_2  and  C3_3 
REMARK    2  A    between atoms: C3_3  and  C4_4 
REMARK    3  A    between atoms: C6_6  and  C7_7 
REMARK    4  A    between atoms: C8_8  and  C9_9 
REMARK    5  A    between atoms: C9_9  and  C10_10 
REMARK    6  A    between atoms: C10_10  and  N1_11 
REMARK    7  A    between atoms: N1_11  and  C11_12 
REMARK    8  A    between atoms: N1_11  and  C13_14 
REMARK    9  A    between atoms: C22_31  and  C23_32 
ROOT
HETATM    1  C4  UNL     1      -0.567  -2.887  -0.509  1.00  0.00    -0.027 A 
HETATM    2  C5  UNL     1       0.544  -2.116  -0.299  1.00  0.00     0.039 A 
HETATM    3  C6  UNL     1       0.436  -0.784   0.073  1.00  0.00     0.034 A 
HETATM    4  N2  UNL     1      -0.801  -0.208   0.235  1.00  0.00    -0.349 N 
HETATM    5  C15 UNL     1      -0.911   1.198   0.484  1.00  0.00     0.156 C 
HETATM    6  C16 UNL     1      -1.914  -0.947   0.040  1.00  0.00     0.068 A 
HETATM    7  C17 UNL     1      -1.796  -2.293  -0.335  1.00  0.00     0.064 A 
HETATM    8  N3  UNL     1      -2.938  -2.875  -0.453  1.00  0.00    -0.363 N 
ATOM      9  H3  UNL     1      -3.090  -3.855  -0.693  1.00  0.00     0.162 HD
HETATM   10  C18 UNL     1      -3.932  -1.929  -0.194  1.00  0.00     0.217 C 
HETATM   11  N4  UNL     1      -4.709  -1.554  -1.338  1.00  0.00    -0.336 N 
ATOM     12  H4  UNL     1      -4.264  -1.775  -2.229  1.00  0.00     0.164 HD
HETATM   13  C19 UNL     1      -5.966  -0.940  -1.468  1.00  0.00     0.225 C 
HETATM   14  O1  UNL     1      -6.532  -1.131  -2.547  1.00  0.00    -0.273 OA
HETATM   15  C20 UNL     1      -6.766  -0.079  -0.526  1.00  0.00     0.160 C 
HETATM   16  C21 UNL     1      -5.899   1.127  -0.214  1.00  0.00     0.025 A 
HETATM   17  N5  UNL     1      -6.446   2.309  -0.574  1.00  0.00    -0.355 N 
ATOM     18  H5  UNL     1      -7.354   2.436  -1.021  1.00  0.00     0.166 HD
HETATM   19  C22 UNL     1      -5.591   3.284  -0.242  1.00  0.00     0.098 A 
HETATM   20  C24 UNL     1      -4.488   2.728   0.335  1.00  0.00     0.044 A 
HETATM   21  C25 UNL     1      -4.682   1.361   0.353  1.00  0.00    -0.029 A 
HETATM   22  C26 UNL     1      -3.621   0.514   0.948  1.00  0.00     0.081 C 
HETATM   23  C27 UNL     1      -3.184  -0.678   0.281  1.00  0.00    -0.005 C 
ENDROOT
BRANCH   3  24
HETATM   24  C7  UNL     1       1.591   0.032   0.356  1.00  0.00     0.025 C 
HETATM   25  C8  UNL     1       2.810  -0.458   0.251  1.00  0.00    -0.023 C 
BRANCH  25  26
HETATM   26  C9  UNL     1       4.014   0.398   0.545  1.00  0.00     0.046 C 
BRANCH  26  27
HETATM   27  C10 UNL     1       4.930   0.408  -0.683  1.00  0.00     0.120 C 
BRANCH  27  28
HETATM   28  N1  UNL     1       6.097   1.185  -0.517  1.00  0.00    -0.413 N 
BRANCH  28  29
HETATM   29  C11 UNL     1       7.063   0.724   0.419  1.00  0.00     0.112 C 
HETATM   30  C12 UNL     1       7.730  -0.560  -0.055  1.00  0.00     0.026 C 
ENDBRANCH  28  29
BRANCH  28  31
HETATM   31  C13 UNL     1       5.894   2.598  -0.588  1.00  0.00     0.112 C 
HETATM   32  C14 UNL     1       7.207   3.337  -0.408  1.00  0.00     0.026 C 
ENDBRANCH  28  31
ENDBRANCH  27  28
ENDBRANCH  26  27
ENDBRANCH  25  26
ENDBRANCH   3  24
BRANCH   1  33
HETATM   33  C3  UNL     1      -0.402  -4.307  -0.912  1.00  0.00     0.040 C 
BRANCH  33  34
HETATM   34  C2  UNL     1      -0.640  -5.293   0.169  1.00  0.00     0.000 C 
HETATM   35  C1  UNL     1       0.262  -5.159   1.352  1.00  0.00     0.005 C 
ENDBRANCH  33  34
ENDBRANCH   1  33
BRANCH  19  36
HETATM   36  C23 UNL     1      -5.863   4.714  -0.491  1.00  0.00     0.281 C 
HETATM   37  N6  UNL     1      -4.940   5.714  -0.122  1.00  0.00    -0.056 NA
HETATM   38  O2  UNL     1      -6.930   5.078  -1.042  1.00  0.00    -0.269 OA
ENDBRANCH  19  36
TORSDOF 9
