REMARK  12 active torsions:
REMARK  status: ('A' for Active; 'I' for Inactive)
REMARK    1  A    between atoms: C2_2  and  C3_3 
REMARK    2  A    between atoms: C5_5  and  O1_6 
REMARK    3  A    between atoms: C6_8  and  C7_9 
REMARK    4  A    between atoms: C8_10  and  C9_11 
REMARK    5  A    between atoms: C9_11  and  C10_12 
REMARK    6  A    between atoms: C10_12  and  C11_13 
REMARK    7  A    between atoms: C12_14  and  C13_15 
REMARK    8  A    between atoms: C19_24  and  C20_25 
REMARK    9  A    between atoms: C20_25  and  O4_26 
REMARK   10  A    between atoms: N2_32  and  C25_33 
REMARK   11  A    between atoms: C25_33  and  C26_34 
REMARK   12  A    between atoms: C26_34  and  N3_35 
ROOT
HETATM    1  C3  UNL     1      -1.346  -1.371  -0.450  1.00  0.00     0.145 A 
HETATM    2  C4  UNL     1      -0.100  -1.122  -0.946  1.00  0.00     0.070 A 
HETATM    3  C5  UNL     1       1.015  -0.379  -0.285  1.00  0.00     0.085 C 
HETATM    4  C6  UNL     1       2.208  -0.938  -0.908  1.00  0.00     0.113 C 
HETATM    5  C14 UNL     1       1.730  -2.092  -1.789  1.00  0.00     0.138 C 
HETATM    6  O3  UNL     1       2.114  -2.290  -2.868  1.00  0.00    -0.297 OA
HETATM    7  C15 UNL     1       0.672  -3.028  -1.177  1.00  0.00     0.091 C 
HETATM    8  C16 UNL     1      -0.151  -2.220  -0.118  1.00  0.00     0.006 A 
HETATM    9  C17 UNL     1      -0.297  -2.932   1.060  1.00  0.00     0.019 C 
HETATM   10  C18 UNL     1       0.519   0.994  -0.428  1.00  0.00     0.068 C 
HETATM   11  C19 UNL     1       0.552   1.692   0.907  1.00  0.00    -0.009 C 
HETATM   12  C21 UNL     1      -0.085   3.023   0.394  1.00  0.00     0.015 C 
HETATM   13  C22 UNL     1      -1.392   2.351  -0.035  1.00  0.00     0.040 C 
HETATM   14  C23 UNL     1      -0.986   1.020  -0.642  1.00  0.00     0.134 C 
HETATM   15  C24 UNL     1      -1.307   1.165  -2.079  1.00  0.00     0.047 C 
HETATM   16  N2  UNL     1      -1.711  -0.074   0.073  1.00  0.00    -0.046 N 
HETATM   17  C30 UNL     1      -1.475   0.207   1.444  1.00  0.00     0.240 C 
HETATM   18  C31 UNL     1      -0.405   1.150   1.882  1.00  0.00     0.040 C 
ENDROOT
BRANCH   4  19
HETATM   19  C7  UNL     1       3.248  -1.497  -0.033  1.00  0.00    -0.011 C 
HETATM   20  C8  UNL     1       4.403  -0.868   0.063  1.00  0.00     0.005 C 
BRANCH  20  21
HETATM   21  C9  UNL     1       5.471  -1.422   0.944  1.00  0.00     0.055 C 
BRANCH  21  22
HETATM   22  C10 UNL     1       6.558  -1.026   1.271  1.00  0.00    -0.128 C 
BRANCH  22  23
HETATM   23  C11 UNL     1       7.839  -0.561   1.658  1.00  0.00     0.060 C 
HETATM   24  C12 UNL     1       8.430   0.542   1.319  1.00  0.00     0.079 C 
BRANCH  24  25
HETATM   25  C13 UNL     1       7.982   1.600   0.470  1.00  0.00     0.255 C 
HETATM   26  N1  UNL     1       8.859   2.733   0.297  1.00  0.00    -0.058 NA
HETATM   27  O2  UNL     1       6.901   1.592  -0.107  1.00  0.00    -0.272 OA
ENDBRANCH  24  25
ENDBRANCH  22  23
ENDBRANCH  21  22
ENDBRANCH  20  21
ENDBRANCH   4  19
BRANCH   3  28
HETATM   28  O1  UNL     1       1.204  -0.618   1.048  1.00  0.00    -0.388 OA
ATOM     29  H1  UNL     1       1.913  -0.146   1.468  1.00  0.00     0.210 HD
ENDBRANCH   3  28
BRANCH   1  30
HETATM   30  C2  UNL     1      -2.330  -2.445  -0.805  1.00  0.00     0.036 C 
HETATM   31  C1  UNL     1      -2.798  -2.579  -2.208  1.00  0.00     0.007 C 
ENDBRANCH   1  30
BRANCH  11  32
HETATM   32  C20 UNL     1       1.855   2.073   1.452  1.00  0.00     0.174 C 
BRANCH  32  33
HETATM   33  O4  UNL     1       1.630   2.714   2.691  1.00  0.00    -0.400 OA
ATOM     34  H4  UNL     1       2.476   2.961   3.045  1.00  0.00     0.209 HD
ENDBRANCH  32  33
ENDBRANCH  11  32
BRANCH  16  35
HETATM   35  C25 UNL     1      -3.090   0.231  -0.287  1.00  0.00     0.267 C 
BRANCH  35  36
HETATM   36  C26 UNL     1      -4.177   0.311   0.685  1.00  0.00     0.264 C 
BRANCH  36  37
HETATM   37  N3  UNL     1      -5.484   0.621   0.078  1.00  0.00    -0.077 N 
HETATM   38  C27 UNL     1      -6.535   0.229   1.004  1.00  0.00     0.271 C 
HETATM   39  C28 UNL     1      -5.664  -0.165  -1.113  1.00  0.00     0.271 C 
HETATM   40  C29 UNL     1      -5.693   2.009  -0.179  1.00  0.00     0.271 C 
ENDBRANCH  36  37
ENDBRANCH  35  36
ENDBRANCH  16  35
TORSDOF 12
