REMARK  7 active torsions:
REMARK  status: ('A' for Active; 'I' for Inactive)
REMARK       I    between atoms: C2_2  and  N1_4 
REMARK    1  A    between atoms: N1_4  and  C3_6 
REMARK    2  A    between atoms: C3_6  and  C4_7 
REMARK    3  A    between atoms: C4_7  and  O2_8 
REMARK    4  A    between atoms: C15_20  and  C16_21 
REMARK    5  A    between atoms: C16_21  and  C18_23 
REMARK    6  A    between atoms: C18_23  and  C19_24 
REMARK    7  A    between atoms: C19_24  and  C20_25 
ROOT
HETATM    1  C3  UNL     1      -4.293  -0.171  -0.309  1.00  0.00     0.058 C 
HETATM    2  C5  UNL     1      -4.769   0.266   1.060  1.00  0.00     0.034 C 
HETATM    3  C6  UNL     1      -3.580  -0.097   1.926  1.00  0.00     0.008 C 
HETATM    4  C7  UNL     1      -2.405   0.421   1.102  1.00  0.00    -0.003 C 
HETATM    5  C8  UNL     1      -2.858   0.205  -0.307  1.00  0.00     0.020 C 
HETATM    6  C9  UNL     1      -1.953  -0.807  -1.027  1.00  0.00     0.008 C 
HETATM    7  C10 UNL     1      -0.570  -0.140  -0.919  1.00  0.00     0.011 C 
HETATM    8  C11 UNL     1      -0.076  -0.420   0.454  1.00  0.00    -0.024 C 
HETATM    9  C12 UNL     1       0.396  -1.858   0.596  1.00  0.00     0.006 C 
HETATM   10  C13 UNL     1       1.285  -2.212  -0.539  1.00  0.00     0.007 C 
HETATM   11  C14 UNL     1       2.392  -1.296  -0.839  1.00  0.00     0.006 C 
HETATM   12  C15 UNL     1       2.282   0.100  -0.267  1.00  0.00    -0.002 C 
HETATM   13  C21 UNL     1       1.245   0.306   0.754  1.00  0.00    -0.031 C 
HETATM   14  C22 UNL     1       0.859   1.743   0.909  1.00  0.00     0.016 C 
HETATM   15  C23 UNL     1       1.646  -0.377   2.031  1.00  0.00     0.023 C 
HETATM   16  C24 UNL     1       1.076  -1.797   1.941  1.00  0.00     0.061 C 
HETATM   17  C25 UNL     1      -0.048  -1.839   2.952  1.00  0.00     0.132 C 
HETATM   18  O4  UNL     1       0.087  -2.238   4.075  1.00  0.00    -0.298 OA
HETATM   19  C26 UNL     1      -1.362  -1.334   2.429  1.00  0.00     0.084 C 
HETATM   20  C27 UNL     1      -1.101  -0.147   1.497  1.00  0.00     0.007 C 
ENDROOT
BRANCH   1  21
HETATM   21  N1  UNL     1      -5.077   0.471  -1.332  1.00  0.00    -0.350 N 
HETATM   22  C2  UNL     1      -5.141   1.867  -1.517  1.00  0.00     0.214 C 
HETATM   23  C1  UNL     1      -5.991   2.438  -2.621  1.00  0.00     0.117 C 
HETATM   24  O1  UNL     1      -4.537   2.717  -0.830  1.00  0.00    -0.274 OA
ATOM     25  H1  UNL     1      -5.619  -0.121  -1.961  1.00  0.00     0.163 HD
ENDBRANCH   1  21
BRANCH   1  26
HETATM   26  C4  UNL     1      -4.513  -1.667  -0.410  1.00  0.00     0.195 C 
BRANCH  26  27
HETATM   27  O2  UNL     1      -4.155  -2.204  -1.619  1.00  0.00    -0.398 OA
ATOM     28  H2  UNL     1      -4.293  -3.142  -1.682  1.00  0.00     0.209 HD
ENDBRANCH  26  27
ENDBRANCH   1  26
BRANCH  12  29
HETATM   29  C16 UNL     1       3.678   0.478   0.071  1.00  0.00    -0.013 C 
HETATM   30  C17 UNL     1       3.981   1.782   0.670  1.00  0.00     0.010 C 
BRANCH  29  31
HETATM   31  C18 UNL     1       4.496   0.404  -1.232  1.00  0.00     0.013 C 
BRANCH  31  32
HETATM   32  C19 UNL     1       5.934   0.771  -1.022  1.00  0.00     0.100 C 
BRANCH  32  33
HETATM   33  C20 UNL     1       6.724   0.686  -2.275  1.00  0.00     0.231 C 
HETATM   34  N2  UNL     1       8.109   0.982  -2.348  1.00  0.00    -0.062 NA
HETATM   35  O3  UNL     1       6.162   0.336  -3.341  1.00  0.00    -0.277 OA
ENDBRANCH  32  33
ENDBRANCH  31  32
ENDBRANCH  29  31
ENDBRANCH  12  29
TORSDOF 7
