REMARK  11 active torsions:
REMARK  status: ('A' for Active; 'I' for Inactive)
REMARK    1  A    between atoms: C2_2  and  C9_12 
REMARK       I    between atoms: N1_3  and  C3_5 
REMARK    2  A    between atoms: C3_5  and  C4_7 
REMARK    3  A    between atoms: C4_7  and  C5_8 
REMARK    4  A    between atoms: C5_8  and  C6_9 
REMARK    5  A    between atoms: C9_12  and  C10_13 
REMARK    6  A    between atoms: C10_13  and  C11_14 
REMARK    7  A    between atoms: N2_24  and  O2_26 
REMARK    8  A    between atoms: O2_26  and  C17_27 
REMARK    9  A    between atoms: C17_27  and  C18_28 
REMARK   10  A    between atoms: C18_28  and  O3_29 
REMARK   11  A    between atoms: C18_28  and  C19_31 
ROOT
HETATM    1  C9  UNL     1      -1.270  -0.589  -0.103  1.00  0.00     0.058 C 
HETATM    2  N2  UNL     1      -1.612  -1.713   0.525  1.00  0.00    -0.269 N 
ATOM      3  H2  UNL     1      -0.859  -2.280   0.914  1.00  0.00     0.194 HD
ENDROOT
BRANCH   1   4
HETATM    4  C2  UNL     1       0.140  -0.339  -0.140  1.00  0.00     0.033 C 
HETATM    5  C1  UNL     1       1.040  -1.378   0.508  1.00  0.00     0.070 C 
HETATM    6  N1  UNL     1       0.729   0.641  -0.647  1.00  0.00    -0.329 N 
HETATM    7  C3  UNL     1       2.063   1.006  -0.755  1.00  0.00     0.222 C 
ATOM      8  H1  UNL     1       0.093   1.316  -1.072  1.00  0.00     0.168 HD
HETATM    9  O1  UNL     1       2.485   1.173  -1.959  1.00  0.00    -0.273 OA
BRANCH   7  10
HETATM   10  C4  UNL     1       3.005   1.212   0.346  1.00  0.00     0.103 C 
BRANCH  10  11
HETATM   11  C5  UNL     1       4.331   1.704  -0.059  1.00  0.00     0.013 C 
BRANCH  11  12
HETATM   12  C6  UNL     1       5.177   0.891  -0.948  1.00  0.00    -0.022 C 
HETATM   13  C7  UNL     1       5.528  -0.473  -0.401  1.00  0.00     0.009 C 
HETATM   14  C8  UNL     1       6.545   1.576  -1.177  1.00  0.00     0.009 C 
ENDBRANCH  11  12
ENDBRANCH  10  11
ENDBRANCH   7  10
ENDBRANCH   1   4
BRANCH   1  15
HETATM   15  C10 UNL     1      -2.352   0.154  -0.669  1.00  0.00     0.104 C 
BRANCH  15  16
HETATM   16  C11 UNL     1      -2.483   1.592  -0.458  1.00  0.00     0.011 A 
HETATM   17  C12 UNL     1      -1.990   2.501  -1.360  1.00  0.00     0.146 A 
HETATM   18  F1  UNL     1      -1.490   2.140  -2.572  1.00  0.00    -0.204 F 
HETATM   19  C13 UNL     1      -2.028   3.879  -1.161  1.00  0.00     0.074 A 
HETATM   20 CL1  UNL     1      -1.380   5.015  -2.344  1.00  0.00    -0.081 Cl
HETATM   21  C14 UNL     1      -2.579   4.386  -0.021  1.00  0.00     0.052 A 
HETATM   22  C15 UNL     1      -3.088   3.481   0.906  1.00  0.00     0.058 A 
HETATM   23 CL2  UNL     1      -3.790   4.179   2.362  1.00  0.00    -0.082 Cl
HETATM   24  C16 UNL     1      -3.051   2.118   0.711  1.00  0.00     0.065 A 
HETATM   25 CL3  UNL     1      -3.724   1.102   1.955  1.00  0.00    -0.082 Cl
ENDBRANCH  15  16
ENDBRANCH   1  15
BRANCH   2  26
HETATM   26  O2  UNL     1      -2.861  -2.158   0.687  1.00  0.00    -0.277 OA
BRANCH  26  27
HETATM   27  C17 UNL     1      -3.328  -3.431   0.337  1.00  0.00     0.242 C 
BRANCH  27  28
HETATM   28  C18 UNL     1      -4.754  -3.676   0.617  1.00  0.00     0.251 C 
BRANCH  28  29
HETATM   29  O3  UNL     1      -5.052  -4.995   0.205  1.00  0.00    -0.384 OA
ATOM     30  H3  UNL     1      -5.971  -5.153   0.385  1.00  0.00     0.210 HD
ENDBRANCH  28  29
BRANCH  28  31
HETATM   31  C19 UNL     1      -5.190  -3.538   2.032  1.00  0.00     0.415 C 
HETATM   32  F2  UNL     1      -6.566  -3.804   2.103  1.00  0.00    -0.168 F 
HETATM   33  F3  UNL     1      -4.605  -4.516   2.815  1.00  0.00    -0.168 F 
HETATM   34  F4  UNL     1      -5.007  -2.312   2.582  1.00  0.00    -0.168 F 
ENDBRANCH  28  31
ENDBRANCH  27  28
ENDBRANCH  26  27
ENDBRANCH   2  26
TORSDOF 11
