REMARK  5 active torsions:
REMARK  status: ('A' for Active; 'I' for Inactive)
REMARK    1  A    between atoms: C3_3  and  N1_4 
REMARK    2  A    between atoms: N1_4  and  C4_5 
REMARK    3  A    between atoms: C4_5  and  C5_6 
REMARK    4  A    between atoms: C7_8  and  O1_9 
REMARK    5  A    between atoms: C8_11  and  O2_12 
ROOT
HETATM    1  C1  UNL     1      -3.948   1.037  -1.895  1.00  0.00     0.013 C 
HETATM    2  C2  UNL     1      -3.372   0.253  -1.192  1.00  0.00    -0.089 C 
HETATM    3  C3  UNL     1      -2.678  -0.715  -0.358  1.00  0.00     0.330 C 
ENDROOT
BRANCH   3   4
HETATM    4  N1  UNL     1      -1.413  -0.131   0.136  1.00  0.00    -0.053 N 
HETATM    5  C9  UNL     1      -1.476   0.232   1.519  1.00  0.00     0.266 A 
HETATM    6  C10 UNL     1      -1.569   1.273   0.435  1.00  0.00     0.266 A 
BRANCH   4   7
HETATM    7  C4  UNL     1      -0.269  -0.650  -0.496  1.00  0.00     0.245 C 
BRANCH   7   8
HETATM    8  C5  UNL     1       1.028  -0.644   0.209  1.00  0.00     0.045 C 
HETATM    9  C6  UNL     1       2.131  -1.264  -0.669  1.00  0.00     0.043 C 
HETATM   10  C7  UNL     1       3.075  -0.284  -0.012  1.00  0.00     0.147 C 
HETATM   11  C8  UNL     1       1.851   0.626   0.175  1.00  0.00     0.152 C 
BRANCH  10  12
HETATM   12  O1  UNL     1       4.042   0.247  -0.850  1.00  0.00    -0.393 OA
ATOM     13  H1  UNL     1       4.636   0.863  -0.437  1.00  0.00     0.210 HD
ENDBRANCH  10  12
BRANCH  11  14
HETATM   14  O2  UNL     1       1.889   1.337   1.371  1.00  0.00    -0.393 OA
ATOM     15  H2  UNL     1       2.406   2.134   1.350  1.00  0.00     0.210 HD
ENDBRANCH  11  14
ENDBRANCH   7   8
ENDBRANCH   4   7
ENDBRANCH   3   4
TORSDOF 5
