REMARK  5 active torsions:
REMARK  status: ('A' for Active; 'I' for Inactive)
REMARK    1  A    between atoms: N1_2  and  C3_4 
REMARK    2  A    between atoms: C3_4  and  C4_5 
REMARK    3  A    between atoms: C4_5  and  N2_6 
REMARK       I    between atoms: N2_6  and  C5_8 
REMARK       I    between atoms: C5_8  and  N5_13 
REMARK    4  A    between atoms: N5_13  and  C7_15 
REMARK    5  A    between atoms: C8_16  and  N6_17 
ROOT
HETATM    1  N2  UNL     1       0.507   0.352   0.020  1.00  0.00    -0.223 N 
ATOM      2  H2  UNL     1       0.607   1.248  -0.458  1.00  0.00     0.177 HD
HETATM    3  C5  UNL     1       1.225  -0.782  -0.466  1.00  0.00     0.694 C 
HETATM    4  N3  UNL     1       0.648  -1.774  -1.069  1.00  0.00    -0.126 N 
ATOM      5  H3  UNL     1      -0.362  -1.753  -1.208  1.00  0.00     0.197 HD
HETATM    6  C6  UNL     1       1.378  -2.871  -1.533  1.00  0.00     0.196 C 
HETATM    7  N4  UNL     1       1.966  -3.800  -1.918  1.00  0.00    -0.171 NA
HETATM    8  N5  UNL     1       2.638  -0.880  -0.306  1.00  0.00    -0.146 N 
ATOM      9  H5  UNL     1       3.060  -1.800  -0.181  1.00  0.00     0.195 HD
ENDROOT
BRANCH   1  10
HETATM   10  C4  UNL     1      -0.360   0.260   1.176  1.00  0.00     0.168 C 
BRANCH  10  11
HETATM   11  C3  UNL     1      -1.594  -0.545   0.930  1.00  0.00     0.291 C 
BRANCH  11  12
HETATM   12  N1  UNL     1      -2.448  -0.009  -0.098  1.00  0.00     0.081 N 
HETATM   13  C1  UNL     1      -3.606  -0.861  -0.335  1.00  0.00     0.309 C 
HETATM   14  C2  UNL     1      -2.883   1.344   0.193  1.00  0.00     0.309 C 
ENDBRANCH  11  12
ENDBRANCH  10  11
ENDBRANCH   1  10
BRANCH   8  15
HETATM   15  C7  UNL     1       3.463   0.249  -0.316  1.00  0.00     0.048 C 
HETATM   16  C8  UNL     1       4.188   1.230  -0.314  1.00  0.00     0.027 C 
BRANCH  16  17
HETATM   17  N6  UNL     1       5.030   2.354  -0.310  1.00  0.00    -0.358 N 
ATOM     18  H62 UNL     1       4.706   1.388  -0.253  1.00  0.00     0.166 HD
ATOM     19  H61 UNL     1       5.636   3.174  -0.308  1.00  0.00     0.166 HD
ENDBRANCH  16  17
ENDBRANCH   8  15
TORSDOF 5
