REMARK  3 active torsions:
REMARK  status: ('A' for Active; 'I' for Inactive)
REMARK    1  A    between atoms: O1_1  and  C1_3 
REMARK    2  A    between atoms: C1_3  and  C2_4 
REMARK    3  A    between atoms: C2_4  and  N1_5 
ROOT
HETATM    1  N1  UNL     1       0.621  -0.304  -0.247  1.00  0.00     0.109 N 
HETATM    2  C3  UNL     1       0.141   0.646   0.747  1.00  0.00     0.224 C 
HETATM    3  C4  UNL     1      -1.352   0.580   0.921  1.00  0.00     0.036 C 
HETATM    4  C5  UNL     1      -1.895  -0.812   1.025  1.00  0.00     0.003 C 
HETATM    5  C6  UNL     1      -2.901  -1.005  -0.094  1.00  0.00     0.010 C 
HETATM    6  C7  UNL     1      -2.101  -1.585  -1.265  1.00  0.00     0.076 C 
HETATM    7  S1  UNL     1      -1.304  -0.285  -2.187  1.00  0.00    -0.134 SA
HETATM    8  C8  UNL     1       0.221   0.315  -1.514  1.00  0.00     0.284 C 
HETATM    9  C9  UNL     1       0.191   1.806  -1.281  1.00  0.00     0.049 C 
HETATM   10  C10 UNL     1       0.466   2.020   0.191  1.00  0.00     0.038 C 
ENDROOT
BRANCH   1  11
HETATM   11  C2  UNL     1       2.064  -0.283  -0.242  1.00  0.00     0.300 C 
BRANCH  11  12
HETATM   12  C1  UNL     1       2.693  -0.837   1.002  1.00  0.00     0.194 C 
BRANCH  12  13
HETATM   13  O1  UNL     1       4.091  -0.723   0.797  1.00  0.00    -0.399 OA
ATOM     14  H1  UNL     1       4.489  -1.074   1.585  1.00  0.00     0.209 HD
ENDBRANCH  12  13
ENDBRANCH  11  12
ENDBRANCH   1  11
TORSDOF 3
