REMARK  7 active torsions:
REMARK  status: ('A' for Active; 'I' for Inactive)
REMARK    1  A    between atoms: O1_2  and  C2_3 
REMARK    2  A    between atoms: C2_3  and  C3_4 
REMARK    3  A    between atoms: C3_4  and  N1_5 
REMARK    4  A    between atoms: C4_6  and  O2_7 
REMARK    5  A    between atoms: C5_9  and  O3_10 
REMARK    6  A    between atoms: C6_12  and  O4_13 
REMARK    7  A    between atoms: C7_15  and  O5_16 
ROOT
HETATM    1  N1  UNL     1      -0.176  -0.441   0.308  1.00  0.00     0.153 N 
HETATM    2  C4  UNL     1      -0.966   0.116   1.388  1.00  0.00     0.391 C 
HETATM    3  C5  UNL     1      -2.354  -0.432   1.101  1.00  0.00     0.210 C 
HETATM    4  C6  UNL     1      -2.403  -0.556  -0.406  1.00  0.00     0.210 C 
HETATM    5  C7  UNL     1      -0.984  -0.282  -0.882  1.00  0.00     0.391 C 
ENDROOT
BRANCH   1   6
HETATM    6  C3  UNL     1       1.112   0.210   0.197  1.00  0.00     0.305 C 
BRANCH   6   7
HETATM    7  C2  UNL     1       1.857  -0.420  -0.933  1.00  0.00     0.197 C 
BRANCH   7   8
HETATM    8  O1  UNL     1       3.109   0.101  -1.158  1.00  0.00    -0.394 OA
HETATM    9  C1  UNL     1       3.971  -0.008  -0.094  1.00  0.00     0.201 C 
ENDBRANCH   7   8
ENDBRANCH   6   7
ENDBRANCH   1   6
BRANCH   2  10
HETATM   10  O2  UNL     1      -0.973   1.496   1.330  1.00  0.00    -0.366 OA
ATOM     11  H2  UNL     1      -1.491   1.861   2.038  1.00  0.00     0.212 HD
ENDBRANCH   2  10
BRANCH   5  12
HETATM   12  O5  UNL     1      -0.924   1.031  -1.328  1.00  0.00    -0.366 OA
ATOM     13  H5  UNL     1      -1.454   1.135  -2.109  1.00  0.00     0.212 HD
ENDBRANCH   5  12
BRANCH   3  14
HETATM   14  O3  UNL     1      -3.332   0.434   1.584  1.00  0.00    -0.388 OA
ATOM     15  H3  UNL     1      -4.200   0.091   1.405  1.00  0.00     0.210 HD
ENDBRANCH   3  14
BRANCH   4  16
HETATM   16  O4  UNL     1      -3.299   0.402  -0.868  1.00  0.00    -0.388 OA
ATOM     17  H4  UNL     1      -3.330   0.324  -1.814  1.00  0.00     0.210 HD
ENDBRANCH   4  16
TORSDOF 7
