REMARK  10 active torsions:
REMARK  status: ('A' for Active; 'I' for Inactive)
REMARK    1  A    between atoms: C1_2  and  C2_3 
REMARK    2  A    between atoms: C2_3  and  C3_4 
REMARK    3  A    between atoms: C3_4  and  C4_5 
REMARK    4  A    between atoms: C4_5  and  C5_6 
REMARK    5  A    between atoms: C5_6  and  C6_7 
REMARK    6  A    between atoms: C9_10  and  N1_11 
REMARK    7  A    between atoms: C12_14  and  C13_15 
REMARK    8  A    between atoms: C13_15  and  N2_16 
REMARK    9  A    between atoms: N2_16  and  C14_19 
REMARK   10  A    between atoms: C14_19  and  C15_20 
ROOT
HETATM    1  C6  UNL     1      -4.666  -1.072   0.115  1.00  0.00     0.008 A 
HETATM    2  C7  UNL     1      -3.310  -1.151   0.155  1.00  0.00     0.037 A 
HETATM    3  C8  UNL     1      -2.741  -2.354  -0.016  1.00  0.00     0.043 A 
HETATM    4  C9  UNL     1      -1.374  -2.686  -0.045  1.00  0.00     0.117 A 
HETATM    5  N3  UNL     1      -1.041  -3.988  -0.254  1.00  0.00    -0.338 N 
ATOM      6  H3  UNL     1      -0.047  -4.215  -0.271  1.00  0.00     0.168 HD
HETATM    7  C23 UNL     1      -1.884  -4.983  -0.436  1.00  0.00     0.182 A 
HETATM    8  N4  UNL     1      -3.188  -4.693  -0.418  1.00  0.00    -0.346 N 
ATOM      9  H4  UNL     1      -3.875  -5.435  -0.555  1.00  0.00     0.167 HD
HETATM   10  C24 UNL     1      -3.603  -3.417  -0.218  1.00  0.00     0.089 A 
HETATM   11  S1  UNL     1      -5.135  -2.679  -0.161  1.00  0.00    -0.072 SA
ENDROOT
BRANCH   4  12
HETATM   12  N1  UNL     1      -0.292  -1.811   0.036  1.00  0.00    -0.366 N 
HETATM   13  C10 UNL     1      -0.135  -0.662  -0.836  1.00  0.00     0.125 C 
HETATM   14  C11 UNL     1       1.016   0.165  -0.287  1.00  0.00     0.026 C 
HETATM   15  C12 UNL     1       2.360  -0.585  -0.386  1.00  0.00     0.014 C 
HETATM   16  C21 UNL     1       2.097  -1.991   0.143  1.00  0.00     0.026 C 
HETATM   17  C22 UNL     1       0.797  -2.018   0.962  1.00  0.00     0.125 C 
BRANCH  15  18
HETATM   18  C13 UNL     1       3.246   0.129   0.558  1.00  0.00     0.237 C 
BRANCH  18  19
HETATM   19  N2  UNL     1       4.618  -0.226   0.672  1.00  0.00    -0.071 N 
ATOM     20  H22 UNL     1       5.058   0.193   1.491  1.00  0.00     0.277 HD
ATOM     21  H21 UNL     1       4.743  -1.206   0.925  1.00  0.00     0.277 HD
BRANCH  19  22
HETATM   22  C14 UNL     1       5.324   0.123  -0.582  1.00  0.00     0.270 C 
BRANCH  22  23
HETATM   23  C15 UNL     1       6.369   1.124  -0.254  1.00  0.00    -0.033 A 
HETATM   24  C16 UNL     1       6.147   2.439  -0.749  1.00  0.00     0.009 A 
HETATM   25  C17 UNL     1       6.997   3.461  -0.473  1.00  0.00     0.001 A 
HETATM   26  C18 UNL     1       8.098   3.184   0.313  1.00  0.00     0.000 A 
HETATM   27  C19 UNL     1       8.331   1.927   0.794  1.00  0.00     0.001 A 
HETATM   28  C20 UNL     1       7.450   0.879   0.504  1.00  0.00     0.009 A 
ENDBRANCH  22  23
ENDBRANCH  19  22
ENDBRANCH  18  19
ENDBRANCH  15  18
ENDBRANCH   4  12
BRANCH   1  29
HETATM   29  C5  UNL     1      -5.564   0.096   0.325  1.00  0.00     0.018 C 
BRANCH  29  30
HETATM   30  C4  UNL     1      -6.821   0.023  -0.000  1.00  0.00    -0.003 C 
BRANCH  30  31
HETATM   31  C3  UNL     1      -7.896   0.967   0.094  1.00  0.00    -0.026 C 
BRANCH  31  32
HETATM   32  C2  UNL     1      -7.750   2.299   0.690  1.00  0.00     0.042 C 
BRANCH  32  33
HETATM   33  C1  UNL     1      -6.833   3.277   0.050  1.00  0.00     0.118 C 
HETATM   34 CL1  UNL     1      -7.280   3.643  -1.654  1.00  0.00    -0.130 Cl
ENDBRANCH  32  33
ENDBRANCH  31  32
ENDBRANCH  30  31
ENDBRANCH  29  30
ENDBRANCH   1  29
TORSDOF 10
