REMARK  7 active torsions:
REMARK  status: ('A' for Active; 'I' for Inactive)
REMARK    1  A    between atoms: O1_2  and  C2_3 
REMARK    2  A    between atoms: C4_5  and  C5_6 
REMARK       I    between atoms: C5_6  and  N1_8 
REMARK    3  A    between atoms: N1_8  and  C6_10 
REMARK    4  A    between atoms: C6_10  and  C7_11 
REMARK       I    between atoms: C7_11  and  N2_13 
REMARK    5  A    between atoms: N2_13  and  S1_15 
REMARK    6  A    between atoms: S1_15  and  C8_18 
REMARK    7  A    between atoms: C14_25  and  O6_26 
ROOT
HETATM    1  C5  UNL     1      -0.429   0.507  -0.592  1.00  0.00     0.227 C 
HETATM    2  O2  UNL     1      -1.043   0.833  -1.632  1.00  0.00    -0.273 OA
HETATM    3  N1  UNL     1      -1.169  -0.044   0.469  1.00  0.00    -0.340 N 
ATOM      4  H1  UNL     1      -0.668  -0.320   1.314  1.00  0.00     0.163 HD
ENDROOT
BRANCH   1   5
HETATM    5  C4  UNL     1       1.077   0.705  -0.480  1.00  0.00     0.107 C 
HETATM    6  C3  UNL     1       1.625   1.314  -1.671  1.00  0.00     0.026 C 
HETATM    7  C2  UNL     1       2.789   1.693  -2.095  1.00  0.00     0.082 C 
HETATM    8  C24 UNL     1       4.115   1.660  -1.506  1.00  0.00     0.040 C 
HETATM    9  C23 UNL     1       4.803   0.689  -0.993  1.00  0.00    -0.004 C 
HETATM   10 BR1  UNL     1       5.054   3.394  -1.540  1.00  0.00    -0.048 Br
HETATM   11  C22 UNL     1       4.488  -0.736  -0.826  1.00  0.00     0.038 C 
HETATM   12  C20 UNL     1       4.904  -1.276   0.517  1.00  0.00     0.030 C 
HETATM   13  C19 UNL     1       4.066  -0.962   1.652  1.00  0.00    -0.016 C 
HETATM   14  C21 UNL     1       4.911  -2.805   0.347  1.00  0.00     0.016 C 
HETATM   15  C18 UNL     1       3.498   0.401   1.977  1.00  0.00     0.052 C 
HETATM   16  N3  UNL     1       3.726  -1.867   2.525  1.00  0.00    -0.405 N 
HETATM   17  C17 UNL     1       2.031   0.323   1.804  1.00  0.00     0.011 C 
HETATM   18  C15 UNL     1       1.386   1.309   0.868  1.00  0.00    -0.002 C 
HETATM   19  C16 UNL     1       1.950   2.680   0.859  1.00  0.00     0.011 C 
ATOM     20  H32 UNL     1       3.135  -1.645   3.326  1.00  0.00     0.155 HD
ATOM     21  H31 UNL     1       4.109  -2.787   2.306  1.00  0.00     0.155 HD
BRANCH   7  22
HETATM   22  O1  UNL     1       2.829   2.279  -3.429  1.00  0.00    -0.355 OA
HETATM   23  C1  UNL     1       2.908   1.373  -4.519  1.00  0.00     0.210 C 
ENDBRANCH   7  22
ENDBRANCH   1   5
BRANCH   3  24
HETATM   24  C6  UNL     1      -2.610  -0.243   0.429  1.00  0.00     0.141 C 
HETATM   25  C9  UNL     1      -3.083  -0.991   1.645  1.00  0.00     0.052 C 
HETATM   26  C10 UNL     1      -3.534  -2.346   1.204  1.00  0.00    -0.043 C 
HETATM   27  C11 UNL     1      -2.453  -3.394   1.376  1.00  0.00     0.015 C 
HETATM   28  C12 UNL     1      -4.734  -2.827   2.023  1.00  0.00     0.015 C 
HETATM   29  C13 UNL     1      -3.891  -2.162  -0.240  1.00  0.00     0.043 C 
HETATM   30  C14 UNL     1      -2.976  -1.075  -0.733  1.00  0.00     0.156 C 
BRANCH  24  31
HETATM   31  C7  UNL     1      -3.259   1.090   0.323  1.00  0.00     0.262 C 
HETATM   32  O3  UNL     1      -2.546   2.120   0.346  1.00  0.00    -0.270 OA
HETATM   33  N2  UNL     1      -4.655   1.282   0.197  1.00  0.00    -0.251 N 
ATOM     34  H2  UNL     1      -5.268   0.467   0.170  1.00  0.00     0.181 HD
BRANCH  33  35
HETATM   35  S1  UNL     1      -5.349   2.857   0.088  1.00  0.00     0.245 S 
HETATM   36  O4  UNL     1      -6.835   2.751  -0.116  1.00  0.00    -0.204 OA
HETATM   37  O5  UNL     1      -5.097   3.600   1.378  1.00  0.00    -0.204 OA
BRANCH  35  38
HETATM   38  C8  UNL     1      -4.624   3.713  -1.279  1.00  0.00     0.277 C 
HETATM   39 CL1  UNL     1      -4.897   2.906  -2.822  1.00  0.00    -0.113 Cl
ENDBRANCH  35  38
ENDBRANCH  33  35
ENDBRANCH  24  31
BRANCH  30  40
HETATM   40  O6  UNL     1      -3.666  -0.344  -1.711  1.00  0.00    -0.393 OA
ATOM     41  H6  UNL     1      -3.902  -0.880  -2.459  1.00  0.00     0.210 HD
ENDBRANCH  30  40
ENDBRANCH   3  24
TORSDOF 7
