REMARK  6 active torsions:
REMARK  status: ('A' for Active; 'I' for Inactive)
REMARK    1  A    between atoms: S1_2  and  C2_3 
REMARK    2  A    between atoms: C3_6  and  N2_7 
REMARK    3  A    between atoms: C4_12  and  N4_13 
REMARK    4  A    between atoms: N4_13  and  C5_15 
REMARK    5  A    between atoms: C5_15  and  N5_16 
REMARK    6  A    between atoms: N5_16  and  N6_17 
ROOT
HETATM    1  C2  UNL     1      -2.159  -0.763  -0.519  1.00  0.00     0.174 A 
HETATM    2  N1  UNL     1      -1.784  -1.950  -0.018  1.00  0.00    -0.170 N 
ATOM      3  H1  UNL     1      -2.487  -2.673   0.134  1.00  0.00     0.186 HD
HETATM    4  C3  UNL     1      -0.481  -2.210   0.292  1.00  0.00     0.692 A 
HETATM    5  N3  UNL     1       0.411  -1.218   0.070  1.00  0.00    -0.023 N 
ATOM      6  H3  UNL     1       1.391  -1.392   0.295  1.00  0.00     0.203 HD
HETATM    7  C4  UNL     1       0.081  -0.021  -0.428  1.00  0.00     0.695 A 
HETATM    8  N7  UNL     1      -1.238   0.179  -0.718  1.00  0.00    -0.169 N 
ATOM      9  H7  UNL     1      -1.528   1.079  -1.100  1.00  0.00     0.186 HD
ENDROOT
BRANCH   7  10
HETATM   10  N4  UNL     1       0.943   0.927  -0.638  1.00  0.00    -0.210 N 
ATOM     11  H4  UNL     1       0.637   1.822  -1.019  1.00  0.00     0.179 HD
BRANCH  10  12
HETATM   12  C5  UNL     1       2.328   0.709  -0.331  1.00  0.00     0.273 C 
BRANCH  12  13
HETATM   13  N5  UNL     1       3.025   1.963  -0.518  1.00  0.00    -0.128 NA
BRANCH  13  14
HETATM   14  N6  UNL     1       4.385   1.872  -0.247  1.00  0.00    -0.347 N 
ATOM     15  H62 UNL     1       4.830   1.004   0.052  1.00  0.00     0.172 HD
ATOM     16  H61 UNL     1       4.876   2.756  -0.379  1.00  0.00     0.172 HD
ENDBRANCH  13  14
ENDBRANCH  12  13
ENDBRANCH  10  12
ENDBRANCH   7  10
BRANCH   4  17
HETATM   17  N2  UNL     1      -0.134  -3.355   0.773  1.00  0.00    -0.234 N 
ATOM     18  H22 UNL     1      -0.807  -4.103   0.940  1.00  0.00     0.174 HD
ATOM     19  H21 UNL     1       0.840  -3.549   1.005  1.00  0.00     0.174 HD
ENDBRANCH   4  17
BRANCH   1  20
HETATM   20  S1  UNL     1      -3.875  -0.469  -0.909  1.00  0.00    -0.097 SA
HETATM   21  C1  UNL     1      -4.689   0.214   0.552  1.00  0.00     0.099 C 
ENDBRANCH   1  20
TORSDOF 6
