REMARK  7 active torsions:
REMARK  status: ('A' for Active; 'I' for Inactive)
REMARK    1  A    between atoms: C2_2  and  C3_3 
REMARK    2  A    between atoms: C3_3  and  C4_4 
REMARK       I    between atoms: C4_4  and  N1_6 
REMARK    3  A    between atoms: C7_9  and  C8_10 
REMARK    4  A    between atoms: C7_9  and  C12_14 
REMARK    5  A    between atoms: C8_10  and  C9_11 
REMARK    6  A    between atoms: N3_20  and  C15_21 
REMARK    7  A    between atoms: C15_21  and  C16_22 
ROOT
HETATM    1  C4  UNL     1      -3.952   1.382   0.342  1.00  0.00     0.219 C 
HETATM    2  O1  UNL     1      -4.629   1.485   1.430  1.00  0.00    -0.273 OA
HETATM    3  N1  UNL     1      -2.828   0.536   0.326  1.00  0.00    -0.350 N 
HETATM    4  C5  UNL     1      -2.035   0.260  -0.815  1.00  0.00     0.127 C 
HETATM    5  C6  UNL     1      -1.544  -1.180  -0.926  1.00  0.00     0.039 C 
HETATM    6  C7  UNL     1      -0.835  -1.604   0.354  1.00  0.00     0.043 C 
HETATM    7  C20 UNL     1      -1.874  -1.422   1.425  1.00  0.00     0.064 C 
HETATM    8  C21 UNL     1      -1.500  -1.940   2.791  1.00  0.00     0.035 C 
HETATM    9 CL1  UNL     1      -3.262  -2.462   0.873  1.00  0.00    -0.117 Cl
HETATM   10  C22 UNL     1      -2.391  -0.059   1.605  1.00  0.00     0.152 C 
ENDROOT
BRANCH   6  11
HETATM   11  C8  UNL     1      -0.509  -3.056   0.257  1.00  0.00     0.023 C 
BRANCH  11  12
HETATM   12  C9  UNL     1       0.334  -3.584  -0.820  1.00  0.00    -0.021 C 
HETATM   13  C10 UNL     1       0.463  -5.122  -0.505  1.00  0.00     0.009 C 
HETATM   14  C11 UNL     1      -0.260  -3.614  -2.227  1.00  0.00     0.009 C 
ENDBRANCH  11  12
ENDBRANCH   6  11
BRANCH   6  15
HETATM   15  C12 UNL     1       0.337  -0.723   0.480  1.00  0.00     0.094 A 
HETATM   16  N2  UNL     1       1.201  -0.427  -0.538  1.00  0.00    -0.338 N 
HETATM   17  C13 UNL     1       2.139   0.404  -0.115  1.00  0.00     0.147 A 
ATOM     18  H2  UNL     1       1.132  -0.794  -1.487  1.00  0.00     0.167 HD
HETATM   19  C14 UNL     1       3.244   1.035  -0.701  1.00  0.00     0.282 A 
HETATM   20  C19 UNL     1       1.891   0.667   1.217  1.00  0.00     0.143 A 
HETATM   21  O2  UNL     1       3.436   0.764  -1.903  1.00  0.00    -0.265 OA
HETATM   22  N3  UNL     1       4.007   1.862   0.027  1.00  0.00    -0.264 N 
HETATM   23  C18 UNL     1       3.747   2.107   1.322  1.00  0.00     0.331 A 
HETATM   24  O3  UNL     1       4.484   2.893   2.004  1.00  0.00    -0.246 OA
HETATM   25  N4  UNL     1       2.696   1.513   1.916  1.00  0.00    -0.292 N 
ATOM     26  H4  UNL     1       2.501   1.699   2.900  1.00  0.00     0.172 HD
HETATM   27  N5  UNL     1       0.792  -0.036   1.539  1.00  0.00    -0.329 N 
ATOM     28  H5  UNL     1       0.362  -0.046   2.464  1.00  0.00     0.168 HD
BRANCH  22  29
HETATM   29  C15 UNL     1       5.149   2.469  -0.602  1.00  0.00     0.137 C 
BRANCH  29  30
HETATM   30  C16 UNL     1       6.421   1.664  -0.398  1.00  0.00     0.016 C 
HETATM   31  C17 UNL     1       7.531   2.396  -1.113  1.00  0.00     0.006 C 
ENDBRANCH  29  30
ENDBRANCH  22  29
ENDBRANCH   6  15
BRANCH   1  32
HETATM   32  C3  UNL     1      -4.395   2.165  -0.803  1.00  0.00     0.103 C 
BRANCH  32  33
HETATM   33  C2  UNL     1      -5.722   2.871  -0.506  1.00  0.00     0.005 C 
HETATM   34  C1  UNL     1      -6.170   3.734  -1.648  1.00  0.00     0.005 C 
ENDBRANCH  32  33
ENDBRANCH   1  32
TORSDOF 7
