REMARK  8 active torsions:
REMARK  status: ('A' for Active; 'I' for Inactive)
REMARK    1  A    between atoms: O1_2  and  C2_3 
REMARK    2  A    between atoms: N1_8  and  C6_9 
REMARK    3  A    between atoms: C6_9  and  C7_10 
REMARK       I    between atoms: C7_10  and  N2_12 
REMARK    4  A    between atoms: N2_12  and  C8_14 
REMARK    5  A    between atoms: C8_14  and  C9_15 
REMARK    6  A    between atoms: C8_14  and  C13_19 
REMARK    7  A    between atoms: C9_15  and  C10_16 
REMARK       I    between atoms: C13_19  and  N3_21 
REMARK    8  A    between atoms: N3_21  and  C14_23 
ROOT
HETATM    1  C2  UNL     1       5.321  -1.344   0.449  1.00  0.00     0.125 A 
HETATM    2  C3  UNL     1       5.666  -0.012   0.536  1.00  0.00     0.069 A 
HETATM    3 BR1  UNL     1       7.195   0.765   1.386  1.00  0.00    -0.046 Br
HETATM    4  C4  UNL     1       4.666   0.670  -0.128  1.00  0.00     0.029 A 
HETATM    5  C5  UNL     1       4.634   2.139  -0.281  1.00  0.00     0.070 C 
HETATM    6  N1  UNL     1       3.750  -0.202  -0.600  1.00  0.00    -0.330 N 
HETATM    7  C18 UNL     1       4.139  -1.442  -0.254  1.00  0.00     0.152 A 
HETATM    8  C19 UNL     1       3.507  -2.704  -0.520  1.00  0.00     0.121 C 
HETATM    9  N4  UNL     1       2.993  -3.709  -0.748  1.00  0.00    -0.190 NA
ENDROOT
BRANCH   1  10
HETATM   10  O1  UNL     1       6.104  -2.348   1.012  1.00  0.00    -0.352 OA
HETATM   11  C1  UNL     1       7.137  -2.968   0.276  1.00  0.00     0.210 C 
ENDBRANCH   1  10
BRANCH   6  12
HETATM   12  C6  UNL     1       2.556   0.122  -1.349  1.00  0.00     0.232 C 
BRANCH  12  13
HETATM   13  C7  UNL     1       1.388   0.355  -0.502  1.00  0.00     0.236 C 
HETATM   14  O2  UNL     1       1.494   0.258   0.740  1.00  0.00    -0.272 OA
HETATM   15  N2  UNL     1       0.118   0.690  -1.006  1.00  0.00    -0.346 N 
ATOM     16  H2  UNL     1       0.001   0.776  -2.016  1.00  0.00     0.163 HD
BRANCH  15  17
HETATM   17  C8  UNL     1      -1.059   0.924  -0.134  1.00  0.00     0.177 C 
BRANCH  17  18
HETATM   18  C9  UNL     1      -1.474   2.331  -0.301  1.00  0.00     0.038 C 
BRANCH  18  19
HETATM   19  C10 UNL     1      -2.633   2.848   0.462  1.00  0.00    -0.020 C 
HETATM   20  C11 UNL     1      -2.816   4.358   0.129  1.00  0.00     0.009 C 
HETATM   21  C12 UNL     1      -3.973   2.249   0.104  1.00  0.00     0.009 C 
ENDBRANCH  18  19
ENDBRANCH  17  18
BRANCH  17  22
HETATM   22  C13 UNL     1      -2.002  -0.134  -0.484  1.00  0.00     0.241 C 
HETATM   23  O3  UNL     1      -2.101  -0.510  -1.668  1.00  0.00    -0.271 OA
HETATM   24  N3  UNL     1      -2.804  -0.750   0.496  1.00  0.00    -0.351 N 
ATOM     25  H3  UNL     1      -2.717  -0.431   1.461  1.00  0.00     0.163 HD
BRANCH  24  26
HETATM   26  C14 UNL     1      -3.745  -1.812   0.208  1.00  0.00     0.022 C 
HETATM   27  C15 UNL     1      -4.436  -2.242   1.481  1.00  0.00     0.037 C 
HETATM   28  C16 UNL     1      -4.768  -1.430  -0.844  1.00  0.00     0.037 C 
HETATM   29  C17 UNL     1      -2.992  -3.041  -0.318  1.00  0.00     0.037 C 
ENDBRANCH  24  26
ENDBRANCH  17  22
ENDBRANCH  15  17
ENDBRANCH  12  13
ENDBRANCH   6  12
TORSDOF 8
