REMARK  17 active torsions:
REMARK  status: ('A' for Active; 'I' for Inactive)
REMARK    1  A    between atoms: C2_2  and  C4_4 
REMARK    2  A    between atoms: C4_4  and  C5_5 
REMARK    3  A    between atoms: C5_5  and  C6_6 
REMARK    4  A    between atoms: C6_6  and  C7_7 
REMARK    5  A    between atoms: C7_7  and  C9_9 
REMARK    6  A    between atoms: C9_9  and  C10_10 
REMARK    7  A    between atoms: C10_10  and  C11_11 
REMARK    8  A    between atoms: C12_12  and  C14_14 
REMARK    9  A    between atoms: C15_15  and  C16_16 
REMARK   10  A    between atoms: C22_23  and  O2_24 
REMARK   11  A    between atoms: C24_28  and  O4_29 
REMARK   12  A    between atoms: C25_31  and  O5_32 
REMARK   13  A    between atoms: S1_35  and  C26_36 
REMARK   14  A    between atoms: C26_36  and  C27_37 
REMARK   15  A    between atoms: C27_37  and  O7_38 
REMARK   16  A    between atoms: C29_41  and  O8_42 
REMARK   17  A    between atoms: C30_44  and  O9_45 
ROOT
HETATM    1  C16 UNL     1      -1.382  -2.835  -0.777  1.00  0.00     0.092 C 
HETATM    2  C17 UNL     1      -0.869  -3.759   0.246  1.00  0.00     0.136 C 
HETATM    3  O1  UNL     1      -0.186  -4.733   0.076  1.00  0.00    -0.297 OA
HETATM    4  C18 UNL     1      -1.365  -3.259   1.590  1.00  0.00     0.089 C 
HETATM    5  C19 UNL     1      -2.766  -2.859   1.144  1.00  0.00     0.038 C 
HETATM    6  C20 UNL     1      -3.548  -2.157   2.165  1.00  0.00    -0.052 C 
HETATM    7  C21 UNL     1      -3.048  -2.216   3.384  1.00  0.00     0.017 C 
HETATM    8  C22 UNL     1      -4.808  -1.363   2.169  1.00  0.00     0.187 C 
HETATM    9  C23 UNL     1      -5.740  -1.686   1.027  1.00  0.00     0.235 C 
HETATM   10  O3  UNL     1      -5.359  -2.865   0.441  1.00  0.00    -0.336 OA
HETATM   11  C24 UNL     1      -4.805  -2.746  -0.804  1.00  0.00     0.323 C 
HETATM   12  C25 UNL     1      -3.676  -1.798  -0.947  1.00  0.00     0.233 C 
HETATM   13  O6  UNL     1      -4.061  -0.458  -0.811  1.00  0.00    -0.284 OA
HETATM   14  S1  UNL     1      -5.616  -0.421  -0.229  1.00  0.00    -0.047 SA
HETATM   15  C31 UNL     1      -2.488  -2.043  -0.066  1.00  0.00     0.040 C 
HETATM   16  C32 UNL     1      -1.894  -0.725   0.340  1.00  0.00     0.023 C 
ENDROOT
BRANCH   1  17
HETATM   17  C15 UNL     1      -0.320  -1.906  -1.222  1.00  0.00    -0.013 C 
HETATM   18  C14 UNL     1       0.903  -2.023  -0.793  1.00  0.00     0.003 C 
BRANCH  18  19
HETATM   19  C12 UNL     1       1.988  -1.120  -1.212  1.00  0.00    -0.066 C 
HETATM   20  C11 UNL     1       3.198  -1.313  -0.729  1.00  0.00    -0.020 C 
HETATM   21  C13 UNL     1       1.793   0.010  -2.148  1.00  0.00     0.048 C 
BRANCH  20  22
HETATM   22  C10 UNL     1       4.343  -0.457  -1.081  1.00  0.00     0.028 C 
BRANCH  22  23
HETATM   23  C9  UNL     1       4.951   0.180   0.156  1.00  0.00     0.008 C 
BRANCH  23  24
HETATM   24  C7  UNL     1       6.119   1.067  -0.141  1.00  0.00    -0.018 C 
HETATM   25  C8  UNL     1       5.720   2.352  -0.837  1.00  0.00     0.010 C 
BRANCH  24  26
HETATM   26  C6  UNL     1       7.247   0.358  -0.814  1.00  0.00     0.004 C 
BRANCH  26  27
HETATM   27  C5  UNL     1       8.503   1.151  -0.901  1.00  0.00     0.005 C 
BRANCH  27  28
HETATM   28  C4  UNL     1       9.056   1.545   0.432  1.00  0.00     0.033 C 
BRANCH  28  29
HETATM   29  C2  UNL     1      10.313   2.334   0.269  1.00  0.00    -0.093 C 
HETATM   30  C1  UNL     1      10.832   2.621  -0.906  1.00  0.00     0.014 C 
HETATM   31  C3  UNL     1      10.989   2.811   1.506  1.00  0.00     0.042 C 
ENDBRANCH  28  29
ENDBRANCH  27  28
ENDBRANCH  26  27
ENDBRANCH  24  26
ENDBRANCH  23  24
ENDBRANCH  22  23
ENDBRANCH  20  22
ENDBRANCH  18  19
ENDBRANCH   1  17
BRANCH  12  32
HETATM   32  O5  UNL     1      -3.214  -1.906  -2.281  1.00  0.00    -0.360 OA
ATOM     33  H5  UNL     1      -2.490  -1.298  -2.373  1.00  0.00     0.213 HD
ENDBRANCH  12  32
BRANCH  11  34
HETATM   34  O4  UNL     1      -4.417  -3.998  -1.264  1.00  0.00    -0.366 OA
ATOM     35  H4  UNL     1      -4.032  -3.915  -2.129  1.00  0.00     0.212 HD
ENDBRANCH  11  34
BRANCH   8  36
HETATM   36  O2  UNL     1      -5.459  -1.683   3.386  1.00  0.00    -0.388 OA
ATOM     37  H2  UNL     1      -6.263  -1.177   3.389  1.00  0.00     0.210 HD
ENDBRANCH   8  36
BRANCH  14  38
HETATM   38  C26 UNL     1      -6.038   1.140   0.506  1.00  0.00     0.163 C 
BRANCH  38  39
HETATM   39  C27 UNL     1      -5.962   2.264  -0.481  1.00  0.00     0.177 C 
HETATM   40  C28 UNL     1      -6.909   2.092  -1.636  1.00  0.00     0.106 C 
HETATM   41  C29 UNL     1      -8.195   2.642  -1.068  1.00  0.00     0.178 C 
HETATM   42  C30 UNL     1      -7.750   3.334   0.183  1.00  0.00     0.289 C 
HETATM   43  O10 UNL     1      -6.378   3.432   0.082  1.00  0.00    -0.322 OA
BRANCH  39  44
HETATM   44  O7  UNL     1      -4.652   2.327  -0.968  1.00  0.00    -0.364 OA
ATOM     45  H7  UNL     1      -4.604   3.040  -1.594  1.00  0.00     0.213 HD
ENDBRANCH  39  44
BRANCH  41  46
HETATM   46  O8  UNL     1      -9.091   1.601  -0.798  1.00  0.00    -0.390 OA
ATOM     47  H8  UNL     1      -9.900   1.947  -0.441  1.00  0.00     0.210 HD
ENDBRANCH  41  46
BRANCH  42  48
HETATM   48  O9  UNL     1      -8.245   4.647   0.254  1.00  0.00    -0.368 OA
ATOM     49  H9  UNL     1      -7.963   5.086   1.048  1.00  0.00     0.212 HD
ENDBRANCH  42  48
ENDBRANCH  38  39
ENDBRANCH  14  38
TORSDOF 17
