REMARK  9 active torsions:
REMARK  status: ('A' for Active; 'I' for Inactive)
REMARK    1  A    between atoms: C1_4  and  C2_5 
REMARK    2  A    between atoms: C1_4  and  N2_8 
REMARK    3  A    between atoms: C2_5  and  C3_6 
REMARK    4  A    between atoms: N2_8  and  N3_10 
REMARK    5  A    between atoms: C6_13  and  N4_14 
REMARK    6  A    between atoms: C7_18  and  N5_19 
REMARK       I    between atoms: N5_19  and  C8_21 
REMARK       I    between atoms: C8_21  and  N6_23 
REMARK    7  A    between atoms: N6_23  and  C9_25 
REMARK    8  A    between atoms: C9_25  and  C10_26 
REMARK    9  A    between atoms: C11_28  and  O2_29 
ROOT
HETATM    1  N3  UNL     1       1.650  -0.599   0.029  1.00  0.00    -0.199 NA
HETATM    2  C4  UNL     1       1.250  -1.759   0.795  1.00  0.00     0.119 C 
HETATM    3  C5  UNL     1       0.461  -2.687  -0.093  1.00  0.00     0.051 C 
HETATM    4  C6  UNL     1      -0.607  -1.979  -0.872  1.00  0.00     0.211 C 
HETATM    5  C7  UNL     1      -0.763  -0.583  -0.300  1.00  0.00     0.161 C 
HETATM    6  C11 UNL     1       0.558   0.118  -0.546  1.00  0.00     0.236 C 
ENDROOT
BRANCH   1   7
HETATM    7  N2  UNL     1       2.498   0.212   0.736  1.00  0.00    -0.306 N 
ATOM      8  H2  UNL     1       2.333   0.377   1.729  1.00  0.00     0.182 HD
BRANCH   7   9
HETATM    9  C1  UNL     1       3.602   0.821   0.094  1.00  0.00     0.086 C 
HETATM   10  N1  UNL     1       3.495   1.195  -1.134  1.00  0.00    -0.388 N 
ATOM     11  H12 UNL     1       4.291   1.634  -1.597  1.00  0.00     0.157 HD
ATOM     12  H11 UNL     1       2.638   1.070  -1.673  1.00  0.00     0.157 HD
BRANCH   9  13
HETATM   13  C2  UNL     1       4.847   1.003   0.878  1.00  0.00     0.092 C 
BRANCH  13  14
HETATM   14  C3  UNL     1       5.898   1.664   0.028  1.00  0.00     0.122 C 
HETATM   15 CL1  UNL     1       7.395   1.884   0.965  1.00  0.00    -0.130 Cl
ENDBRANCH  13  14
ENDBRANCH   9  13
ENDBRANCH   7   9
ENDBRANCH   1   7
BRANCH   6  16
HETATM   16  O2  UNL     1       0.746   0.108  -1.945  1.00  0.00    -0.377 OA
ATOM     17  H2  UNL     1       0.019   0.585  -2.328  1.00  0.00     0.211 HD
ENDBRANCH   6  16
BRANCH   5  18
HETATM   18  N5  UNL     1      -1.849   0.136  -0.898  1.00  0.00    -0.333 N 
HETATM   19  C8  UNL     1      -2.939   0.679  -0.164  1.00  0.00     0.316 C 
HETATM   20  O1  UNL     1      -2.927   0.505   1.082  1.00  0.00    -0.247 OA
HETATM   21  N6  UNL     1      -4.000   1.382  -0.755  1.00  0.00    -0.342 N 
ATOM     22  H6  UNL     1      -3.969   1.500  -1.768  1.00  0.00     0.164 HD
ATOM     23  H5  UNL     1      -1.839   0.266  -1.910  1.00  0.00     0.164 HD
BRANCH  21  24
HETATM   24  C9  UNL     1      -5.115   1.946  -0.073  1.00  0.00     0.139 C 
BRANCH  24  25
HETATM   25  C10 UNL     1      -5.942   0.943   0.681  1.00  0.00     0.134 C 
HETATM   26 CL2  UNL     1      -7.278   1.823   1.463  1.00  0.00    -0.129 Cl
ENDBRANCH  24  25
ENDBRANCH  21  24
ENDBRANCH   5  18
BRANCH   4  27
HETATM   27  N4  UNL     1      -1.846  -2.720  -0.834  1.00  0.00    -0.073 N 
ATOM     28  H43 UNL     1      -1.721  -3.681  -1.152  1.00  0.00     0.274 HD
ATOM     29  H42 UNL     1      -2.142  -2.912   0.123  1.00  0.00     0.274 HD
ATOM     30  H41 UNL     1      -2.572  -2.238  -1.364  1.00  0.00     0.274 HD
ENDBRANCH   4  27
TORSDOF 9
