REMARK  5 active torsions:
REMARK  status: ('A' for Active; 'I' for Inactive)
REMARK    1  A    between atoms: N2_8  and  N3_10 
REMARK    2  A    between atoms: N3_10  and  N4_12 
REMARK    3  A    between atoms: C5_17  and  C6_18 
REMARK    4  A    between atoms: C6_18  and  C7_19 
REMARK    5  A    between atoms: C7_19  and  C8_20 
ROOT
HETATM    1  C1  UNL     1      -0.997  -3.212  -0.050  1.00  0.00     0.070 C 
HETATM    2  C2  UNL     1      -1.977  -2.101  -0.192  1.00  0.00     0.031 A 
HETATM    3  N1  UNL     1      -3.303  -2.336  -0.005  1.00  0.00    -0.323 N 
ATOM      4  H1  UNL     1      -3.610  -3.278   0.240  1.00  0.00     0.169 HD
HETATM    5  C3  UNL     1      -4.219  -1.366  -0.133  1.00  0.00     0.291 A 
HETATM    6  O1  UNL     1      -5.453  -1.539   0.030  1.00  0.00    -0.264 OA
HETATM    7  C4  UNL     1      -3.803  -0.095  -0.464  1.00  0.00     0.191 A 
HETATM    8  N2  UNL     1      -4.629   0.877  -0.603  1.00  0.00    -0.267 N 
ATOM      9  H2  UNL     1      -5.629   0.729  -0.469  1.00  0.00     0.190 HD
HETATM   10  N5  UNL     1      -2.493   0.136  -0.648  1.00  0.00    -0.339 N 
ATOM     11  H5  UNL     1      -2.189   1.079  -0.892  1.00  0.00     0.167 HD
HETATM   12  C5  UNL     1      -1.562  -0.837  -0.521  1.00  0.00     0.033 A 
ENDROOT
BRANCH  12  13
HETATM   13  C6  UNL     1      -0.141  -0.473  -0.736  1.00  0.00     0.065 C 
BRANCH  13  14
HETATM   14  C7  UNL     1       0.561  -0.321   0.599  1.00  0.00     0.063 C 
BRANCH  14  15
HETATM   15  C8  UNL     1       1.989   0.045   0.416  1.00  0.00     0.011 A 
HETATM   16  C9  UNL     1       2.396   1.376   0.345  1.00  0.00     0.042 A 
HETATM   17  C10 UNL     1       3.722   1.711   0.175  1.00  0.00     0.093 A 
HETATM   18  N6  UNL     1       4.622   0.717   0.079  1.00  0.00    -0.357 N 
HETATM   19  C11 UNL     1       6.028   1.017  -0.099  1.00  0.00     0.156 C 
HETATM   20  C12 UNL     1       4.261  -0.582   0.143  1.00  0.00     0.182 A 
HETATM   21  N7  UNL     1       2.955  -0.882   0.310  1.00  0.00    -0.356 N 
ATOM     22  H7  UNL     1       2.688  -1.865   0.358  1.00  0.00     0.166 HD
ENDBRANCH  14  15
ENDBRANCH  13  14
ENDBRANCH  12  13
BRANCH   8  23
HETATM   23  N3  UNL     1      -4.142   2.134  -0.938  1.00  0.00    -0.248 N 
ATOM     24  H3  UNL     1      -3.583   2.260  -1.782  1.00  0.00     0.207 HD
BRANCH  23  25
HETATM   25  N4  UNL     1      -4.425   3.230  -0.106  1.00  0.00    -0.331 N 
ATOM     26  H42 UNL     1      -4.985   3.087   0.734  1.00  0.00     0.178 HD
ATOM     27  H41 UNL     1      -4.067   4.153  -0.352  1.00  0.00     0.178 HD
ENDBRANCH  23  25
ENDBRANCH   8  23
TORSDOF 5
