REMARK  7 active torsions:
REMARK  status: ('A' for Active; 'I' for Inactive)
REMARK    1  A    between atoms: O1_2  and  C2_3 
REMARK    2  A    between atoms: C2_3  and  C3_4 
REMARK    3  A    between atoms: C3_4  and  O2_5 
REMARK    4  A    between atoms: O2_5  and  C4_6 
REMARK    5  A    between atoms: C4_6  and  C5_7 
REMARK    6  A    between atoms: C5_7  and  N1_8 
REMARK    7  A    between atoms: N1_8  and  C6_10 
ROOT
HETATM    1  C6  UNL     1      -1.705  -0.134  -0.179  1.00  0.00     0.678 A 
HETATM    2  N2  UNL     1      -2.680   0.749  -0.457  1.00  0.00    -0.194 N 
ATOM      3  H2  UNL     1      -2.550   1.608  -0.991  1.00  0.00     0.184 HD
HETATM    4  C7  UNL     1      -3.851   0.342   0.068  1.00  0.00     0.045 A 
HETATM    5  C8  UNL     1      -5.185   1.014   0.001  1.00  0.00     0.071 C 
HETATM    6  C9  UNL     1      -3.570  -0.856   0.698  1.00  0.00     0.045 A 
HETATM    7  C10 UNL     1      -4.546  -1.699   1.430  1.00  0.00     0.071 C 
HETATM    8  N3  UNL     1      -2.249  -1.130   0.536  1.00  0.00    -0.194 N 
ATOM      9  H3  UNL     1      -1.758  -1.949   0.895  1.00  0.00     0.184 HD
ENDROOT
BRANCH   1  10
HETATM   10  N1  UNL     1      -0.453  -0.107  -0.501  1.00  0.00    -0.224 N 
ATOM     11  H1  UNL     1       0.150  -0.873  -0.201  1.00  0.00     0.177 HD
BRANCH  10  12
HETATM   12  C5  UNL     1       0.123   0.975  -1.274  1.00  0.00     0.164 C 
BRANCH  12  13
HETATM   13  C4  UNL     1       1.562   1.152  -0.774  1.00  0.00     0.188 C 
BRANCH  13  14
HETATM   14  O2  UNL     1       2.226  -0.076  -1.000  1.00  0.00    -0.387 OA
BRANCH  14  15
HETATM   15  C3  UNL     1       3.534   0.126  -0.531  1.00  0.00     0.193 C 
BRANCH  15  16
HETATM   16  C2  UNL     1       4.307  -1.159  -0.744  1.00  0.00     0.193 C 
BRANCH  16  17
HETATM   17  O1  UNL     1       5.607  -1.071  -0.317  1.00  0.00    -0.394 OA
HETATM   18  C1  UNL     1       5.753  -0.785   1.020  1.00  0.00     0.201 C 
ENDBRANCH  16  17
ENDBRANCH  15  16
ENDBRANCH  14  15
ENDBRANCH  13  14
ENDBRANCH  12  13
ENDBRANCH  10  12
ENDBRANCH   1  10
TORSDOF 7
