REMARK  4 active torsions:
REMARK  status: ('A' for Active; 'I' for Inactive)
REMARK    1  A    between atoms: C2_2  and  C3_3 
REMARK    2  A    between atoms: C3_3  and  N1_4 
REMARK    3  A    between atoms: N1_4  and  C4_6 
REMARK    4  A    between atoms: C4_6  and  C5_7 
ROOT
HETATM    1  C4  UNL     1       0.025  -0.035   1.314  1.00  0.00     0.118 C 
ENDROOT
BRANCH   1   2
HETATM    2  N1  UNL     1       1.223  -0.732   1.031  1.00  0.00    -0.418 N 
ATOM      3  H1  UNL     1       1.314  -1.737   1.177  1.00  0.00     0.153 HD
BRANCH   2   4
HETATM    4  C3  UNL     1       2.292   0.060   0.530  1.00  0.00     0.140 C 
BRANCH   4   5
HETATM    5  C2  UNL     1       3.555  -0.717   0.324  1.00  0.00    -0.018 C 
HETATM    6  C1  UNL     1       4.089  -0.823  -0.843  1.00  0.00     0.008 C 
ENDBRANCH   4   5
ENDBRANCH   2   4
ENDBRANCH   1   2
BRANCH   1   7
HETATM    7  C5  UNL     1      -0.714   0.507   0.109  1.00  0.00     0.003 C 
HETATM    8  C6  UNL     1      -1.946   1.212   0.704  1.00  0.00     0.006 C 
HETATM    9  C7  UNL     1      -3.064   1.008  -0.261  1.00  0.00     0.000 C 
HETATM   10  C8  UNL     1      -2.748  -0.268  -1.012  1.00  0.00     0.000 C 
HETATM   11  C9  UNL     1      -1.337  -0.620  -0.675  1.00  0.00     0.006 C 
ENDBRANCH   1   7
TORSDOF 4
