REMARK  2 active torsions:
REMARK  status: ('A' for Active; 'I' for Inactive)
REMARK    1  A    between atoms: O1_2  and  C2_3 
REMARK    2  A    between atoms: C7_11  and  O3_12 
ROOT
HETATM    1  C2  UNL     1      -1.862   0.439  -0.550  1.00  0.00     0.140 A 
HETATM    2  C3  UNL     1      -1.311   1.624  -0.559  1.00  0.00     0.099 A 
HETATM    3 BR1  UNL     1      -2.442   3.146  -0.696  1.00  0.00    -0.044 Br
HETATM    4  C4  UNL     1       0.128   1.766  -0.465  1.00  0.00     0.206 A 
HETATM    5  O2  UNL     1       0.673   2.916  -0.473  1.00  0.00    -0.286 OA
HETATM    6  C5  UNL     1       0.981   0.588  -0.360  1.00  0.00     0.073 A 
HETATM    7  C6  UNL     1       2.357   0.682  -0.269  1.00  0.00     0.166 A 
HETATM    8  F1  UNL     1       2.916   1.899  -0.278  1.00  0.00    -0.202 F 
HETATM    9  C7  UNL     1       3.165  -0.428  -0.170  1.00  0.00     0.129 A 
HETATM   10  C8  UNL     1       2.554  -1.664  -0.163  1.00  0.00     0.093 A 
HETATM   11 CL1  UNL     1       3.476  -3.158  -0.041  1.00  0.00    -0.079 Cl
HETATM   12  C9  UNL     1       1.185  -1.776  -0.253  1.00  0.00     0.074 A 
HETATM   13 CL2  UNL     1       0.407  -3.360  -0.245  1.00  0.00    -0.081 Cl
HETATM   14  C10 UNL     1       0.384  -0.648  -0.353  1.00  0.00     0.058 A 
HETATM   15  C11 UNL     1      -1.062  -0.759  -0.448  1.00  0.00     0.219 A 
HETATM   16  O4  UNL     1      -1.559  -1.917  -0.437  1.00  0.00    -0.284 OA
ENDROOT
BRANCH   1  17
HETATM   17  O1  UNL     1      -3.249   0.279  -0.639  1.00  0.00    -0.351 OA
HETATM   18  C1  UNL     1      -3.952   0.115   0.577  1.00  0.00     0.210 C 
ENDBRANCH   1  17
BRANCH   9  19
HETATM   19  O3  UNL     1       4.547  -0.381  -0.076  1.00  0.00    -0.356 OA
ATOM     20  H3  UNL     1       5.105  -1.147  -0.008  1.00  0.00     0.218 HD
ENDBRANCH   9  19
TORSDOF 2
