REMARK  8 active torsions:
REMARK  status: ('A' for Active; 'I' for Inactive)
REMARK    1  A    between atoms: N1_1  and  C1_4 
REMARK    2  A    between atoms: C3_8  and  N3_9 
REMARK    3  A    between atoms: N3_9  and  N4_10 
REMARK    4  A    between atoms: N3_9  and  C4_13 
REMARK    5  A    between atoms: C4_13  and  C5_14 
REMARK    6  A    between atoms: C5_14  and  N5_15 
REMARK    7  A    between atoms: C6_21  and  N7_22 
REMARK    8  A    between atoms: N10_32  and  N11_33 
ROOT
HETATM    1  C1  UNL     1      -2.350  -2.646   1.692  1.00  0.00     0.171 A 
HETATM    2  N2  UNL     1      -2.208  -1.893   0.571  1.00  0.00    -0.332 N 
ATOM      3  H2  UNL     1      -2.947  -1.877  -0.132  1.00  0.00     0.168 HD
HETATM    4  C2  UNL     1      -1.105  -1.178   0.393  1.00  0.00     0.127 A 
HETATM    5  C3  UNL     1      -0.964  -0.429  -0.751  1.00  0.00     0.168 A 
HETATM    6  N6  UNL     1       0.208   0.268  -0.879  1.00  0.00    -0.173 N 
ATOM      7  H6  UNL     1       0.363   0.837  -1.711  1.00  0.00     0.186 HD
HETATM    8  C6  UNL     1       1.156   0.217   0.069  1.00  0.00     0.683 A 
HETATM    9  N9  UNL     1       0.990  -0.522   1.179  1.00  0.00    -0.172 N 
ATOM     10  H9  UNL     1       1.727  -0.542   1.883  1.00  0.00     0.186 HD
HETATM   11  C11 UNL     1      -0.129  -1.234   1.376  1.00  0.00     0.176 A 
HETATM   12  N10 UNL     1      -0.230  -1.964   2.498  1.00  0.00    -0.204 N 
HETATM   13  C12 UNL     1      -1.355  -2.680   2.659  1.00  0.00     0.311 A 
HETATM   14  O1  UNL     1      -1.517  -3.391   3.693  1.00  0.00    -0.262 OA
ENDROOT
BRANCH   5  15
HETATM   15  N3  UNL     1      -1.952  -0.294  -1.754  1.00  0.00    -0.279 N 
BRANCH  15  16
HETATM   16  N4  UNL     1      -1.985  -1.268  -2.758  1.00  0.00    -0.341 N 
ATOM     17  H42 UNL     1      -1.292  -2.015  -2.701  1.00  0.00     0.177 HD
ATOM     18  H41 UNL     1      -2.698  -1.171  -3.481  1.00  0.00     0.177 HD
ENDBRANCH  15  16
BRANCH  15  19
HETATM   19  C4  UNL     1      -2.930   0.760  -1.835  1.00  0.00     0.177 C 
BRANCH  19  20
HETATM   20  C5  UNL     1      -3.806   0.956  -0.658  1.00  0.00     0.251 C 
BRANCH  20  21
HETATM   21  N5  UNL     1      -4.705   2.054  -0.946  1.00  0.00    -0.078 N 
ATOM     22  H53 UNL     1      -4.213   2.905  -1.218  1.00  0.00     0.274 HD
ATOM     23  H52 UNL     1      -5.230   1.918  -1.810  1.00  0.00     0.274 HD
ATOM     24  H51 UNL     1      -5.309   2.189  -0.135  1.00  0.00     0.274 HD
ENDBRANCH  20  21
ENDBRANCH  19  20
ENDBRANCH  15  19
ENDBRANCH   5  15
BRANCH   8  25
HETATM   25  N7  UNL     1       2.366   0.941  -0.069  1.00  0.00    -0.214 N 
HETATM   26  C7  UNL     1       2.608   1.767  -1.259  1.00  0.00     0.160 C 
HETATM   27  C8  UNL     1       3.889   2.511  -1.044  1.00  0.00     0.134 C 
HETATM   28  N8  UNL     1       4.976   1.610  -0.804  1.00  0.00    -0.418 N 
HETATM   29  C9  UNL     1       4.729   0.625   0.200  1.00  0.00     0.134 C 
ATOM     30  H8  UNL     1       5.859   1.667  -1.311  1.00  0.00     0.153 HD
HETATM   31  C10 UNL     1       3.417   0.915   0.928  1.00  0.00     0.160 C 
ENDBRANCH   8  25
BRANCH   1  32
HETATM   32  N1  UNL     1      -3.414  -3.338   1.870  1.00  0.00    -0.381 N 
ATOM     33  H12 UNL     1      -4.145  -3.313   1.159  1.00  0.00     0.157 HD
ATOM     34  H11 UNL     1      -3.521  -3.904   2.712  1.00  0.00     0.157 HD
ENDBRANCH   1  32
BRANCH  12  35
HETATM   35  N11 UNL     1       0.741  -2.032   3.496  1.00  0.00    -0.334 N 
ATOM     36 2H11 UNL     1       1.595  -1.488   3.374  1.00  0.00     0.177 HD
ATOM     37 1H11 UNL     1       0.664  -2.587   4.349  1.00  0.00     0.177 HD
ENDBRANCH  12  35
TORSDOF 8
