REMARK  3 active torsions:
REMARK  status: ('A' for Active; 'I' for Inactive)
REMARK    1  A    between atoms: O1_2  and  C2_3 
REMARK    2  A    between atoms: C3_6  and  C4_7 
REMARK    3  A    between atoms: C7_12  and  O6_13 
ROOT
HETATM    1  C2  UNL     1       1.089   0.098   0.491  1.00  0.00     0.324 C 
HETATM    2  O2  UNL     1       0.130  -0.279   1.428  1.00  0.00    -0.204 OA
HETATM    3  O3  UNL     1      -0.840   0.612   1.403  1.00  0.00    -0.222 OA
HETATM    4  C3  UNL     1      -1.433   0.515   0.147  1.00  0.00     0.261 C 
HETATM    5  C5  UNL     1      -1.382  -0.929  -0.280  1.00  0.00     0.049 C 
HETATM    6  C6  UNL     1      -0.230  -1.231  -1.187  1.00  0.00     0.040 C 
HETATM    7  C7  UNL     1       1.081  -0.723  -0.747  1.00  0.00     0.176 C 
ENDROOT
BRANCH   4   8
HETATM    8  C4  UNL     1      -2.806   1.042   0.209  1.00  0.00     0.206 C 
HETATM    9  O4  UNL     1      -3.256   1.479   1.274  1.00  0.00    -0.646 OA
HETATM   10  O5  UNL     1      -3.568   1.032  -0.951  1.00  0.00    -0.646 OA
ENDBRANCH   4   8
BRANCH   1  11
HETATM   11  O1  UNL     1       2.332  -0.047   1.108  1.00  0.00    -0.361 OA
HETATM   12  C1  UNL     1       3.021   1.174   1.155  1.00  0.00     0.205 C 
ENDBRANCH   1  11
BRANCH   7  13
HETATM   13  O6  UNL     1       1.969  -1.803  -0.553  1.00  0.00    -0.391 OA
ATOM     14  H6  UNL     1       1.964  -2.328  -1.345  1.00  0.00     0.210 HD
ENDBRANCH   7  13
TORSDOF 3
