REMARK  3 active torsions:
REMARK  status: ('A' for Active; 'I' for Inactive)
REMARK    1  A    between atoms: O1_2  and  C2_3 
REMARK    2  A    between atoms: C3_5  and  N1_6 
REMARK    3  A    between atoms: C9_12  and  O3_13 
ROOT
HETATM    1  C2  UNL     1       1.392   0.575  -0.453  1.00  0.00     0.290 C 
HETATM    2  O2  UNL     1       0.090   0.738   0.004  1.00  0.00    -0.324 OA
HETATM    3  C3  UNL     1      -0.337  -0.467   0.495  1.00  0.00     0.364 C 
HETATM    4  C8  UNL     1       0.475  -1.560  -0.181  1.00  0.00     0.101 C 
HETATM    5  C9  UNL     1       1.288  -0.762  -1.178  1.00  0.00     0.177 C 
ENDROOT
BRANCH   3   6
HETATM    6  N1  UNL     1      -1.708  -0.794   0.335  1.00  0.00     0.124 N 
HETATM    7  C4  UNL     1      -2.565  -0.344   1.405  1.00  0.00     0.303 C 
HETATM    8  C5  UNL     1      -2.716   1.094   1.094  1.00  0.00     0.001 C 
HETATM    9  C6  UNL     1      -2.590   1.215  -0.219  1.00  0.00     0.001 C 
HETATM   10  C7  UNL     1      -2.353  -0.154  -0.798  1.00  0.00     0.303 C 
ENDBRANCH   3   6
BRANCH   1  11
HETATM   11  O1  UNL     1       2.337   0.498   0.560  1.00  0.00    -0.363 OA
HETATM   12  C1  UNL     1       3.438   1.325   0.334  1.00  0.00     0.204 C 
ENDBRANCH   1  11
BRANCH   5  13
HETATM   13  O3  UNL     1       2.523  -1.350  -1.322  1.00  0.00    -0.391 OA
ATOM     14  H3  UNL     1       2.458  -2.183  -1.774  1.00  0.00     0.210 HD
ENDBRANCH   5  13
TORSDOF 3
