REMARK  2 active torsions:
REMARK  status: ('A' for Active; 'I' for Inactive)
REMARK    1  A    between atoms: N2_9  and  C7_10 
REMARK    2  A    between atoms: C12_17  and  N4_18 
ROOT
HETATM    1  C1  UNL     1      -4.156   0.704  -0.700  1.00  0.00     0.037 C 
HETATM    2  C2  UNL     1      -2.744   1.182  -0.560  1.00  0.00    -0.015 C 
HETATM    3  C3  UNL     1      -1.767   0.335  -0.291  1.00  0.00     0.014 A 
HETATM    4  C4  UNL     1      -2.079  -1.070  -0.134  1.00  0.00     0.041 A 
HETATM    5  C5  UNL     1      -1.109  -1.917   0.126  1.00  0.00     0.023 A 
HETATM    6  C6  UNL     1      -1.451  -3.350   0.284  1.00  0.00     0.070 C 
HETATM    7  N1  UNL     1       0.221  -1.457   0.250  1.00  0.00    -0.295 N 
ATOM      8  H1  UNL     1       0.959  -2.132   0.452  1.00  0.00     0.187 HD
HETATM    9  N2  UNL     1       0.566  -0.088   0.103  1.00  0.00    -0.217 N 
HETATM   10  C12 UNL     1      -0.355   0.744  -0.149  1.00  0.00     0.206 A 
ENDROOT
BRANCH   9  11
HETATM   11  C7  UNL     1       1.926   0.281   0.214  1.00  0.00     0.129 A 
HETATM   12  C8  UNL     1       2.359   1.331   0.978  1.00  0.00     0.050 A 
HETATM   13  C9  UNL     1       3.720   1.642   1.022  1.00  0.00     0.005 A 
HETATM   14  C10 UNL     1       4.584   0.866   0.283  1.00  0.00     0.017 A 
HETATM   15  C11 UNL     1       4.144  -0.191  -0.484  1.00  0.00     0.090 A 
HETATM   16  N3  UNL     1       2.839  -0.461  -0.505  1.00  0.00    -0.351 N 
ATOM     17  H3  UNL     1       2.505  -1.241  -1.071  1.00  0.00     0.166 HD
ENDBRANCH   9  11
BRANCH  10  18
HETATM   18  N4  UNL     1      -0.100   2.123  -0.333  1.00  0.00    -0.095 N 
HETATM   19  O1  UNL     1       0.630   2.492  -1.254  1.00  0.00    -0.530 OA
HETATM   20  O2  UNL     1      -0.666   3.046   0.491  1.00  0.00    -0.530 OA
ENDBRANCH  10  18
TORSDOF 2
