REMARK  5 active torsions:
REMARK  status: ('A' for Active; 'I' for Inactive)
REMARK    1  A    between atoms: C2_3  and  O1_4 
REMARK    2  A    between atoms: C2_3  and  C3_6 
REMARK    3  A    between atoms: C5_10  and  C6_11 
REMARK    4  A    between atoms: C6_11  and  C7_12 
REMARK    5  A    between atoms: C7_12  and  C8_13 
ROOT
HETATM    1  C3  UNL     1      -1.922  -0.583   0.143  1.00  0.00     0.115 C 
HETATM    2  C4  UNL     1      -0.444  -0.371   0.075  1.00  0.00     0.095 A 
HETATM    3  N2  UNL     1       0.514  -1.314   0.018  1.00  0.00    -0.344 N 
ATOM      4  H2  UNL     1       0.338  -2.319   0.015  1.00  0.00     0.167 HD
HETATM    5  C5  UNL     1       1.734  -0.752  -0.034  1.00  0.00     0.049 A 
HETATM    6  C9  UNL     1       1.475   0.622  -0.005  1.00  0.00     0.122 A 
HETATM    7  N3  UNL     1       0.144   0.815   0.061  1.00  0.00    -0.339 N 
HETATM    8  C10 UNL     1      -0.649   2.034   0.114  1.00  0.00     0.091 C 
HETATM    9  C11 UNL     1      -1.289   2.193   1.487  1.00  0.00     0.026 C 
HETATM   10  C12 UNL     1      -2.543   1.366   1.476  1.00  0.00     0.008 C 
HETATM   11  C13 UNL     1      -2.615   0.756   0.081  1.00  0.00     0.005 C 
HETATM   12  C14 UNL     1      -1.877   1.763  -0.760  1.00  0.00     0.031 C 
ENDROOT
BRANCH   1  13
HETATM   13  C2  UNL     1      -2.373  -1.500  -0.922  1.00  0.00     0.068 C 
HETATM   14  C1  UNL     1      -2.976  -2.638  -0.656  1.00  0.00     0.132 C 
HETATM   15  N1  UNL     1      -3.225  -3.041   0.694  1.00  0.00    -0.113 NA
BRANCH  13  16
HETATM   16  O1  UNL     1      -2.154  -1.152  -2.240  1.00  0.00    -0.363 OA
ATOM     17  H1  UNL     1      -1.718  -0.330  -2.432  1.00  0.00     0.217 HD
ENDBRANCH  13  16
ENDBRANCH   1  13
BRANCH   5  18
HETATM   18  C6  UNL     1       3.027  -1.410  -0.104  1.00  0.00     0.038 C 
BRANCH  18  19
HETATM   19  C7  UNL     1       4.141  -0.716  -0.149  1.00  0.00     0.086 C 
BRANCH  19  20
HETATM   20  C8  UNL     1       5.439  -1.376  -0.219  1.00  0.00     0.198 C 
HETATM   21  O2  UNL     1       5.503  -2.652  -0.238  1.00  0.00    -0.645 OA
HETATM   22  O3  UNL     1       6.624  -0.695  -0.267  1.00  0.00    -0.645 OA
ENDBRANCH  19  20
ENDBRANCH  18  19
ENDBRANCH   5  18
TORSDOF 5
