REMARK  4 active torsions:
REMARK  status: ('A' for Active; 'I' for Inactive)
REMARK    1  A    between atoms: C2_2  and  C3_4 
REMARK    2  A    between atoms: C2_2  and  C5_7 
REMARK    3  A    between atoms: C5_7  and  C6_9 
REMARK    4  A    between atoms: N2_13  and  C8_14 
ROOT
HETATM    1  C3  UNL     1       4.244   1.044   0.240  1.00  0.00    -0.055 C 
HETATM    2  C4  UNL     1       4.451   2.172  -0.127  1.00  0.00     0.007 C 
HETATM    3 CL2  UNL     1       4.741   3.793  -0.685  1.00  0.00    -0.023 Cl
ENDROOT
BRANCH   1   4
HETATM    4  C2  UNL     1       3.997  -0.352   0.672  1.00  0.00     0.162 C 
HETATM    5  C1  UNL     1       4.344  -1.264  -0.455  1.00  0.00     0.056 C 
HETATM    6 CL1  UNL     1       5.121  -0.657   2.010  1.00  0.00    -0.097 Cl
BRANCH   4   7
HETATM    7  C5  UNL     1       2.599  -0.514   1.139  1.00  0.00     0.197 C 
HETATM    8  O1  UNL     1       2.389  -0.858   2.338  1.00  0.00    -0.289 OA
BRANCH   7   9
HETATM    9  C6  UNL     1       1.461  -0.294   0.274  1.00  0.00     0.047 A 
HETATM   10  C7  UNL     1       1.478   0.086  -1.052  1.00  0.00     0.124 A 
HETATM   11  N1  UNL     1       0.186   0.178  -1.483  1.00  0.00    -0.309 N 
HETATM   12  N2  UNL     1      -0.628  -0.127  -0.483  1.00  0.00    -0.298 N 
ATOM     13  H1  UNL     1      -0.106   0.440  -2.425  1.00  0.00     0.186 HD
HETATM   14  C13 UNL     1       0.126  -0.417   0.595  1.00  0.00     0.127 A 
BRANCH  12  15
HETATM   15  C8  UNL     1      -2.065  -0.151  -0.518  1.00  0.00     0.111 C 
HETATM   16  C9  UNL     1      -2.651   1.257  -0.603  1.00  0.00     0.053 C 
HETATM   17  C10 UNL     1      -4.157   1.100  -0.649  1.00  0.00     0.169 C 
HETATM   18  O2  UNL     1      -4.622   0.531   0.527  1.00  0.00    -0.391 OA
HETATM   19  C11 UNL     1      -4.114  -0.742   0.741  1.00  0.00     0.169 C 
HETATM   20  C12 UNL     1      -2.612  -0.772   0.749  1.00  0.00     0.053 C 
ENDBRANCH  12  15
ENDBRANCH   7   9
ENDBRANCH   4   7
ENDBRANCH   1   4
TORSDOF 4
