REMARK  8 active torsions:
REMARK  status: ('A' for Active; 'I' for Inactive)
REMARK    1  A    between atoms: N1_1  and  C1_4 
REMARK    2  A    between atoms: C2_7  and  C3_8 
REMARK    3  A    between atoms: C3_8  and  O1_9 
REMARK    4  A    between atoms: C3_8  and  C4_11 
REMARK    5  A    between atoms: C4_11  and  C5_12 
REMARK    6  A    between atoms: C5_12  and  O2_13 
REMARK    7  A    between atoms: C8_25  and  N8_26 
REMARK    8  A    between atoms: N8_26  and  O3_28 
ROOT
HETATM    1  C1  UNL     1       3.063  -0.890   0.504  1.00  0.00     0.130 A 
HETATM    2  N2  UNL     1       1.859  -0.504   0.950  1.00  0.00    -0.328 N 
ATOM      3  H2  UNL     1       1.457  -0.980   1.758  1.00  0.00     0.169 HD
HETATM    4  C2  UNL     1       1.153   0.505   0.359  1.00  0.00     0.116 A 
HETATM    5  N7  UNL     1       1.739   1.089  -0.701  1.00  0.00    -0.351 N 
ATOM      6  H7  UNL     1       1.240   1.846  -1.167  1.00  0.00     0.166 HD
HETATM    7  C7  UNL     1       2.942   0.736  -1.184  1.00  0.00     0.124 A 
HETATM    8  C8  UNL     1       3.638  -0.275  -0.583  1.00  0.00     0.113 A 
ENDROOT
BRANCH   4   9
HETATM    9  C3  UNL     1      -0.176   0.895   0.896  1.00  0.00     0.233 C 
BRANCH   9  10
HETATM   10  O1  UNL     1      -0.330   2.283   0.978  1.00  0.00    -0.384 OA
ATOM     11  H1  UNL     1      -1.180   2.532   1.321  1.00  0.00     0.210 HD
ENDBRANCH   9  10
BRANCH   9  12
HETATM   12  C4  UNL     1      -1.337   0.302   0.170  1.00  0.00     0.174 C 
HETATM   13  N3  UNL     1      -1.268  -1.122   0.034  1.00  0.00    -0.357 N 
HETATM   14  C6  UNL     1      -2.503  -1.809   0.200  1.00  0.00     0.192 C 
ATOM     15  H3  UNL     1      -0.395  -1.609  -0.168  1.00  0.00     0.162 HD
HETATM   16  N4  UNL     1      -3.671  -1.081  -0.155  1.00  0.00    -0.284 N 
HETATM   17  N5  UNL     1      -3.678   0.240   0.285  1.00  0.00    -0.028 NA
ATOM     18  H4  UNL     1      -4.439  -1.491  -0.687  1.00  0.00     0.184 HD
HETATM   19  N6  UNL     1      -2.526   0.597   0.961  1.00  0.00    -0.089 NA
BRANCH  12  20
HETATM   20  C5  UNL     1      -1.426   0.915  -1.201  1.00  0.00     0.217 C 
BRANCH  20  21
HETATM   21  O2  UNL     1      -1.493   2.299  -1.168  1.00  0.00    -0.397 OA
ATOM     22  H2  UNL     1      -1.549   2.686  -2.034  1.00  0.00     0.209 HD
ENDBRANCH  20  21
ENDBRANCH  12  20
ENDBRANCH   9  12
ENDBRANCH   4   9
BRANCH   1  23
HETATM   23  N1  UNL     1       3.673  -1.843   1.104  1.00  0.00    -0.383 N 
ATOM     24  H12 UNL     1       3.246  -2.299   1.910  1.00  0.00     0.157 HD
ATOM     25  H11 UNL     1       4.589  -2.137   0.765  1.00  0.00     0.157 HD
ENDBRANCH   1  23
BRANCH   8  26
HETATM   26  N8  UNL     1       4.925  -0.710  -1.035  1.00  0.00    -0.264 N 
ATOM     27  H8  UNL     1       4.994  -1.524  -1.646  1.00  0.00     0.194 HD
BRANCH  26  28
HETATM   28  O3  UNL     1       5.958  -0.113  -0.695  1.00  0.00    -0.289 OA
ATOM     29  H3  UNL     1       6.812  -0.402  -0.995  1.00  0.00     0.244 HD
ENDBRANCH  26  28
ENDBRANCH   8  26
TORSDOF 8
