REMARK  10 active torsions:
REMARK  status: ('A' for Active; 'I' for Inactive)
REMARK    1  A    between atoms: O1_2  and  C2_3 
REMARK    2  A    between atoms: C11_13  and  O3_14 
REMARK    3  A    between atoms: O3_14  and  C12_15 
REMARK    4  A    between atoms: C12_15  and  C13_16 
REMARK    5  A    between atoms: C13_16  and  C14_17 
REMARK    6  A    between atoms: C14_17  and  C15_18 
REMARK    7  A    between atoms: C15_18  and  C16_19 
REMARK    8  A    between atoms: C16_19  and  N1_20 
REMARK       I    between atoms: C17_22  and  N3_24 
REMARK    9  A    between atoms: N3_24  and  N4_26 
REMARK   10  A    between atoms: N4_26  and  C18_28 
ROOT
HETATM    1  O3  UNL     1      -0.139   1.657  -0.500  1.00  0.00    -0.351 OA
ENDROOT
BRANCH   1   2
HETATM    2  C11 UNL     1       1.164   1.136  -0.410  1.00  0.00     0.069 A 
HETATM    3  C10 UNL     1       2.156   1.848   0.228  1.00  0.00     0.053 A 
HETATM    4  C9  UNL     1       3.452   1.338   0.321  1.00  0.00     0.029 A 
HETATM    5  C8  UNL     1       4.687   1.839   0.918  1.00  0.00     0.194 A 
HETATM    6  C21 UNL     1       3.778   0.111  -0.220  1.00  0.00    -0.011 A 
HETATM    7  C6  UNL     1       5.764   0.876   0.718  1.00  0.00     0.029 A 
HETATM    8  O2  UNL     1       4.795   2.944   1.516  1.00  0.00    -0.287 OA
HETATM    9  C5  UNL     1       5.195  -0.171   0.023  1.00  0.00    -0.011 A 
HETATM   10  C7  UNL     1       7.103   0.851   1.072  1.00  0.00     0.053 A 
HETATM   11  C4  UNL     1       6.028  -1.229  -0.293  1.00  0.00     0.016 A 
HETATM   12  C3  UNL     1       7.362  -1.274   0.051  1.00  0.00     0.037 A 
HETATM   13  C2  UNL     1       7.918  -0.221   0.745  1.00  0.00     0.069 A 
HETATM   14  C20 UNL     1       2.784  -0.603  -0.861  1.00  0.00     0.016 A 
HETATM   15  C19 UNL     1       1.504  -0.087  -0.946  1.00  0.00     0.037 A 
BRANCH  13  16
HETATM   16  O1  UNL     1       9.248  -0.275   1.082  1.00  0.00    -0.356 OA
HETATM   17  C1  UNL     1      10.053  -1.375   0.737  1.00  0.00     0.210 C 
ENDBRANCH  13  16
ENDBRANCH   1   2
BRANCH   1  18
HETATM   18  C12 UNL     1      -1.151   0.916  -1.159  1.00  0.00     0.175 C 
BRANCH  18  19
HETATM   19  C13 UNL     1      -2.420   1.699  -1.104  1.00  0.00     0.027 C 
BRANCH  19  20
HETATM   20  C14 UNL     1      -3.577   1.019  -1.780  1.00  0.00     0.004 C 
BRANCH  20  21
HETATM   21  C15 UNL     1      -3.856  -0.298  -1.129  1.00  0.00     0.020 C 
BRANCH  21  22
HETATM   22  C16 UNL     1      -4.183  -0.068   0.327  1.00  0.00     0.122 C 
BRANCH  22  23
HETATM   23  N1  UNL     1      -5.353   0.786   0.399  1.00  0.00    -0.363 N 
HETATM   24  C17 UNL     1      -6.509   0.195   0.420  1.00  0.00     0.203 C 
HETATM   25  N2  UNL     1      -7.677   0.978   0.490  1.00  0.00    -0.062 NA
HETATM   26  N3  UNL     1      -6.655  -1.216   0.376  1.00  0.00    -0.273 N 
ATOM     27  H3  UNL     1      -6.700  -1.693  -0.524  1.00  0.00     0.189 HD
ATOM     28  H1  UNL     1      -5.272   1.802   0.432  1.00  0.00     0.162 HD
BRANCH  26  29
HETATM   29  N4  UNL     1      -6.737  -1.949   1.549  1.00  0.00    -0.294 N 
ATOM     30  H4  UNL     1      -6.136  -2.765   1.667  1.00  0.00     0.187 HD
BRANCH  29  31
HETATM   31  C18 UNL     1      -7.637  -1.594   2.594  1.00  0.00     0.190 C 
HETATM   32  N5  UNL     1      -8.873  -1.356   2.401  1.00  0.00    -0.394 N 
ATOM     33  H52 UNL     1      -9.220  -1.428   1.444  1.00  0.00     0.156 HD
ATOM     34  H51 UNL     1      -9.518  -1.102   3.149  1.00  0.00     0.156 HD
ENDBRANCH  29  31
ENDBRANCH  26  29
ENDBRANCH  22  23
ENDBRANCH  21  22
ENDBRANCH  20  21
ENDBRANCH  19  20
ENDBRANCH  18  19
ENDBRANCH   1  18
TORSDOF 10
