REMARK  12 active torsions:
REMARK  status: ('A' for Active; 'I' for Inactive)
REMARK    1  A    between atoms: C2_2  and  C3_3 
REMARK    2  A    between atoms: C3_3  and  C4_4 
REMARK    3  A    between atoms: C4_4  and  O1_5 
REMARK    4  A    between atoms: O1_5  and  C5_6 
REMARK    5  A    between atoms: C10_12  and  O3_14 
REMARK    6  A    between atoms: C12_16  and  C13_17 
REMARK    7  A    between atoms: C13_17  and  C14_18 
REMARK    8  A    between atoms: C14_18  and  C15_19 
REMARK    9  A    between atoms: C15_19  and  C16_20 
REMARK   10  A    between atoms: C15_19  and  C21_28 
REMARK   11  A    between atoms: C16_20  and  C17_21 
REMARK   12  A    between atoms: C21_28  and  C23_30 
ROOT
HETATM    1  C4  UNL     1      -2.031   0.077   0.382  1.00  0.00     0.083 C 
HETATM    2  C7  UNL     1      -3.546   0.187   0.557  1.00  0.00     0.040 C 
HETATM    3  C8  UNL     1      -3.926   1.493   1.140  1.00  0.00     0.006 C 
HETATM    4  C9  UNL     1      -3.554   2.602   0.202  1.00  0.00     0.038 C 
HETATM    5  C10 UNL     1      -2.604   2.203  -0.857  1.00  0.00     0.064 C 
HETATM    6  C11 UNL     1      -3.179   1.696  -2.128  1.00  0.00     0.046 C 
HETATM    7  C12 UNL     1      -1.478   1.289  -0.353  1.00  0.00     0.078 C 
ENDROOT
BRANCH   7   8
HETATM    8  C13 UNL     1      -0.563   1.054  -1.466  1.00  0.00    -0.015 C 
BRANCH   8   9
HETATM    9  C14 UNL     1       0.730   0.400  -1.435  1.00  0.00     0.004 C 
BRANCH   9  10
HETATM   10  C15 UNL     1       1.880   0.843  -0.679  1.00  0.00    -0.046 C 
BRANCH  10  11
HETATM   11  C16 UNL     1       2.484   0.061   0.172  1.00  0.00     0.044 C 
BRANCH  11  12
HETATM   12  C17 UNL     1       1.992  -1.338   0.377  1.00  0.00     0.325 C 
HETATM   13  O4  UNL     1       2.553  -1.894   1.527  1.00  0.00    -0.201 OA
HETATM   14  O5  UNL     1       2.485  -3.199   1.292  1.00  0.00    -0.199 OA
HETATM   15  C18 UNL     1       2.863  -3.307  -0.045  1.00  0.00     0.193 C 
HETATM   16  C19 UNL     1       2.250  -4.508  -0.728  1.00  0.00     0.081 C 
HETATM   17  C20 UNL     1       4.366  -3.469  -0.181  1.00  0.00     0.081 C 
HETATM   18  O6  UNL     1       2.393  -2.171  -0.638  1.00  0.00    -0.317 OA
ENDBRANCH  11  12
ENDBRANCH  10  11
BRANCH  10  19
HETATM   19  C21 UNL     1       2.503   2.178  -0.855  1.00  0.00     0.083 C 
HETATM   20  C22 UNL     1       1.599   3.358  -0.693  1.00  0.00     0.023 C 
BRANCH  19  21
HETATM   21  C23 UNL     1       3.659   2.407   0.037  1.00  0.00     0.131 C 
HETATM   22  C24 UNL     1       3.475   2.639   1.479  1.00  0.00     0.091 C 
HETATM   23  O7  UNL     1       4.773   2.403  -0.437  1.00  0.00    -0.298 OA
ENDBRANCH  19  21
ENDBRANCH  10  19
ENDBRANCH   9  10
ENDBRANCH   8   9
ENDBRANCH   7   8
BRANCH   1  24
HETATM   24  C3  UNL     1      -1.453   0.132   1.755  1.00  0.00     0.065 C 
BRANCH  24  25
HETATM   25  C2  UNL     1      -1.777  -0.869   2.748  1.00  0.00    -0.034 C 
HETATM   26  C1  UNL     1      -0.899  -1.603   3.416  1.00  0.00     0.007 C 
ENDBRANCH  24  25
ENDBRANCH   1  24
BRANCH   1  27
HETATM   27  O1  UNL     1      -1.718  -1.051  -0.328  1.00  0.00    -0.309 OA
BRANCH  27  28
HETATM   28  C5  UNL     1      -1.988  -2.352  -0.255  1.00  0.00     0.255 C 
HETATM   29  C6  UNL     1      -1.397  -3.308  -1.265  1.00  0.00     0.126 C 
HETATM   30  O2  UNL     1      -2.728  -2.746   0.652  1.00  0.00    -0.266 OA
ENDBRANCH  27  28
ENDBRANCH   1  27
BRANCH   5  31
HETATM   31  O3  UNL     1      -1.924   3.411  -1.215  1.00  0.00    -0.389 OA
ATOM     32  H3  UNL     1      -1.313   3.154  -1.896  1.00  0.00     0.210 HD
ENDBRANCH   5  31
TORSDOF 12
