REMARK  5 active torsions:
REMARK  status: ('A' for Active; 'I' for Inactive)
REMARK    1  A    between atoms: C2_2  and  C3_3 
REMARK    2  A    between atoms: C6_7  and  N2_8 
REMARK       I    between atoms: N2_8  and  C7_9 
REMARK       I    between atoms: C7_9  and  N4_13 
REMARK    3  A    between atoms: N4_13  and  C8_15 
REMARK    4  A    between atoms: C8_15  and  C9_16 
REMARK    5  A    between atoms: C9_16  and  O1_17 
ROOT
HETATM    1  C3  UNL     1      -3.217   0.288   0.158  1.00  0.00     0.028 A 
HETATM    2  C4  UNL     1      -2.698   1.349  -0.533  1.00  0.00     0.118 A 
HETATM    3  N1  UNL     1      -1.368   1.507  -0.665  1.00  0.00    -0.332 N 
HETATM    4  C5  UNL     1      -0.851   2.620  -1.410  1.00  0.00     0.158 C 
HETATM    5  C6  UNL     1      -0.463   0.624  -0.119  1.00  0.00     0.226 A 
HETATM    6  C11 UNL     1      -1.046  -0.423   0.564  1.00  0.00     0.177 A 
HETATM    7  N5  UNL     1      -0.253  -1.417   1.191  1.00  0.00    -0.077 NA
HETATM    8  N6  UNL     1      -2.388  -0.598   0.705  1.00  0.00    -0.338 N 
HETATM    9  C12 UNL     1      -2.848  -1.786   1.442  1.00  0.00     0.157 C 
ENDROOT
BRANCH   5  10
HETATM   10  N2  UNL     1       0.711   0.854  -0.264  1.00  0.00    -0.349 NA
HETATM   11  C7  UNL     1       1.975   1.076  -0.404  1.00  0.00     0.254 C 
HETATM   12  N3  UNL     1       2.548   2.303  -0.498  1.00  0.00    -0.359 N 
HETATM   13  N4  UNL     1       3.052   0.119  -0.471  1.00  0.00    -0.328 N 
ATOM     14  H32 UNL     1       1.786   2.980  -0.451  1.00  0.00     0.160 HD
ATOM     15  H31 UNL     1       3.547   2.478  -0.609  1.00  0.00     0.160 HD
ATOM     16  H4  UNL     1       3.729   0.213  -1.228  1.00  0.00     0.169 HD
BRANCH  13  17
HETATM   17  C8  UNL     1       3.228  -0.934   0.440  1.00  0.00     0.091 C 
BRANCH  17  18
HETATM   18  C9  UNL     1       4.533  -1.622   0.526  1.00  0.00     0.211 C 
BRANCH  18  19
HETATM   19  O1  UNL     1       5.620  -0.938   0.892  1.00  0.00    -0.391 OA
HETATM   20  C10 UNL     1       5.984   0.122   0.150  1.00  0.00     0.201 C 
ENDBRANCH  18  19
ENDBRANCH  17  18
ENDBRANCH  13  17
ENDBRANCH   5  10
BRANCH   1  21
HETATM   21  C2  UNL     1      -4.688   0.143   0.308  1.00  0.00     0.054 C 
HETATM   22  C1  UNL     1      -5.312  -0.616  -0.820  1.00  0.00     0.011 C 
ENDBRANCH   1  21
TORSDOF 5
