REMARK  5 active torsions:
REMARK  status: ('A' for Active; 'I' for Inactive)
REMARK    1  A    between atoms: N1_2  and  S1_4 
REMARK    2  A    between atoms: S1_4  and  N2_7 
REMARK    3  A    between atoms: N2_7  and  C2_9 
REMARK    4  A    between atoms: C5_12  and  S2_13 
REMARK    5  A    between atoms: S2_13  and  N3_14 
ROOT
HETATM    1  C2  UNL     1      -0.309  -0.507  -0.495  1.00  0.00     0.044 A 
HETATM    2  C3  UNL     1       0.322   0.584  -1.049  1.00  0.00     0.031 A 
HETATM    3  C4  UNL     1       1.684   0.791  -0.968  1.00  0.00     0.027 A 
HETATM    4  C5  UNL     1       2.456  -0.131  -0.304  1.00  0.00     0.079 A 
HETATM    5  C6  UNL     1       1.886  -1.229   0.263  1.00  0.00     0.027 A 
HETATM    6  C7  UNL     1       0.509  -1.419   0.170  1.00  0.00     0.031 A 
ENDROOT
BRANCH   1   7
HETATM    7  N2  UNL     1      -1.698  -0.695  -0.592  1.00  0.00    -0.268 N 
ATOM      8  H2  UNL     1      -2.016  -1.632  -0.841  1.00  0.00     0.180 HD
BRANCH   7   9
HETATM    9  S1  UNL     1      -2.900   0.473  -0.338  1.00  0.00     0.319 S 
HETATM   10  O1  UNL     1      -2.500   1.859  -0.739  1.00  0.00    -0.183 OA
HETATM   11  O2  UNL     1      -4.125   0.132  -1.177  1.00  0.00    -0.183 OA
BRANCH   9  12
HETATM   12  N1  UNL     1      -3.432   0.547   1.300  1.00  0.00    -0.307 N 
HETATM   13  C1  UNL     1      -4.541  -0.375   1.454  1.00  0.00     0.161 C 
ATOM     14  H1  UNL     1      -3.036   1.136   2.033  1.00  0.00     0.173 HD
ENDBRANCH   9  12
ENDBRANCH   7   9
ENDBRANCH   1   7
BRANCH   4  15
HETATM   15  S2  UNL     1       4.179   0.156  -0.216  1.00  0.00     0.256 S 
HETATM   16  O3  UNL     1       4.655   0.869  -1.452  1.00  0.00    -0.201 OA
HETATM   17  O4  UNL     1       4.912  -1.174  -0.192  1.00  0.00    -0.201 OA
BRANCH  15  18
HETATM   18  N3  UNL     1       4.573   1.080   1.201  1.00  0.00    -0.324 N 
ATOM     19  H32 UNL     1       3.883   1.403   1.879  1.00  0.00     0.169 HD
ATOM     20  H31 UNL     1       5.578   1.247   1.252  1.00  0.00     0.169 HD
ENDBRANCH  15  18
ENDBRANCH   4  15
TORSDOF 5
