REMARK  7 active torsions:
REMARK  status: ('A' for Active; 'I' for Inactive)
REMARK    1  A    between atoms: C2_2  and  N1_3 
REMARK    2  A    between atoms: C2_2  and  C16_22 
REMARK       I    between atoms: N1_3  and  C3_5 
REMARK    3  A    between atoms: C3_5  and  C4_7 
REMARK    4  A    between atoms: C4_7  and  N2_8 
REMARK       I    between atoms: N2_8  and  C5_10 
REMARK    5  A    between atoms: C5_10  and  C6_12 
REMARK    6  A    between atoms: C16_22  and  N3_24 
REMARK       I    between atoms: N3_24  and  C18_26 
REMARK    7  A    between atoms: N5_28  and  O3_30 
ROOT
HETATM    1  N1  UNL     1       2.975  -0.681  -0.980  1.00  0.00    -0.353 N 
ATOM      2  H1  UNL     1       3.500   0.053  -1.455  1.00  0.00     0.163 HD
HETATM    3  C3  UNL     1       1.584  -0.534  -0.775  1.00  0.00     0.235 C 
HETATM    4  O1  UNL     1       0.913  -1.431  -0.188  1.00  0.00    -0.272 OA
ENDROOT
BRANCH   3   5
HETATM    5  C4  UNL     1       0.921   0.695  -1.263  1.00  0.00     0.225 C 
BRANCH   5   6
HETATM    6  N2  UNL     1      -0.478   0.777  -1.002  1.00  0.00    -0.352 N 
HETATM    7  C5  UNL     1      -0.988   0.801   0.297  1.00  0.00     0.223 C 
HETATM    8  O2  UNL     1      -0.103   0.758   1.236  1.00  0.00    -0.273 OA
ATOM      9  H2  UNL     1      -1.126   0.819  -1.789  1.00  0.00     0.162 HD
BRANCH   7  10
HETATM   10  C6  UNL     1      -2.373   0.865   0.745  1.00  0.00     0.086 C 
HETATM   11  C7  UNL     1      -3.112  -0.417   0.597  1.00  0.00    -0.001 C 
HETATM   12  C8  UNL     1      -3.644  -0.597  -0.777  1.00  0.00     0.010 C 
HETATM   13  C12 UNL     1      -4.285  -0.341   1.586  1.00  0.00     0.010 C 
HETATM   14  C9  UNL     1      -4.557   0.528  -1.162  1.00  0.00    -0.013 C 
HETATM   15  C10 UNL     1      -5.705   0.580  -0.171  1.00  0.00     0.009 C 
HETATM   16  C15 UNL     1      -3.809   1.819  -1.111  1.00  0.00     0.010 C 
HETATM   17  C11 UNL     1      -5.111   0.853   1.184  1.00  0.00    -0.013 C 
HETATM   18  C13 UNL     1      -4.358   2.156   1.213  1.00  0.00     0.010 C 
HETATM   19  C14 UNL     1      -3.178   2.029   0.222  1.00  0.00    -0.001 C 
ENDBRANCH   7  10
ENDBRANCH   5   6
ENDBRANCH   3   5
BRANCH   1  20
HETATM   20  C2  UNL     1       3.649  -1.858  -0.522  1.00  0.00     0.102 C 
HETATM   21  C1  UNL     1       4.119  -2.669  -1.726  1.00  0.00     0.034 C 
BRANCH  20  22
HETATM   22  C16 UNL     1       4.830  -1.638   0.358  1.00  0.00     0.102 C 
HETATM   23  C17 UNL     1       5.332  -3.038   0.758  1.00  0.00     0.034 C 
BRANCH  22  24
HETATM   24  N3  UNL     1       4.637  -0.841   1.515  1.00  0.00    -0.357 N 
HETATM   25  C18 UNL     1       4.278   0.523   1.520  1.00  0.00     0.208 C 
HETATM   26  N4  UNL     1       4.928   1.528   0.754  1.00  0.00    -0.062 NA
HETATM   27  N5  UNL     1       3.276   0.842   2.306  1.00  0.00    -0.241 N 
ATOM     28  H5  UNL     1       2.829   0.105   2.851  1.00  0.00     0.197 HD
ATOM     29  H3  UNL     1       4.769  -1.292   2.420  1.00  0.00     0.162 HD
BRANCH  27  30
HETATM   30  O3  UNL     1       2.810   2.110   2.424  1.00  0.00    -0.287 OA
ATOM     31  H3  UNL     1       2.085   2.341   2.993  1.00  0.00     0.244 HD
ENDBRANCH  27  30
ENDBRANCH  22  24
ENDBRANCH  20  22
ENDBRANCH   1  20
TORSDOF 7
