REMARK  5 active torsions:
REMARK  status: ('A' for Active; 'I' for Inactive)
REMARK    1  A    between atoms: N1_1  and  C1_5 
REMARK    2  A    between atoms: N2_7  and  C3_8 
REMARK    3  A    between atoms: C8_13  and  C9_14 
REMARK    4  A    between atoms: C10_17  and  O3_18 
REMARK    5  A    between atoms: C10_17  and  C11_20 
ROOT
HETATM    1  C1  UNL     1      -1.269  -1.450  -0.035  1.00  0.00     0.204 C 
HETATM    2  C2  UNL     1      -0.145  -0.962  -0.962  1.00  0.00     0.151 C 
HETATM    3  N2  UNL     1       0.266   0.291  -0.447  1.00  0.00    -0.390 N 
HETATM    4  C8  UNL     1      -0.686   1.086   0.217  1.00  0.00     0.227 C 
HETATM    5  C10 UNL     1      -2.128   0.835  -0.089  1.00  0.00     0.177 C 
HETATM    6  C12 UNL     1      -2.455  -0.614  -0.409  1.00  0.00     0.086 C 
ENDROOT
BRANCH   3   7
HETATM    7  C3  UNL     1       1.594   0.372   0.043  1.00  0.00     0.080 C 
HETATM    8  C4  UNL     1       2.601   0.125  -1.052  1.00  0.00     0.025 C 
HETATM    9  C5  UNL     1       3.420  -1.047  -0.563  1.00  0.00     0.002 C 
HETATM   10  C6  UNL     1       3.419  -0.829   0.935  1.00  0.00     0.002 C 
HETATM   11  C7  UNL     1       1.920  -0.573   1.161  1.00  0.00     0.025 C 
ENDBRANCH   3   7
BRANCH   4  12
HETATM   12  C9  UNL     1      -0.443   2.522  -0.176  1.00  0.00     0.200 C 
HETATM   13  O1  UNL     1      -1.115   3.450   0.329  1.00  0.00    -0.646 OA
HETATM   14  O2  UNL     1       0.535   2.829  -1.110  1.00  0.00    -0.646 OA
ENDBRANCH   4  12
BRANCH   1  15
HETATM   15  N1  UNL     1      -1.505  -2.866  -0.194  1.00  0.00    -0.073 N 
ATOM     16  H13 UNL     1      -1.692  -3.107  -1.167  1.00  0.00     0.274 HD
ATOM     17  H12 UNL     1      -0.649  -3.405  -0.060  1.00  0.00     0.274 HD
ATOM     18  H11 UNL     1      -2.251  -3.190   0.421  1.00  0.00     0.274 HD
ENDBRANCH   1  15
BRANCH   5  19
HETATM   19  O3  UNL     1      -2.552   1.659  -1.142  1.00  0.00    -0.376 OA
ATOM     20  H3  UNL     1      -3.468   1.500  -1.336  1.00  0.00     0.211 HD
ENDBRANCH   5  19
BRANCH   5  21
HETATM   21  C11 UNL     1      -2.943   1.170   1.102  1.00  0.00     0.211 C 
HETATM   22  O4  UNL     1      -3.812   2.056   1.029  1.00  0.00    -0.646 OA
HETATM   23  O5  UNL     1      -2.755   0.513   2.300  1.00  0.00    -0.646 OA
ENDBRANCH   5  21
TORSDOF 5
