REMARK  9 active torsions:
REMARK  status: ('A' for Active; 'I' for Inactive)
REMARK    1  A    between atoms: C2_2  and  C3_3 
REMARK    2  A    between atoms: C6_8  and  O3_9 
REMARK    3  A    between atoms: C7_11  and  N1_12 
REMARK    4  A    between atoms: N1_12  and  C8_14 
REMARK    5  A    between atoms: C8_14  and  N2_16 
REMARK    6  A    between atoms: N2_16  and  C9_18 
REMARK    7  A    between atoms: C9_18  and  C10_19 
REMARK    8  A    between atoms: C9_18  and  C17_26 
REMARK    9  A    between atoms: C10_19  and  C11_20 
ROOT
HETATM    1  C8  UNL     1      -0.796   0.321  -0.325  1.00  0.00     0.168 C 
HETATM    2  S1  UNL     1      -0.788  -0.536  -1.704  1.00  0.00    -0.041 SA
ENDROOT
BRANCH   1   3
HETATM    3  N1  UNL     1      -2.024   0.804   0.179  1.00  0.00    -0.358 N 
ATOM      4  H1  UNL     1      -1.979   1.356   1.035  1.00  0.00     0.162 HD
BRANCH   3   5
HETATM    5  C7  UNL     1      -3.326   0.601  -0.384  1.00  0.00     0.138 C 
HETATM    6  C2  UNL     1      -3.876  -0.735  -0.023  1.00  0.00     0.085 C 
HETATM    7  C1  UNL     1      -4.475  -1.410  -1.257  1.00  0.00     0.033 C 
HETATM    8  C4  UNL     1      -5.042  -0.436   0.897  1.00  0.00    -0.006 C 
HETATM    9  C5  UNL     1      -5.276   0.844   0.939  1.00  0.00     0.004 C 
HETATM   10  C6  UNL     1      -4.342   1.578   0.086  1.00  0.00     0.165 C 
BRANCH   6  11
HETATM   11  C3  UNL     1      -2.965  -1.649   0.678  1.00  0.00     0.187 C 
HETATM   12  O1  UNL     1      -2.777  -2.824   0.263  1.00  0.00    -0.647 OA
HETATM   13  O2  UNL     1      -2.285  -1.260   1.814  1.00  0.00    -0.647 OA
ENDBRANCH   6  11
BRANCH  10  14
HETATM   14  O3  UNL     1      -3.770   2.679   0.735  1.00  0.00    -0.390 OA
ATOM     15  H3  UNL     1      -3.163   3.156   0.181  1.00  0.00     0.210 HD
ENDBRANCH  10  14
ENDBRANCH   3   5
ENDBRANCH   1   3
BRANCH   1  16
HETATM   16  N2  UNL     1       0.440   0.581   0.342  1.00  0.00    -0.352 N 
ATOM     17  H2  UNL     1       0.451   1.123   1.206  1.00  0.00     0.162 HD
BRANCH  16  18
HETATM   18  C9  UNL     1       1.702   0.062  -0.223  1.00  0.00     0.189 C 
BRANCH  18  19
HETATM   19  C10 UNL     1       2.748   0.345   0.803  1.00  0.00     0.074 C 
BRANCH  19  20
HETATM   20  C11 UNL     1       4.110  -0.055   0.540  1.00  0.00    -0.056 A 
HETATM   21  C12 UNL     1       4.977   0.856  -0.046  1.00  0.00     0.007 A 
HETATM   22  C13 UNL     1       6.287   0.541  -0.327  1.00  0.00     0.001 A 
HETATM   23  C14 UNL     1       6.803  -0.708  -0.034  1.00  0.00     0.000 A 
HETATM   24  C15 UNL     1       5.952  -1.623   0.549  1.00  0.00     0.001 A 
HETATM   25  C16 UNL     1       4.642  -1.299   0.826  1.00  0.00     0.007 A 
ENDBRANCH  19  20
ENDBRANCH  18  19
BRANCH  18  26
HETATM   26  C17 UNL     1       1.974   0.838  -1.452  1.00  0.00     0.197 C 
HETATM   27  O4  UNL     1       1.231   1.803  -1.744  1.00  0.00    -0.646 OA
HETATM   28  O5  UNL     1       3.014   0.578  -2.340  1.00  0.00    -0.646 OA
ENDBRANCH  18  26
ENDBRANCH  16  18
ENDBRANCH   1  16
TORSDOF 9
