REMARK  8 active torsions:
REMARK  status: ('A' for Active; 'I' for Inactive)
REMARK    1  A    between atoms: C2_2  and  N1_3 
REMARK    2  A    between atoms: C2_2  and  C12_18 
REMARK       I    between atoms: N1_3  and  C3_5 
REMARK       I    between atoms: C3_5  and  N3_12 
REMARK    3  A    between atoms: N2_6  and  C4_8 
REMARK    4  A    between atoms: N3_12  and  C8_14 
REMARK       I    between atoms: C12_18  and  N4_20 
REMARK    5  A    between atoms: N4_20  and  C13_22 
REMARK    6  A    between atoms: C13_22  and  C14_23 
REMARK    7  A    between atoms: C13_22  and  C16_27 
REMARK    8  A    between atoms: C14_23  and  C15_24 
ROOT
HETATM    1  N1  UNL     1      -0.502   0.175  -0.091  1.00  0.00    -0.214 N 
ATOM      2  H1  UNL     1      -0.187   0.877   0.579  1.00  0.00     0.178 HD
HETATM    3  C3  UNL     1      -1.894   0.139  -0.305  1.00  0.00     0.671 C 
HETATM    4  N2  UNL     1      -2.653  -0.743   0.013  1.00  0.00    -0.218 N 
ATOM      5  H2  UNL     1      -3.565  -0.416  -0.306  1.00  0.00     0.178 HD
HETATM    6  N3  UNL     1      -2.444   1.302  -0.962  1.00  0.00    -0.218 N 
ATOM      7  H3  UNL     1      -2.406   1.334  -1.981  1.00  0.00     0.178 HD
ENDROOT
BRANCH   1   8
HETATM    8  C2  UNL     1       0.524  -0.609  -0.660  1.00  0.00     0.187 C 
HETATM    9  C1  UNL     1       0.533  -0.602  -2.179  1.00  0.00     0.043 C 
BRANCH   8  10
HETATM   10  C12 UNL     1       1.862  -0.009  -0.282  1.00  0.00     0.241 C 
HETATM   11  O1  UNL     1       1.951   1.029   0.397  1.00  0.00    -0.271 OA
HETATM   12  N4  UNL     1       3.038  -0.669  -0.729  1.00  0.00    -0.344 N 
ATOM     13  H4  UNL     1       2.970  -1.524  -1.282  1.00  0.00     0.163 HD
BRANCH  12  14
HETATM   14  C13 UNL     1       4.359  -0.108  -0.387  1.00  0.00     0.194 C 
BRANCH  14  15
HETATM   15  C14 UNL     1       5.063  -1.018   0.577  1.00  0.00     0.135 C 
BRANCH  15  16
HETATM   16  C15 UNL     1       6.379  -0.469   0.928  1.00  0.00     0.233 C 
HETATM   17  N5  UNL     1       6.395   0.666   1.800  1.00  0.00    -0.062 NA
HETATM   18  O2  UNL     1       7.462  -0.959   0.491  1.00  0.00    -0.277 OA
ENDBRANCH  15  16
ENDBRANCH  14  15
BRANCH  14  19
HETATM   19  C16 UNL     1       5.173   0.061  -1.603  1.00  0.00     0.197 C 
HETATM   20  O3  UNL     1       4.744  -0.324  -2.725  1.00  0.00    -0.646 OA
HETATM   21  O4  UNL     1       6.415   0.644  -1.540  1.00  0.00    -0.646 OA
ENDBRANCH  14  19
ENDBRANCH  12  14
ENDBRANCH   8  10
ENDBRANCH   1   8
BRANCH   4  22
HETATM   22  C4  UNL     1      -2.912  -1.955   0.582  1.00  0.00     0.036 C 
HETATM   23  C5  UNL     1      -1.796  -2.701   1.274  1.00  0.00     0.038 C 
HETATM   24  C6  UNL     1      -4.060  -1.975   1.596  1.00  0.00     0.038 C 
HETATM   25  C7  UNL     1      -3.387  -2.911  -0.532  1.00  0.00     0.038 C 
ENDBRANCH   4  22
BRANCH   6  26
HETATM   26  C8  UNL     1      -3.031   2.398  -0.290  1.00  0.00     0.036 C 
HETATM   27  C9  UNL     1      -3.486   3.430  -1.292  1.00  0.00     0.038 C 
HETATM   28  C10 UNL     1      -4.226   2.057   0.553  1.00  0.00     0.038 C 
HETATM   29  C11 UNL     1      -2.046   3.103   0.652  1.00  0.00     0.038 C 
ENDBRANCH   6  26
TORSDOF 8
