REMARK  2 active torsions:
REMARK  status: ('A' for Active; 'I' for Inactive)
REMARK    1  A    between atoms: C2_2  and  C3_3 
REMARK    2  A    between atoms: C6_7  and  N1_8 
ROOT
HETATM    1  C1  UNL     1       0.659  -1.467  -0.677  1.00  0.00     0.018 C 
HETATM    2  C2  UNL     1       0.235  -0.336   0.231  1.00  0.00    -0.007 C 
HETATM    3  C4  UNL     1      -0.963  -0.649   1.112  1.00  0.00     0.014 C 
HETATM    4  C5  UNL     1      -1.839   0.020   0.082  1.00  0.00     0.034 C 
HETATM    5  C6  UNL     1      -0.602   0.651  -0.517  1.00  0.00     0.192 C 
ENDROOT
BRANCH   5   6
HETATM    6  N1  UNL     1      -0.444   2.027  -0.168  1.00  0.00    -0.074 N 
ATOM      7  H13 UNL     1      -0.593   2.144   0.834  1.00  0.00     0.274 HD
ATOM      8  H12 UNL     1       0.539   2.287  -0.244  1.00  0.00     0.274 HD
ATOM      9  H11 UNL     1      -1.015   2.701  -0.678  1.00  0.00     0.274 HD
ENDBRANCH   5   6
BRANCH   2  10
HETATM   10  C3  UNL     1       1.344   0.229   1.077  1.00  0.00     0.097 C 
HETATM   11  S1  UNL     1       2.705   0.902   0.143  1.00  0.00    -0.097 SA
ENDBRANCH   2  10
TORSDOF 2
