REMARK  11 active torsions:
REMARK  status: ('A' for Active; 'I' for Inactive)
REMARK    1  A    between atoms: C3_7  and  N3_8 
REMARK       I    between atoms: N4_11  and  C6_12 
REMARK    2  A    between atoms: C6_12  and  C7_14 
REMARK    3  A    between atoms: C7_14  and  C8_15 
REMARK    4  A    between atoms: C7_14  and  N5_22 
REMARK    5  A    between atoms: C8_15  and  C9_16 
REMARK       I    between atoms: N5_22  and  C15_24 
REMARK    6  A    between atoms: C15_24  and  C16_26 
REMARK    7  A    between atoms: C16_26  and  N6_27 
REMARK       I    between atoms: N6_27  and  C17_29 
REMARK    8  A    between atoms: C17_29  and  C18_31 
REMARK    9  A    between atoms: C19_32  and  C20_33 
REMARK   10  A    between atoms: C20_33  and  N7_34 
REMARK   11  A    between atoms: N7_34  and  C21_36 
ROOT
HETATM    1  C7  UNL     1      -1.811  -1.081   0.728  1.00  0.00     0.177 C 
ENDROOT
BRANCH   1   2
HETATM    2  C6  UNL     1      -2.908  -0.208   1.136  1.00  0.00     0.242 C 
HETATM    3  N4  UNL     1      -4.153  -0.049   0.455  1.00  0.00    -0.347 N 
HETATM    4  C5  UNL     1      -5.172   0.828   1.067  1.00  0.00     0.145 C 
HETATM    5  C26 UNL     1      -4.479  -0.666  -0.789  1.00  0.00     0.145 C 
HETATM    6  C4  UNL     1      -5.444   1.979   0.114  1.00  0.00     0.145 C 
HETATM    7  N3  UNL     1      -5.255   1.567  -1.261  1.00  0.00    -0.357 N 
HETATM    8  C27 UNL     1      -5.403   0.191  -1.613  1.00  0.00     0.145 C 
HETATM    9  O1  UNL     1      -2.780   0.509   2.207  1.00  0.00    -0.271 OA
BRANCH   7  10
HETATM   10  C3  UNL     1      -4.936   2.524  -2.263  1.00  0.00     0.163 A 
HETATM   11  N2  UNL     1      -5.807   3.206  -3.006  1.00  0.00    -0.279 N 
HETATM   12  N1  UNL     1      -5.392   4.035  -3.862  1.00  0.00    -0.296 N 
ATOM     13  H2  UNL     1      -6.809   3.058  -2.883  1.00  0.00     0.189 HD
HETATM   14  C2  UNL     1      -4.082   4.231  -4.027  1.00  0.00     0.066 A 
ATOM     15  H1  UNL     1      -6.060   4.557  -4.430  1.00  0.00     0.187 HD
HETATM   16  C1  UNL     1      -3.378   5.170  -4.980  1.00  0.00     0.078 C 
HETATM   17  S1  UNL     1      -3.450   3.136  -2.865  1.00  0.00    -0.038 SA
ENDBRANCH   7  10
ENDBRANCH   1   2
BRANCH   1  18
HETATM   18  C8  UNL     1      -2.117  -2.537   0.586  1.00  0.00     0.039 C 
BRANCH  18  19
HETATM   19  C9  UNL     1      -2.607  -3.295   1.738  1.00  0.00    -0.012 C 
HETATM   20  C10 UNL     1      -3.900  -2.892   2.372  1.00  0.00     0.005 C 
HETATM   21  C11 UNL     1      -4.287  -4.054   3.310  1.00  0.00     0.000 C 
HETATM   22  C12 UNL     1      -4.925  -5.152   2.485  1.00  0.00     0.000 C 
HETATM   23  C13 UNL     1      -4.294  -5.056   1.095  1.00  0.00     0.000 C 
HETATM   24  C14 UNL     1      -2.828  -4.742   1.256  1.00  0.00     0.005 C 
ENDBRANCH  18  19
ENDBRANCH   1  18
BRANCH   1  25
HETATM   25  N5  UNL     1      -0.634  -0.880   1.590  1.00  0.00    -0.346 N 
HETATM   26  C15 UNL     1       0.668  -0.786   1.057  1.00  0.00     0.236 C 
HETATM   27  O2  UNL     1       0.800  -0.897  -0.184  1.00  0.00    -0.272 OA
ATOM     28  H5  UNL     1      -0.764  -0.807   2.599  1.00  0.00     0.163 HD
BRANCH  26  29
HETATM   29  C16 UNL     1       1.855  -0.563   1.890  1.00  0.00     0.225 C 
BRANCH  29  30
HETATM   30  N6  UNL     1       3.102  -0.499   1.172  1.00  0.00    -0.349 N 
HETATM   31  C17 UNL     1       3.366   0.458   0.178  1.00  0.00     0.241 C 
HETATM   32  O3  UNL     1       2.463   1.320  -0.114  1.00  0.00    -0.269 OA
ATOM     33  H6  UNL     1       3.827  -1.180   1.396  1.00  0.00     0.163 HD
BRANCH  31  34
HETATM   34  C18 UNL     1       4.617   0.544  -0.555  1.00  0.00     0.075 C 
HETATM   35  C19 UNL     1       5.607  -0.253  -0.307  1.00  0.00     0.022 C 
BRANCH  35  36
HETATM   36  C20 UNL     1       6.894  -0.233  -0.991  1.00  0.00     0.083 C 
BRANCH  36  37
HETATM   37  N7  UNL     1       7.121   0.791  -1.879  1.00  0.00    -0.394 N 
ATOM     38  H7  UNL     1       6.956   0.575  -2.862  1.00  0.00     0.159 HD
BRANCH  37  39
HETATM   39  C21 UNL     1       7.543   2.071  -1.605  1.00  0.00     0.081 C 
HETATM   40  C22 UNL     1       9.006   2.001  -1.082  1.00  0.00     0.025 C 
HETATM   41  C23 UNL     1       9.308   3.323  -0.466  1.00  0.00     0.002 C 
HETATM   42  C24 UNL     1       7.987   4.005  -0.291  1.00  0.00     0.002 C 
HETATM   43  C25 UNL     1       6.933   2.910  -0.524  1.00  0.00     0.025 C 
ENDBRANCH  37  39
ENDBRANCH  36  37
ENDBRANCH  35  36
ENDBRANCH  31  34
ENDBRANCH  29  30
ENDBRANCH  26  29
ENDBRANCH   1  25
TORSDOF 11
