REMARK  13 active torsions:
REMARK  status: ('A' for Active; 'I' for Inactive)
REMARK    1  A    between atoms: C4_4  and  C5_5 
REMARK    2  A    between atoms: C5_5  and  N1_6 
REMARK    3  A    between atoms: C11_13  and  N2_14 
REMARK    4  A    between atoms: N2_14  and  C12_16 
REMARK    5  A    between atoms: C16_24  and  O2_25 
REMARK    6  A    between atoms: O2_25  and  C17_26 
REMARK    7  A    between atoms: C17_26  and  C18_27 
REMARK    8  A    between atoms: C18_27  and  N5_28 
REMARK    9  A    between atoms: N5_28  and  C19_31 
REMARK   10  A    between atoms: C19_31  and  C20_32 
REMARK   11  A    between atoms: C20_32  and  N6_33 
REMARK   12  A    between atoms: C26_40  and  O3_41 
REMARK   13  A    between atoms: O3_41  and  C27_42 
ROOT
HETATM    1  C12 UNL     1      -2.923   0.608   1.349  1.00  0.00     0.119 A 
HETATM    2  N3  UNL     1      -3.135   0.077   2.570  1.00  0.00    -0.338 N 
ATOM      3  H3  UNL     1      -4.079  -0.051   2.934  1.00  0.00     0.168 HD
HETATM    4  C13 UNL     1      -2.056  -0.277   3.289  1.00  0.00     0.182 A 
HETATM    5  N4  UNL     1      -0.799  -0.125   2.844  1.00  0.00    -0.351 N 
ATOM      6  H4  UNL     1      -0.017  -0.412   3.432  1.00  0.00     0.166 HD
HETATM    7  C14 UNL     1      -0.562   0.402   1.631  1.00  0.00     0.050 A 
HETATM    8  C15 UNL     1       0.726   0.573   1.146  1.00  0.00     0.070 A 
HETATM    9  C16 UNL     1       1.008   1.101  -0.071  1.00  0.00     0.104 A 
HETATM   10  C26 UNL     1      -0.092   1.505  -0.888  1.00  0.00     0.103 A 
HETATM   11  C31 UNL     1      -1.381   1.323  -0.383  1.00  0.00     0.057 A 
HETATM   12  C32 UNL     1      -1.622   0.781   0.856  1.00  0.00     0.038 A 
ENDROOT
BRANCH   1  13
HETATM   13  N2  UNL     1      -3.858   1.021   0.598  1.00  0.00    -0.340 N 
ATOM     14  H2  UNL     1      -3.622   1.409  -0.315  1.00  0.00     0.167 HD
BRANCH  13  15
HETATM   15  C11 UNL     1      -5.222   0.962   0.986  1.00  0.00     0.066 A 
HETATM   16  C4  UNL     1      -6.056  -0.105   0.750  1.00  0.00    -0.011 A 
HETATM   17  C3  UNL     1      -7.354  -0.032   1.167  1.00  0.00     0.021 A 
HETATM   18  C2  UNL     1      -7.870   1.089   1.825  1.00  0.00    -0.021 A 
HETATM   19  C1  UNL     1      -9.272   1.085   2.269  1.00  0.00     0.051 C 
HETATM   20  C34 UNL     1      -6.999   2.158   2.049  1.00  0.00     0.146 A 
HETATM   21  C33 UNL     1      -5.698   2.111   1.643  1.00  0.00     0.100 A 
HETATM   22  F1  UNL     1      -7.512   3.253   2.685  1.00  0.00    -0.204 F 
HETATM   23 CL1  UNL     1      -4.662   3.488   1.947  1.00  0.00    -0.079 Cl
BRANCH  16  24
HETATM   24  C5  UNL     1      -5.533  -1.281   0.073  1.00  0.00     0.166 C 
BRANCH  24  25
HETATM   25  N1  UNL     1      -6.521  -2.321  -0.188  1.00  0.00    -0.348 N 
HETATM   26  C6  UNL     1      -7.255  -2.327  -1.454  1.00  0.00     0.126 C 
HETATM   27  C7  UNL     1      -8.639  -2.819  -1.289  1.00  0.00     0.020 C 
HETATM   28  C8  UNL     1      -8.856  -3.973  -0.382  1.00  0.00     0.011 C 
HETATM   29  C9  UNL     1      -7.612  -4.481   0.295  1.00  0.00     0.103 C 
HETATM   30  C10 UNL     1      -6.761  -3.325   0.753  1.00  0.00     0.220 C 
HETATM   31  O1  UNL     1      -6.286  -3.252   1.911  1.00  0.00    -0.273 OA
ENDBRANCH  24  25
ENDBRANCH  16  24
ENDBRANCH  13  15
ENDBRANCH   1  13
BRANCH  10  32
HETATM   32  O3  UNL     1       0.159   2.014  -2.058  1.00  0.00    -0.341 OA
BRANCH  32  33
HETATM   33  C27 UNL     1      -0.105   2.453  -3.271  1.00  0.00     0.154 C 
HETATM   34  C28 UNL     1       1.046   3.007  -4.057  1.00  0.00     0.061 C 
HETATM   35  C29 UNL     1       0.889   4.496  -3.873  1.00  0.00     0.170 C 
HETATM   36  O4  UNL     1      -0.367   4.764  -3.359  1.00  0.00    -0.389 OA
HETATM   37  C30 UNL     1      -1.104   3.626  -3.347  1.00  0.00     0.200 C 
ENDBRANCH  32  33
ENDBRANCH  10  32
BRANCH   9  38
HETATM   38  O2  UNL     1       2.253   1.257  -0.565  1.00  0.00    -0.347 OA
BRANCH  38  39
HETATM   39  C17 UNL     1       3.503   0.892  -0.049  1.00  0.00     0.203 C 
BRANCH  39  40
HETATM   40  C18 UNL     1       3.597  -0.613   0.105  1.00  0.00     0.259 C 
BRANCH  40  41
HETATM   41  N5  UNL     1       4.855  -1.053   0.623  1.00  0.00    -0.071 N 
ATOM     42  H52 UNL     1       5.063  -0.588   1.507  1.00  0.00     0.277 HD
ATOM     43  H51 UNL     1       4.793  -2.018   0.948  1.00  0.00     0.277 HD
BRANCH  41  44
HETATM   44  C19 UNL     1       5.964  -0.895  -0.318  1.00  0.00     0.262 C 
BRANCH  44  45
HETATM   45  C20 UNL     1       7.208  -1.540   0.267  1.00  0.00     0.300 C 
BRANCH  45  46
HETATM   46  N6  UNL     1       8.344  -1.468  -0.596  1.00  0.00     0.093 N 
HETATM   47  C21 UNL     1       9.493  -2.163  -0.078  1.00  0.00     0.302 C 
HETATM   48  C22 UNL     1      10.488  -1.285   0.619  1.00  0.00     0.302 C 
HETATM   49  N7  UNL     1       9.859  -0.218   1.350  1.00  0.00     0.087 N 
HETATM   50  C23 UNL     1      10.839   0.495   2.116  1.00  0.00     0.310 C 
HETATM   51  C24 UNL     1       9.181   0.634   0.399  1.00  0.00     0.302 C 
HETATM   52  C25 UNL     1       8.775  -0.097  -0.854  1.00  0.00     0.302 C 
ENDBRANCH  45  46
ENDBRANCH  44  45
ENDBRANCH  41  44
ENDBRANCH  40  41
ENDBRANCH  39  40
ENDBRANCH  38  39
ENDBRANCH   9  38
TORSDOF 13
