REMARK  13 active torsions:
REMARK  status: ('A' for Active; 'I' for Inactive)
REMARK    1  A    between atoms: C2_2  and  C3_3 
REMARK    2  A    between atoms: C3_3  and  C4_4 
REMARK    3  A    between atoms: C4_4  and  S1_5 
REMARK    4  A    between atoms: S1_5  and  N1_8 
REMARK       I    between atoms: N1_8  and  C5_10 
REMARK    5  A    between atoms: C5_10  and  C6_12 
REMARK    6  A    between atoms: C8_14  and  C9_15 
REMARK    7  A    between atoms: C8_14  and  C11_17 
REMARK    8  A    between atoms: C11_17  and  S2_18 
REMARK    9  A    between atoms: S2_18  and  C12_19 
REMARK   10  A    between atoms: C16_29  and  C17_30 
REMARK   11  A    between atoms: C16_29  and  N5_39 
REMARK   12  A    between atoms: C17_30  and  S4_31 
REMARK   13  A    between atoms: S4_31  and  N4_34 
ROOT
HETATM    1  C6  UNL     1       0.291   0.543  -0.668  1.00  0.00     0.119 C 
HETATM    2  C7  UNL     1      -0.238   1.690   0.202  1.00  0.00     0.027 C 
HETATM    3  C8  UNL     1      -1.122   2.575  -0.601  1.00  0.00    -0.031 C 
HETATM    4  C14 UNL     1      -2.199   1.769  -1.240  1.00  0.00     0.013 C 
HETATM    5  C15 UNL     1      -2.207   0.330  -0.900  1.00  0.00     0.044 C 
HETATM    6  C16 UNL     1      -0.872  -0.400  -0.943  1.00  0.00     0.185 C 
ENDROOT
BRANCH   6   7
HETATM    7  C17 UNL     1      -0.914  -1.402   0.171  1.00  0.00     0.200 C 
BRANCH   7   8
HETATM    8  S4  UNL     1      -2.168  -2.590   0.181  1.00  0.00     0.214 S 
HETATM    9  O5  UNL     1      -2.158  -3.525  -0.969  1.00  0.00    -0.211 OA
HETATM   10  O6  UNL     1      -3.557  -2.057   0.311  1.00  0.00    -0.211 OA
BRANCH   8  11
HETATM   11  N4  UNL     1      -1.923  -3.581   1.612  1.00  0.00    -0.211 NA
HETATM   12  C18 UNL     1      -2.025  -2.797   2.800  1.00  0.00     0.107 C 
HETATM   13  C19 UNL     1      -2.872  -3.527   3.785  1.00  0.00     0.017 C 
HETATM   14  C20 UNL     1      -3.370  -4.733   3.070  1.00  0.00     0.017 C 
HETATM   15  C21 UNL     1      -2.862  -4.656   1.666  1.00  0.00     0.107 C 
ENDBRANCH   8  11
ENDBRANCH   7   8
ENDBRANCH   6   7
BRANCH   6  16
HETATM   16  N5  UNL     1      -0.789  -1.062  -2.215  1.00  0.00     0.100 N 
HETATM   17  C22 UNL     1       0.309  -1.892  -2.481  1.00  0.00     0.273 C 
HETATM   18  C23 UNL     1       0.033  -2.851  -3.625  1.00  0.00     0.030 C 
HETATM   19  C24 UNL     1      -0.874  -2.284  -4.674  1.00  0.00     0.003 C 
HETATM   20  C25 UNL     1      -0.637  -0.790  -4.674  1.00  0.00     0.030 C 
HETATM   21  C26 UNL     1      -1.085  -0.213  -3.326  1.00  0.00     0.273 C 
ENDBRANCH   6  16
BRANCH   1  22
HETATM   22  C5  UNL     1       1.362  -0.025   0.191  1.00  0.00     0.237 C 
HETATM   23  N1  UNL     1       2.569  -0.501  -0.343  1.00  0.00    -0.254 N 
ATOM     24  H1  UNL     1       2.720  -0.451  -1.350  1.00  0.00     0.181 HD
HETATM   25  O3  UNL     1       1.240  -0.106   1.443  1.00  0.00    -0.272 OA
BRANCH  23  26
HETATM   26  S1  UNL     1       3.820  -1.178   0.672  1.00  0.00     0.233 S 
HETATM   27  O1  UNL     1       4.551  -2.191  -0.133  1.00  0.00    -0.206 OA
HETATM   28  O2  UNL     1       3.200  -1.777   1.904  1.00  0.00    -0.206 OA
BRANCH  26  29
HETATM   29  C4  UNL     1       4.850   0.184   1.147  1.00  0.00     0.163 C 
BRANCH  29  30
HETATM   30  C3  UNL     1       5.988  -0.187   2.031  1.00  0.00     0.016 C 
BRANCH  30  31
HETATM   31  C2  UNL     1       6.960  -1.169   1.465  1.00  0.00    -0.004 C 
HETATM   32  C1  UNL     1       8.029  -1.383   2.548  1.00  0.00     0.005 C 
ENDBRANCH  30  31
ENDBRANCH  29  30
ENDBRANCH  26  29
ENDBRANCH  23  26
ENDBRANCH   1  22
BRANCH   3  33
HETATM   33  C9  UNL     1      -0.293   3.388  -1.557  1.00  0.00     0.006 C 
HETATM   34  C10 UNL     1      -1.070   4.327  -2.435  1.00  0.00     0.006 C 
ENDBRANCH   3  33
BRANCH   3  35
HETATM   35  C11 UNL     1      -1.696   3.561   0.432  1.00  0.00     0.092 C 
BRANCH  35  36
HETATM   36  S2  UNL     1      -2.819   4.755  -0.225  1.00  0.00    -0.092 SA
BRANCH  36  37
HETATM   37  C12 UNL     1      -3.409   5.830   1.123  1.00  0.00     0.153 A 
HETATM   38  N2  UNL     1      -4.275   6.802   0.816  1.00  0.00    -0.302 N 
HETATM   39  S3  UNL     1      -4.565   7.544   2.292  1.00  0.00     0.050 SA
ATOM     40  H2  UNL     1      -4.665   7.036  -0.097  1.00  0.00     0.176 HD
HETATM   41  C13 UNL     1      -3.555   6.571   3.258  1.00  0.00     0.306 A 
HETATM   42  O4  UNL     1      -3.318   6.616   4.518  1.00  0.00    -0.258 OA
HETATM   43  N3  UNL     1      -3.043   5.715   2.372  1.00  0.00    -0.296 N 
ATOM     44  H3  UNL     1      -2.385   4.992   2.661  1.00  0.00     0.171 HD
ENDBRANCH  36  37
ENDBRANCH  35  36
ENDBRANCH   3  35
TORSDOF 13
