REMARK  17 active torsions:
REMARK  status: ('A' for Active; 'I' for Inactive)
REMARK    1  A    between atoms: C2_2  and  C3_3 
REMARK    2  A    between atoms: C3_3  and  C4_4 
REMARK    3  A    between atoms: C4_4  and  C5_5 
REMARK    4  A    between atoms: C5_5  and  O1_6 
REMARK    5  A    between atoms: O1_6  and  C6_7 
REMARK       I    between atoms: C6_7  and  N1_9 
REMARK    6  A    between atoms: N2_12  and  C9_13 
REMARK    7  A    between atoms: C9_13  and  O3_14 
REMARK    8  A    between atoms: C10_16  and  N3_17 
REMARK    9  A    between atoms: C10_16  and  C29_47 
REMARK       I    between atoms: N3_17  and  C11_19 
REMARK       I    between atoms: C11_19  and  N4_21 
REMARK   10  A    between atoms: N5_24  and  C14_25 
REMARK   11  A    between atoms: C14_25  and  C15_26 
REMARK   12  A    between atoms: C16_27  and  O5_28 
REMARK   13  A    between atoms: O5_28  and  C17_29 
REMARK   14  A    between atoms: C17_29  and  C18_30 
REMARK   15  A    between atoms: C18_30  and  C19_31 
REMARK   16  A    between atoms: C19_31  and  N6_32 
REMARK   17  A    between atoms: C21_37  and  O6_38 
ROOT
HETATM    1  C15 UNL     1      -6.071  -0.743  -2.148  1.00  0.00     0.020 A 
HETATM    2  C16 UNL     1      -6.645  -0.772  -0.802  1.00  0.00     0.083 A 
HETATM    3  C20 UNL     1      -7.999  -0.645  -0.689  1.00  0.00     0.076 A 
HETATM    4  C21 UNL     1      -8.801  -0.494  -1.794  1.00  0.00     0.092 A 
HETATM    5  C23 UNL     1      -8.252  -0.468  -3.049  1.00  0.00     0.085 A 
HETATM    6  C24 UNL     1      -9.104  -0.311  -4.196  1.00  0.00     0.103 C 
HETATM    7  N7  UNL     1      -9.805  -0.175  -5.107  1.00  0.00    -0.191 NA
HETATM    8  C25 UNL     1      -6.862  -0.596  -3.235  1.00  0.00    -0.024 A 
HETATM    9  C26 UNL     1      -6.355  -0.611  -4.643  1.00  0.00     0.051 C 
ENDROOT
BRANCH   4  10
HETATM   10  O6  UNL     1     -10.170  -0.368  -1.617  1.00  0.00    -0.354 OA
HETATM   11  C22 UNL     1     -10.705  -0.397  -0.320  1.00  0.00     0.210 C 
ENDBRANCH   4  10
BRANCH   1  12
HETATM   12  C14 UNL     1      -4.635  -0.937  -2.122  1.00  0.00     0.100 C 
BRANCH  12  13
HETATM   13  N5  UNL     1      -3.802  -0.854  -3.223  1.00  0.00    -0.386 N 
HETATM   14  C13 UNL     1      -3.425   0.451  -3.701  1.00  0.00     0.142 C 
HETATM   15  C12 UNL     1      -2.043   0.855  -3.297  1.00  0.00     0.147 C 
HETATM   16  N4  UNL     1      -1.379   0.021  -2.356  1.00  0.00    -0.331 N 
HETATM   17  C11 UNL     1      -0.541   0.588  -1.314  1.00  0.00     0.322 C 
HETATM   18  C28 UNL     1      -1.553  -1.422  -2.440  1.00  0.00     0.147 C 
HETATM   19  N3  UNL     1       0.137  -0.217  -0.421  1.00  0.00    -0.308 N 
HETATM   20  O4  UNL     1      -0.494   1.826  -1.303  1.00  0.00    -0.247 OA
ATOM     21  H3  UNL     1       0.011  -1.219  -0.561  1.00  0.00     0.170 HD
HETATM   22  C27 UNL     1      -2.715  -1.771  -3.342  1.00  0.00     0.142 C 
BRANCH  19  23
HETATM   23  C10 UNL     1       1.009   0.148   0.697  1.00  0.00     0.072 C 
HETATM   24  C9  UNL     1       2.356  -0.211   0.336  1.00  0.00     0.162 C 
BRANCH  24  25
HETATM   25  N2  UNL     1       3.661   0.184   0.579  1.00  0.00    -0.357 N 
HETATM   26  C8  UNL     1       4.207   1.245   1.374  1.00  0.00     0.145 C 
HETATM   27  C7  UNL     1       5.732   1.256   1.443  1.00  0.00     0.148 C 
HETATM   28  N1  UNL     1       6.333  -0.021   1.530  1.00  0.00    -0.325 N 
HETATM   29  C6  UNL     1       7.629  -0.175   2.072  1.00  0.00     0.362 C 
HETATM   30  C34 UNL     1       5.573  -1.177   1.037  1.00  0.00     0.148 C 
HETATM   31  O2  UNL     1       8.242   0.844   2.494  1.00  0.00    -0.238 OA
HETATM   32  C33 UNL     1       4.746  -0.613  -0.109  1.00  0.00     0.145 C 
BRANCH  29  33
HETATM   33  O1  UNL     1       8.273  -1.388   2.167  1.00  0.00    -0.304 OA
BRANCH  33  34
HETATM   34  C5  UNL     1       9.553  -1.611   2.687  1.00  0.00     0.180 C 
BRANCH  34  35
HETATM   35  C4  UNL     1      10.648  -0.878   1.974  1.00  0.00     0.027 C 
BRANCH  35  36
HETATM   36  C3  UNL     1      10.669  -1.296   0.509  1.00  0.00     0.002 C 
BRANCH  36  37
HETATM   37  C2  UNL     1      11.778  -0.563  -0.199  1.00  0.00    -0.004 C 
HETATM   38  C1  UNL     1      11.537   0.912  -0.081  1.00  0.00     0.005 C 
ENDBRANCH  36  37
ENDBRANCH  35  36
ENDBRANCH  34  35
ENDBRANCH  33  34
ENDBRANCH  29  33
ENDBRANCH  24  25
BRANCH  24  39
HETATM   39  O3  UNL     1       2.378  -1.277  -0.523  1.00  0.00    -0.345 OA
ATOM     40  H3  UNL     1       1.483  -1.548  -0.690  1.00  0.00     0.219 HD
ENDBRANCH  24  39
BRANCH  23  41
HETATM   41  C29 UNL     1       0.610   1.279   1.520  1.00  0.00    -0.004 C 
HETATM   42  C30 UNL     1      -0.926   1.318   1.649  1.00  0.00     0.021 C 
HETATM   43  C31 UNL     1       1.066   2.654   1.169  1.00  0.00     0.021 C 
HETATM   44  C32 UNL     1       1.041   0.979   2.980  1.00  0.00     0.021 C 
ENDBRANCH  23  41
ENDBRANCH  19  23
ENDBRANCH  12  13
ENDBRANCH   1  12
BRANCH   2  45
HETATM   45  O5  UNL     1      -5.857  -0.920   0.224  1.00  0.00    -0.350 OA
BRANCH  45  46
HETATM   46  C17 UNL     1      -5.566  -1.021   1.490  1.00  0.00     0.177 C 
BRANCH  46  47
HETATM   47  C18 UNL     1      -5.764   0.091   2.477  1.00  0.00     0.054 C 
BRANCH  47  48
HETATM   48  C19 UNL     1      -7.134   0.605   2.680  1.00  0.00     0.231 C 
BRANCH  48  49
HETATM   49  N6  UNL     1      -7.163   1.674   3.699  1.00  0.00    -0.079 N 
ATOM     50  H63 UNL     1      -6.746   1.365   4.577  1.00  0.00     0.274 HD
ATOM     51  H62 UNL     1      -6.512   2.425   3.471  1.00  0.00     0.274 HD
ATOM     52  H61 UNL     1      -8.109   2.029   3.839  1.00  0.00     0.274 HD
ENDBRANCH  48  49
ENDBRANCH  47  48
ENDBRANCH  46  47
ENDBRANCH  45  46
ENDBRANCH   2  45
TORSDOF 17
