REMARK  15 active torsions:
REMARK  status: ('A' for Active; 'I' for Inactive)
REMARK    1  A    between atoms: C2_2  and  C3_3 
REMARK    2  A    between atoms: C3_3  and  C4_4 
REMARK    3  A    between atoms: C5_5  and  C6_6 
REMARK    4  A    between atoms: C6_6  and  C7_7 
REMARK    5  A    between atoms: C7_7  and  C8_8 
REMARK       I    between atoms: N1_12  and  C11_13 
REMARK    6  A    between atoms: C11_13  and  C12_15 
REMARK    7  A    between atoms: C12_15  and  C13_16 
REMARK    8  A    between atoms: C12_15  and  N2_20 
REMARK    9  A    between atoms: C13_16  and  C14_17 
REMARK   10  A    between atoms: C14_17  and  S1_18 
REMARK       I    between atoms: N2_20  and  C16_22 
REMARK   11  A    between atoms: C16_22  and  C17_24 
REMARK   12  A    between atoms: C17_24  and  N3_25 
REMARK       I    between atoms: N3_25  and  C18_27 
REMARK   13  A    between atoms: C18_27  and  C19_29 
REMARK       I    between atoms: N4_42  and  C29_43 
REMARK   14  A    between atoms: C29_43  and  O6_45 
REMARK   15  A    between atoms: O6_45  and  C30_46 
ROOT
HETATM    1  C12 UNL     1       1.839  -0.335  -0.482  1.00  0.00     0.178 C 
ENDROOT
BRANCH   1   2
HETATM    2  C11 UNL     1       0.827  -1.324   0.050  1.00  0.00     0.249 C 
HETATM    3  N1  UNL     1      -0.510  -1.135   0.291  1.00  0.00    -0.285 N 
HETATM    4  C10 UNL     1      -1.167   0.141   0.187  1.00  0.00     0.228 C 
HETATM    5  C27 UNL     1      -1.308  -2.298   0.736  1.00  0.00     0.155 C 
HETATM    6  C9  UNL     1      -2.242   0.725   0.993  1.00  0.00     0.128 C 
HETATM    7  O1  UNL     1      -0.750   0.864  -0.740  1.00  0.00    -0.273 OA
HETATM    8  C8  UNL     1      -3.615   0.066   0.603  1.00  0.00     0.099 C 
HETATM    9  N4  UNL     1      -3.482  -1.285   1.057  1.00  0.00    -0.321 N 
HETATM   10  C28 UNL     1      -2.311  -1.878   1.768  1.00  0.00     0.149 C 
HETATM   11  C29 UNL     1      -4.493  -2.266   0.949  1.00  0.00     0.363 C 
HETATM   12  O5  UNL     1      -5.653  -2.147   0.514  1.00  0.00    -0.238 OA
HETATM   13  O2  UNL     1       1.258  -2.510   0.317  1.00  0.00    -0.271 OA
BRANCH   8  14
HETATM   14  C7  UNL     1      -3.776   0.378  -0.826  1.00  0.00     0.038 C 
BRANCH  14  15
HETATM   15  C6  UNL     1      -5.015   0.092  -1.589  1.00  0.00     0.096 C 
BRANCH  15  16
HETATM   16  C5  UNL     1      -6.131   0.907  -1.013  1.00  0.00    -0.107 C 
HETATM   17  C4  UNL     1      -6.993   1.597  -0.535  1.00  0.00    -0.107 C 
BRANCH  17  18
HETATM   18  C3  UNL     1      -8.021   2.471   0.086  1.00  0.00     0.093 C 
BRANCH  18  19
HETATM   19  C2  UNL     1      -7.785   3.872  -0.511  1.00  0.00     0.007 C 
HETATM   20  C1  UNL     1      -8.788   4.800   0.099  1.00  0.00     0.006 C 
ENDBRANCH  18  19
ENDBRANCH  17  18
ENDBRANCH  15  16
ENDBRANCH  14  15
ENDBRANCH   8  14
BRANCH  11  21
HETATM   21  O6  UNL     1      -4.180  -3.564   1.373  1.00  0.00    -0.304 OA
BRANCH  21  22
HETATM   22  C30 UNL     1      -5.047  -4.665   1.302  1.00  0.00     0.176 C 
HETATM   23  C31 UNL     1      -5.376  -5.027  -0.113  1.00  0.00     0.034 C 
ENDBRANCH  21  22
ENDBRANCH  11  21
ENDBRANCH   1   2
BRANCH   1  24
HETATM   24  C13 UNL     1       1.973  -0.470  -1.959  1.00  0.00     0.045 C 
BRANCH  24  25
HETATM   25  C14 UNL     1       2.409  -1.880  -2.361  1.00  0.00     0.076 C 
BRANCH  25  26
HETATM   26  S1  UNL     1       2.522  -1.929  -4.166  1.00  0.00    -0.173 SA
HETATM   27  C15 UNL     1       3.892  -0.893  -4.728  1.00  0.00     0.089 C 
ENDBRANCH  25  26
ENDBRANCH  24  25
ENDBRANCH   1  24
BRANCH   1  28
HETATM   28  N2  UNL     1       3.151  -0.518   0.126  1.00  0.00    -0.346 N 
HETATM   29  C16 UNL     1       3.460  -0.267   1.474  1.00  0.00     0.246 C 
HETATM   30  O3  UNL     1       2.580   0.122   2.263  1.00  0.00    -0.271 OA
ATOM     31  H2  UNL     1       3.904  -0.855  -0.474  1.00  0.00     0.163 HD
BRANCH  29  32
HETATM   32  C17 UNL     1       4.828  -0.483   1.985  1.00  0.00     0.114 A 
HETATM   33  C25 UNL     1       5.178  -1.897   2.371  1.00  0.00     0.044 A 
HETATM   34  C26 UNL     1       5.033  -0.858   3.461  1.00  0.00     0.044 A 
BRANCH  32  35
HETATM   35  N3  UNL     1       5.899   0.204   1.283  1.00  0.00    -0.339 N 
HETATM   36  C18 UNL     1       6.172   1.556   1.469  1.00  0.00     0.255 C 
HETATM   37  O4  UNL     1       5.423   2.185   2.295  1.00  0.00    -0.268 OA
ATOM     38  H3  UNL     1       6.474  -0.326   0.628  1.00  0.00     0.164 HD
BRANCH  36  39
HETATM   39  C19 UNL     1       7.243   2.284   0.805  1.00  0.00     0.075 A 
HETATM   40  C20 UNL     1       7.883   3.338   1.523  1.00  0.00     0.062 A 
HETATM   41  C21 UNL     1       8.944   4.005   0.998  1.00  0.00     0.119 A 
HETATM   42  F1  UNL     1       9.570   5.002   1.711  1.00  0.00    -0.206 F 
HETATM   43  C22 UNL     1       9.442   3.697  -0.249  1.00  0.00     0.069 A 
HETATM   44  C23 UNL     1       8.850   2.677  -0.994  1.00  0.00     0.076 A 
HETATM   45 CL1  UNL     1       9.445   2.258  -2.564  1.00  0.00    -0.081 Cl
HETATM   46  C24 UNL     1       7.776   2.024  -0.416  1.00  0.00     0.153 A 
HETATM   47  F2  UNL     1       7.206   1.037  -1.174  1.00  0.00    -0.203 F 
ENDBRANCH  36  39
ENDBRANCH  32  35
ENDBRANCH  29  32
ENDBRANCH   1  28
TORSDOF 15
