REMARK  13 active torsions:
REMARK  status: ('A' for Active; 'I' for Inactive)
REMARK    1  A    between atoms: C4_6  and  C5_7 
REMARK    2  A    between atoms: C5_7  and  C6_8 
REMARK    3  A    between atoms: C6_8  and  N2_9 
REMARK    4  A    between atoms: N3_12  and  C9_13 
REMARK    5  A    between atoms: C9_13  and  C10_14 
REMARK    6  A    between atoms: C10_14  and  C11_15 
REMARK    7  A    between atoms: C11_15  and  C12_16 
REMARK    8  A    between atoms: C12_16  and  C13_17 
REMARK    9  A    between atoms: C13_17  and  N4_18 
REMARK   10  A    between atoms: N5_21  and  C16_22 
REMARK   11  A    between atoms: C16_22  and  C17_23 
REMARK   12  A    between atoms: C17_23  and  C18_24 
REMARK   13  A    between atoms: N6_25  and  C19_27 
ROOT
HETATM    1  C13 UNL     1       1.319  -1.659   1.926  1.00  0.00     0.272 C 
ENDROOT
BRANCH   1   2
HETATM    2  C12 UNL     1       0.073  -2.161   1.312  1.00  0.00     0.030 C 
BRANCH   2   3
HETATM    3  C11 UNL     1      -1.216  -1.607   1.791  1.00  0.00     0.003 C 
BRANCH   3   4
HETATM    4  C10 UNL     1      -1.449  -0.151   1.626  1.00  0.00     0.030 C 
BRANCH   4   5
HETATM    5  C9  UNL     1      -2.829   0.259   2.163  1.00  0.00     0.272 C 
BRANCH   5   6
HETATM    6  N3  UNL     1      -3.909  -0.407   1.523  1.00  0.00     0.091 N 
HETATM    7  C8  UNL     1      -5.202  -0.024   2.054  1.00  0.00     0.302 C 
HETATM    8  C7  UNL     1      -5.643   1.327   1.536  1.00  0.00     0.302 C 
HETATM    9  N2  UNL     1      -5.660   1.376   0.094  1.00  0.00     0.092 N 
HETATM   10  C31 UNL     1      -4.412   0.922  -0.420  1.00  0.00     0.302 C 
HETATM   11  C30 UNL     1      -3.934  -0.396   0.104  1.00  0.00     0.302 C 
BRANCH   9  12
HETATM   12  C6  UNL     1      -6.824   0.743  -0.476  1.00  0.00     0.277 C 
BRANCH  12  13
HETATM   13  C5  UNL     1      -8.093   1.478  -0.201  1.00  0.00     0.073 C 
BRANCH  13  14
HETATM   14  C4  UNL     1      -9.218   0.732  -0.823  1.00  0.00    -0.005 C 
HETATM   15  C3  UNL     1      -9.665  -0.409  -0.173  1.00  0.00     0.180 C 
HETATM   16  C2  UNL     1     -10.640  -1.312  -0.547  1.00  0.00     0.083 C 
HETATM   17  O1  UNL     1      -9.083  -0.642   0.921  1.00  0.00    -0.288 OA
HETATM   18  C1  UNL     1     -11.661  -1.171  -1.472  1.00  0.00     0.073 C 
HETATM   19  N1  UNL     1     -12.604  -2.230  -1.531  1.00  0.00    -0.101 NA
HETATM   20  C34 UNL     1     -11.834  -0.094  -2.334  1.00  0.00     0.080 C 
HETATM   21  C33 UNL     1     -10.994   0.968  -2.586  1.00  0.00     0.058 C 
HETATM   22 CL3  UNL     1     -13.353  -0.125  -3.212  1.00  0.00    -0.081 Cl
HETATM   23  C32 UNL     1      -9.751   1.210  -2.003  1.00  0.00     0.036 C 
HETATM   24 CL2  UNL     1     -11.535   2.145  -3.760  1.00  0.00    -0.082 Cl
ENDBRANCH  13  14
ENDBRANCH  12  13
ENDBRANCH   9  12
ENDBRANCH   5   6
ENDBRANCH   4   5
ENDBRANCH   3   4
ENDBRANCH   2   3
ENDBRANCH   1   2
BRANCH   1  25
HETATM   25  N4  UNL     1       1.614  -0.275   1.787  1.00  0.00     0.091 N 
HETATM   26  C14 UNL     1       2.821   0.094   2.528  1.00  0.00     0.302 C 
HETATM   27  C15 UNL     1       4.013  -0.701   2.029  1.00  0.00     0.302 C 
HETATM   28  N5  UNL     1       4.058  -0.716   0.581  1.00  0.00     0.092 N 
HETATM   29  C28 UNL     1       3.228   0.281  -0.005  1.00  0.00     0.302 C 
HETATM   30  C29 UNL     1       1.795   0.172   0.416  1.00  0.00     0.302 C 
BRANCH  28  31
HETATM   31  C16 UNL     1       5.432  -0.718   0.170  1.00  0.00     0.277 C 
BRANCH  31  32
HETATM   32  C17 UNL     1       5.625  -0.671  -1.314  1.00  0.00     0.074 C 
BRANCH  32  33
HETATM   33  C18 UNL     1       7.160  -0.702  -1.533  1.00  0.00     0.063 C 
HETATM   34  N6  UNL     1       7.837   0.310  -0.969  1.00  0.00    -0.369 N 
ATOM     35  H6  UNL     1       7.087   0.857  -0.547  1.00  0.00     0.165 HD
BRANCH  34  36
HETATM   36  C19 UNL     1       8.830   0.962  -0.664  1.00  0.00     0.045 A 
HETATM   37  C20 UNL     1       8.695   2.145   0.092  1.00  0.00     0.047 A 
HETATM   38  C21 UNL     1       9.771   2.871   0.439  1.00  0.00     0.090 A 
HETATM   39  N7  UNL     1      11.021   2.520   0.092  1.00  0.00    -0.365 N 
HETATM   40  C22 UNL     1      11.165   1.390  -0.632  1.00  0.00     0.044 A 
ATOM     41  H7  UNL     1      11.827   3.083   0.364  1.00  0.00     0.165 HD
HETATM   42  C23 UNL     1      12.470   1.052  -0.977  1.00  0.00     0.032 A 
HETATM   43  C27 UNL     1      10.116   0.598  -1.023  1.00  0.00     0.019 A 
HETATM   44  C24 UNL     1      12.714  -0.083  -1.715  1.00  0.00     0.026 A 
HETATM   45  C25 UNL     1      11.677  -0.886  -2.115  1.00  0.00     0.035 A 
HETATM   46 CL1  UNL     1      12.030  -2.304  -3.043  1.00  0.00    -0.084 Cl
HETATM   47  C26 UNL     1      10.367  -0.557  -1.775  1.00  0.00     0.040 A 
ENDBRANCH  34  36
ENDBRANCH  32  33
ENDBRANCH  31  32
ENDBRANCH  28  31
ENDBRANCH   1  25
TORSDOF 13
