REMARK  14 active torsions:
REMARK  status: ('A' for Active; 'I' for Inactive)
REMARK    1  A    between atoms: C2_2  and  N1_3 
REMARK    2  A    between atoms: C2_2  and  C16_37 
REMARK    3  A    between atoms: N1_3  and  N2_5 
REMARK    4  A    between atoms: N2_5  and  C3_7 
REMARK    5  A    between atoms: C3_7  and  N3_8 
REMARK    6  A    between atoms: C3_7  and  C11_24 
REMARK    7  A    between atoms: N3_8  and  N4_10 
REMARK    8  A    between atoms: N4_10  and  C4_12 
REMARK    9  A    between atoms: C4_12  and  C5_13 
REMARK   10  A    between atoms: C8_16  and  O1_17 
REMARK   11  A    between atoms: C9_19  and  N5_20 
REMARK   12  A    between atoms: C11_24  and  C12_26 
REMARK   13  A    between atoms: N6_28  and  O5_29 
REMARK   14  A    between atoms: C19_46  and  N11_47 
ROOT
HETATM    1  C3  UNL     1       0.846   1.985   0.385  1.00  0.00     0.187 C 
ENDROOT
BRANCH   1   2
HETATM    2  N2  UNL     1       1.869   1.362   0.930  1.00  0.00    -0.281 N 
ATOM      3  H2  UNL     1       2.498   1.913   1.514  1.00  0.00     0.188 HD
BRANCH   2   4
HETATM    4  N1  UNL     1       2.154   0.034   0.774  1.00  0.00    -0.301 N 
ATOM      5  H1  UNL     1       1.609  -0.663   1.282  1.00  0.00     0.186 HD
BRANCH   4   6
HETATM    6  C2  UNL     1       3.124  -0.354  -0.025  1.00  0.00     0.053 C 
HETATM    7  C1  UNL     1       3.875   0.693  -0.733  1.00  0.00     0.072 C 
BRANCH   6   8
HETATM    8  C16 UNL     1       3.388  -1.781  -0.150  1.00  0.00     0.115 A 
HETATM    9  N8  UNL     1       2.629  -2.672   0.564  1.00  0.00    -0.294 N 
HETATM   10  N9  UNL     1       2.841  -3.967   0.477  1.00  0.00    -0.289 N 
ATOM     11  H8  UNL     1       1.888  -2.325   1.173  1.00  0.00     0.187 HD
HETATM   12  C17 UNL     1       3.819  -4.473  -0.323  1.00  0.00     0.093 A 
ATOM     13  H9  UNL     1       2.260  -4.606   1.020  1.00  0.00     0.188 HD
HETATM   14  C18 UNL     1       3.982  -5.960  -0.352  1.00  0.00     0.090 C 
HETATM   15  N10 UNL     1       4.579  -3.641  -1.032  1.00  0.00    -0.330 N 
HETATM   16  C19 UNL     1       4.368  -2.286  -0.951  1.00  0.00     0.131 A 
ATOM     17  H10 UNL     1       5.316  -4.009  -1.634  1.00  0.00     0.168 HD
BRANCH  16  18
HETATM   18  N11 UNL     1       5.101  -1.574  -1.629  1.00  0.00    -0.383 N 
ATOM     19 2H11 UNL     1       4.944  -0.568  -1.569  1.00  0.00     0.157 HD
ATOM     20 1H11 UNL     1       5.835  -1.952  -2.229  1.00  0.00     0.157 HD
ENDBRANCH  16  18
ENDBRANCH   6   8
ENDBRANCH   4   6
ENDBRANCH   2   4
ENDBRANCH   1   2
BRANCH   1  21
HETATM   21  N3  UNL     1      -0.011   1.212  -0.417  1.00  0.00    -0.281 N 
ATOM     22  H3  UNL     1       0.152   1.170  -1.423  1.00  0.00     0.188 HD
BRANCH  21  23
HETATM   23  N4  UNL     1      -1.077   0.502   0.128  1.00  0.00    -0.309 N 
ATOM     24  H4  UNL     1      -1.767   0.992   0.697  1.00  0.00     0.186 HD
BRANCH  23  25
HETATM   25  C4  UNL     1      -1.206  -0.756  -0.073  1.00  0.00     0.118 C 
BRANCH  25  26
HETATM   26  C5  UNL     1      -2.353  -1.412   0.538  1.00  0.00    -0.017 A 
HETATM   27  C6  UNL     1      -2.521  -2.763   0.344  1.00  0.00     0.016 A 
HETATM   28  C7  UNL     1      -3.588  -3.415   0.906  1.00  0.00     0.040 A 
HETATM   29  C8  UNL     1      -4.512  -2.758   1.670  1.00  0.00     0.098 A 
HETATM   30  C9  UNL     1      -4.354  -1.388   1.876  1.00  0.00     0.136 A 
HETATM   31  C10 UNL     1      -3.274  -0.738   1.304  1.00  0.00     0.052 A 
BRANCH  29  32
HETATM   32  O1  UNL     1      -5.595  -3.385   2.249  1.00  0.00    -0.358 OA
ATOM     33  H1  UNL     1      -6.237  -2.928   2.780  1.00  0.00     0.217 HD
ENDBRANCH  29  32
BRANCH  30  34
HETATM   34  N5  UNL     1      -5.279  -0.644   2.661  1.00  0.00    -0.113 N 
HETATM   35  O2  UNL     1      -5.901  -1.134   3.635  1.00  0.00    -0.532 OA
HETATM   36  O3  UNL     1      -5.540   0.688   2.378  1.00  0.00    -0.532 OA
ENDBRANCH  30  34
ENDBRANCH  25  26
ENDBRANCH  23  25
ENDBRANCH  21  23
ENDBRANCH   1  21
BRANCH   1  37
HETATM   37  C11 UNL     1       0.653   3.374   0.652  1.00  0.00     0.235 C 
HETATM   38  O4  UNL     1       1.531   3.902   1.447  1.00  0.00    -0.283 OA
BRANCH  37  39
HETATM   39  C12 UNL     1      -0.374   4.248   0.164  1.00  0.00     0.104 A 
HETATM   40  C13 UNL     1      -1.229   3.990  -0.865  1.00  0.00     0.149 A 
HETATM   41  N6  UNL     1      -2.160   4.905  -1.268  1.00  0.00    -0.183 N 
HETATM   42  C14 UNL     1      -2.275   6.095  -0.673  1.00  0.00     0.353 A 
HETATM   43  O6  UNL     1      -3.133   6.935  -1.046  1.00  0.00    -0.244 OA
HETATM   44  N7  UNL     1      -1.454   6.397   0.346  1.00  0.00    -0.273 N 
HETATM   45  C15 UNL     1      -0.537   5.517   0.755  1.00  0.00     0.265 A 
ATOM     46  H7  UNL     1      -1.531   7.302   0.809  1.00  0.00     0.173 HD
HETATM   47  O7  UNL     1       0.216   5.828   1.710  1.00  0.00    -0.267 OA
BRANCH  41  48
HETATM   48  O5  UNL     1      -3.017   4.626  -2.310  1.00  0.00    -0.279 OA
ATOM     49  H5  UNL     1      -3.664   5.262  -2.590  1.00  0.00     0.245 HD
ENDBRANCH  41  48
ENDBRANCH  37  39
ENDBRANCH   1  37
TORSDOF 14
