REMARK  11 active torsions:
REMARK  status: ('A' for Active; 'I' for Inactive)
REMARK    1  A    between atoms: C4_4  and  C5_5 
REMARK    2  A    between atoms: C5_5  and  O1_6 
REMARK    3  A    between atoms: C5_5  and  C35_45 
REMARK    4  A    between atoms: O1_6  and  C6_7 
REMARK    5  A    between atoms: C9_10  and  C11_12 
REMARK    6  A    between atoms: C15_16  and  O2_17 
REMARK    7  A    between atoms: O2_17  and  C16_18 
REMARK    8  A    between atoms: C18_20  and  O3_21 
REMARK    9  A    between atoms: C19_23  and  O4_24 
REMARK   10  A    between atoms: C24_31  and  C32_41 
REMARK   11  A    between atoms: C29_36  and  O6_37 
ROOT
HETATM    1  C11 UNL     1       0.368  -2.883   0.913  1.00  0.00     0.024 C 
HETATM    2  C12 UNL     1       1.822  -2.472   0.789  1.00  0.00     0.013 C 
HETATM    3  C13 UNL     1       2.352  -2.595  -0.605  1.00  0.00    -0.002 C 
HETATM    4  C14 UNL     1       3.585  -1.795  -0.817  1.00  0.00     0.037 C 
HETATM    5  C15 UNL     1       3.413  -0.364  -1.189  1.00  0.00     0.125 C 
HETATM    6  C22 UNL     1       2.031   0.150  -1.356  1.00  0.00     0.038 C 
HETATM    7  C23 UNL     1       0.953  -0.819  -1.665  1.00  0.00     0.010 C 
HETATM    8  C24 UNL     1      -0.376  -0.522  -0.987  1.00  0.00    -0.014 C 
HETATM    9  C25 UNL     1      -0.664   0.918  -1.488  1.00  0.00     0.021 C 
HETATM   10  C26 UNL     1      -1.382  -1.343  -1.719  1.00  0.00    -0.020 C 
HETATM   11  C27 UNL     1      -1.144  -2.612  -2.012  1.00  0.00    -0.022 C 
HETATM   12  C28 UNL     1       0.159  -3.180  -1.581  1.00  0.00     0.046 C 
HETATM   13  C29 UNL     1       0.072  -3.797  -0.202  1.00  0.00     0.131 C 
HETATM   14  C30 UNL     1       1.321  -2.259  -1.667  1.00  0.00    -0.026 C 
HETATM   15  C31 UNL     1       2.048  -2.558  -2.992  1.00  0.00     0.016 C 
ENDROOT
BRANCH   5  16
HETATM   16  O2  UNL     1       4.050   0.377  -0.171  1.00  0.00    -0.356 OA
BRANCH  16  17
HETATM   17  C16 UNL     1       5.116   1.136  -0.624  1.00  0.00     0.263 C 
HETATM   18  C17 UNL     1       4.801   2.581  -0.348  1.00  0.00     0.095 C 
HETATM   19  C18 UNL     1       5.917   3.430  -0.857  1.00  0.00     0.154 C 
HETATM   20  C19 UNL     1       7.267   2.767  -0.713  1.00  0.00     0.175 C 
HETATM   21  C20 UNL     1       7.247   1.597   0.211  1.00  0.00     0.151 C 
HETATM   22  C21 UNL     1       7.276   2.031   1.659  1.00  0.00     0.042 C 
HETATM   23  O5  UNL     1       6.259   0.682   0.025  1.00  0.00    -0.354 OA
BRANCH  19  24
HETATM   24  O3  UNL     1       5.766   3.780  -2.203  1.00  0.00    -0.393 OA
ATOM     25  H3  UNL     1       6.477   4.321  -2.527  1.00  0.00     0.210 HD
ENDBRANCH  19  24
BRANCH  20  26
HETATM   26  O4  UNL     1       8.140   3.726  -0.184  1.00  0.00    -0.390 OA
ATOM     27  H4  UNL     1       8.989   3.309  -0.093  1.00  0.00     0.210 HD
ENDBRANCH  20  26
ENDBRANCH  16  17
ENDBRANCH   5  16
BRANCH   8  28
HETATM   28  C32 UNL     1      -0.427  -0.511   0.461  1.00  0.00     0.040 C 
HETATM   29  C9  UNL     1      -0.544  -1.767   1.250  1.00  0.00    -0.029 C 
HETATM   30  C8  UNL     1      -1.926  -2.242   1.559  1.00  0.00     0.013 C 
HETATM   31  C10 UNL     1      -0.028  -1.346   2.665  1.00  0.00     0.016 C 
HETATM   32  C7  UNL     1      -2.887  -1.205   2.050  1.00  0.00     0.037 C 
HETATM   33  C6  UNL     1      -2.864  -0.013   1.081  1.00  0.00     0.154 C 
HETATM   34  C33 UNL     1      -1.447   0.436   1.020  1.00  0.00    -0.018 C 
HETATM   35  C34 UNL     1      -1.181   1.647   1.478  1.00  0.00     0.194 C 
HETATM   36  F1  UNL     1       0.084   2.170   1.476  1.00  0.00    -0.219 F 
BRANCH  33  37
HETATM   37  O1  UNL     1      -3.740   0.955   1.478  1.00  0.00    -0.372 OA
BRANCH  37  38
HETATM   38  C5  UNL     1      -4.835   1.123   0.631  1.00  0.00     0.148 C 
BRANCH  38  39
HETATM   39  C4  UNL     1      -6.121   0.973   1.305  1.00  0.00     0.007 C 
HETATM   40  C2  UNL     1      -6.967  -0.030   1.252  1.00  0.00    -0.089 C 
HETATM   41  C1  UNL     1      -6.656  -1.213   0.418  1.00  0.00     0.042 C 
HETATM   42  C3  UNL     1      -8.252  -0.055   2.015  1.00  0.00     0.042 C 
ENDBRANCH  38  39
BRANCH  38  43
HETATM   43  C35 UNL     1      -4.757   2.507  -0.033  1.00  0.00     0.010 C 
HETATM   44  C36 UNL     1      -5.852   2.655  -1.035  1.00  0.00     0.012 C 
HETATM   45  C37 UNL     1      -4.737   3.602   1.003  1.00  0.00     0.012 C 
ENDBRANCH  38  43
ENDBRANCH  37  38
ENDBRANCH  33  37
ENDBRANCH   8  28
BRANCH  13  46
HETATM   46  O6  UNL     1      -1.047  -4.604  -0.082  1.00  0.00    -0.394 OA
ATOM     47  H6  UNL     1      -1.238  -5.194  -0.802  1.00  0.00     0.210 HD
ENDBRANCH  13  46
TORSDOF 11
