REMARK  4 active torsions:
REMARK  status: ('A' for Active; 'I' for Inactive)
REMARK    1  A    between atoms: C2_2  and  N1_3 
REMARK    2  A    between atoms: C5_8  and  O1_9 
REMARK    3  A    between atoms: C7_11  and  O2_12 
REMARK    4  A    between atoms: C11_16  and  C12_17 
ROOT
HETATM    1  N1  UNL     1      -1.814  -0.558   0.391  1.00  0.00    -0.290 N 
HETATM    2  N2  UNL     1      -1.030  -1.470   0.942  1.00  0.00    -0.297 N 
ATOM      3  H2  UNL     1      -1.333  -2.254   1.520  1.00  0.00     0.187 HD
HETATM    4  C3  UNL     1       0.221  -1.181   0.607  1.00  0.00     0.063 A 
HETATM    5  C4  UNL     1       1.441  -1.800   0.907  1.00  0.00     0.071 A 
HETATM    6  C5  UNL     1       2.611  -1.279   0.419  1.00  0.00     0.103 A 
HETATM    7  C7  UNL     1       2.628  -0.137  -0.378  1.00  0.00     0.102 A 
HETATM    8  C9  UNL     1       1.438   0.473  -0.675  1.00  0.00     0.055 A 
HETATM    9  C10 UNL     1       0.262  -0.056  -0.181  1.00  0.00     0.025 A 
HETATM   10  C11 UNL     1      -1.082   0.330  -0.305  1.00  0.00     0.078 A 
ENDROOT
BRANCH  10  11
HETATM   11  C12 UNL     1      -1.498   1.489  -1.051  1.00  0.00     0.115 C 
HETATM   12  N3  UNL     1      -2.715   1.817  -1.125  1.00  0.00    -0.401 N 
HETATM   13  C13 UNL     1      -3.283   2.924  -1.815  1.00  0.00     0.145 C 
ATOM     14  H3  UNL     1      -3.372   1.214  -0.629  1.00  0.00     0.158 HD
ENDBRANCH  10  11
BRANCH   1  15
HETATM   15  C2  UNL     1      -3.258  -0.572   0.541  1.00  0.00     0.145 C 
HETATM   16  C1  UNL     1      -3.747   0.235   1.699  1.00  0.00     0.028 C 
ENDBRANCH   1  15
BRANCH   7  17
HETATM   17  O2  UNL     1       3.856   0.323  -0.830  1.00  0.00    -0.353 OA
HETATM   18  C8  UNL     1       3.917   1.483  -1.644  1.00  0.00     0.210 C 
ENDBRANCH   7  17
BRANCH   6  19
HETATM   19  O1  UNL     1       3.828  -1.881   0.708  1.00  0.00    -0.353 OA
HETATM   20  C6  UNL     1       3.820  -3.038   1.514  1.00  0.00     0.210 C 
ENDBRANCH   6  19
TORSDOF 4
