REMARK  12 active torsions:
REMARK  status: ('A' for Active; 'I' for Inactive)
REMARK    1  A    between atoms: C2_2  and  N1_3 
REMARK    2  A    between atoms: C2_2  and  C4_10 
REMARK       I    between atoms: N1_3  and  C3_5 
REMARK       I    between atoms: C4_10  and  N4_12 
REMARK    3  A    between atoms: N4_12  and  C5_14 
REMARK    4  A    between atoms: C5_14  and  C7_16 
REMARK    5  A    between atoms: C7_16  and  C8_17 
REMARK    6  A    between atoms: C7_16  and  N5_20 
REMARK    7  A    between atoms: C15_25  and  C16_26 
REMARK       I    between atoms: C16_26  and  N6_28 
REMARK    8  A    between atoms: N6_28  and  C17_30 
REMARK    9  A    between atoms: C17_30  and  C18_31 
REMARK   10  A    between atoms: C17_30  and  C21_37 
REMARK   11  A    between atoms: C19_32  and  S1_33 
REMARK   12  A    between atoms: C21_37  and  O5_39 
ROOT
HETATM    1  N5  UNL     1      -0.023  -1.487  -0.188  1.00  0.00    -0.372 N 
HETATM    2  C11 UNL     1      -0.158  -2.830   0.396  1.00  0.00     0.123 C 
HETATM    3  C12 UNL     1       0.424  -3.881  -0.529  1.00  0.00     0.020 C 
HETATM    4  C13 UNL     1       1.801  -3.499  -1.009  1.00  0.00     0.004 C 
HETATM    5  C14 UNL     1       1.917  -2.061  -1.360  1.00  0.00     0.035 C 
HETATM    6  C15 UNL     1       1.315  -1.194  -0.216  1.00  0.00     0.176 C 
ENDROOT
BRANCH   1   7
HETATM    7  C7  UNL     1      -1.068  -0.620   0.129  1.00  0.00     0.011 C 
BRANCH   7   8
HETATM    8  C5  UNL     1      -2.403  -1.103  -0.400  1.00  0.00     0.126 C 
HETATM    9  C6  UNL     1      -2.169  -1.544  -1.856  1.00  0.00     0.038 C 
BRANCH   8  10
HETATM   10  N4  UNL     1      -3.429  -0.094  -0.478  1.00  0.00    -0.350 N 
HETATM   11  C4  UNL     1      -4.760  -0.279  -0.046  1.00  0.00     0.240 C 
HETATM   12  O1  UNL     1      -5.053  -1.398   0.437  1.00  0.00    -0.271 OA
ATOM     13  H4  UNL     1      -3.177   0.813  -0.871  1.00  0.00     0.163 HD
BRANCH  11  14
HETATM   14  C2  UNL     1      -5.838   0.727  -0.113  1.00  0.00     0.172 C 
HETATM   15  C1  UNL     1      -5.507   2.035   0.546  1.00  0.00     0.042 C 
BRANCH  14  16
HETATM   16  N1  UNL     1      -7.084   0.245   0.403  1.00  0.00    -0.352 N 
HETATM   17  C3  UNL     1      -7.309  -0.038   1.769  1.00  0.00     0.182 C 
HETATM   18  N2  UNL     1      -7.730  -1.196   2.119  1.00  0.00    -0.374 N 
HETATM   19  N3  UNL     1      -7.082   0.929   2.784  1.00  0.00    -0.064 NA
ATOM     20  H22 UNL     1      -7.893  -1.891   1.390  1.00  0.00     0.158 HD
ATOM     21  H21 UNL     1      -7.892  -1.400   3.105  1.00  0.00     0.158 HD
ATOM     22  H1  UNL     1      -7.852   0.098  -0.252  1.00  0.00     0.163 HD
ENDBRANCH  14  16
ENDBRANCH  11  14
ENDBRANCH   8  10
ENDBRANCH   7   8
BRANCH   7  23
HETATM   23  C8  UNL     1      -1.112  -0.068   1.519  1.00  0.00     0.025 C 
HETATM   24  C9  UNL     1      -1.612  -1.009   2.581  1.00  0.00     0.016 C 
HETATM   25  C10 UNL     1      -1.884   1.210   1.682  1.00  0.00     0.016 C 
ENDBRANCH   7  23
ENDBRANCH   1   7
BRANCH   6  26
HETATM   26  C16 UNL     1       1.883   0.127  -0.317  1.00  0.00     0.241 C 
HETATM   27  O2  UNL     1       1.271   1.210  -0.458  1.00  0.00    -0.271 OA
HETATM   28  N6  UNL     1       3.297   0.290  -0.255  1.00  0.00    -0.349 N 
ATOM     29  H6  UNL     1       3.864  -0.550  -0.140  1.00  0.00     0.163 HD
BRANCH  28  30
HETATM   30  C17 UNL     1       3.982   1.543  -0.342  1.00  0.00     0.136 C 
BRANCH  30  31
HETATM   31  C18 UNL     1       4.976   1.442  -1.446  1.00  0.00     0.012 C 
HETATM   32  C19 UNL     1       5.246   2.434  -2.263  1.00  0.00     0.106 C 
BRANCH  32  33
HETATM   33  S1  UNL     1       6.431   2.223  -3.533  1.00  0.00     0.161 S 
HETATM   34  C20 UNL     1       7.597   0.972  -3.022  1.00  0.00     0.166 C 
HETATM   35  O3  UNL     1       7.151   3.508  -3.810  1.00  0.00    -0.224 OA
HETATM   36  O4  UNL     1       5.723   1.694  -4.746  1.00  0.00    -0.224 OA
ENDBRANCH  32  33
ENDBRANCH  30  31
BRANCH  30  37
HETATM   37  C21 UNL     1       4.752   1.894   0.907  1.00  0.00     0.140 C 
HETATM   38  C22 UNL     1       3.885   1.995   2.130  1.00  0.00     0.042 C 
BRANCH  37  39
HETATM   39  O5  UNL     1       5.375   3.127   0.720  1.00  0.00    -0.394 OA
ATOM     40  H5  UNL     1       5.860   3.348   1.506  1.00  0.00     0.210 HD
ENDBRANCH  37  39
ENDBRANCH  30  37
ENDBRANCH  28  30
ENDBRANCH   6  26
TORSDOF 12
