REMARK  2 active torsions:
REMARK  status: ('A' for Active; 'I' for Inactive)
REMARK    1  A    between atoms: C4_4  and  C5_5 
REMARK    2  A    between atoms: C6_12  and  C7_13 
ROOT
HETATM    1  C5  UNL     1      -0.434   0.967  -0.892  1.00  0.00     0.082 A 
HETATM    2  N1  UNL     1      -0.362   1.512  -2.094  1.00  0.00    -0.286 N 
ATOM      3  H1  UNL     1       0.483   1.886  -2.525  1.00  0.00     0.188 HD
HETATM    4  N2  UNL     1      -1.534   1.494  -2.634  1.00  0.00    -0.242 N 
ATOM      5  H2  UNL     1      -1.762   1.852  -3.561  1.00  0.00     0.208 HD
HETATM    6  N3  UNL     1      -2.417   0.923  -1.773  1.00  0.00    -0.288 N 
ATOM      7  H3  UNL     1      -3.412   0.778  -1.947  1.00  0.00     0.188 HD
HETATM    8  C6  UNL     1      -1.776   0.591  -0.685  1.00  0.00     0.057 A 
ENDROOT
BRANCH   1   9
HETATM    9  C4  UNL     1       0.657   0.697   0.061  1.00  0.00     0.238 C 
HETATM   10  C3  UNL     1       1.987   0.982  -0.608  1.00  0.00     0.039 C 
HETATM   11  C2  UNL     1       3.127   0.727   0.339  1.00  0.00     0.004 C 
HETATM   12  C1  UNL     1       3.133  -0.708   0.784  1.00  0.00     0.027 C 
HETATM   13  C10 UNL     1       1.916  -1.385   0.206  1.00  0.00     0.233 C 
HETATM   14  N4  UNL     1       0.677  -0.702   0.484  1.00  0.00    -0.065 N 
ATOM     15  H42 UNL     1       0.441  -0.779   1.473  1.00  0.00     0.278 HD
ATOM     16  H41 UNL     1      -0.109  -1.209   0.078  1.00  0.00     0.278 HD
ENDBRANCH   1   9
BRANCH   8  17
HETATM   17  C7  UNL     1      -2.317   0.104   0.593  1.00  0.00     0.039 A 
HETATM   18  C8  UNL     1      -2.713  -1.275   0.968  1.00  0.00     0.011 A 
HETATM   19  C9  UNL     1      -3.759  -0.536   0.280  1.00  0.00     0.011 A 
ENDBRANCH   8  17
TORSDOF 2
