REMARK  9 active torsions:
REMARK  status: ('A' for Active; 'I' for Inactive)
REMARK    1  A    between atoms: N1_2  and  C4_5 
REMARK    2  A    between atoms: C4_5  and  C5_6 
REMARK    3  A    between atoms: C5_6  and  C6_7 
REMARK    4  A    between atoms: C6_7  and  C7_8 
REMARK    5  A    between atoms: C6_7  and  N3_13 
REMARK    6  A    between atoms: C7_8  and  N2_9 
REMARK       I    between atoms: N3_13  and  C11_15 
REMARK       I    between atoms: C11_15  and  N4_17 
REMARK    7  A    between atoms: N4_17  and  C12_19 
REMARK    8  A    between atoms: C12_19  and  C13_20 
REMARK    9  A    between atoms: C13_20  and  C14_21 
ROOT
HETATM    1  N3  UNL     1       0.000  -0.155  -0.196  1.00  0.00    -0.337 N 
ATOM      2  H3  UNL     1       0.027  -0.577  -1.124  1.00  0.00     0.164 HD
HETATM    3  C11 UNL     1       1.235   0.107   0.453  1.00  0.00     0.316 C 
HETATM    4  O1  UNL     1       1.292   0.628   1.600  1.00  0.00    -0.247 OA
HETATM    5  N4  UNL     1       2.448  -0.218  -0.188  1.00  0.00    -0.343 N 
ATOM      6  H4  UNL     1       2.427  -0.641  -1.116  1.00  0.00     0.164 HD
ENDROOT
BRANCH   1   7
HETATM    7  C6  UNL     1      -1.297   0.140   0.378  1.00  0.00     0.113 C 
BRANCH   7   8
HETATM    8  C5  UNL     1      -1.882   1.202  -0.569  1.00  0.00     0.055 C 
BRANCH   8   9
HETATM    9  C4  UNL     1      -3.281   1.583  -0.228  1.00  0.00     0.238 C 
BRANCH   9  10
HETATM   10  N1  UNL     1      -3.676   2.599  -1.219  1.00  0.00    -0.079 N 
HETATM   11  C1  UNL     1      -5.054   2.912  -0.990  1.00  0.00     0.271 C 
HETATM   12  C2  UNL     1      -3.569   1.951  -2.513  1.00  0.00     0.271 C 
HETATM   13  C3  UNL     1      -2.799   3.747  -1.157  1.00  0.00     0.271 C 
ENDBRANCH   9  10
ENDBRANCH   8   9
ENDBRANCH   7   8
BRANCH   7  14
HETATM   14  C7  UNL     1      -2.150  -1.077   0.288  1.00  0.00     0.261 C 
BRANCH  14  15
HETATM   15  N2  UNL     1      -1.771  -2.187   1.099  1.00  0.00    -0.077 N 
HETATM   16  C8  UNL     1      -0.815  -2.992   0.349  1.00  0.00     0.271 C 
HETATM   17  C9  UNL     1      -2.915  -3.088   1.344  1.00  0.00     0.271 C 
HETATM   18  C10 UNL     1      -1.249  -1.858   2.398  1.00  0.00     0.271 C 
ENDBRANCH  14  15
ENDBRANCH   7  14
ENDBRANCH   1   7
BRANCH   5  19
HETATM   19  C12 UNL     1       3.708   0.036   0.442  1.00  0.00     0.125 C 
BRANCH  19  20
HETATM   20  C13 UNL     1       4.866  -0.398  -0.440  1.00  0.00     0.035 C 
BRANCH  20  21
HETATM   21  C14 UNL     1       6.142  -0.092   0.307  1.00  0.00     0.097 C 
HETATM   22  C15 UNL     1       7.409  -0.449  -0.402  1.00  0.00     0.136 C 
HETATM   23  N5  UNL     1       7.795  -1.283   0.733  1.00  0.00    -0.360 N 
HETATM   24  C16 UNL     1       6.472  -1.196   1.246  1.00  0.00     0.223 C 
ATOM     25  H5  UNL     1       8.657  -1.739   1.033  1.00  0.00     0.162 HD
HETATM   26  O2  UNL     1       5.853  -1.822   2.143  1.00  0.00    -0.273 OA
ENDBRANCH  20  21
ENDBRANCH  19  20
ENDBRANCH   5  19
TORSDOF 9
