REMARK  3 active torsions:
REMARK  status: ('A' for Active; 'I' for Inactive)
REMARK    1  A    between atoms: N1_3  and  C4_5 
REMARK    2  A    between atoms: C4_5  and  C5_6 
REMARK    3  A    between atoms: C6_7  and  C7_8 
ROOT
HETATM    1  C1  UNL     1      -2.717  -1.549  -0.889  1.00  0.00     0.030 C 
HETATM    2  C2  UNL     1      -2.230  -0.566  -0.386  1.00  0.00    -0.028 C 
HETATM    3  N1  UNL     1      -1.676   0.601   0.202  1.00  0.00    -0.237 NA
HETATM    4  C3  UNL     1      -2.762   1.422   0.759  1.00  0.00     0.127 C 
ENDROOT
BRANCH   3   5
HETATM    5  C4  UNL     1      -0.868   0.183   1.307  1.00  0.00     0.198 C 
BRANCH   5   6
HETATM    6  C5  UNL     1       0.436  -0.237   0.791  1.00  0.00    -0.091 C 
HETATM    7  C6  UNL     1       1.532  -0.592   0.379  1.00  0.00    -0.106 C 
BRANCH   7   8
HETATM    8  C7  UNL     1       2.847  -1.031  -0.094  1.00  0.00     0.089 C 
HETATM    9  C8  UNL     1       3.505   0.099  -0.818  1.00  0.00     0.018 C 
ENDBRANCH   7   8
ENDBRANCH   5   6
ENDBRANCH   3   5
TORSDOF 3
