REMARK  14 active torsions:
REMARK  status: ('A' for Active; 'I' for Inactive)
REMARK       I    between atoms: C2_2  and  N1_4 
REMARK    1  A    between atoms: N1_4  and  C3_6 
REMARK    2  A    between atoms: C3_6  and  O2_7 
REMARK    3  A    between atoms: C3_6  and  C4_9 
REMARK    4  A    between atoms: N2_11  and  C6_12 
REMARK    5  A    between atoms: C9_15  and  N3_16 
REMARK    6  A    between atoms: N3_16  and  C10_17 
REMARK    7  A    between atoms: N3_16  and  N5_24 
REMARK    8  A    between atoms: C10_17  and  C11_18 
REMARK    9  A    between atoms: C13_27  and  C14_28 
REMARK       I    between atoms: C14_28  and  N7_30 
REMARK   10  A    between atoms: N7_30  and  N8_32 
REMARK   11  A    between atoms: C15_37  and  C16_38 
REMARK   12  A    between atoms: C16_38  and  N11_43 
REMARK   13  A    between atoms: N10_39  and  O4_41 
REMARK   14  A    between atoms: C18_47  and  N13_48 
ROOT
HETATM    1  N11 UNL     1      -2.912   4.091   0.254  1.00  0.00    -0.276 N 
ATOM      2  H11 UNL     1      -2.193   4.709   0.629  1.00  0.00     0.179 HD
HETATM    3  C17 UNL     1      -3.117   4.099  -1.112  1.00  0.00     0.183 C 
HETATM    4  N12 UNL     1      -3.278   4.096  -2.264  1.00  0.00    -0.172 NA
ENDROOT
BRANCH   1   5
HETATM    5  C16 UNL     1      -3.628   3.287   1.168  1.00  0.00     0.165 C 
HETATM    6  N10 UNL     1      -4.220   3.838   2.149  1.00  0.00    -0.250 N 
ATOM      7  H10 UNL     1      -4.725   3.189   2.752  1.00  0.00     0.196 HD
BRANCH   5   8
HETATM    8  C15 UNL     1      -3.780   1.833   1.082  1.00  0.00     0.128 A 
HETATM    9  N9  UNL     1      -5.045   1.317   1.200  1.00  0.00    -0.331 N 
HETATM   10  C13 UNL     1      -5.244  -0.002   1.154  1.00  0.00     0.193 A 
ATOM     11  H9  UNL     1      -5.839   1.945   1.324  1.00  0.00     0.168 HD
HETATM   12  N6  UNL     1      -4.175  -0.777   0.992  1.00  0.00    -0.258 N 
HETATM   13  N5  UNL     1      -2.916  -0.309   0.873  1.00  0.00    -0.173 N 
ATOM     14  H6  UNL     1      -4.316  -1.787   0.956  1.00  0.00     0.191 HD
HETATM   15  C18 UNL     1      -2.692   1.013   0.917  1.00  0.00     0.170 A 
BRANCH  10  16
HETATM   16  C14 UNL     1      -6.552  -0.636   1.270  1.00  0.00     0.304 C 
HETATM   17  O3  UNL     1      -6.705  -1.879   1.206  1.00  0.00    -0.263 OA
HETATM   18  N7  UNL     1      -7.699   0.171   1.461  1.00  0.00    -0.270 N 
ATOM     19  H7  UNL     1      -7.592   1.184   1.515  1.00  0.00     0.189 HD
BRANCH  18  20
HETATM   20  N8  UNL     1      -8.966  -0.384   1.576  1.00  0.00    -0.342 N 
ATOM     21  H82 UNL     1      -9.055  -1.399   1.519  1.00  0.00     0.176 HD
ATOM     22  H81 UNL     1      -9.793   0.198   1.714  1.00  0.00     0.176 HD
ENDBRANCH  18  20
ENDBRANCH  10  16
BRANCH  13  23
HETATM   23  N3  UNL     1      -1.896  -1.247   0.713  1.00  0.00    -0.267 N 
BRANCH  23  24
HETATM   24  C9  UNL     1      -0.560  -1.010   0.392  1.00  0.00     0.053 A 
HETATM   25  C8  UNL     1      -0.101  -0.747  -0.888  1.00  0.00     0.033 A 
HETATM   26  C7  UNL     1       1.221  -0.539  -1.204  1.00  0.00     0.034 A 
HETATM   27  C6  UNL     1       2.139  -0.595  -0.191  1.00  0.00     0.057 A 
HETATM   28  C20 UNL     1       1.750  -0.848   1.090  1.00  0.00     0.034 A 
HETATM   29  C19 UNL     1       0.397  -1.056   1.384  1.00  0.00     0.033 A 
BRANCH  27  30
HETATM   30  N2  UNL     1       3.521  -0.409  -0.474  1.00  0.00    -0.251 N 
HETATM   31  C5  UNL     1       4.345   0.605  -0.148  1.00  0.00     0.149 A 
HETATM   32  C4  UNL     1       5.606   0.372  -0.632  1.00  0.00     0.092 A 
HETATM   33  N15 UNL     1       5.527  -0.813  -1.264  1.00  0.00    -0.284 N 
HETATM   34  N14 UNL     1       4.295  -1.268  -1.167  1.00  0.00    -0.236 N 
ATOM     35  H15 UNL     1       6.297  -1.283  -1.741  1.00  0.00     0.188 HD
ATOM     36  H14 UNL     1       3.971  -2.150  -1.562  1.00  0.00     0.209 HD
BRANCH  32  37
HETATM   37  C3  UNL     1       6.838   1.235  -0.510  1.00  0.00     0.274 C 
BRANCH  37  38
HETATM   38  N1  UNL     1       7.468   1.287  -1.835  1.00  0.00    -0.330 N 
HETATM   39  C2  UNL     1       8.767   0.812  -1.998  1.00  0.00     0.215 C 
HETATM   40  C1  UNL     1       9.445   0.838  -3.306  1.00  0.00     0.117 C 
HETATM   41  O1  UNL     1       9.400   0.341  -1.013  1.00  0.00    -0.274 OA
ATOM     42  H1  UNL     1       6.957   1.669  -2.631  1.00  0.00     0.165 HD
ENDBRANCH  37  38
BRANCH  37  43
HETATM   43  O2  UNL     1       6.516   2.532  -0.159  1.00  0.00    -0.371 OA
ATOM     44  H2  UNL     1       6.108   2.498   0.698  1.00  0.00     0.212 HD
ENDBRANCH  37  43
ENDBRANCH  32  37
ENDBRANCH  27  30
ENDBRANCH  23  24
BRANCH  23  45
HETATM   45  C10 UNL     1      -2.273  -2.658   0.925  1.00  0.00     0.195 C 
BRANCH  45  46
HETATM   46  C11 UNL     1      -2.049  -3.527  -0.252  1.00  0.00     0.269 C 
HETATM   47  N4  UNL     1      -2.458  -4.905  -0.057  1.00  0.00    -0.052 N 
HETATM   48  C12 UNL     1      -1.195  -5.175   0.583  1.00  0.00     0.309 C 
ATOM     49  H42 UNL     1      -3.333  -5.118   0.422  1.00  0.00     0.279 HD
ATOM     50  H41 UNL     1      -2.762  -5.468  -0.851  1.00  0.00     0.279 HD
HETATM   51  S1  UNL     1      -0.319  -4.021  -0.461  1.00  0.00    -0.107 SA
ENDBRANCH  45  46
ENDBRANCH  23  45
ENDBRANCH  13  23
BRANCH  15  52
HETATM   52  N13 UNL     1      -1.486   1.447   0.851  1.00  0.00    -0.381 N 
ATOM     53 2H13 UNL     1      -0.677   0.838   0.728  1.00  0.00     0.157 HD
ATOM     54 1H13 UNL     1      -1.316   2.452   0.884  1.00  0.00     0.157 HD
ENDBRANCH  15  52
ENDBRANCH   5   8
BRANCH   6  55
HETATM   55  O4  UNL     1      -4.298   5.111   2.530  1.00  0.00    -0.288 OA
ATOM     56  H4  UNL     1      -4.740   5.523   3.263  1.00  0.00     0.244 HD
ENDBRANCH   6  55
ENDBRANCH   1   5
TORSDOF 14
