REMARK  4 active torsions:
REMARK  status: ('A' for Active; 'I' for Inactive)
REMARK    1  A    between atoms: N4_8  and  C3_9 
REMARK    2  A    between atoms: C3_9  and  C4_10 
REMARK    3  A    between atoms: C4_10  and  O1_11 
REMARK    4  A    between atoms: N5_13  and  O2_14 
ROOT
HETATM    1  N1  UNL     1       1.706   2.554   0.570  1.00  0.00    -0.193 NA
HETATM    2  C1  UNL     1       1.888   1.541   0.019  1.00  0.00     0.106 C 
HETATM    3  C2  UNL     1       2.126   0.279  -0.674  1.00  0.00     0.332 C 
HETATM    4  N2  UNL     1       1.475   0.241  -1.964  1.00  0.00    -0.286 N 
ATOM      5  H2  UNL     1       1.855   0.603  -2.839  1.00  0.00     0.184 HD
HETATM    6  N3  UNL     1       0.364  -0.314  -1.818  1.00  0.00    -0.230 N 
ATOM      7  H3  UNL     1      -0.307  -0.474  -2.569  1.00  0.00     0.209 HD
HETATM    8  N4  UNL     1       0.166  -0.688  -0.477  1.00  0.00    -0.211 N 
HETATM    9  N5  UNL     1       1.486  -0.792   0.037  1.00  0.00    -0.050 NA
ENDROOT
BRANCH   9  10
HETATM   10  O2  UNL     1       1.523  -0.675   1.363  1.00  0.00    -0.290 OA
ATOM     11  H2  UNL     1       1.100  -1.384   1.833  1.00  0.00     0.239 HD
ENDBRANCH   9  10
BRANCH   8  12
HETATM   12  C3  UNL     1      -1.090  -0.910   0.205  1.00  0.00     0.193 C 
BRANCH  12  13
HETATM   13  C4  UNL     1      -1.886   0.377   0.148  1.00  0.00     0.187 C 
BRANCH  13  14
HETATM   14  O1  UNL     1      -3.113   0.251   0.783  1.00  0.00    -0.399 OA
ATOM     15  H1  UNL     1      -3.612   1.058   0.747  1.00  0.00     0.209 HD
ENDBRANCH  13  14
ENDBRANCH  12  13
ENDBRANCH   8  12
TORSDOF 4
