REMARK  2 active torsions:
REMARK  status: ('A' for Active; 'I' for Inactive)
REMARK    1  A    between atoms: O1_2  and  C2_3 
REMARK    2  A    between atoms: C4_6  and  C5_7 
ROOT
HETATM    1  C2  UNL     1      -0.564   1.226   0.734  1.00  0.00     0.128 A 
HETATM    2  C3  UNL     1       0.789   1.146   0.482  1.00  0.00     0.168 A 
HETATM    3  F1  UNL     1       1.526   2.243   0.743  1.00  0.00    -0.202 F 
HETATM    4  C4  UNL     1       1.367   0.003  -0.019  1.00  0.00     0.093 A 
HETATM    5  C6  UNL     1       0.552  -1.076  -0.267  1.00  0.00     0.162 A 
HETATM    6  F2  UNL     1       1.140  -2.211  -0.767  1.00  0.00    -0.203 F 
HETATM    7  C7  UNL     1      -0.829  -1.053  -0.031  1.00  0.00     0.110 A 
HETATM    8  C8  UNL     1      -1.340   0.121   0.470  1.00  0.00     0.089 A 
HETATM    9  S2  UNL     1      -3.113   0.220   0.799  1.00  0.00     0.007 SA
HETATM   10  N3  UNL     1      -3.798  -1.336   0.359  1.00  0.00    -0.160 N 
ATOM     11  H3  UNL     1      -4.798  -1.508   0.462  1.00  0.00     0.193 HD
HETATM   12  C9  UNL     1      -2.953  -2.338  -0.136  1.00  0.00     0.682 A 
HETATM   13  N4  UNL     1      -3.490  -3.482  -0.454  1.00  0.00    -0.234 N 
ATOM     14  H41 UNL     1      -2.875  -4.211  -0.814  1.00  0.00     0.174 HD
ATOM     15  H42 UNL     1      -4.497  -3.571  -0.319  1.00  0.00     0.174 HD
HETATM   16  N5  UNL     1      -1.565  -2.216  -0.322  1.00  0.00    -0.187 N 
ATOM     17  H5  UNL     1      -1.060  -3.021  -0.691  1.00  0.00     0.184 HD
ENDROOT
BRANCH   4  18
HETATM   18  C5  UNL     1       2.819  -0.109  -0.291  1.00  0.00     0.152 C 
HETATM   19  N1  UNL     1       3.235  -0.800  -1.326  1.00  0.00    -0.265 N 
HETATM   20  S1  UNL     1       4.992  -0.642  -1.225  1.00  0.00     0.287 S 
ATOM     21  H1  UNL     1       2.681  -1.304  -2.018  1.00  0.00     0.180 HD
HETATM   22  O2  UNL     1       5.401   0.651  -1.957  1.00  0.00    -0.202 OA
HETATM   23  O3  UNL     1       5.009  -0.231   0.460  1.00  0.00    -0.153 OA
HETATM   24  N2  UNL     1       3.828   0.466   0.464  1.00  0.00    -0.232 N 
ATOM     25  H2  UNL     1       3.703   1.337   0.981  1.00  0.00     0.197 HD
ENDBRANCH   4  18
BRANCH   1  26
HETATM   26  O1  UNL     1      -1.135   2.387   1.241  1.00  0.00    -0.351 OA
HETATM   27  C1  UNL     1      -1.629   3.412   0.396  1.00  0.00     0.210 C 
ENDBRANCH   1  26
TORSDOF 2
