REMARK  4 active torsions:
REMARK  status: ('A' for Active; 'I' for Inactive)
REMARK    1  A    between atoms: C2_2  and  C3_4 
REMARK    2  A    between atoms: C3_4  and  N1_5 
REMARK    3  A    between atoms: C3_4  and  C4_9 
REMARK    4  A    between atoms: N2_12  and  C6_13 
ROOT
HETATM    1  C4  UNL     1       0.998  -0.029   0.146  1.00  0.00     0.170 C 
HETATM    2  F1  UNL     1       1.283  -1.106   1.009  1.00  0.00    -0.237 F 
HETATM    3  C5  UNL     1      -0.238   0.674   0.667  1.00  0.00     0.174 C 
HETATM    4  N2  UNL     1      -1.300   0.206  -0.239  1.00  0.00    -0.340 N 
HETATM    5  C10 UNL     1      -0.677  -0.065  -1.482  1.00  0.00     0.232 C 
HETATM    6  O2  UNL     1      -1.201   0.103  -2.644  1.00  0.00    -0.272 OA
HETATM    7  C11 UNL     1       0.685  -0.575  -1.193  1.00  0.00     0.074 C 
HETATM    8  C12 UNL     1       1.657  -0.242  -2.291  1.00  0.00     0.028 C 
HETATM    9  C13 UNL     1       0.532  -2.097  -1.158  1.00  0.00     0.028 C 
ENDROOT
BRANCH   1  10
HETATM   10  C3  UNL     1       2.232   0.841   0.204  1.00  0.00     0.294 C 
BRANCH  10  11
HETATM   11  C2  UNL     1       2.450   1.283   1.600  1.00  0.00     0.156 C 
HETATM   12  C1  UNL     1       3.667   0.844   2.320  1.00  0.00     0.093 C 
HETATM   13  O1  UNL     1       1.662   1.995   2.176  1.00  0.00    -0.296 OA
ENDBRANCH  10  11
BRANCH  10  14
HETATM   14  N1  UNL     1       3.354   0.016  -0.194  1.00  0.00    -0.065 N 
ATOM     15  H13 UNL     1       4.251   0.485  -0.067  1.00  0.00     0.275 HD
ATOM     16  H12 UNL     1       3.513  -0.764   0.444  1.00  0.00     0.275 HD
ATOM     17  H11 UNL     1       3.204  -0.289  -1.156  1.00  0.00     0.275 HD
ENDBRANCH  10  14
ENDBRANCH   1  10
BRANCH   4  18
HETATM   18  C6  UNL     1      -2.685   0.069   0.086  1.00  0.00     0.024 C 
HETATM   19  C7  UNL     1      -3.239  -1.326  -0.064  1.00  0.00     0.037 C 
HETATM   20  C8  UNL     1      -3.499   0.967  -0.849  1.00  0.00     0.037 C 
HETATM   21  C9  UNL     1      -2.992   0.529   1.489  1.00  0.00     0.037 C 
ENDBRANCH   4  18
TORSDOF 4
