REMARK  4 active torsions:
REMARK  status: ('A' for Active; 'I' for Inactive)
REMARK    1  A    between atoms: C3_5  and  N2_6 
REMARK       I    between atoms: N2_6  and  C4_8 
REMARK    2  A    between atoms: C4_8  and  C5_10 
REMARK    3  A    between atoms: C6_13  and  C7_14 
REMARK    4  A    between atoms: C7_14  and  C8_16 
ROOT
HETATM    1  C1  UNL     1       0.366  -2.622   0.825  1.00  0.00     0.070 C 
HETATM    2  C2  UNL     1       0.711  -1.187   0.433  1.00  0.00     0.028 A 
HETATM    3  N1  UNL     1       1.932  -0.773   0.240  1.00  0.00    -0.339 N 
ATOM      4  H1  UNL     1       2.719  -1.413   0.348  1.00  0.00     0.168 HD
HETATM    5  C3  UNL     1       2.136   0.497  -0.100  1.00  0.00     0.152 A 
HETATM    6  S1  UNL     1       0.562   1.142  -0.153  1.00  0.00    -0.048 SA
HETATM    7  C6  UNL     1      -0.297  -0.275   0.271  1.00  0.00     0.077 A 
ENDROOT
BRANCH   5   8
HETATM    8  N2  UNL     1       3.284   1.095  -0.336  1.00  0.00    -0.306 N 
HETATM    9  C4  UNL     1       4.506   0.420  -0.250  1.00  0.00     0.237 C 
HETATM   10  O1  UNL     1       4.844  -0.121   0.848  1.00  0.00    -0.272 OA
ATOM     11  H2  UNL     1       3.283   2.083  -0.590  1.00  0.00     0.171 HD
BRANCH   9  12
HETATM   12  C5  UNL     1       5.465   0.285  -1.377  1.00  0.00     0.217 C 
HETATM   13 CL1  UNL     1       6.907  -0.632  -0.909  1.00  0.00    -0.121 Cl
ENDBRANCH   9  12
ENDBRANCH   5   8
BRANCH   7  14
HETATM   14  C7  UNL     1      -1.751  -0.480   0.427  1.00  0.00     0.175 C 
HETATM   15  O2  UNL     1      -2.166  -1.615   0.748  1.00  0.00    -0.291 OA
BRANCH  14  16
HETATM   16  C8  UNL     1      -2.715   0.608   0.217  1.00  0.00     0.015 C 
HETATM   17  C9  UNL     1      -2.607   1.143  -1.216  1.00  0.00     0.023 C 
HETATM   18  C10 UNL     1      -2.505   1.769   1.153  1.00  0.00     0.023 C 
HETATM   19  C11 UNL     1      -4.136   0.114   0.367  1.00  0.00     0.023 C 
ENDBRANCH  14  16
ENDBRANCH   7  14
TORSDOF 4
