REMARK  3 active torsions:
REMARK  status: ('A' for Active; 'I' for Inactive)
REMARK    1  A    between atoms: C2_2  and  C3_3 
REMARK    2  A    between atoms: C3_3  and  C5_5 
REMARK       I    between atoms: C5_5  and  N1_7 
REMARK    3  A    between atoms: N1_7  and  C6_9 
ROOT
HETATM    1  C6  UNL     1       1.961  -0.700  -0.636  1.00  0.00     0.168 A 
HETATM    2  N2  UNL     1       3.230  -1.092  -0.468  1.00  0.00    -0.278 N 
ATOM      3  H2  UNL     1       3.469  -2.082  -0.414  1.00  0.00     0.189 HD
HETATM    4  N3  UNL     1       4.129  -0.199  -0.377  1.00  0.00    -0.286 N 
ATOM      5  H3  UNL     1       5.103  -0.472  -0.249  1.00  0.00     0.188 HD
HETATM    6  C7  UNL     1       3.811   1.081  -0.447  1.00  0.00     0.139 A 
HETATM    7 BR1  UNL     1       4.975   2.610  -0.338  1.00  0.00    -0.021 Br
HETATM    8  S1  UNL     1       2.118   1.001  -0.657  1.00  0.00    -0.026 SA
ENDROOT
BRANCH   1   9
HETATM    9  N1  UNL     1       0.899  -1.469  -0.750  1.00  0.00    -0.306 N 
HETATM   10  C5  UNL     1      -0.376  -0.923  -0.923  1.00  0.00     0.227 C 
HETATM   11  O1  UNL     1      -0.770  -0.526  -2.042  1.00  0.00    -0.273 OA
ATOM     12  H1  UNL     1       1.008  -2.482  -0.711  1.00  0.00     0.171 HD
BRANCH  10  13
HETATM   13  C3  UNL     1      -1.284  -0.810   0.243  1.00  0.00     0.074 C 
HETATM   14  C4  UNL     1      -0.645  -0.035   1.373  1.00  0.00     0.020 C 
BRANCH  13  15
HETATM   15  C2  UNL     1      -2.604  -0.195  -0.170  1.00  0.00     0.009 C 
HETATM   16  C1  UNL     1      -2.417   1.220  -0.636  1.00  0.00     0.006 C 
ENDBRANCH  13  15
ENDBRANCH  10  13
ENDBRANCH   1   9
TORSDOF 3
