REMARK  12 active torsions:
REMARK  status: ('A' for Active; 'I' for Inactive)
REMARK    1  A    between atoms: C2_2  and  C3_3 
REMARK    2  A    between atoms: C3_3  and  C4_4 
REMARK    3  A    between atoms: C4_4  and  C5_5 
REMARK       I    between atoms: C5_5  and  N1_7 
REMARK    4  A    between atoms: N1_7  and  N2_9 
REMARK    5  A    between atoms: N2_9  and  C6_11 
REMARK    6  A    between atoms: C14_19  and  C15_20 
REMARK    7  A    between atoms: C15_20  and  O3_22 
REMARK    8  A    between atoms: O3_22  and  C16_23 
REMARK    9  A    between atoms: C18_25  and  C19_26 
REMARK   10  A    between atoms: C23_35  and  O4_36 
REMARK   11  A    between atoms: C23_35  and  N4_38 
REMARK   12  A    between atoms: N4_38  and  C24_40 
ROOT
HETATM    1  C4  UNL     1      -1.687  -0.380  -0.471  1.00  0.00     0.110 C 
HETATM    2  C14 UNL     1      -1.918   1.071  -0.110  1.00  0.00     0.071 C 
HETATM    3  C18 UNL     1      -2.941   1.459   0.600  1.00  0.00     0.131 C 
HETATM    4  N3  UNL     1      -3.786   0.483   1.234  1.00  0.00    -0.355 N 
ATOM      5  H3  UNL     1      -4.592   0.805   1.770  1.00  0.00     0.166 HD
HETATM    6  C20 UNL     1      -3.568  -0.758   1.152  1.00  0.00     0.018 C 
HETATM    7  C21 UNL     1      -4.477  -1.721   1.807  1.00  0.00     0.069 C 
HETATM    8  C22 UNL     1      -2.311  -1.297   0.545  1.00  0.00     0.037 C 
HETATM    9  C23 UNL     1      -2.233  -2.718   0.359  1.00  0.00     0.145 C 
ENDROOT
BRANCH   1  10
HETATM   10  C3  UNL     1      -1.970  -0.629  -1.890  1.00  0.00     0.029 C 
BRANCH  10  11
HETATM   11  C2  UNL     1      -3.227  -0.411  -2.562  1.00  0.00    -0.003 C 
HETATM   12  C1  UNL     1      -3.849   0.934  -2.640  1.00  0.00     0.005 C 
ENDBRANCH  10  11
ENDBRANCH   1  10
BRANCH   1  13
HETATM   13  C5  UNL     1      -0.235  -0.710  -0.319  1.00  0.00     0.254 C 
HETATM   14  O1  UNL     1       0.428  -1.190  -1.311  1.00  0.00    -0.270 OA
HETATM   15  N1  UNL     1       0.529  -0.553   0.854  1.00  0.00    -0.273 N 
ATOM     16  H1  UNL     1       0.084  -0.158   1.682  1.00  0.00     0.189 HD
BRANCH  15  17
HETATM   17  N2  UNL     1       1.854  -0.914   0.922  1.00  0.00    -0.329 N 
ATOM     18  H2  UNL     1       2.186  -1.793   0.525  1.00  0.00     0.180 HD
BRANCH  17  19
HETATM   19  C6  UNL     1       2.754   0.001   1.577  1.00  0.00     0.103 C 
HETATM   20  C7  UNL     1       4.056  -0.538   1.743  1.00  0.00     0.027 C 
HETATM   21  C8  UNL     1       5.079  -1.401   2.162  1.00  0.00     0.006 C 
HETATM   22  C9  UNL     1       6.377  -0.712   1.604  1.00  0.00     0.027 C 
HETATM   23  C10 UNL     1       6.199   0.022   0.343  1.00  0.00    -0.027 C 
HETATM   24  C11 UNL     1       5.582   1.301   0.127  1.00  0.00    -0.008 C 
HETATM   25  C12 UNL     1       4.353   1.828   0.722  1.00  0.00    -0.025 C 
HETATM   26  C13 UNL     1       3.017   1.237   0.644  1.00  0.00     0.053 C 
ENDBRANCH  17  19
ENDBRANCH  15  17
ENDBRANCH   1  13
BRANCH   2  27
HETATM   27  C15 UNL     1      -0.941   2.040  -0.561  1.00  0.00     0.293 C 
HETATM   28  O2  UNL     1       0.055   1.637  -1.291  1.00  0.00    -0.259 OA
BRANCH  27  29
HETATM   29  O3  UNL     1      -0.881   3.387  -0.337  1.00  0.00    -0.318 OA
BRANCH  29  30
HETATM   30  C16 UNL     1       0.085   4.286  -0.795  1.00  0.00     0.174 C 
HETATM   31  C17 UNL     1      -0.188   5.702  -0.346  1.00  0.00     0.034 C 
ENDBRANCH  29  30
ENDBRANCH  27  29
ENDBRANCH   2  27
BRANCH   3  32
HETATM   32  C19 UNL     1      -3.269   2.861   0.992  1.00  0.00     0.433 C 
HETATM   33  F1  UNL     1      -4.567   2.882   1.582  1.00  0.00    -0.165 F 
HETATM   34  F2  UNL     1      -3.482   3.699  -0.094  1.00  0.00    -0.165 F 
HETATM   35  F3  UNL     1      -2.470   3.379   1.968  1.00  0.00    -0.165 F 
ENDBRANCH   3  32
BRANCH   9  36
HETATM   36  O4  UNL     1      -1.420  -3.421   1.111  1.00  0.00    -0.346 OA
ATOM     37  H4  UNL     1      -1.368  -4.362   0.988  1.00  0.00     0.219 HD
ENDBRANCH   9  36
BRANCH   9  38
HETATM   38  N4  UNL     1      -2.946  -3.497  -0.566  1.00  0.00    -0.371 N 
ATOM     39  H4  UNL     1      -3.609  -3.033  -1.186  1.00  0.00     0.161 HD
BRANCH  38  40
HETATM   40  C24 UNL     1      -2.778  -4.954  -0.679  1.00  0.00     0.117 C 
HETATM   41  C25 UNL     1      -3.668  -5.473  -1.759  1.00  0.00     0.026 C 
ENDBRANCH  38  40
ENDBRANCH   9  38
TORSDOF 12
