REMARK  10 active torsions:
REMARK  status: ('A' for Active; 'I' for Inactive)
REMARK    1  A    between atoms: S1_2  and  C2_3 
REMARK    2  A    between atoms: C2_3  and  C3_4 
REMARK    3  A    between atoms: C3_4  and  C4_5 
REMARK    4  A    between atoms: C4_5  and  N1_6 
REMARK    5  A    between atoms: C4_5  and  C13_20 
REMARK       I    between atoms: N1_6  and  C5_8 
REMARK    6  A    between atoms: C5_8  and  C6_10 
REMARK    7  A    between atoms: C6_10  and  N2_11 
REMARK    8  A    between atoms: C6_10  and  C9_16 
REMARK       I    between atoms: N2_11  and  C7_13 
REMARK    9  A    between atoms: C13_20  and  N3_22 
REMARK   10  A    between atoms: N3_22  and  C14_24 
ROOT
HETATM    1  C4  UNL     1       0.656   0.845   0.653  1.00  0.00     0.146 C 
ENDROOT
BRANCH   1   2
HETATM    2  C3  UNL     1       0.469   2.208   1.295  1.00  0.00     0.042 C 
BRANCH   2   3
HETATM    3  C2  UNL     1       0.192   3.295   0.288  1.00  0.00     0.076 C 
BRANCH   3   4
HETATM    4  S1  UNL     1       0.001   4.847   1.205  1.00  0.00    -0.173 SA
HETATM    5  C1  UNL     1      -1.483   4.771   2.244  1.00  0.00     0.089 C 
ENDBRANCH   3   4
ENDBRANCH   2   3
ENDBRANCH   1   2
BRANCH   1   6
HETATM    6  N1  UNL     1       1.762   0.837  -0.274  1.00  0.00    -0.348 N 
HETATM    7  C5  UNL     1       2.982   0.207   0.043  1.00  0.00     0.241 C 
HETATM    8  O1  UNL     1       3.007  -0.349   1.210  1.00  0.00    -0.271 OA
ATOM      9  H1  UNL     1       1.658   1.297  -1.178  1.00  0.00     0.163 HD
BRANCH   7  10
HETATM   10  C6  UNL     1       4.202   0.118  -0.785  1.00  0.00     0.184 C 
BRANCH  10  11
HETATM   11  N2  UNL     1       5.280  -0.507   0.011  1.00  0.00    -0.347 N 
HETATM   12  C7  UNL     1       6.378   0.260   0.471  1.00  0.00     0.214 C 
HETATM   13  C8  UNL     1       7.464  -0.347   1.267  1.00  0.00     0.117 C 
HETATM   14  O2  UNL     1       6.422   1.471   0.196  1.00  0.00    -0.274 OA
ATOM     15  H2  UNL     1       5.232  -1.502   0.231  1.00  0.00     0.163 HD
ENDBRANCH  10  11
BRANCH  10  16
HETATM   16  C9  UNL     1       4.074  -0.555  -2.098  1.00  0.00    -0.022 C 
HETATM   17  C10 UNL     1       3.113   0.110  -3.006  1.00  0.00     0.017 C 
HETATM   18  C11 UNL     1       3.656  -2.009  -1.980  1.00  0.00     0.017 C 
HETATM   19  C12 UNL     1       5.463  -0.508  -2.754  1.00  0.00     0.017 C 
ENDBRANCH  10  16
ENDBRANCH   7  10
ENDBRANCH   1   6
BRANCH   1  20
HETATM   20  C13 UNL     1      -0.593   0.362   0.049  1.00  0.00     0.096 C 
HETATM   21  S2  UNL     1      -0.692   0.224  -1.561  1.00  0.00    -0.063 SA
BRANCH  20  22
HETATM   22  N3  UNL     1      -1.696   0.058   0.871  1.00  0.00    -0.378 N 
ATOM     23  H3  UNL     1      -1.616   0.187   1.880  1.00  0.00     0.160 HD
BRANCH  22  24
HETATM   24  C14 UNL     1      -2.921  -0.426   0.326  1.00  0.00     0.086 C 
HETATM   25  C15 UNL     1      -4.039  -0.445   1.363  1.00  0.00     0.034 C 
HETATM   26  C16 UNL     1      -5.331  -0.658   0.607  1.00  0.00    -0.046 C 
HETATM   27  C17 UNL     1      -6.129   0.643   0.484  1.00  0.00     0.015 C 
HETATM   28  C18 UNL     1      -6.237  -1.639   1.319  1.00  0.00     0.015 C 
HETATM   29  C19 UNL     1      -5.115  -1.160  -0.798  1.00  0.00     0.009 C 
HETATM   30  C20 UNL     1      -4.048  -2.212  -0.887  1.00  0.00     0.007 C 
HETATM   31  C21 UNL     1      -2.799  -1.879  -0.130  1.00  0.00     0.004 C 
HETATM   32  C22 UNL     1      -2.569  -2.799   1.054  1.00  0.00     0.012 C 
ENDBRANCH  22  24
ENDBRANCH  20  22
ENDBRANCH   1  20
TORSDOF 10
