REMARK  9 active torsions:
REMARK  status: ('A' for Active; 'I' for Inactive)
REMARK    1  A    between atoms: C2_2  and  O1_3 
REMARK    2  A    between atoms: C3_5  and  C4_6 
REMARK    3  A    between atoms: C4_6  and  C5_7 
REMARK    4  A    between atoms: C5_7  and  C6_8 
REMARK    5  A    between atoms: C8_10  and  C9_11 
REMARK    6  A    between atoms: C10_12  and  C11_13 
REMARK    7  A    between atoms: C12_14  and  C13_15 
REMARK    8  A    between atoms: C13_15  and  C14_16 
REMARK    9  A    between atoms: C20_26  and  C21_27 
ROOT
HETATM    1  C14 UNL     1      -2.093   0.727  -0.072  1.00  0.00     0.151 C 
HETATM    2  C15 UNL     1      -3.295   1.618  -0.219  1.00  0.00     0.231 C 
HETATM    3  O2  UNL     1      -3.028   2.792  -0.591  1.00  0.00    -0.273 OA
HETATM    4  N1  UNL     1      -4.706   1.486  -0.042  1.00  0.00    -0.333 N 
ATOM      5  H1  UNL     1      -5.271   2.313  -0.234  1.00  0.00     0.165 HD
HETATM    6  C16 UNL     1      -5.395   0.331   0.370  1.00  0.00     0.238 C 
HETATM    7  O3  UNL     1      -5.020  -0.656  -0.593  1.00  0.00    -0.359 OA
HETATM    8  C17 UNL     1      -4.677  -1.770   0.095  1.00  0.00     0.139 C 
HETATM    9  C18 UNL     1      -5.700  -1.948   1.185  1.00  0.00     0.034 C 
HETATM   10  C19 UNL     1      -7.034  -1.262   0.874  1.00  0.00     0.022 C 
HETATM   11  C20 UNL     1      -6.833   0.206   0.422  1.00  0.00     0.135 C 
HETATM   12  C22 UNL     1      -3.263  -1.810   0.439  1.00  0.00     0.040 C 
HETATM   13  C23 UNL     1      -2.615  -2.885  -0.468  1.00  0.00     0.026 C 
HETATM   14  C24 UNL     1      -3.176  -2.492   1.820  1.00  0.00     0.026 C 
HETATM   15  C25 UNL     1      -2.406  -0.631   0.387  1.00  0.00     0.150 C 
HETATM   16  O6  UNL     1      -1.410  -0.949   1.129  1.00  0.00    -0.296 OA
ENDROOT
BRANCH   1  17
HETATM   17  C13 UNL     1      -1.198   0.818  -1.281  1.00  0.00     0.049 C 
BRANCH  17  18
HETATM   18  C12 UNL     1      -0.027  -0.059  -1.081  1.00  0.00    -0.025 C 
HETATM   19  C11 UNL     1       1.241   0.337  -1.041  1.00  0.00    -0.004 C 
BRANCH  19  20
HETATM   20  C10 UNL     1       1.692   1.695  -1.188  1.00  0.00    -0.000 C 
HETATM   21  C9  UNL     1       2.951   2.037  -1.138  1.00  0.00     0.001 C 
BRANCH  21  22
HETATM   22  C8  UNL     1       4.033   1.101  -0.931  1.00  0.00     0.007 C 
HETATM   23  C6  UNL     1       5.331   1.467  -0.892  1.00  0.00    -0.054 C 
HETATM   24  C7  UNL     1       5.632   2.871  -1.136  1.00  0.00     0.049 C 
BRANCH  23  25
HETATM   25  C5  UNL     1       6.350   0.427  -0.665  1.00  0.00     0.062 C 
BRANCH  25  26
HETATM   26  C4  UNL     1       7.573   0.567  -0.538  1.00  0.00    -0.125 C 
BRANCH  26  27
HETATM   27  C3  UNL     1       8.957   0.740  -0.395  1.00  0.00     0.087 C 
HETATM   28  C2  UNL     1       9.761  -0.307  -0.195  1.00  0.00     0.046 C 
HETATM   29  C1  UNL     1       9.340  -1.698  -0.096  1.00  0.00     0.076 C 
BRANCH  28  30
HETATM   30  O1  UNL     1      11.131  -0.018  -0.071  1.00  0.00    -0.365 OA
ATOM     31  H1  UNL     1      11.406   0.889  -0.136  1.00  0.00     0.217 HD
ENDBRANCH  28  30
ENDBRANCH  26  27
ENDBRANCH  25  26
ENDBRANCH  23  25
ENDBRANCH  21  22
ENDBRANCH  19  20
ENDBRANCH  17  18
ENDBRANCH   1  17
BRANCH  11  32
HETATM   32  C21 UNL     1      -7.546   1.138   1.314  1.00  0.00     0.181 C 
HETATM   33  O4  UNL     1      -8.309   0.766   2.235  1.00  0.00    -0.648 OA
HETATM   34  O5  UNL     1      -7.367   2.495   1.126  1.00  0.00    -0.648 OA
ENDBRANCH  11  32
TORSDOF 9
