REMARK  10 active torsions:
REMARK  status: ('A' for Active; 'I' for Inactive)
REMARK    1  A    between atoms: C2_2  and  C5_5 
REMARK    2  A    between atoms: C5_5  and  C6_6 
REMARK       I    between atoms: C6_6  and  N1_8 
REMARK    3  A    between atoms: N1_8  and  C7_9 
REMARK    4  A    between atoms: C7_9  and  C8_10 
REMARK    5  A    between atoms: C7_9  and  C21_31 
REMARK       I    between atoms: C8_10  and  N2_12 
REMARK    6  A    between atoms: C9_14  and  C10_15 
REMARK    7  A    between atoms: C9_14  and  C20_28 
REMARK    8  A    between atoms: C10_15  and  C11_16 
REMARK    9  A    between atoms: C11_16  and  C12_17 
REMARK   10  A    between atoms: C11_16  and  C15_20 
ROOT
HETATM    1  C8  UNL     1      -0.987   0.434  -0.545  1.00  0.00     0.258 C 
HETATM    2  O2  UNL     1      -1.452  -0.748  -0.805  1.00  0.00    -0.270 OA
HETATM    3  N2  UNL     1       0.350   0.467  -0.196  1.00  0.00    -0.322 N 
ATOM      4  H2  UNL     1       0.548   0.545   0.802  1.00  0.00     0.169 HD
HETATM    5  C9  UNL     1       1.393   0.411  -0.983  1.00  0.00     0.089 C 
ENDROOT
BRANCH   1   6
HETATM    6  C7  UNL     1      -1.960   1.567  -0.654  1.00  0.00     0.266 C 
BRANCH   6   7
HETATM    7  N1  UNL     1      -3.231   1.150  -0.523  1.00  0.00    -0.399 NA
HETATM    8  C6  UNL     1      -4.553   0.729  -0.394  1.00  0.00     0.288 C 
HETATM    9  O1  UNL     1      -5.581   1.320  -0.773  1.00  0.00    -0.258 OA
BRANCH   8  10
HETATM   10  C5  UNL     1      -4.842  -0.596   0.277  1.00  0.00     0.127 C 
BRANCH  10  11
HETATM   11  C2  UNL     1      -6.277  -0.839   0.542  1.00  0.00    -0.042 C 
HETATM   12  C1  UNL     1      -7.139  -0.848  -0.685  1.00  0.00     0.015 C 
HETATM   13  C3  UNL     1      -6.873   0.119   1.546  1.00  0.00     0.015 C 
HETATM   14  C4  UNL     1      -6.462  -2.237   1.178  1.00  0.00     0.015 C 
ENDBRANCH  10  11
ENDBRANCH   8  10
ENDBRANCH   6   7
BRANCH   6  15
HETATM   15  C21 UNL     1      -1.704   2.589   0.514  1.00  0.00    -0.010 C 
HETATM   16  C22 UNL     1      -2.734   3.698   0.311  1.00  0.00     0.018 C 
HETATM   17  C23 UNL     1      -1.799   1.925   1.839  1.00  0.00     0.018 C 
HETATM   18  C24 UNL     1      -0.342   3.214   0.351  1.00  0.00     0.018 C 
ENDBRANCH   6  15
ENDBRANCH   1   6
BRANCH   5  19
HETATM   19  C10 UNL     1       2.761   0.457  -0.423  1.00  0.00     0.071 C 
BRANCH  19  20
HETATM   20  C11 UNL     1       3.489  -0.876  -0.654  1.00  0.00     0.026 C 
BRANCH  20  21
HETATM   21  C12 UNL     1       2.652  -1.908   0.046  1.00  0.00    -0.008 A 
HETATM   22  C13 UNL     1       2.922  -3.333   0.144  1.00  0.00     0.005 A 
HETATM   23  C14 UNL     1       2.971  -2.388   1.396  1.00  0.00     0.005 A 
ENDBRANCH  20  21
BRANCH  20  24
HETATM   24  C15 UNL     1       4.908  -0.814  -0.119  1.00  0.00     0.190 C 
HETATM   25  C16 UNL     1       5.732   0.287  -0.725  1.00  0.00     0.033 C 
HETATM   26  C17 UNL     1       7.039   0.297   0.096  1.00  0.00     0.004 C 
HETATM   27  C18 UNL     1       7.676  -1.065   0.012  1.00  0.00     0.027 C 
HETATM   28  C19 UNL     1       6.915  -1.876  -0.999  1.00  0.00     0.232 C 
HETATM   29  N3  UNL     1       5.557  -2.061  -0.533  1.00  0.00    -0.070 N 
ATOM     30  H32 UNL     1       5.523  -2.752   0.216  1.00  0.00     0.277 HD
ATOM     31  H31 UNL     1       4.997  -2.544  -1.235  1.00  0.00     0.277 HD
ENDBRANCH  20  24
ENDBRANCH  19  20
ENDBRANCH   5  19
BRANCH   5  32
HETATM   32  C20 UNL     1       1.178   0.305  -2.402  1.00  0.00     0.222 C 
HETATM   33  O3  UNL     1       2.223   0.251  -3.135  1.00  0.00    -0.643 OA
HETATM   34  O4  UNL     1      -0.026   0.254  -3.049  1.00  0.00    -0.643 OA
ENDBRANCH   5  32
TORSDOF 10
