REMARK  5 active torsions:
REMARK  status: ('A' for Active; 'I' for Inactive)
REMARK    1  A    between atoms: C2_2  and  C3_3 
REMARK       I    between atoms: C3_3  and  N1_5 
REMARK    2  A    between atoms: N1_5  and  C4_7 
REMARK    3  A    between atoms: C9_15  and  C10_16 
REMARK    4  A    between atoms: C10_16  and  N3_17 
REMARK       I    between atoms: N3_17  and  C11_18 
REMARK       I    between atoms: C11_18  and  N4_20 
REMARK    5  A    between atoms: N4_20  and  N5_22 
ROOT
HETATM    1  C4  UNL     1      -1.612  -0.552   0.193  1.00  0.00     0.092 C 
HETATM    2  C5  UNL     1      -2.259  -1.865   0.002  1.00  0.00     0.026 C 
HETATM    3  C6  UNL     1      -1.328  -2.967  -0.322  1.00  0.00     0.004 C 
HETATM    4  C7  UNL     1      -0.317  -2.619  -1.378  1.00  0.00     0.034 C 
HETATM    5  C8  UNL     1      -0.386  -1.236  -1.865  1.00  0.00     0.195 C 
HETATM    6  N2  UNL     1       0.949  -0.603  -1.965  1.00  0.00    -0.060 N 
ATOM      7  H21 UNL     1       1.204  -0.050  -2.783  1.00  0.00     0.278 HD
ATOM      8  H22 UNL     1       1.786  -1.169  -2.106  1.00  0.00     0.278 HD
HETATM    9  C9  UNL     1       0.698   0.023  -0.716  1.00  0.00     0.246 C 
HETATM   10  C12 UNL     1      -0.765  -0.172  -0.954  1.00  0.00     0.076 C 
ENDROOT
BRANCH   9  11
HETATM   11  C10 UNL     1       1.370  -0.499   0.477  1.00  0.00     0.194 C 
BRANCH  11  12
HETATM   12  N3  UNL     1       2.760  -0.422   0.474  1.00  0.00    -0.366 NA
HETATM   13  C11 UNL     1       4.118  -0.351   0.466  1.00  0.00     0.412 C 
HETATM   14  O2  UNL     1       4.955  -0.840  -0.370  1.00  0.00    -0.228 OA
HETATM   15  N4  UNL     1       4.812   0.369   1.531  1.00  0.00    -0.225 N 
ATOM     16  H4  UNL     1       4.261   0.808   2.269  1.00  0.00     0.194 HD
BRANCH  15  17
HETATM   17  N5  UNL     1       6.199   0.477   1.574  1.00  0.00    -0.245 N 
HETATM   18  N6  UNL     1       6.798   0.969   2.568  1.00  0.00    -0.331 N 
ATOM     19  H62 UNL     1       6.235   1.292   3.355  1.00  0.00     0.178 HD
ATOM     20  H61 UNL     1       7.814   1.048   2.600  1.00  0.00     0.178 HD
ATOM     21  H5  UNL     1       6.746   0.149   0.778  1.00  0.00     0.208 HD
ENDBRANCH  15  17
ENDBRANCH  11  12
ENDBRANCH   9  11
BRANCH   1  22
HETATM   22  N1  UNL     1      -2.671   0.495   0.310  1.00  0.00    -0.356 N 
HETATM   23  C3  UNL     1      -2.364   1.759   0.849  1.00  0.00     0.217 C 
HETATM   24  O1  UNL     1      -1.214   2.061   1.244  1.00  0.00    -0.274 OA
ATOM     25  H1  UNL     1      -3.621   0.293  -0.002  1.00  0.00     0.162 HD
BRANCH  23  26
HETATM   26  C2  UNL     1      -3.435   2.775   0.950  1.00  0.00     0.098 C 
HETATM   27  C1  UNL     1      -2.912   4.135   1.307  1.00  0.00     0.014 C 
ENDBRANCH  23  26
ENDBRANCH   1  22
TORSDOF 5
