REMARK  13 active torsions:
REMARK  status: ('A' for Active; 'I' for Inactive)
REMARK    1  A    between atoms: N2_6  and  C3_8 
REMARK    2  A    between atoms: C3_8  and  O1_9 
REMARK    3  A    between atoms: C3_8  and  C4_11 
REMARK    4  A    between atoms: C4_11  and  C5_12 
REMARK    5  A    between atoms: C4_11  and  N3_18 
REMARK    6  A    between atoms: C5_12  and  C6_13 
REMARK    7  A    between atoms: C6_13  and  O2_14 
REMARK    8  A    between atoms: C6_13  and  O3_16 
REMARK    9  A    between atoms: C11_31  and  C12_32 
REMARK   10  A    between atoms: C12_32  and  O7_33 
REMARK   11  A    between atoms: N6_35  and  C13_36 
REMARK   12  A    between atoms: C13_36  and  N7_37 
REMARK   13  A    between atoms: C13_36  and  O8_41 
ROOT
HETATM    1  N1  UNL     1       0.941   0.863  -1.044  1.00  0.00    -0.384 N 
ATOM      2  H11 UNL     1       1.497   1.677  -1.306  1.00  0.00     0.157 HD
ATOM      3  H12 UNL     1      -0.028   0.867  -1.362  1.00  0.00     0.157 HD
HETATM    4  C1  UNL     1       1.407  -0.094  -0.355  1.00  0.00     0.126 C 
HETATM    5  C2  UNL     1       0.612  -1.258   0.020  1.00  0.00     0.081 C 
HETATM    6  N2  UNL     1      -0.565  -1.160   0.463  1.00  0.00    -0.338 N 
ATOM      7  H2  UNL     1      -1.000  -2.057   0.681  1.00  0.00     0.167 HD
HETATM    8  C10 UNL     1       1.301  -2.594  -0.142  1.00  0.00     0.295 C 
HETATM    9  N5  UNL     1       2.721  -2.456  -0.048  1.00  0.00    -0.047 N 
ATOM     10  H51 UNL     1       3.136  -2.420  -0.979  1.00  0.00     0.280 HD
ATOM     11  H52 UNL     1       3.139  -3.320   0.297  1.00  0.00     0.280 HD
HETATM   12  C11 UNL     1       3.166  -1.326   0.748  1.00  0.00     0.315 C 
HETATM   13  N6  UNL     1       2.783  -0.100   0.096  1.00  0.00    -0.286 N 
ENDROOT
BRANCH   6  14
HETATM   14  C3  UNL     1      -1.379  -0.068   0.710  1.00  0.00     0.140 C 
BRANCH  14  15
HETATM   15  O1  UNL     1      -0.793   0.900   1.360  1.00  0.00    -0.348 OA
ATOM     16  H1  UNL     1      -1.352   1.649   1.530  1.00  0.00     0.219 HD
ENDBRANCH  14  15
BRANCH  14  17
HETATM   17  C4  UNL     1      -2.780   0.119   0.342  1.00  0.00     0.177 C 
BRANCH  17  18
HETATM   18  C5  UNL     1      -3.177  -0.056  -1.081  1.00  0.00     0.094 C 
BRANCH  18  19
HETATM   19  C6  UNL     1      -2.940  -1.430  -1.628  1.00  0.00     0.256 C 
BRANCH  19  20
HETATM   20  O2  UNL     1      -3.369  -1.498  -2.979  1.00  0.00    -0.371 OA
ATOM     21  H2  UNL     1      -3.219  -2.370  -3.326  1.00  0.00     0.212 HD
ENDBRANCH  19  20
BRANCH  19  22
HETATM   22  O3  UNL     1      -3.678  -2.385  -0.953  1.00  0.00    -0.371 OA
ATOM     23  H3  UNL     1      -3.528  -3.257  -1.300  1.00  0.00     0.212 HD
ENDBRANCH  19  22
ENDBRANCH  18  19
ENDBRANCH  17  18
BRANCH  17  24
HETATM   24  N3  UNL     1      -3.303   1.386   0.874  1.00  0.00    -0.249 N 
HETATM   25  C7  UNL     1      -4.310   1.545   1.859  1.00  0.00     0.333 A 
HETATM   26  O4  UNL     1      -4.952   0.623   2.469  1.00  0.00    -0.246 OA
HETATM   27  N4  UNL     1      -4.474   2.950   2.043  1.00  0.00    -0.271 N 
HETATM   28  C8  UNL     1      -3.578   3.644   1.181  1.00  0.00     0.318 A 
ATOM     29  H4  UNL     1      -5.130   3.388   2.690  1.00  0.00     0.174 HD
HETATM   30  O5  UNL     1      -3.420   4.898   1.049  1.00  0.00    -0.262 OA
HETATM   31  C9  UNL     1      -2.823   2.649   0.428  1.00  0.00     0.320 A 
HETATM   32  O6  UNL     1      -1.932   2.889  -0.437  1.00  0.00    -0.262 OA
ENDBRANCH  17  24
ENDBRANCH  14  17
ENDBRANCH   6  14
BRANCH  13  33
HETATM   33  C13 UNL     1       3.581   1.051  -0.141  1.00  0.00     0.429 C 
BRANCH  33  34
HETATM   34  N7  UNL     1       3.655   1.287  -1.589  1.00  0.00    -0.035 N 
ATOM     35  H73 UNL     1       3.989   0.470  -2.100  1.00  0.00     0.279 HD
ATOM     36  H72 UNL     1       2.733   1.357  -2.020  1.00  0.00     0.279 HD
ATOM     37  H71 UNL     1       4.228   2.113  -1.759  1.00  0.00     0.279 HD
ENDBRANCH  33  34
BRANCH  33  38
HETATM   38  O8  UNL     1       2.883   2.168   0.373  1.00  0.00    -0.354 OA
ATOM     39  H8  UNL     1       3.417   2.938   0.214  1.00  0.00     0.213 HD
ENDBRANCH  33  38
ENDBRANCH  13  33
BRANCH  12  40
HETATM   40  C12 UNL     1       4.644  -1.443   0.977  1.00  0.00     0.218 C 
BRANCH  40  41
HETATM   41  O7  UNL     1       5.260  -1.438  -0.289  1.00  0.00    -0.397 OA
ATOM     42  H7  UNL     1       6.196  -1.512  -0.144  1.00  0.00     0.209 HD
ENDBRANCH  40  41
ENDBRANCH  12  40
TORSDOF 13
