REMARK  7 active torsions:
REMARK  status: ('A' for Active; 'I' for Inactive)
REMARK    1  A    between atoms: C6_7  and  N1_8 
REMARK       I    between atoms: N1_8  and  C7_10 
REMARK    2  A    between atoms: C7_10  and  O2_12 
REMARK    3  A    between atoms: O2_12  and  C8_13 
REMARK    4  A    between atoms: C8_13  and  C9_14 
REMARK    5  A    between atoms: C11_18  and  C12_19 
REMARK    6  A    between atoms: C21_28  and  C22_29 
REMARK    7  A    between atoms: C24_32  and  O6_33 
ROOT
HETATM    1  C9  UNL     1       0.688   0.306   0.544  1.00  0.00     0.156 C 
HETATM    2  O3  UNL     1       0.486   0.457  -0.837  1.00  0.00    -0.352 OA
HETATM    3  C10 UNL     1      -0.785  -0.169  -0.884  1.00  0.00     0.275 C 
HETATM    4  O4  UNL     1      -1.358  -0.225  -2.106  1.00  0.00    -0.354 OA
HETATM    5  C11 UNL     1      -1.815  -1.536  -2.310  1.00  0.00     0.132 C 
HETATM    6  C16 UNL     1      -2.600  -2.055  -1.140  1.00  0.00     0.033 C 
HETATM    7  C17 UNL     1      -3.309  -1.030  -0.348  1.00  0.00     0.009 C 
HETATM    8  C18 UNL     1      -2.471  -0.463   0.811  1.00  0.00     0.011 C 
HETATM    9  C19 UNL     1      -3.496   0.148   1.778  1.00  0.00     0.020 C 
HETATM   10  C20 UNL     1      -3.002   0.120   3.185  1.00  0.00     0.013 C 
HETATM   11  C21 UNL     1      -3.991   1.458   1.280  1.00  0.00     0.163 C 
HETATM   12  O7  UNL     1      -3.057   2.276   0.728  1.00  0.00    -0.350 OA
HETATM   13  C26 UNL     1      -2.262   1.762  -0.259  1.00  0.00     0.275 C 
HETATM   14  O8  UNL     1      -1.171   2.657  -0.396  1.00  0.00    -0.355 OA
HETATM   15  C27 UNL     1      -0.593   2.485   0.887  1.00  0.00     0.128 C 
HETATM   16  C28 UNL     1       0.557   3.394   0.971  1.00  0.00     0.040 C 
HETATM   17  C29 UNL     1      -0.444   1.043   1.105  1.00  0.00     0.064 C 
HETATM   18  C30 UNL     1      -1.575   0.533   0.192  1.00  0.00     0.072 C 
ENDROOT
BRANCH   1  19
HETATM   19  C8  UNL     1       2.058   0.530   1.010  1.00  0.00     0.213 C 
BRANCH  19  20
HETATM   20  O2  UNL     1       2.998  -0.375   0.397  1.00  0.00    -0.301 OA
BRANCH  20  21
HETATM   21  C7  UNL     1       4.341  -0.301   0.735  1.00  0.00     0.361 C 
HETATM   22  N1  UNL     1       5.276  -1.179   0.140  1.00  0.00    -0.330 N 
ATOM     23  H1  UNL     1       4.927  -1.856  -0.538  1.00  0.00     0.165 HD
HETATM   24  O1  UNL     1       4.732   0.566   1.589  1.00  0.00    -0.239 OA
BRANCH  22  25
HETATM   25  C6  UNL     1       6.677  -1.182   0.424  1.00  0.00     0.116 C 
HETATM   26  C2  UNL     1       7.522  -0.768  -0.757  1.00  0.00     0.028 C 
HETATM   27  C1  UNL     1       8.533   0.310  -0.389  1.00  0.00     0.016 C 
HETATM   28  C3  UNL     1       8.275  -2.014  -1.139  1.00  0.00    -0.023 C 
HETATM   29  C4  UNL     1       8.076  -2.967  -0.247  1.00  0.00    -0.008 C 
HETATM   30  C5  UNL     1       7.178  -2.519   0.852  1.00  0.00     0.128 C 
HETATM   31 CL1  UNL     1       8.056  -2.450   2.398  1.00  0.00    -0.119 Cl
ENDBRANCH  22  25
ENDBRANCH  20  21
ENDBRANCH  19  20
ENDBRANCH   1  19
BRANCH   5  32
HETATM   32  C12 UNL     1      -2.464  -1.736  -3.643  1.00  0.00    -0.025 C 
HETATM   33  C13 UNL     1      -3.665  -0.858  -3.856  1.00  0.00     0.017 C 
HETATM   34  C14 UNL     1      -1.431  -1.386  -4.706  1.00  0.00     0.017 C 
HETATM   35  C15 UNL     1      -2.798  -3.198  -3.826  1.00  0.00     0.017 C 
ENDBRANCH   5  32
BRANCH  11  36
HETATM   36  C22 UNL     1      -4.721   2.216   2.337  1.00  0.00    -0.002 A 
HETATM   37  C23 UNL     1      -6.083   2.187   2.547  1.00  0.00     0.154 A 
HETATM   38  O5  UNL     1      -6.342   2.982   3.553  1.00  0.00    -0.300 OA
HETATM   39  C24 UNL     1      -5.271   3.531   4.025  1.00  0.00     0.183 A 
HETATM   40  C25 UNL     1      -4.209   3.075   3.283  1.00  0.00     0.075 A 
BRANCH  39  41
HETATM   41  O6  UNL     1      -5.221   4.437   5.110  1.00  0.00    -0.341 OA
ATOM     42  H6  UNL     1      -4.434   4.840   5.457  1.00  0.00     0.220 HD
ENDBRANCH  39  41
ENDBRANCH  11  36
TORSDOF 7
