REMARK  6 active torsions:
REMARK  status: ('A' for Active; 'I' for Inactive)
REMARK    1  A    between atoms: N1_1  and  C1_4 
REMARK    2  A    between atoms: C2_10  and  C3_11 
REMARK    3  A    between atoms: C4_14  and  C5_15 
REMARK    4  A    between atoms: C8_18  and  C9_19 
REMARK    5  A    between atoms: C19_34  and  C20_35 
REMARK    6  A    between atoms: N7_40  and  C24_41 
ROOT
HETATM    1  C3  UNL     1      -3.024   1.987  -0.580  1.00  0.00     0.146 A 
HETATM    2  N4  UNL     1      -1.689   2.065  -0.456  1.00  0.00    -0.337 N 
ATOM      3  H4  UNL     1      -1.143   2.915  -0.599  1.00  0.00     0.167 HD
HETATM    4  C4  UNL     1      -1.164   0.862  -0.115  1.00  0.00     0.074 A 
HETATM    5  C19 UNL     1      -2.234  -0.012  -0.023  1.00  0.00     0.103 A 
HETATM    6  N7  UNL     1      -3.344   0.687  -0.307  1.00  0.00    -0.291 N 
ENDROOT
BRANCH   4   7
HETATM    7  C5  UNL     1       0.235   0.532   0.112  1.00  0.00    -0.007 A 
HETATM    8  C6  UNL     1       1.118   0.695  -0.933  1.00  0.00     0.014 A 
HETATM    9  C7  UNL     1       2.449   0.405  -0.794  1.00  0.00     0.016 A 
HETATM   10  C8  UNL     1       2.934  -0.055   0.393  1.00  0.00     0.008 A 
HETATM   11  C17 UNL     1       2.042  -0.219   1.446  1.00  0.00     0.016 A 
HETATM   12  C18 UNL     1       0.706   0.068   1.318  1.00  0.00     0.014 A 
BRANCH  10  13
HETATM   13  C9  UNL     1       4.363  -0.387   0.609  1.00  0.00     0.118 A 
HETATM   14  N5  UNL     1       4.766  -0.838   1.815  1.00  0.00    -0.308 N 
HETATM   15  C10 UNL     1       6.048  -1.158   2.080  1.00  0.00     0.259 A 
ATOM     16  H5  UNL     1       4.073  -0.941   2.556  1.00  0.00     0.170 HD
HETATM   17  O2  UNL     1       6.431  -1.576   3.194  1.00  0.00    -0.267 OA
HETATM   18  C11 UNL     1       7.009  -1.027   1.091  1.00  0.00     0.059 A 
HETATM   19  C12 UNL     1       8.335  -1.343   1.316  1.00  0.00     0.019 A 
HETATM   20  C16 UNL     1       6.596  -0.567  -0.138  1.00  0.00     0.049 A 
HETATM   21  C13 UNL     1       9.296  -1.213   0.329  1.00  0.00     0.001 A 
HETATM   22  C14 UNL     1       8.880  -0.751  -0.903  1.00  0.00     0.002 A 
HETATM   23  C15 UNL     1       7.541  -0.431  -1.134  1.00  0.00     0.030 A 
HETATM   24  N6  UNL     1       5.286  -0.259  -0.350  1.00  0.00    -0.341 N 
ATOM     25  H6  UNL     1       5.000   0.080  -1.269  1.00  0.00     0.167 HD
ENDBRANCH  10  13
ENDBRANCH   4   7
BRANCH   5  26
HETATM   26  C20 UNL     1      -2.160  -1.431   0.319  1.00  0.00     0.104 A 
HETATM   27  C21 UNL     1      -2.712  -2.081   1.411  1.00  0.00     0.041 A 
HETATM   28  C22 UNL     1      -2.397  -3.422   1.343  1.00  0.00     0.027 A 
HETATM   29  C23 UNL     1      -1.650  -3.544   0.191  1.00  0.00     0.142 A 
HETATM   30  O3  UNL     1      -1.541  -2.364  -0.365  1.00  0.00    -0.320 OA
ENDBRANCH   5  26
BRANCH   1  31
HETATM   31  C2  UNL     1      -4.005   3.001  -0.926  1.00  0.00     0.146 A 
HETATM   32  C1  UNL     1      -3.786   4.318  -1.213  1.00  0.00     0.154 A 
HETATM   33  N2  UNL     1      -5.000   4.879  -1.476  1.00  0.00    -0.224 N 
HETATM   34  O1  UNL     1      -5.910   3.951  -1.355  1.00  0.00    -0.155 OA
ATOM     35  H2  UNL     1      -5.168   5.854  -1.724  1.00  0.00     0.198 HD
HETATM   36  N3  UNL     1      -5.353   2.824  -1.029  1.00  0.00    -0.234 N 
ATOM     37  H3  UNL     1      -5.846   1.945  -0.874  1.00  0.00     0.197 HD
BRANCH  32  38
HETATM   38  N1  UNL     1      -2.673   4.944  -1.241  1.00  0.00    -0.382 N 
ATOM     39  H12 UNL     1      -2.509   5.928  -1.455  1.00  0.00     0.157 HD
ATOM     40  H11 UNL     1      -1.764   4.524  -1.044  1.00  0.00     0.157 HD
ENDBRANCH  32  38
ENDBRANCH   1  31
BRANCH   6  41
HETATM   41  C24 UNL     1      -4.651   0.133  -0.316  1.00  0.00     0.041 A 
HETATM   42  C25 UNL     1      -5.157  -0.475  -1.456  1.00  0.00     0.031 A 
HETATM   43  C26 UNL     1      -6.434  -1.013  -1.452  1.00  0.00     0.021 A 
HETATM   44  C27 UNL     1      -7.219  -0.952  -0.320  1.00  0.00     0.011 A 
HETATM   45 BR1  UNL     1      -8.972  -1.697  -0.333  1.00  0.00    -0.051 Br
HETATM   46  C28 UNL     1      -6.742  -0.354   0.826  1.00  0.00     0.021 A 
HETATM   47  C29 UNL     1      -5.480   0.166   0.791  1.00  0.00     0.031 A 
ENDBRANCH   6  41
TORSDOF 6
