REMARK  9 active torsions:
REMARK  status: ('A' for Active; 'I' for Inactive)
REMARK    1  A    between atoms: C2_2  and  O1_3 
REMARK    2  A    between atoms: C2_2  and  C23_31 
REMARK    3  A    between atoms: O1_3  and  C3_4 
REMARK    4  A    between atoms: C15_19  and  O5_20 
REMARK    5  A    between atoms: C15_19  and  O6_22 
REMARK    6  A    between atoms: C23_31  and  C24_32 
REMARK    7  A    between atoms: C23_31  and  N1_35 
REMARK       I    between atoms: N1_35  and  C28_37 
REMARK    8  A    between atoms: C28_37  and  O8_39 
REMARK    9  A    between atoms: O8_39  and  C29_40 
ROOT
HETATM    1  C3  UNL     1       0.003   0.073  -1.093  1.00  0.00     0.271 C 
HETATM    2  O2  UNL     1      -1.099   0.335  -0.367  1.00  0.00    -0.341 OA
HETATM    3  C4  UNL     1      -1.682  -0.783   0.215  1.00  0.00     0.126 C 
HETATM    4  C5  UNL     1      -2.716  -1.267  -0.743  1.00  0.00    -0.039 C 
HETATM    5  C6  UNL     1      -3.244  -0.344  -1.753  1.00  0.00     0.003 C 
HETATM    6  C7  UNL     1      -3.629   1.025  -1.551  1.00  0.00    -0.010 C 
HETATM    7  C8  UNL     1      -4.506   1.492  -0.463  1.00  0.00     0.126 C 
HETATM    8  C9  UNL     1      -5.234   0.542   0.373  1.00  0.00    -0.014 C 
HETATM    9  C10 UNL     1      -4.764   0.109   1.676  1.00  0.00    -0.022 C 
HETATM   10  C11 UNL     1      -3.576  -0.715   1.962  1.00  0.00     0.045 C 
HETATM   11  C12 UNL     1      -3.633  -0.716   3.525  1.00  0.00     0.017 C 
HETATM   12  C13 UNL     1      -2.258  -0.207   1.511  1.00  0.00     0.135 C 
HETATM   13  C14 UNL     1      -1.279  -0.413   2.690  1.00  0.00     0.054 C 
HETATM   14  O3  UNL     1      -2.354   1.162   1.558  1.00  0.00    -0.221 OA
HETATM   15  O4  UNL     1      -2.518   1.914   0.620  1.00  0.00    -0.170 OA
HETATM   16  C15 UNL     1      -3.686   2.528   0.330  1.00  0.00     0.317 C 
HETATM   17  C16 UNL     1      -2.539  -2.581  -1.438  1.00  0.00     0.013 C 
HETATM   18  C17 UNL     1      -2.225  -2.469  -2.941  1.00  0.00     0.015 C 
HETATM   19  C18 UNL     1      -1.709  -3.586  -0.748  1.00  0.00     0.009 C 
HETATM   20  C19 UNL     1      -0.721  -3.128   0.221  1.00  0.00     0.009 C 
HETATM   21  C20 UNL     1      -0.492  -1.659   0.383  1.00  0.00     0.036 C 
HETATM   22  C21 UNL     1       0.640  -1.101  -0.458  1.00  0.00     0.045 C 
HETATM   23  C22 UNL     1       1.308  -2.084  -1.340  1.00  0.00     0.015 C 
ENDROOT
BRANCH   1  24
HETATM   24  O1  UNL     1       0.810   1.232  -1.061  1.00  0.00    -0.323 OA
BRANCH  24  25
HETATM   25  C2  UNL     1       2.013   1.453  -1.661  1.00  0.00     0.063 C 
HETATM   26  C1  UNL     1       2.049   1.506  -2.982  1.00  0.00     0.048 C 
BRANCH  25  27
HETATM   27  C23 UNL     1       3.286   1.640  -0.907  1.00  0.00     0.148 C 
BRANCH  27  28
HETATM   28  C24 UNL     1       3.965   2.871  -1.462  1.00  0.00     0.007 C 
HETATM   29  C25 UNL     1       3.012   4.045  -1.258  1.00  0.00     0.012 C 
HETATM   30  C26 UNL     1       5.248   3.183  -0.721  1.00  0.00     0.012 C 
ENDBRANCH  27  28
BRANCH  27  31
HETATM   31  N1  UNL     1       4.167   0.497  -1.031  1.00  0.00    -0.321 N 
HETATM   32  C27 UNL     1       4.649   0.087  -2.331  1.00  0.00     0.156 C 
HETATM   33  C28 UNL     1       4.584  -0.226   0.112  1.00  0.00     0.366 C 
HETATM   34  O7  UNL     1       5.344  -1.207  -0.022  1.00  0.00    -0.238 OA
BRANCH  33  35
HETATM   35  O8  UNL     1       4.169   0.128   1.381  1.00  0.00    -0.262 OA
BRANCH  35  36
HETATM   36  C29 UNL     1       4.610  -0.619   2.476  1.00  0.00     0.207 C 
HETATM   37  C30 UNL     1       4.021  -0.035   3.737  1.00  0.00     0.084 C 
HETATM   38  C31 UNL     1       4.229  -2.073   2.394  1.00  0.00     0.084 C 
HETATM   39  F1  UNL     1       5.997  -0.536   2.496  1.00  0.00    -0.212 F 
ENDBRANCH  35  36
ENDBRANCH  33  35
ENDBRANCH  27  31
ENDBRANCH  25  27
ENDBRANCH  24  25
ENDBRANCH   1  24
BRANCH  16  40
HETATM   40  O5  UNL     1      -4.364   3.168   1.295  1.00  0.00    -0.341 OA
ATOM     41  H5  UNL     1      -3.858   3.807   1.784  1.00  0.00     0.215 HD
ENDBRANCH  16  40
BRANCH  16  42
HETATM   42  O6  UNL     1      -3.352   3.515  -0.643  1.00  0.00    -0.341 OA
ATOM     43  H6  UNL     1      -2.846   4.154  -0.154  1.00  0.00     0.215 HD
ENDBRANCH  16  42
TORSDOF 9
