REMARK  2 active torsions:
REMARK  status: ('A' for Active; 'I' for Inactive)
REMARK    1  A    between atoms: C5_6  and  C6_7 
REMARK    2  A    between atoms: N2_10  and  C8_11 
ROOT
HETATM    1  C1  UNL     1      -4.483  -0.793  -0.123  1.00  0.00     0.052 C 
HETATM    2  C2  UNL     1      -3.024  -0.548  -0.009  1.00  0.00    -0.014 A 
HETATM    3  C3  UNL     1      -2.495   0.631  -0.460  1.00  0.00     0.088 A 
HETATM    4  C4  UNL     1      -3.378   1.592  -1.031  1.00  0.00     0.103 C 
HETATM    5  N1  UNL     1      -4.084   2.371  -1.498  1.00  0.00    -0.191 NA
HETATM    6  C5  UNL     1      -1.126   0.824  -0.336  1.00  0.00     0.117 A 
HETATM    7  N2  UNL     1      -0.262  -0.060   0.193  1.00  0.00    -0.296 N 
HETATM    8  C14 UNL     1      -0.792  -1.233   0.641  1.00  0.00     0.130 A 
HETATM    9  S1  UNL     1       0.174  -2.407   1.254  1.00  0.00    -0.058 SA
HETATM   10  C15 UNL     1      -2.154  -1.454   0.534  1.00  0.00     0.090 A 
HETATM   11  C16 UNL     1      -2.680  -2.704   1.020  1.00  0.00     0.103 C 
HETATM   12  N3  UNL     1      -3.103  -3.709   1.402  1.00  0.00    -0.191 NA
ENDROOT
BRANCH   6  13
HETATM   13  C6  UNL     1      -0.686   2.158  -0.732  1.00  0.00    -0.029 C 
HETATM   14  C7  UNL     1      -0.342   3.296  -1.039  1.00  0.00     0.012 C 
HETATM   15 CL1  UNL     1       0.156   4.901  -1.444  1.00  0.00    -0.023 Cl
ENDBRANCH   6  13
BRANCH   7  16
HETATM   16  C8  UNL     1       1.136   0.142   0.152  1.00  0.00     0.015 C 
HETATM   17  C9  UNL     1       1.747   0.675  -0.896  1.00  0.00    -0.001 C 
HETATM   18  C10 UNL     1       3.243   0.831  -0.784  1.00  0.00     0.029 C 
HETATM   19  C11 UNL     1       3.732  -0.581  -0.427  1.00  0.00     0.004 C 
HETATM   20  C12 UNL     1       3.278  -0.839   0.999  1.00  0.00     0.006 C 
HETATM   21  C13 UNL     1       2.012  -0.133   1.337  1.00  0.00     0.057 C 
ENDBRANCH   7  16
TORSDOF 2
