REMARK  6 active torsions:
REMARK  status: ('A' for Active; 'I' for Inactive)
REMARK    1  A    between atoms: C2_2  and  C5_5 
REMARK    2  A    between atoms: C5_5  and  C6_6 
REMARK    3  A    between atoms: C6_6  and  C7_7 
REMARK    4  A    between atoms: C7_7  and  N1_8 
REMARK    5  A    between atoms: C14_16  and  N2_17 
REMARK    6  A    between atoms: N2_17  and  C15_19 
ROOT
HETATM    1  C15 UNL     1      -4.235  -1.139   0.030  1.00  0.00     0.069 A 
HETATM    2  C16 UNL     1      -4.959  -1.055  -1.134  1.00  0.00     0.054 A 
HETATM    3 BR1  UNL     1      -4.318  -0.211  -2.724  1.00  0.00    -0.047 Br
HETATM    4  C17 UNL     1      -6.241  -1.601  -1.224  1.00  0.00     0.109 A 
HETATM    5  N3  UNL     1      -6.819  -2.226  -0.190  1.00  0.00    -0.372 N 
ATOM      6  H3  UNL     1      -7.756  -2.620  -0.271  1.00  0.00     0.164 HD
HETATM    7  C18 UNL     1      -6.122  -2.318   0.962  1.00  0.00     0.112 A 
HETATM    8  C19 UNL     1      -4.867  -1.806   1.115  1.00  0.00     0.087 A 
HETATM    9  C20 UNL     1      -4.193  -1.938   2.371  1.00  0.00     0.103 C 
HETATM   10  N4  UNL     1      -3.643  -2.036   3.393  1.00  0.00    -0.191 NA
ENDROOT
BRANCH   1  11
HETATM   11  N2  UNL     1      -3.107  -0.692   0.231  1.00  0.00    -0.377 N 
ATOM     12  H2  UNL     1      -2.835  -0.912   1.189  1.00  0.00     0.160 HD
BRANCH  11  13
HETATM   13  C14 UNL     1      -2.072   0.003  -0.375  1.00  0.00     0.155 C 
HETATM   14  C13 UNL     1      -1.028  -0.839  -1.091  1.00  0.00     0.032 C 
HETATM   15  C12 UNL     1      -0.023   0.223  -1.453  1.00  0.00     0.018 C 
HETATM   16  C5  UNL     1       0.156   0.986  -0.148  1.00  0.00     0.036 C 
HETATM   17  C21 UNL     1      -1.143   0.704   0.618  1.00  0.00     0.271 C 
HETATM   18  F1  UNL     1      -0.892  -0.133   1.707  1.00  0.00    -0.203 F 
HETATM   19  F2  UNL     1      -1.764   1.787   1.124  1.00  0.00    -0.203 F 
BRANCH  16  20
HETATM   20  C2  UNL     1       0.364   2.436  -0.362  1.00  0.00    -0.038 C 
HETATM   21  C1  UNL     1      -0.768   3.137  -1.094  1.00  0.00     0.015 C 
HETATM   22  C3  UNL     1       0.593   3.184   0.913  1.00  0.00     0.015 C 
HETATM   23  C4  UNL     1       1.582   2.714  -1.251  1.00  0.00     0.015 C 
ENDBRANCH  16  20
BRANCH  16  24
HETATM   24  C6  UNL     1       1.263   0.337   0.610  1.00  0.00     0.046 C 
BRANCH  24  25
HETATM   25  C7  UNL     1       2.638   0.335   0.116  1.00  0.00     0.273 C 
BRANCH  25  26
HETATM   26  N1  UNL     1       3.413  -0.498   1.106  1.00  0.00     0.092 N 
HETATM   27  C8  UNL     1       4.825  -0.342   0.798  1.00  0.00     0.298 C 
HETATM   28  C9  UNL     1       5.619  -1.271   1.655  1.00  0.00     0.198 C 
HETATM   29  O1  UNL     1       5.143  -2.586   1.577  1.00  0.00    -0.388 OA
HETATM   30  C10 UNL     1       4.207  -2.711   0.573  1.00  0.00     0.198 C 
HETATM   31  C11 UNL     1       2.996  -1.886   0.941  1.00  0.00     0.298 C 
ENDBRANCH  25  26
ENDBRANCH  24  25
ENDBRANCH  16  24
ENDBRANCH  11  13
ENDBRANCH   1  11
TORSDOF 6
