REMARK  5 active torsions:
REMARK  status: ('A' for Active; 'I' for Inactive)
REMARK    1  A    between atoms: C2_4  and  S1_6 
REMARK    2  A    between atoms: S1_6  and  C3_7 
REMARK    3  A    between atoms: C3_7  and  C4_8 
REMARK    4  A    between atoms: C4_8  and  S2_9 
REMARK    5  A    between atoms: S2_9  and  C5_10 
ROOT
HETATM    1  C3  UNL     1      -0.257  -0.529  -0.195  1.00  0.00     0.092 C 
ENDROOT
BRANCH   1   2
HETATM    2  S1  UNL     1      -1.842   0.098  -0.755  1.00  0.00    -0.097 SA
BRANCH   2   3
HETATM    3  C2  UNL     1      -3.093  -0.237   0.466  1.00  0.00     0.149 C 
HETATM    4  N1  UNL     1      -4.309   0.195   0.281  1.00  0.00    -0.377 N 
HETATM    5  C1  UNL     1      -4.604   0.938  -0.922  1.00  0.00     0.148 C 
ATOM      6  H1  UNL     1      -5.037   0.012   0.972  1.00  0.00     0.160 HD
HETATM    7  N2  UNL     1      -2.746  -0.969   1.623  1.00  0.00    -0.075 NA
ENDBRANCH   2   3
ENDBRANCH   1   2
BRANCH   1   8
HETATM    8  C4  UNL     1       0.228   0.289   0.973  1.00  0.00     0.086 C 
BRANCH   8   9
HETATM    9  S2  UNL     1       1.781  -0.322   1.569  1.00  0.00    -0.143 SA
BRANCH   9  10
HETATM   10  C5  UNL     1       3.197  -0.167   0.530  1.00  0.00     0.077 C 
HETATM   11  C6  UNL     1       3.097  -1.071  -0.674  1.00  0.00     0.044 C 
HETATM   12  C7  UNL     1       3.444   1.237   0.024  1.00  0.00     0.044 C 
HETATM   13 CL1  UNL     1       4.635  -0.733   1.459  1.00  0.00    -0.108 Cl
ENDBRANCH   9  10
ENDBRANCH   8   9
ENDBRANCH   1   8
TORSDOF 5
