REMARK  3 active torsions:
REMARK  status: ('A' for Active; 'I' for Inactive)
REMARK    1  A    between atoms: S1_2  and  C2_3 
REMARK    2  A    between atoms: C3_5  and  C4_6 
REMARK    3  A    between atoms: C8_11  and  C9_12 
ROOT
HETATM    1  C2  UNL     1       1.207   0.083   0.858  1.00  0.00     0.059 A 
HETATM    2  S2  UNL     1      -0.045   1.217   1.100  1.00  0.00    -0.083 SA
HETATM    3  C3  UNL     1      -1.242   0.522   0.104  1.00  0.00     0.024 A 
HETATM    4  C6  UNL     1      -0.620  -0.591  -0.393  1.00  0.00    -0.027 A 
HETATM    5  C7  UNL     1      -1.381  -1.508  -1.333  1.00  0.00     0.050 C 
HETATM    6  C8  UNL     1       0.647  -0.819  -0.004  1.00  0.00     0.071 A 
ENDROOT
BRANCH   3   7
HETATM    7  C4  UNL     1      -2.622   1.033  -0.166  1.00  0.00     0.206 C 
HETATM    8  C5  UNL     1      -2.885   2.120   0.880  1.00  0.00     0.051 C 
HETATM    9  F1  UNL     1      -2.559   1.682  -1.397  1.00  0.00    -0.244 F 
ENDBRANCH   3   7
BRANCH   1  10
HETATM   10  S1  UNL     1       2.879   0.068   1.555  1.00  0.00    -0.126 SA
HETATM   11  C1  UNL     1       3.903   1.017   0.375  1.00  0.00     0.096 C 
ENDBRANCH   1  10
BRANCH   6  12
HETATM   12  C9  UNL     1       1.470  -1.986  -0.450  1.00  0.00     0.211 C 
HETATM   13  O1  UNL     1       2.191  -1.930  -1.473  1.00  0.00    -0.644 OA
HETATM   14  O2  UNL     1       1.394  -3.127   0.323  1.00  0.00    -0.644 OA
ENDBRANCH   6  12
TORSDOF 3
