REMARK  7 active torsions:
REMARK  status: ('A' for Active; 'I' for Inactive)
REMARK    1  A    between atoms: C1_2  and  C2_3 
REMARK       I    between atoms: C1_2  and  N3_22 
REMARK       I    between atoms: N1_9  and  C6_10 
REMARK    2  A    between atoms: C6_10  and  C7_12 
REMARK    3  A    between atoms: C7_12  and  N2_13 
REMARK    4  A    between atoms: N2_13  and  C8_16 
REMARK    5  A    between atoms: N4_25  and  C16_26 
REMARK    6  A    between atoms: C16_26  and  O3_27 
REMARK    7  A    between atoms: C16_26  and  C17_29 
ROOT
HETATM    1  O1  UNL     1       1.276  -0.470   0.719  1.00  0.00    -0.271 OA
HETATM    2  C1  UNL     1       0.827   0.273  -0.208  1.00  0.00     0.243 C 
HETATM    3  N3  UNL     1      -0.503   0.690  -0.107  1.00  0.00    -0.347 N 
HETATM    4  C14 UNL     1      -1.157   1.558  -1.104  1.00  0.00     0.145 C 
HETATM    5  C15 UNL     1      -2.395   2.175  -0.461  1.00  0.00     0.144 C 
HETATM    6  N4  UNL     1      -3.325   1.089  -0.066  1.00  0.00    -0.362 N 
HETATM    7  C27 UNL     1      -2.733  -0.064   0.499  1.00  0.00     0.144 C 
HETATM    8  C28 UNL     1      -1.326   0.294   1.014  1.00  0.00     0.145 C 
ENDROOT
BRANCH   2   9
HETATM    9  C2  UNL     1       1.746   0.631  -1.304  1.00  0.00     0.185 C 
HETATM   10  C3  UNL     1       1.428  -0.013  -2.622  1.00  0.00     0.115 C 
HETATM   11  C4  UNL     1       1.936  -1.430  -2.370  1.00  0.00     0.261 C 
HETATM   12  F1  UNL     1       0.909  -2.212  -1.828  1.00  0.00    -0.204 F 
HETATM   13  F2  UNL     1       2.305  -2.059  -3.544  1.00  0.00    -0.204 F 
HETATM   14  C5  UNL     1       3.066  -1.282  -1.396  1.00  0.00     0.205 C 
HETATM   15  N1  UNL     1       3.057   0.107  -1.014  1.00  0.00    -0.331 N 
HETATM   16  C6  UNL     1       4.134   0.863  -0.447  1.00  0.00     0.246 C 
HETATM   17  O2  UNL     1       3.926   2.069  -0.182  1.00  0.00    -0.272 OA
BRANCH  16  18
HETATM   18  C7  UNL     1       5.460   0.279  -0.168  1.00  0.00     0.335 C 
BRANCH  18  19
HETATM   19  N2  UNL     1       6.377   1.218   0.398  1.00  0.00    -0.063 N 
ATOM     20  H22 UNL     1       6.456   2.042  -0.198  1.00  0.00     0.278 HD
ATOM     21  H21 UNL     1       5.978   1.645   1.234  1.00  0.00     0.278 HD
BRANCH  19  22
HETATM   22  C8  UNL     1       7.669   0.682   0.680  1.00  0.00     0.186 C 
HETATM   23  C9  UNL     1       7.645  -0.411   1.696  1.00  0.00     0.033 C 
HETATM   24  C10 UNL     1       9.054  -0.816   2.070  1.00  0.00     0.002 C 
HETATM   25  C11 UNL     1       9.782  -1.271   0.818  1.00  0.00     0.000 C 
HETATM   26  C12 UNL     1       9.844  -0.061  -0.103  1.00  0.00     0.002 C 
HETATM   27  C13 UNL     1       8.426   0.263  -0.558  1.00  0.00     0.033 C 
ENDBRANCH  19  22
ENDBRANCH  18  19
ENDBRANCH  16  18
ENDBRANCH   2   9
BRANCH   6  28
HETATM   28  C16 UNL     1      -4.668   1.312  -0.312  1.00  0.00     0.122 C 
BRANCH  28  29
HETATM   29  O3  UNL     1      -4.958   2.457  -0.869  1.00  0.00    -0.349 OA
ATOM     30  H3  UNL     1      -5.880   2.610  -1.038  1.00  0.00     0.219 HD
ENDBRANCH  28  29
BRANCH  28  31
HETATM   31  C17 UNL     1      -5.815   0.444  -0.033  1.00  0.00     0.026 C 
HETATM   32  C18 UNL     1      -6.140   0.395   1.425  1.00  0.00     0.022 C 
HETATM   33  C19 UNL     1      -7.409  -0.432   1.660  1.00  0.00    -0.013 C 
HETATM   34  C20 UNL     1      -8.524   0.334   0.985  1.00  0.00     0.009 C 
HETATM   35  C24 UNL     1      -7.189  -1.799   1.099  1.00  0.00     0.009 C 
HETATM   36  C21 UNL     1      -8.254   0.369  -0.491  1.00  0.00    -0.013 C 
HETATM   37  C22 UNL     1      -8.082  -1.035  -1.056  1.00  0.00     0.009 C 
HETATM   38  C26 UNL     1      -7.007   1.118  -0.785  1.00  0.00     0.022 C 
HETATM   39  C23 UNL     1      -6.936  -1.715  -0.383  1.00  0.00    -0.013 C 
HETATM   40  C25 UNL     1      -5.657  -0.929  -0.598  1.00  0.00     0.022 C 
ENDBRANCH  28  31
ENDBRANCH   6  28
TORSDOF 7
