REMARK  13 active torsions:
REMARK  status: ('A' for Active; 'I' for Inactive)
REMARK    1  A    between atoms: N1_4  and  N2_6 
REMARK    2  A    between atoms: C4_8  and  C5_9 
REMARK    3  A    between atoms: C4_8  and  O3_46 
REMARK    4  A    between atoms: C5_9  and  C6_10 
REMARK       I    between atoms: N3_11  and  C7_13 
REMARK    5  A    between atoms: C7_13  and  C8_15 
REMARK    6  A    between atoms: N5_18  and  N6_19 
REMARK    7  A    between atoms: C9_21  and  C10_22 
REMARK    8  A    between atoms: C13_29  and  N9_30 
REMARK    9  A    between atoms: C14_33  and  N10_34 
REMARK       I    between atoms: N10_34  and  C15_35 
REMARK   10  A    between atoms: C15_35  and  C16_37 
REMARK   11  A    between atoms: C18_40  and  N11_41 
REMARK   12  A    between atoms: O3_46  and  C19_47 
REMARK   13  A    between atoms: C19_47  and  C21_49 
ROOT
HETATM    1  C8  UNL     1       1.633   0.033   0.163  1.00  0.00     0.163 A 
HETATM    2  N4  UNL     1       2.114   1.256  -0.159  1.00  0.00    -0.270 N 
ATOM      3  H4  UNL     1       1.565   1.997  -0.594  1.00  0.00     0.189 HD
HETATM    4  N5  UNL     1       3.404   1.362   0.169  1.00  0.00    -0.176 N 
HETATM    5  C13 UNL     1       3.763   0.197   0.706  1.00  0.00     0.182 A 
HETATM    6  C14 UNL     1       2.661  -0.678   0.719  1.00  0.00     0.191 A 
ENDROOT
BRANCH   1   7
HETATM    7  C7  UNL     1       0.225  -0.427  -0.036  1.00  0.00     0.276 C 
HETATM    8  N3  UNL     1      -0.658   0.428  -0.633  1.00  0.00    -0.335 N 
HETATM    9  C6  UNL     1      -1.799   0.323  -1.109  1.00  0.00     0.072 C 
ATOM     10  H3  UNL     1      -0.293   1.378  -0.704  1.00  0.00     0.168 HD
HETATM   11  O1  UNL     1      -0.048  -1.571   0.363  1.00  0.00    -0.266 OA
BRANCH   9  12
HETATM   12  C5  UNL     1      -2.618  -0.878  -1.178  1.00  0.00     0.130 C 
BRANCH  12  13
HETATM   13  C4  UNL     1      -3.759  -0.702  -0.231  1.00  0.00     0.137 C 
HETATM   14  N2  UNL     1      -4.736   0.018  -0.366  1.00  0.00    -0.283 N 
ATOM     15  H2  UNL     1      -5.284  -0.131   0.481  1.00  0.00     0.188 HD
BRANCH  14  16
HETATM   16  N1  UNL     1      -5.401   0.852  -1.032  1.00  0.00    -0.308 N 
HETATM   17  C2  UNL     1      -5.960   0.990  -2.128  1.00  0.00    -0.004 C 
HETATM   18  C1  UNL     1      -5.972  -0.071  -3.162  1.00  0.00     0.064 C 
HETATM   19  C3  UNL     1      -6.641   2.316  -2.384  1.00  0.00     0.064 C 
ATOM     20  H1  UNL     1      -5.520   1.703  -0.483  1.00  0.00     0.186 HD
ENDBRANCH  14  16
BRANCH  13  21
HETATM   21  O3  UNL     1      -3.656  -1.488   0.963  1.00  0.00    -0.332 OA
BRANCH  21  22
HETATM   22  C19 UNL     1      -4.450  -1.109   2.091  1.00  0.00     0.140 C 
HETATM   23  C20 UNL     1      -4.190  -2.109   3.212  1.00  0.00     0.041 C 
BRANCH  22  24
HETATM   24  C21 UNL     1      -4.054   0.249   2.600  1.00  0.00     0.146 C 
HETATM   25 CL1  UNL     1      -5.041   0.727   4.010  1.00  0.00    -0.128 Cl
ENDBRANCH  22  24
ENDBRANCH  21  22
ENDBRANCH  13  21
ENDBRANCH  12  13
ENDBRANCH   9  12
ENDBRANCH   1   7
BRANCH   6  26
HETATM   26  N10 UNL     1       2.638  -2.002   1.140  1.00  0.00    -0.359 NA
HETATM   27  C15 UNL     1       2.616  -3.255   1.540  1.00  0.00     0.344 C 
HETATM   28  O2  UNL     1       2.214  -3.733   2.662  1.00  0.00    -0.249 OA
BRANCH  27  29
HETATM   29  C16 UNL     1       3.112  -4.376   0.626  1.00  0.00     0.124 A 
HETATM   30  C17 UNL     1       2.561  -5.610   0.669  1.00  0.00     0.089 A 
HETATM   31  S1  UNL     1       3.529  -6.461  -0.489  1.00  0.00    -0.064 SA
HETATM   32  C18 UNL     1       4.561  -5.161  -0.938  1.00  0.00     0.142 A 
HETATM   33  N12 UNL     1       4.114  -4.155  -0.182  1.00  0.00    -0.331 N 
ATOM     34  H12 UNL     1       4.546  -3.233  -0.235  1.00  0.00     0.168 HD
BRANCH  32  35
HETATM   35  N11 UNL     1       5.566  -5.143  -1.799  1.00  0.00    -0.380 N 
ATOM     36 2H11 UNL     1       5.907  -5.911  -2.376  1.00  0.00     0.158 HD
ATOM     37 1H11 UNL     1       6.178  -4.372  -2.065  1.00  0.00     0.158 HD
ENDBRANCH  32  35
ENDBRANCH  27  29
ENDBRANCH   6  26
BRANCH   4  38
HETATM   38  N6  UNL     1       4.218   2.501  -0.026  1.00  0.00    -0.285 N 
HETATM   39  C9  UNL     1       4.025   3.557   0.690  1.00  0.00     0.157 C 
ATOM     40  H6  UNL     1       4.956   2.488  -0.730  1.00  0.00     0.188 HD
BRANCH  39  41
HETATM   41  C10 UNL     1       4.840   4.741   0.516  1.00  0.00     0.122 A 
HETATM   42  N7  UNL     1       4.798   5.925   1.148  1.00  0.00    -0.350 N 
HETATM   43  C11 UNL     1       5.764   6.742   0.653  1.00  0.00     0.106 A 
ATOM     44  H7  UNL     1       4.141   6.173   1.887  1.00  0.00     0.166 HD
HETATM   45  C12 UNL     1       6.422   6.025  -0.320  1.00  0.00     0.106 A 
HETATM   46  N8  UNL     1       5.848   4.829  -0.383  1.00  0.00    -0.350 N 
ATOM     47  H8  UNL     1       6.127   4.082  -1.019  1.00  0.00     0.166 HD
ENDBRANCH  39  41
ENDBRANCH   4  38
BRANCH   5  48
HETATM   48  N9  UNL     1       4.905  -0.130   1.150  1.00  0.00    -0.380 N 
ATOM     49  H92 UNL     1       5.704   0.504   1.141  1.00  0.00     0.158 HD
ATOM     50  H91 UNL     1       5.180  -1.022   1.561  1.00  0.00     0.158 HD
ENDBRANCH   5  48
TORSDOF 13
