REMARK  1 active torsions:
REMARK  status: ('A' for Active; 'I' for Inactive)
REMARK    1  A    between atoms: S1_2  and  C2_3 
ROOT
HETATM    1  C2  UNL     1       0.192   0.479  -0.546  1.00  0.00     0.246 C 
HETATM    2  C3  UNL     1      -0.248  -0.642   0.348  1.00  0.00     0.045 C 
HETATM    3  C4  UNL     1      -1.765  -0.519   0.243  1.00  0.00     0.030 C 
HETATM    4  C5  UNL     1      -1.999   0.879  -0.258  1.00  0.00     0.233 C 
HETATM    5  N1  UNL     1      -0.708   1.553  -0.133  1.00  0.00    -0.062 N 
ATOM      6  H11 UNL     1      -0.615   2.429  -0.647  1.00  0.00     0.278 HD
ATOM      7  H12 UNL     1      -0.512   1.968   0.778  1.00  0.00     0.278 HD
ENDROOT
BRANCH   1   8
HETATM    8  S1  UNL     1       1.920   0.914  -0.401  1.00  0.00    -0.141 SA
HETATM    9  C1  UNL     1       2.969  -0.489   0.037  1.00  0.00     0.092 C 
ENDBRANCH   1   8
TORSDOF 1
