REMARK  8 active torsions:
REMARK  status: ('A' for Active; 'I' for Inactive)
REMARK    1  A    between atoms: N1_2  and  N2_3 
REMARK    2  A    between atoms: N2_3  and  C2_5 
REMARK    3  A    between atoms: C2_5  and  O1_6 
REMARK    4  A    between atoms: C2_5  and  C3_8 
REMARK    5  A    between atoms: C3_8  and  N3_9 
REMARK    6  A    between atoms: N3_9  and  N4_11 
REMARK    7  A    between atoms: N4_11  and  C4_12 
REMARK    8  A    between atoms: C5_15  and  N6_16 
ROOT
HETATM    1  C4  UNL     1      -1.967  -0.221   1.040  1.00  0.00     0.299 A 
HETATM    2  N5  UNL     1      -2.635   1.018   1.113  1.00  0.00    -0.147 N 
ATOM      3  H5  UNL     1      -2.097   1.860   1.318  1.00  0.00     0.188 HD
HETATM    4  C5  UNL     1      -3.989   1.122   0.916  1.00  0.00     0.683 A 
HETATM    5  N7  UNL     1      -4.741   0.056   0.646  1.00  0.00    -0.141 N 
ATOM      6  H7  UNL     1      -5.745   0.145   0.488  1.00  0.00     0.189 HD
HETATM    7  C6  UNL     1      -4.115  -1.173   0.588  1.00  0.00     0.342 A 
HETATM    8  O2  UNL     1      -4.716  -2.249   0.389  1.00  0.00    -0.246 OA
HETATM    9  N8  UNL     1      -2.803  -1.265   0.776  1.00  0.00    -0.266 N 
ATOM     10  H8  UNL     1      -2.386  -2.194   0.718  1.00  0.00     0.174 HD
ENDROOT
BRANCH   1  11
HETATM   11  N4  UNL     1      -0.828  -0.266   1.084  1.00  0.00    -0.287 NA
BRANCH  11  12
HETATM   12  N3  UNL     1       0.491  -0.330   1.134  1.00  0.00    -0.239 N 
ATOM     13  H3  UNL     1       1.081  -0.359   1.965  1.00  0.00     0.201 HD
BRANCH  12  14
HETATM   14  C3  UNL     1       0.886  -0.348  -0.156  1.00  0.00     0.177 C 
BRANCH  14  15
HETATM   15  C2  UNL     1       2.189  -0.396  -0.610  1.00  0.00     0.170 C 
BRANCH  15  16
HETATM   16  N2  UNL     1       3.227  -0.435   0.352  1.00  0.00    -0.283 N 
ATOM     17  H2  UNL     1       3.316  -0.462   1.368  1.00  0.00     0.184 HD
BRANCH  16  18
HETATM   18  N1  UNL     1       4.332  -0.414  -1.108  1.00  0.00    -0.144 NA
HETATM   19  C1  UNL     1       5.486   0.007  -0.305  1.00  0.00     0.159 C 
ENDBRANCH  16  18
ENDBRANCH  15  16
BRANCH  15  20
HETATM   20  O1  UNL     1       2.354  -0.388  -1.907  1.00  0.00    -0.344 OA
ATOM     21  H1  UNL     1       1.657  -0.362  -2.553  1.00  0.00     0.219 HD
ENDBRANCH  15  20
ENDBRANCH  14  15
ENDBRANCH  12  14
ENDBRANCH  11  12
ENDBRANCH   1  11
BRANCH   4  22
HETATM   22  N6  UNL     1      -4.529   2.284   0.922  1.00  0.00    -0.234 N 
ATOM     23  H62 UNL     1      -3.953   3.100   1.129  1.00  0.00     0.174 HD
ATOM     24  H61 UNL     1      -5.535   2.361   0.776  1.00  0.00     0.174 HD
ENDBRANCH   4  22
TORSDOF 8
