REMARK  4 active torsions:
REMARK  status: ('A' for Active; 'I' for Inactive)
REMARK    1  A    between atoms: C2_7  and  C3_8 
REMARK       I    between atoms: C3_8  and  N3_10 
REMARK    2  A    between atoms: N3_10  and  N4_12 
REMARK    3  A    between atoms: N5_15  and  O2_16 
REMARK    4  A    between atoms: N6_19  and  O3_20 
ROOT
HETATM    1  N1  UNL     1      -2.689   1.084  -1.336  1.00  0.00    -0.232 N 
ATOM      2  H11 UNL     1      -3.707   1.013  -1.332  1.00  0.00     0.174 HD
ATOM      3  H12 UNL     1      -2.223   1.732  -1.971  1.00  0.00     0.174 HD
HETATM    4  C1  UNL     1      -1.964   0.367  -0.549  1.00  0.00     0.705 A 
HETATM    5  N2  UNL     1      -0.606   0.462  -0.554  1.00  0.00    -0.167 N 
ATOM      6  H2  UNL     1      -0.161   1.117  -1.197  1.00  0.00     0.186 HD
HETATM    7  C2  UNL     1       0.170  -0.276   0.258  1.00  0.00     0.218 A 
HETATM    8  N5  UNL     1      -0.446  -1.133   1.098  1.00  0.00    -0.195 N 
HETATM    9  C4  UNL     1      -1.798  -1.219   1.094  1.00  0.00     0.266 A 
HETATM   10  N6  UNL     1      -2.574  -0.482   0.283  1.00  0.00    -0.046 N 
ENDROOT
BRANCH   7  11
HETATM   11  C3  UNL     1       1.622  -0.170   0.249  1.00  0.00     0.306 C 
HETATM   12  O1  UNL     1       2.363  -0.851   0.999  1.00  0.00    -0.263 OA
HETATM   13  N3  UNL     1       2.253   0.739  -0.643  1.00  0.00    -0.270 N 
ATOM     14  H3  UNL     1       1.672   1.303  -1.263  1.00  0.00     0.189 HD
BRANCH  13  15
HETATM   15  N4  UNL     1       3.642   0.887  -0.701  1.00  0.00    -0.342 N 
ATOM     16  H42 UNL     1       4.208   0.315  -0.074  1.00  0.00     0.176 HD
ATOM     17  H41 UNL     1       4.095   1.539  -1.341  1.00  0.00     0.176 HD
ENDBRANCH  13  15
ENDBRANCH   7  11
BRANCH   8  18
HETATM   18  O2  UNL     1       0.317  -1.902   1.940  1.00  0.00    -0.280 OA
ATOM     19  H2  UNL     1      -0.117  -2.506   2.532  1.00  0.00     0.245 HD
ENDBRANCH   8  18
BRANCH  10  20
HETATM   20  O3  UNL     1      -3.949  -0.576   0.286  1.00  0.00    -0.269 OA
ATOM     21  H3  UNL     1      -4.383  -1.180   0.878  1.00  0.00     0.246 HD
ENDBRANCH  10  20
TORSDOF 4
