REMARK  3 active torsions:
REMARK  status: ('A' for Active; 'I' for Inactive)
REMARK    1  A    between atoms: C2_5  and  C3_6 
REMARK    2  A    between atoms: C4_9  and  N4_10 
REMARK    3  A    between atoms: N4_10  and  N5_12 
ROOT
HETATM    1  N5  UNL     1      -1.334   2.526   0.558  1.00  0.00    -0.235 N 
ATOM      2  H5  UNL     1      -2.030   2.143   1.198  1.00  0.00     0.199 HD
HETATM    3  C5  UNL     1      -1.573   3.747  -0.081  1.00  0.00     0.197 C 
HETATM    4  N6  UNL     1      -1.779   4.770  -0.596  1.00  0.00    -0.170 NA
ENDROOT
BRANCH   1   5
HETATM    5  N4  UNL     1      -0.147   1.830   0.323  1.00  0.00    -0.273 N 
ATOM      6  H4  UNL     1       0.708   2.365   0.175  1.00  0.00     0.189 HD
BRANCH   5   7
HETATM    7  C4  UNL     1      -0.080   0.547   0.284  1.00  0.00     0.170 A 
HETATM    8  C2  UNL     1       1.036  -0.221   0.060  1.00  0.00     0.161 A 
HETATM    9  N2  UNL     1       0.604  -1.492   0.114  1.00  0.00    -0.276 N 
HETATM   10  N1  UNL     1      -0.693  -1.539   0.354  1.00  0.00    -0.236 N 
ATOM     11  H2  UNL     1       1.199  -2.311  -0.013  1.00  0.00     0.189 HD
HETATM   12  C1  UNL     1      -1.577  -2.675   0.494  1.00  0.00     0.200 C 
HETATM   13  N7  UNL     1      -1.114  -0.291   0.458  1.00  0.00    -0.266 N 
ATOM     14  H7  UNL     1      -2.076  -0.008   0.642  1.00  0.00     0.190 HD
BRANCH   8  15
HETATM   15  C3  UNL     1       2.371   0.310  -0.176  1.00  0.00     0.286 C 
HETATM   16  N3  UNL     1       3.492  -0.554  -0.403  1.00  0.00    -0.056 NA
HETATM   17  O1  UNL     1       2.612   1.540  -0.195  1.00  0.00    -0.269 OA
ENDBRANCH   8  15
ENDBRANCH   5   7
ENDBRANCH   1   5
TORSDOF 3
