REMARK  11 active torsions:
REMARK  status: ('A' for Active; 'I' for Inactive)
REMARK    1  A    between atoms: C4_4  and  O1_5 
REMARK    2  A    between atoms: C9_11  and  O2_12 
REMARK    3  A    between atoms: C13_17  and  O3_18 
REMARK    4  A    between atoms: C18_24  and  O4_25 
REMARK    5  A    between atoms: O4_25  and  C19_26 
REMARK    6  A    between atoms: C19_26  and  C20_27 
REMARK    7  A    between atoms: C20_27  and  C21_28 
REMARK    8  A    between atoms: C21_28  and  C22_29 
REMARK    9  A    between atoms: C22_29  and  C23_30 
REMARK   10  A    between atoms: C23_30  and  C24_31 
REMARK   11  A    between atoms: C24_31  and  N1_32 
ROOT
HETATM    1  C1  UNL     1      -1.354  -1.539   2.669  1.00  0.00     0.020 C 
HETATM    2  C2  UNL     1      -0.404  -1.053   1.634  1.00  0.00     0.011 C 
HETATM    3  C3  UNL     1       0.578  -0.198   2.447  1.00  0.00     0.020 C 
HETATM    4  C4  UNL     1       0.390  -2.265   1.195  1.00  0.00     0.129 C 
HETATM    5  C5  UNL     1       0.341  -2.768  -0.159  1.00  0.00     0.033 C 
HETATM    6  C6  UNL     1      -0.537  -2.165  -1.180  1.00  0.00     0.017 C 
HETATM    7  C7  UNL     1      -1.576  -1.322  -0.461  1.00  0.00     0.015 C 
HETATM    8  C8  UNL     1      -2.451  -2.362   0.080  1.00  0.00     0.021 C 
HETATM    9  C9  UNL     1      -2.378  -0.672  -1.593  1.00  0.00     0.129 C 
HETATM   10  C10 UNL     1      -3.581  -0.087  -0.954  1.00  0.00     0.038 C 
HETATM   11  C11 UNL     1      -3.320   0.532   0.399  1.00  0.00     0.002 C 
HETATM   12  C12 UNL     1      -4.278   1.683   0.503  1.00  0.00     0.037 C 
HETATM   13  C13 UNL     1      -3.986   2.843  -0.356  1.00  0.00     0.118 C 
HETATM   14  C14 UNL     1      -2.548   3.138  -0.279  1.00  0.00     0.032 C 
HETATM   15  C15 UNL     1      -1.550   2.090  -0.125  1.00  0.00     0.015 C 
HETATM   16  C16 UNL     1      -1.889   0.840   0.675  1.00  0.00    -0.007 C 
HETATM   17  C17 UNL     1      -1.865   1.414   2.078  1.00  0.00     0.019 C 
HETATM   18  C18 UNL     1      -0.911  -0.294   0.417  1.00  0.00     0.087 C 
ENDROOT
BRANCH  18  19
HETATM   19  O4  UNL     1       0.226   0.036  -0.124  1.00  0.00    -0.378 OA
BRANCH  19  20
HETATM   20  C19 UNL     1       1.038   0.535  -0.881  1.00  0.00     0.169 C 
BRANCH  20  21
HETATM   21  C20 UNL     1       2.564   0.301  -0.723  1.00  0.00     0.026 C 
BRANCH  21  22
HETATM   22  C21 UNL     1       3.207   1.082  -1.824  1.00  0.00     0.002 C 
BRANCH  22  23
HETATM   23  C22 UNL     1       4.706   0.965  -1.818  1.00  0.00     0.002 C 
BRANCH  23  24
HETATM   24  C23 UNL     1       5.160  -0.460  -1.984  1.00  0.00     0.027 C 
BRANCH  24  25
HETATM   25  C24 UNL     1       6.675  -0.492  -1.968  1.00  0.00     0.229 C 
BRANCH  25  26
HETATM   26  N1  UNL     1       7.158   0.035  -0.703  1.00  0.00    -0.079 N 
ATOM     27  H13 UNL     1       6.790   0.966  -0.508  1.00  0.00     0.274 HD
ATOM     28  H12 UNL     1       6.754  -0.452   0.097  1.00  0.00     0.274 HD
ATOM     29  H11 UNL     1       8.178   0.013  -0.692  1.00  0.00     0.274 HD
ENDBRANCH  25  26
ENDBRANCH  24  25
ENDBRANCH  23  24
ENDBRANCH  22  23
ENDBRANCH  21  22
ENDBRANCH  20  21
ENDBRANCH  19  20
ENDBRANCH  18  19
BRANCH   4  30
HETATM   30  O1  UNL     1       1.739  -2.260   1.644  1.00  0.00    -0.395 OA
ATOM     31  H1  UNL     1       2.237  -3.021   1.369  1.00  0.00     0.210 HD
ENDBRANCH   4  30
BRANCH   9  32
HETATM   32  O2  UNL     1      -2.812  -1.740  -2.419  1.00  0.00    -0.395 OA
ATOM     33  H2  UNL     1      -3.309  -1.337  -3.121  1.00  0.00     0.210 HD
ENDBRANCH   9  32
BRANCH  13  34
HETATM   34  O3  UNL     1      -4.791   3.964  -0.055  1.00  0.00    -0.396 OA
ATOM     35  H3  UNL     1      -4.603   4.712  -0.609  1.00  0.00     0.210 HD
ENDBRANCH  13  34
TORSDOF 11
