REMARK  2 active torsions:
REMARK  status: ('A' for Active; 'I' for Inactive)
REMARK    1  A    between atoms: C2_2  and  C3_3 
REMARK    2  A    between atoms: C8_11  and  O1_12 
ROOT
HETATM    1  C1  UNL     1      -1.595  -0.025  -1.559  1.00  0.00     0.027 C 
HETATM    2  C2  UNL     1      -0.670  -0.237  -0.351  1.00  0.00     0.080 C 
HETATM    3  C4  UNL     1       0.509  -1.013  -0.846  1.00  0.00     0.021 C 
HETATM    4  C5  UNL     1       1.697  -0.973   0.062  1.00  0.00     0.001 C 
HETATM    5  C6  UNL     1       2.048   0.415   0.523  1.00  0.00     0.002 C 
HETATM    6  C7  UNL     1       0.862   1.107   1.123  1.00  0.00     0.033 C 
HETATM    7  C8  UNL     1      -0.241   1.118   0.105  1.00  0.00     0.135 C 
ENDROOT
BRANCH   2   8
HETATM    8  C3  UNL     1      -1.484  -0.985   0.671  1.00  0.00     0.397 C 
HETATM    9  F1  UNL     1      -1.862  -2.190   0.063  1.00  0.00    -0.170 F 
HETATM   10  F2  UNL     1      -2.623  -0.273   0.936  1.00  0.00    -0.170 F 
HETATM   11  F3  UNL     1      -0.776  -1.330   1.791  1.00  0.00    -0.170 F 
ENDBRANCH   2   8
BRANCH   7  12
HETATM   12  O1  UNL     1      -1.325   1.896   0.501  1.00  0.00    -0.395 OA
ATOM     13  H1  UNL     1      -1.052   2.758   0.791  1.00  0.00     0.210 HD
ENDBRANCH   7  12
TORSDOF 2
