REMARK  1 active torsions:
REMARK  status: ('A' for Active; 'I' for Inactive)
REMARK    1  A    between atoms: C2_2  and  C3_5 
ROOT
HETATM    1  C3  UNL     1       0.088  -0.146  -0.289  1.00  0.00     0.171 A 
HETATM    2  N1  UNL     1       0.597   1.108  -0.098  1.00  0.00    -0.282 N 
ATOM      3  H1  UNL     1       0.045   1.942   0.103  1.00  0.00     0.188 HD
HETATM    4  N2  UNL     1       1.913   1.075  -0.214  1.00  0.00    -0.275 N 
ATOM      5  H2  UNL     1       2.534   1.878  -0.116  1.00  0.00     0.189 HD
HETATM    6  C4  UNL     1       2.300  -0.171  -0.479  1.00  0.00     0.192 A 
HETATM    7  S1  UNL     1       3.809  -0.751  -0.716  1.00  0.00    -0.039 SA
HETATM    8  N3  UNL     1       1.164  -0.917  -0.522  1.00  0.00    -0.316 N 
ATOM      9  H3  UNL     1       1.133  -1.920  -0.705  1.00  0.00     0.169 HD
ENDROOT
BRANCH   1  10
HETATM   10  C2  UNL     1      -1.358  -0.473  -0.229  1.00  0.00     0.298 C 
HETATM   11  C1  UNL     1      -2.055   0.412   0.799  1.00  0.00     0.099 C 
HETATM   12  F1  UNL     1      -1.972  -0.343  -1.466  1.00  0.00    -0.198 F 
HETATM   13  F2  UNL     1      -1.568  -1.781   0.187  1.00  0.00    -0.198 F 
ENDBRANCH   1  10
TORSDOF 1
