REMARK  0 active torsions:
REMARK  status: ('A' for Active; 'I' for Inactive)
ROOT
HETATM    1  F1  UNL     1       3.094  -1.254   0.700  1.00  0.00    -0.165 F 
HETATM    2  C1  UNL     1       2.691  -0.161  -0.055  1.00  0.00     0.513 C 
HETATM    3 CL1  UNL     1       4.066   0.754  -0.680  1.00  0.00    -0.022 Cl
HETATM    4  N1  UNL     1       1.706  -0.500  -1.081  1.00  0.00     0.037 N 
ATOM      5  H11 UNL     1       1.673  -1.448  -1.455  1.00  0.00     0.288 HD
ATOM      6  H12 UNL     1       1.809  -0.124  -2.024  1.00  0.00     0.288 HD
HETATM    7  C2  UNL     1       0.617  -0.019  -0.223  1.00  0.00     0.301 C 
HETATM    8  C3  UNL     1      -0.047  -1.173   0.444  1.00  0.00     0.070 C 
HETATM    9  C4  UNL     1      -1.137  -0.601   1.349  1.00  0.00     0.004 C 
HETATM   10  C5  UNL     1      -2.175  -0.037   0.384  1.00  0.00     0.000 C 
HETATM   11  C6  UNL     1      -1.649   1.058  -0.463  1.00  0.00     0.004 C 
HETATM   12  C7  UNL     1      -0.273   0.887  -0.976  1.00  0.00     0.070 C 
HETATM   13  N2  UNL     1       1.651   0.644   0.573  1.00  0.00     0.037 N 
ATOM     14  H21 UNL     1       1.724   1.661   0.555  1.00  0.00     0.288 HD
ATOM     15  H22 UNL     1       1.571   0.657   1.590  1.00  0.00     0.288 HD
ENDROOT
TORSDOF 0
