REMARK  1 active torsions:
REMARK  status: ('A' for Active; 'I' for Inactive)
REMARK    1  A    between atoms: N1_10  and  O1_12 
ROOT
HETATM    1  C1  UNL     1      -2.110  -0.032   1.070  1.00  0.00     0.015 C 
HETATM    2  C2  UNL     1      -0.992   0.359   0.092  1.00  0.00    -0.042 C 
HETATM    3  C3  UNL     1      -1.521   1.619  -0.609  1.00  0.00     0.015 C 
HETATM    4  C4  UNL     1      -0.788  -0.668  -0.957  1.00  0.00     0.015 C 
HETATM    5  C5  UNL     1       0.302  -1.649  -0.703  1.00  0.00     0.086 C 
HETATM    6  C6  UNL     1       1.622  -1.033  -0.355  1.00  0.00     0.283 C 
HETATM    7  F1  UNL     1       2.314  -1.945   0.428  1.00  0.00    -0.200 F 
HETATM    8  F2  UNL     1       2.391  -0.811  -1.504  1.00  0.00    -0.200 F 
HETATM    9  C7  UNL     1       1.482   0.248   0.359  1.00  0.00     0.081 C 
HETATM   10  N1  UNL     1       2.540   0.977   0.495  1.00  0.00    -0.271 N 
ATOM     11  H1  UNL     1       2.460   1.867   0.986  1.00  0.00     0.193 HD
HETATM   12  C8  UNL     1       0.203   0.702   0.902  1.00  0.00     0.069 C 
ENDROOT
BRANCH  10  13
HETATM   13  O1  UNL     1       3.770   0.602   0.005  1.00  0.00    -0.290 OA
ATOM     14  H1  UNL     1       4.548   1.138   0.105  1.00  0.00     0.244 HD
ENDBRANCH  10  13
TORSDOF 1
