REMARK  11 active torsions:
REMARK  status: ('A' for Active; 'I' for Inactive)
REMARK    1  A    between atoms: C2_2  and  C9_14 
REMARK    2  A    between atoms: C3_3  and  C4_4 
REMARK    3  A    between atoms: C4_4  and  O1_5 
REMARK    4  A    between atoms: O1_5  and  C5_6 
REMARK    5  A    between atoms: C5_6  and  C6_7 
REMARK    6  A    between atoms: C6_7  and  O2_8 
REMARK    7  A    between atoms: C6_7  and  C7_10 
REMARK    8  A    between atoms: C7_10  and  O3_12 
REMARK    9  A    between atoms: C9_14  and  C10_15 
REMARK   10  A    between atoms: C10_15  and  C11_16 
REMARK   11  A    between atoms: C14_19  and  O4_20 
ROOT
HETATM    1  C11 UNL     1      -0.495  -0.258  -1.148  1.00  0.00    -0.003 C 
HETATM    2  C12 UNL     1      -0.736  -1.205  -2.271  1.00  0.00     0.008 C 
HETATM    3  C13 UNL     1      -2.264  -1.277  -2.430  1.00  0.00     0.039 C 
HETATM    4  C14 UNL     1      -2.766  -0.266  -1.459  1.00  0.00     0.069 C 
HETATM    5  C15 UNL     1      -4.143  -0.440  -0.979  1.00  0.00     0.025 C 
HETATM    6  C16 UNL     1      -5.075   0.343  -1.912  1.00  0.00     0.009 C 
HETATM    7  C17 UNL     1      -5.539   1.495  -1.057  1.00  0.00     0.010 C 
HETATM    8  C18 UNL     1      -5.713   0.830   0.292  1.00  0.00    -0.044 C 
HETATM    9  C19 UNL     1      -5.834   1.846   1.402  1.00  0.00     0.015 C 
HETATM   10  C20 UNL     1      -6.914  -0.063   0.346  1.00  0.00     0.015 C 
HETATM   11  C21 UNL     1      -4.420   0.026   0.403  1.00  0.00     0.000 C 
HETATM   12  C22 UNL     1      -3.399   0.875   1.040  1.00  0.00     0.007 C 
HETATM   13  C23 UNL     1      -1.996   0.690   0.632  1.00  0.00     0.013 C 
HETATM   14  C24 UNL     1      -1.737  -0.427  -0.323  1.00  0.00    -0.009 C 
HETATM   15  C25 UNL     1      -1.913  -1.796   0.268  1.00  0.00     0.019 C 
ENDROOT
BRANCH   1  16
HETATM   16  C10 UNL     1       0.790  -0.316  -0.469  1.00  0.00     0.010 C 
BRANCH  16  17
HETATM   17  C9  UNL     1       1.211  -1.569   0.200  1.00  0.00     0.034 C 
BRANCH  17  18
HETATM   18  C2  UNL     1       2.582  -1.295   0.796  1.00  0.00    -0.086 C 
HETATM   19  C1  UNL     1       2.655  -0.208   1.788  1.00  0.00     0.043 C 
HETATM   20  C3  UNL     1       3.615  -2.001   0.429  1.00  0.00     0.001 C 
BRANCH  20  21
HETATM   21  C4  UNL     1       4.999  -1.853   0.914  1.00  0.00     0.195 C 
BRANCH  21  22
HETATM   22  O1  UNL     1       5.900  -1.566  -0.072  1.00  0.00    -0.385 OA
BRANCH  22  23
HETATM   23  C5  UNL     1       5.776  -0.410  -0.762  1.00  0.00     0.202 C 
BRANCH  23  24
HETATM   24  C6  UNL     1       5.974   0.862  -0.006  1.00  0.00     0.170 C 
BRANCH  24  25
HETATM   25  O2  UNL     1       5.760   1.935  -0.904  1.00  0.00    -0.391 OA
ATOM     26  H2  UNL     1       5.886   2.744  -0.423  1.00  0.00     0.210 HD
ENDBRANCH  24  25
BRANCH  24  27
HETATM   27  C7  UNL     1       7.414   0.981   0.514  1.00  0.00     0.145 C 
HETATM   28  C8  UNL     1       7.526   2.297   1.240  1.00  0.00     0.042 C 
BRANCH  27  29
HETATM   29  O3  UNL     1       7.662  -0.047   1.389  1.00  0.00    -0.393 OA
ATOM     30  H3  UNL     1       8.553   0.027   1.711  1.00  0.00     0.210 HD
ENDBRANCH  27  29
ENDBRANCH  24  27
ENDBRANCH  23  24
ENDBRANCH  22  23
ENDBRANCH  21  22
ENDBRANCH  20  21
ENDBRANCH  17  18
ENDBRANCH  16  17
ENDBRANCH   1  16
BRANCH   4  31
HETATM   31  O4  UNL     1      -2.584   1.016  -1.997  1.00  0.00    -0.389 OA
ATOM     32  H4  UNL     1      -2.904   1.661  -1.377  1.00  0.00     0.210 HD
ENDBRANCH   4  31
TORSDOF 11
