REMARK  11 active torsions:
REMARK  status: ('A' for Active; 'I' for Inactive)
REMARK    1  A    between atoms: C2_2  and  C3_3 
REMARK    2  A    between atoms: C3_3  and  C4_4 
REMARK    3  A    between atoms: C5_5  and  C6_6 
REMARK    4  A    between atoms: C6_6  and  C7_7 
REMARK    5  A    between atoms: C7_7  and  C8_8 
REMARK    6  A    between atoms: C8_8  and  C9_9 
REMARK    7  A    between atoms: C9_9  and  C10_10 
REMARK    8  A    between atoms: C10_10  and  O1_11 
REMARK    9  A    between atoms: N1_13  and  O2_15 
REMARK   10  A    between atoms: C17_24  and  O4_25 
REMARK   11  A    between atoms: C22_32  and  O5_33 
ROOT
HETATM    1  C4  UNL     1       0.971  -2.092   0.736  1.00  0.00    -0.010 C 
HETATM    2  C5  UNL     1       0.977  -0.816   0.377  1.00  0.00    -0.070 C 
HETATM    3  C11 UNL     1      -0.207  -0.114  -0.227  1.00  0.00     0.041 C 
HETATM    4  C12 UNL     1      -1.470  -0.216   0.623  1.00  0.00     0.012 C 
HETATM    5  C13 UNL     1      -2.194  -1.471   0.568  1.00  0.00    -0.006 C 
HETATM    6  C14 UNL     1      -2.487  -1.944   2.010  1.00  0.00     0.018 C 
HETATM    7  C15 UNL     1      -1.460  -2.667  -0.070  1.00  0.00     0.095 C 
HETATM    8  C16 UNL     1      -0.213  -2.981   0.698  1.00  0.00     0.156 C 
HETATM    9  O3  UNL     1      -0.152  -4.055   1.355  1.00  0.00    -0.293 OA
HETATM   10  C17 UNL     1      -3.544  -1.535  -0.090  1.00  0.00     0.127 C 
HETATM   11  C18 UNL     1      -4.629  -0.834   0.694  1.00  0.00     0.036 C 
HETATM   12  C19 UNL     1      -4.645   0.542   0.120  1.00  0.00     0.047 C 
HETATM   13  C20 UNL     1      -3.539   1.328   0.649  1.00  0.00     0.113 C 
HETATM   14  F1  UNL     1      -3.788   1.551   2.014  1.00  0.00    -0.242 F 
HETATM   15  C21 UNL     1      -3.745   2.727   0.019  1.00  0.00     0.076 C 
HETATM   16  C22 UNL     1      -3.140   2.501  -1.324  1.00  0.00     0.122 C 
HETATM   17  C23 UNL     1      -1.924   1.661  -1.004  1.00  0.00     0.044 C 
HETATM   18  C24 UNL     1      -2.149   1.091   0.406  1.00  0.00    -0.001 C 
HETATM   19  C25 UNL     1      -1.410   2.108   1.314  1.00  0.00     0.019 C 
ENDROOT
BRANCH   2  20
HETATM   20  C6  UNL     1       2.155   0.012   0.507  1.00  0.00     0.035 C 
BRANCH  20  21
HETATM   21  C7  UNL     1       2.623   0.593  -0.844  1.00  0.00     0.005 C 
BRANCH  21  22
HETATM   22  C8  UNL     1       3.854   1.423  -0.520  1.00  0.00     0.008 C 
BRANCH  22  23
HETATM   23  C9  UNL     1       4.444   2.066  -1.729  1.00  0.00     0.086 C 
BRANCH  23  24
HETATM   24  C10 UNL     1       5.648   2.854  -1.279  1.00  0.00     0.135 C 
HETATM   25  N1  UNL     1       5.992   2.881  -0.042  1.00  0.00    -0.251 N 
ATOM     26  H1  UNL     1       5.452   2.366   0.654  1.00  0.00     0.196 HD
BRANCH  24  27
HETATM   27  O1  UNL     1       6.410   3.567  -2.192  1.00  0.00    -0.348 OA
ATOM     28  H1  UNL     1       7.169   4.064  -1.908  1.00  0.00     0.219 HD
ENDBRANCH  24  27
BRANCH  25  29
HETATM   29  O2  UNL     1       7.089   3.606   0.334  1.00  0.00    -0.288 OA
ATOM     30  H2  UNL     1       7.343   3.626   1.249  1.00  0.00     0.244 HD
ENDBRANCH  25  29
ENDBRANCH  23  24
ENDBRANCH  22  23
ENDBRANCH  21  22
ENDBRANCH  20  21
ENDBRANCH   2  20
BRANCH   1  31
HETATM   31  C3  UNL     1       2.215  -2.614   1.266  1.00  0.00     0.042 C 
BRANCH  31  32
HETATM   32  C2  UNL     1       3.081  -3.416   0.353  1.00  0.00     0.000 C 
HETATM   33  C1  UNL     1       2.492  -4.666  -0.225  1.00  0.00     0.005 C 
ENDBRANCH  31  32
ENDBRANCH   1  31
BRANCH  10  34
HETATM   34  O4  UNL     1      -3.590  -1.212  -1.408  1.00  0.00    -0.395 OA
ATOM     35  H4  UNL     1      -4.443  -1.252  -1.824  1.00  0.00     0.210 HD
ENDBRANCH  10  34
BRANCH  16  36
HETATM   36  O5  UNL     1      -2.788   3.721  -1.947  1.00  0.00    -0.395 OA
ATOM     37  H5  UNL     1      -2.402   3.577  -2.803  1.00  0.00     0.210 HD
ENDBRANCH  16  36
TORSDOF 11
