REMARK  9 active torsions:
REMARK  status: ('A' for Active; 'I' for Inactive)
REMARK    1  A    between atoms: C2_2  and  C3_3 
REMARK    2  A    between atoms: C3_3  and  C4_4 
REMARK    3  A    between atoms: C4_4  and  C5_5 
REMARK    4  A    between atoms: C5_5  and  C6_6 
REMARK    5  A    between atoms: C6_6  and  N1_7 
REMARK       I    between atoms: N1_7  and  C7_9 
REMARK    6  A    between atoms: C7_9  and  C8_11 
REMARK    7  A    between atoms: C12_17  and  O4_18 
REMARK    8  A    between atoms: O4_18  and  C13_19 
REMARK    9  A    between atoms: C20_27  and  O6_29 
ROOT
HETATM    1  C8  UNL     1       1.326  -1.712   1.221  1.00  0.00     0.233 C 
HETATM    2  O2  UNL     1       0.988  -1.520   2.651  1.00  0.00    -0.305 OA
HETATM    3  C9  UNL     1      -0.041  -0.690   3.108  1.00  0.00     0.264 C 
HETATM    4  O3  UNL     1      -0.131  -0.412   4.318  1.00  0.00    -0.265 OA
HETATM    5  C10 UNL     1      -1.067  -0.121   2.095  1.00  0.00     0.101 C 
HETATM    6  C11 UNL     1      -1.091   1.300   2.016  1.00  0.00     0.049 C 
HETATM    7  C12 UNL     1      -2.066   1.694   0.888  1.00  0.00     0.142 C 
HETATM    8  C15 UNL     1      -2.132   0.896  -0.356  1.00  0.00     0.003 C 
HETATM    9  C16 UNL     1      -2.222   2.017  -1.451  1.00  0.00     0.019 C 
HETATM   10  C17 UNL     1      -1.040   0.095  -0.839  1.00  0.00     0.007 C 
HETATM   11  C18 UNL     1      -0.972  -1.275  -0.355  1.00  0.00     0.021 C 
HETATM   12  C19 UNL     1      -0.729  -0.988   1.020  1.00  0.00     0.021 C 
HETATM   13  C20 UNL     1      -1.550  -2.079   1.410  1.00  0.00     0.124 C 
HETATM   14  C21 UNL     1      -1.393  -3.493   0.925  1.00  0.00     0.055 C 
HETATM   15  C22 UNL     1      -2.967  -1.632   1.085  1.00  0.00     0.174 C 
HETATM   16  O7  UNL     1      -3.712  -1.904   2.005  1.00  0.00    -0.293 OA
HETATM   17  C23 UNL     1      -3.870  -0.990   0.107  1.00  0.00     0.053 C 
HETATM   18  C24 UNL     1      -4.099  -2.179  -0.949  1.00  0.00     0.029 C 
HETATM   19  C25 UNL     1      -5.311  -1.027   0.473  1.00  0.00    -0.004 C 
HETATM   20  C26 UNL     1      -6.135  -0.521  -0.445  1.00  0.00     0.056 C 
HETATM   21  C27 UNL     1      -5.642   0.080  -1.701  1.00  0.00     0.218 C 
HETATM   22  O8  UNL     1      -6.392   0.516  -2.619  1.00  0.00    -0.284 OA
HETATM   23  C28 UNL     1      -4.132   0.138  -1.847  1.00  0.00     0.209 C 
HETATM   24  O9  UNL     1      -3.582   0.068  -2.908  1.00  0.00    -0.288 OA
HETATM   25  C29 UNL     1      -3.555   0.298  -0.446  1.00  0.00     0.053 C 
HETATM   26  C30 UNL     1      -4.401   1.478   0.062  1.00  0.00     0.026 C 
HETATM   27  C31 UNL     1       0.665  -0.531   0.750  1.00  0.00     0.011 C 
HETATM   28  C32 UNL     1       1.587   0.390   1.301  1.00  0.00     0.020 C 
HETATM   29  C33 UNL     1       0.427   0.164  -0.564  1.00  0.00    -0.032 C 
HETATM   30  C34 UNL     1       0.908   1.519  -0.824  1.00  0.00     0.016 C 
HETATM   31  C35 UNL     1       1.110  -0.560  -1.754  1.00  0.00     0.016 C 
ENDROOT
BRANCH   1  32
HETATM   32  C7  UNL     1       2.786  -1.927   1.359  1.00  0.00     0.251 C 
HETATM   33  N1  UNL     1       3.657  -2.486   0.350  1.00  0.00    -0.339 N 
ATOM     34  H1  UNL     1       3.224  -2.731  -0.540  1.00  0.00     0.167 HD
HETATM   35  O1  UNL     1       3.483  -1.664   2.393  1.00  0.00    -0.270 OA
BRANCH  33  36
HETATM   36  C6  UNL     1       5.033  -2.728   0.463  1.00  0.00     0.064 C 
BRANCH  36  37
HETATM   37  C5  UNL     1       6.015  -1.651   0.640  1.00  0.00     0.044 C 
BRANCH  37  38
HETATM   38  C4  UNL     1       6.237  -0.688  -0.460  1.00  0.00     0.005 C 
BRANCH  38  39
HETATM   39  C3  UNL     1       5.062   0.113  -0.910  1.00  0.00     0.000 C 
BRANCH  39  40
HETATM   40  C2  UNL     1       5.417   1.063  -2.040  1.00  0.00    -0.005 C 
HETATM   41  C1  UNL     1       6.502   2.037  -1.580  1.00  0.00     0.005 C 
ENDBRANCH  39  40
ENDBRANCH  38  39
ENDBRANCH  37  38
ENDBRANCH  36  37
ENDBRANCH  33  36
ENDBRANCH   1  32
BRANCH  13  42
HETATM   42  O6  UNL     1      -1.723  -2.381   2.799  1.00  0.00    -0.382 OA
ATOM     43  H6  UNL     1      -2.272  -3.111   3.060  1.00  0.00     0.211 HD
ENDBRANCH  13  42
BRANCH   7  44
HETATM   44  O4  UNL     1      -1.702   3.062   0.793  1.00  0.00    -0.315 OA
BRANCH  44  45
HETATM   45  C13 UNL     1      -2.191   4.079   1.538  1.00  0.00     0.255 C 
HETATM   46  C14 UNL     1      -1.732   5.460   1.337  1.00  0.00     0.126 C 
HETATM   47  O5  UNL     1      -3.043   3.844   2.408  1.00  0.00    -0.266 OA
ENDBRANCH  44  45
ENDBRANCH   7  44
TORSDOF 9
