REMARK  11 active torsions:
REMARK  status: ('A' for Active; 'I' for Inactive)
REMARK    1  A    between atoms: C2_2  and  C3_3 
REMARK    2  A    between atoms: C3_3  and  C4_4 
REMARK    3  A    between atoms: C4_4  and  C5_5 
REMARK       I    between atoms: C5_5  and  N1_7 
REMARK    4  A    between atoms: N2_10  and  C8_11 
REMARK    5  A    between atoms: C8_11  and  C9_12 
REMARK    6  A    between atoms: C9_12  and  C10_13 
REMARK    7  A    between atoms: C10_13  and  N3_14 
REMARK       I    between atoms: N3_14  and  C11_15 
REMARK    8  A    between atoms: N3_14  and  C21_27 
REMARK    9  A    between atoms: C11_15  and  C12_17 
REMARK   10  A    between atoms: C12_17  and  S1_18 
REMARK   11  A    between atoms: S1_18  and  C13_19 
REMARK       I    between atoms: N5_30  and  C23_31 
ROOT
HETATM    1  N3  UNL     1      -2.079  -0.727  -0.107  1.00  0.00    -0.310 N 
HETATM    2  C11 UNL     1      -2.925   0.339  -0.504  1.00  0.00     0.234 C 
HETATM    3  O2  UNL     1      -3.951   0.005  -1.142  1.00  0.00    -0.272 OA
ENDROOT
BRANCH   1   4
HETATM    4  C10 UNL     1      -0.844  -0.420   0.573  1.00  0.00     0.134 C 
BRANCH   4   5
HETATM    5  C9  UNL     1       0.340  -0.260  -0.340  1.00  0.00     0.040 C 
BRANCH   5   6
HETATM    6  C8  UNL     1       1.533   0.047   0.571  1.00  0.00     0.128 C 
BRANCH   6   7
HETATM    7  N2  UNL     1       2.699   0.153  -0.190  1.00  0.00    -0.371 N 
HETATM    8  C7  UNL     1       2.776   1.245  -1.049  1.00  0.00     0.083 C 
HETATM    9  C6  UNL     1       4.044   2.033  -1.075  1.00  0.00     0.170 C 
HETATM   10  N1  UNL     1       5.175   1.202  -0.783  1.00  0.00    -0.343 N 
HETATM   11  C5  UNL     1       6.445   1.808  -0.563  1.00  0.00     0.220 C 
HETATM   12  C28 UNL     1       5.005  -0.235  -0.725  1.00  0.00     0.170 C 
HETATM   13  O1  UNL     1       6.559   3.041  -0.663  1.00  0.00    -0.273 OA
HETATM   14  C27 UNL     1       3.846  -0.557   0.196  1.00  0.00     0.083 C 
BRANCH  11  15
HETATM   15  C4  UNL     1       7.588   0.927  -0.219  1.00  0.00     0.103 C 
BRANCH  15  16
HETATM   16  C3  UNL     1       8.889   1.692  -0.135  1.00  0.00     0.009 C 
BRANCH  16  17
HETATM   17  C2  UNL     1       9.971   0.692   0.250  1.00  0.00    -0.004 C 
HETATM   18  C1  UNL     1      10.095  -0.429  -0.759  1.00  0.00     0.005 C 
ENDBRANCH  16  17
ENDBRANCH  15  16
ENDBRANCH  11  15
ENDBRANCH   6   7
ENDBRANCH   5   6
ENDBRANCH   4   5
ENDBRANCH   1   4
BRANCH   1  19
HETATM   19  C21 UNL     1      -2.407  -2.092  -0.384  1.00  0.00     0.148 A 
HETATM   20  C22 UNL     1      -2.704  -3.026   0.578  1.00  0.00     0.162 A 
HETATM   21  N4  UNL     1      -2.686  -2.598   1.941  1.00  0.00    -0.079 NA
HETATM   22  N5  UNL     1      -3.012  -4.316   0.264  1.00  0.00    -0.218 N 
HETATM   23  C23 UNL     1      -3.305  -5.234   1.297  1.00  0.00     0.229 C 
HETATM   24  C25 UNL     1      -3.038  -4.726  -1.007  1.00  0.00     0.337 A 
HETATM   25  C24 UNL     1      -3.637  -6.640   1.072  1.00  0.00     0.118 C 
HETATM   26  O3  UNL     1      -3.275  -4.804   2.485  1.00  0.00    -0.273 OA
HETATM   27  O4  UNL     1      -3.310  -5.891  -1.397  1.00  0.00    -0.246 OA
HETATM   28  N6  UNL     1      -2.744  -3.812  -1.982  1.00  0.00    -0.273 N 
HETATM   29  C26 UNL     1      -2.438  -2.538  -1.697  1.00  0.00     0.279 A 
ATOM     30  H6  UNL     1      -2.758  -4.110  -2.958  1.00  0.00     0.173 HD
HETATM   31  O5  UNL     1      -2.169  -1.704  -2.621  1.00  0.00    -0.265 OA
ENDBRANCH   1  19
BRANCH   2  32
HETATM   32  C12 UNL     1      -2.676   1.751  -0.219  1.00  0.00     0.182 C 
BRANCH  32  33
HETATM   33  S1  UNL     1      -3.871   2.940  -0.765  1.00  0.00    -0.120 SA
BRANCH  33  34
HETATM   34  C13 UNL     1      -5.449   2.904  -0.036  1.00  0.00     0.007 A 
HETATM   35  C14 UNL     1      -5.624   3.347   1.280  1.00  0.00     0.025 A 
HETATM   36  C15 UNL     1      -6.858   3.383   1.894  1.00  0.00    -0.061 A 
HETATM   37  C16 UNL     1      -7.015   3.858   3.292  1.00  0.00     0.048 C 
HETATM   38  C17 UNL     1      -7.969   2.966   1.182  1.00  0.00     0.007 A 
HETATM   39  C18 UNL     1      -7.825   2.531  -0.103  1.00  0.00     0.009 A 
HETATM   40  C19 UNL     1      -6.569   2.500  -0.711  1.00  0.00    -0.045 A 
HETATM   41  C20 UNL     1      -6.582   2.044  -2.129  1.00  0.00     0.049 C 
ENDBRANCH  33  34
ENDBRANCH  32  33
ENDBRANCH   2  32
TORSDOF 11
