REMARK  15 active torsions:
REMARK  status: ('A' for Active; 'I' for Inactive)
REMARK    1  A    between atoms: C2_2  and  C3_3 
REMARK    2  A    between atoms: C3_3  and  N1_5 
REMARK    3  A    between atoms: N1_5  and  C5_6 
REMARK    4  A    between atoms: N1_5  and  C7_10 
REMARK    5  A    between atoms: C5_6  and  C6_7 
REMARK    6  A    between atoms: C6_7  and  O1_8 
REMARK    7  A    between atoms: C7_10  and  C8_11 
REMARK    8  A    between atoms: C8_11  and  N2_12 
REMARK    9  A    between atoms: N2_12  and  C9_13 
REMARK   10  A    between atoms: N2_12  and  O4_25 
REMARK   11  A    between atoms: C9_13  and  C10_14 
REMARK   12  A    between atoms: C10_14  and  O2_15 
REMARK   13  A    between atoms: C10_14  and  C11_17 
REMARK   14  A    between atoms: C11_17  and  O3_18 
REMARK   15  A    between atoms: O3_18  and  C12_19 
ROOT
HETATM    1  N2  UNL     1      -0.132   0.314  -0.503  1.00  0.00    -0.194 NA
ENDROOT
BRANCH   1   2
HETATM    2  C8  UNL     1      -1.324   0.177   0.386  1.00  0.00     0.140 C 
BRANCH   2   3
HETATM    3  C7  UNL     1      -2.568   0.114  -0.410  1.00  0.00     0.139 C 
BRANCH   3   4
HETATM    4  N1  UNL     1      -3.790  -0.079   0.309  1.00  0.00    -0.383 N 
BRANCH   4   5
HETATM    5  C3  UNL     1      -4.004  -1.337   0.896  1.00  0.00     0.101 C 
HETATM    6  C4  UNL     1      -3.333  -2.499   0.183  1.00  0.00     0.036 C 
BRANCH   5   7
HETATM    7  C2  UNL     1      -5.466  -1.673   0.868  1.00  0.00    -0.012 C 
HETATM    8  C1  UNL     1      -6.055  -2.120  -0.234  1.00  0.00     0.009 C 
ENDBRANCH   5   7
ENDBRANCH   4   5
BRANCH   4   9
HETATM    9  C5  UNL     1      -4.339   1.082   0.853  1.00  0.00     0.084 C 
BRANCH   9  10
HETATM   10  C6  UNL     1      -5.781   1.346   0.768  1.00  0.00     0.208 C 
BRANCH  10  11
HETATM   11  O1  UNL     1      -6.245   1.439  -0.559  1.00  0.00    -0.396 OA
ATOM     12  H1  UNL     1      -7.178   1.610  -0.614  1.00  0.00     0.209 HD
ENDBRANCH  10  11
ENDBRANCH   9  10
ENDBRANCH   4   9
ENDBRANCH   3   4
ENDBRANCH   2   3
ENDBRANCH   1   2
BRANCH   1  13
HETATM   13  C9  UNL     1       1.046   0.414   0.344  1.00  0.00     0.154 C 
BRANCH  13  14
HETATM   14  C10 UNL     1       2.287   0.214  -0.444  1.00  0.00     0.157 C 
BRANCH  14  15
HETATM   15  O2  UNL     1       2.510   1.050  -1.497  1.00  0.00    -0.392 OA
ATOM     16  H2  UNL     1       3.305   0.922  -2.002  1.00  0.00     0.210 HD
ENDBRANCH  14  15
BRANCH  14  17
HETATM   17  C11 UNL     1       3.538   0.328   0.453  1.00  0.00     0.208 C 
BRANCH  17  18
HETATM   18  O3  UNL     1       4.626  -0.149  -0.321  1.00  0.00    -0.349 OA
BRANCH  18  19
HETATM   19  C12 UNL     1       5.914  -0.132   0.192  1.00  0.00     0.068 A 
HETATM   20  C13 UNL     1       6.160   0.373   1.461  1.00  0.00     0.037 A 
HETATM   21  C14 UNL     1       7.463   0.385   1.964  1.00  0.00     0.003 A 
HETATM   22  C15 UNL     1       8.540  -0.091   1.246  1.00  0.00     0.000 A 
HETATM   23  C16 UNL     1       8.289  -0.595  -0.021  1.00  0.00     0.003 A 
HETATM   24  C17 UNL     1       6.999  -0.608  -0.521  1.00  0.00     0.037 A 
ENDBRANCH  18  19
ENDBRANCH  17  18
ENDBRANCH  14  17
ENDBRANCH  13  14
ENDBRANCH   1  13
BRANCH   1  25
HETATM   25  O4  UNL     1      -0.203   1.497  -1.158  1.00  0.00    -0.308 OA
HETATM   26  C18 UNL     1      -0.356   1.408  -2.515  1.00  0.00     0.229 C 
ENDBRANCH   1  25
TORSDOF 15
