REMARK  2 active torsions:
REMARK  status: ('A' for Active; 'I' for Inactive)
REMARK    1  A    between atoms: N1_1  and  C1_5 
REMARK    2  A    between atoms: C1_5  and  C2_6 
ROOT
HETATM    1  C2  UNL     1      -1.089  -0.382   0.010  1.00  0.00     0.011 C 
HETATM    2  C3  UNL     1      -0.459  -1.686  -0.368  1.00  0.00     0.006 C 
HETATM    3  C4  UNL     1       1.052  -1.630  -0.393  1.00  0.00     0.000 C 
HETATM    4  C5  UNL     1       1.629  -0.849   0.745  1.00  0.00     0.000 C 
HETATM    5  C6  UNL     1       2.458   0.277   0.250  1.00  0.00     0.000 C 
HETATM    6  C7  UNL     1       1.812   1.598   0.205  1.00  0.00     0.000 C 
HETATM    7  C8  UNL     1       0.322   1.610   0.346  1.00  0.00     0.000 C 
HETATM    8  C9  UNL     1      -0.402   0.787  -0.663  1.00  0.00     0.006 C 
ENDROOT
BRANCH   1   9
HETATM    9  C1  UNL     1      -2.564  -0.464  -0.388  1.00  0.00     0.234 C 
BRANCH   9  10
HETATM   10  N1  UNL     1      -3.154   0.805  -0.015  1.00  0.00    -0.079 N 
ATOM     11  H13 UNL     1      -3.011   1.046   0.966  1.00  0.00     0.274 HD
ATOM     12  H12 UNL     1      -2.670   1.610  -0.413  1.00  0.00     0.274 HD
ATOM     13  H11 UNL     1      -4.137   0.750  -0.280  1.00  0.00     0.274 HD
ENDBRANCH   9  10
ENDBRANCH   1   9
TORSDOF 2
