REMARK  10 active torsions:
REMARK  status: ('A' for Active; 'I' for Inactive)
REMARK    1  A    between atoms: O1_2  and  C2_3 
REMARK    2  A    between atoms: C5_7  and  O3_8 
REMARK    3  A    between atoms: C6_10  and  C7_11 
REMARK    4  A    between atoms: C8_12  and  C9_13 
REMARK    5  A    between atoms: C10_15  and  O5_16 
REMARK    6  A    between atoms: C12_19  and  O6_20 
REMARK    7  A    between atoms: O6_20  and  C13_21 
REMARK    8  A    between atoms: C15_24  and  O8_25 
REMARK    9  A    between atoms: C19_30  and  O10_31 
REMARK   10  A    between atoms: C20_33  and  O11_34 
ROOT
HETATM    1  C2  UNL     1       4.324   1.465   0.239  1.00  0.00     0.107 A 
HETATM    2  C3  UNL     1       3.716   0.954  -0.901  1.00  0.00     0.078 A 
HETATM    3  C4  UNL     1       2.457   0.391  -0.850  1.00  0.00     0.098 A 
HETATM    4  O2  UNL     1       1.860  -0.099  -1.910  1.00  0.00    -0.286 OA
HETATM    5  C5  UNL     1       0.671  -0.640  -1.909  1.00  0.00     0.199 A 
HETATM    6  C6  UNL     1      -0.067  -0.733  -0.722  1.00  0.00     0.087 A 
HETATM    7  C17 UNL     1       0.525  -0.230   0.415  1.00  0.00     0.203 A 
HETATM    8  O9  UNL     1      -0.076  -0.282   1.508  1.00  0.00    -0.286 OA
HETATM    9  C18 UNL     1       1.783   0.326   0.334  1.00  0.00     0.085 A 
HETATM   10  C19 UNL     1       2.406   0.845   1.478  1.00  0.00     0.119 A 
HETATM   11  C20 UNL     1       3.662   1.411   1.449  1.00  0.00     0.136 A 
ENDROOT
BRANCH   6  12
HETATM   12  C7  UNL     1      -1.388  -1.328  -0.760  1.00  0.00     0.035 A 
HETATM   13  C8  UNL     1      -1.582  -2.659  -0.533  1.00  0.00     0.049 A 
HETATM   14  C10 UNL     1      -2.872  -3.216  -0.578  1.00  0.00     0.082 A 
HETATM   15  C11 UNL     1      -3.960  -2.448  -0.850  1.00  0.00     0.077 A 
HETATM   16  C12 UNL     1      -3.779  -1.107  -1.082  1.00  0.00     0.116 A 
HETATM   17  C15 UNL     1      -2.507  -0.529  -1.042  1.00  0.00     0.114 A 
BRANCH  13  18
HETATM   18  C9  UNL     1      -0.485  -3.547  -0.246  1.00  0.00     0.273 C 
HETATM   19  O4  UNL     1       0.690  -3.164  -0.185  1.00  0.00    -0.301 OA
ENDBRANCH  13  18
BRANCH  14  20
HETATM   20  O5  UNL     1      -3.036  -4.568  -0.343  1.00  0.00    -0.360 OA
ATOM     21  H5  UNL     1      -3.908  -4.944  -0.373  1.00  0.00     0.217 HD
ENDBRANCH  14  20
BRANCH  16  22
HETATM   22  O6  UNL     1      -4.884  -0.312  -1.361  1.00  0.00    -0.276 OA
BRANCH  22  23
HETATM   23  C13 UNL     1      -5.685   0.288  -0.424  1.00  0.00     0.260 C 
HETATM   24  C14 UNL     1      -6.860   1.134  -0.755  1.00  0.00     0.126 C 
HETATM   25  O7  UNL     1      -5.412   0.113   0.787  1.00  0.00    -0.265 OA
ENDBRANCH  22  23
ENDBRANCH  16  22
BRANCH  17  26
HETATM   26  O8  UNL     1      -2.333   0.823  -1.279  1.00  0.00    -0.352 OA
HETATM   27  C16 UNL     1      -2.379   1.809  -0.295  1.00  0.00     0.210 C 
ENDBRANCH  17  26
ENDBRANCH   6  12
BRANCH   5  28
HETATM   28  O3  UNL     1       0.076  -1.150  -3.073  1.00  0.00    -0.340 OA
ATOM     29  H3  UNL     1      -0.789  -1.543  -3.072  1.00  0.00     0.220 HD
ENDBRANCH   5  28
BRANCH  10  30
HETATM   30  O10 UNL     1       1.698   0.765   2.665  1.00  0.00    -0.357 OA
ATOM     31  H10 UNL     1       2.120   1.117   3.440  1.00  0.00     0.218 HD
ENDBRANCH  10  30
BRANCH  11  32
HETATM   32  O11 UNL     1       4.240   1.908   2.588  1.00  0.00    -0.351 OA
HETATM   33  C21 UNL     1       5.051   1.152   3.464  1.00  0.00     0.210 C 
ENDBRANCH  11  32
BRANCH   1  34
HETATM   34  O1  UNL     1       5.584   2.014   0.112  1.00  0.00    -0.353 OA
HETATM   35  C1  UNL     1       6.249   2.061  -1.135  1.00  0.00     0.210 C 
ENDBRANCH   1  34
TORSDOF 10
