REMARK  11 active torsions:
REMARK  status: ('A' for Active; 'I' for Inactive)
REMARK    1  A    between atoms: O1_2  and  C2_3 
REMARK    2  A    between atoms: C2_3  and  C3_5 
REMARK    3  A    between atoms: C4_6  and  C5_7 
REMARK    4  A    between atoms: C5_7  and  O3_9 
REMARK    5  A    between atoms: C7_11  and  N1_12 
REMARK       I    between atoms: N1_12  and  C8_14 
REMARK    6  A    between atoms: C8_14  and  C9_16 
REMARK    7  A    between atoms: C9_16  and  N2_17 
REMARK    8  A    between atoms: C9_16  and  C10_23 
REMARK    9  A    between atoms: N2_17  and  N3_19 
REMARK   10  A    between atoms: N3_19  and  O5_21 
REMARK   11  A    between atoms: C11_26  and  O8_27 
ROOT
HETATM    1  C3  UNL     1       2.203  -0.313   0.248  1.00  0.00     0.122 A 
HETATM    2  C4  UNL     1       0.912   0.119  -0.022  1.00  0.00     0.045 A 
HETATM    3  C7  UNL     1      -0.086  -0.821  -0.077  1.00  0.00     0.100 A 
HETATM    4  C11 UNL     1       0.195  -2.174   0.143  1.00  0.00     0.173 A 
HETATM    5  N4  UNL     1       1.427  -2.566   0.403  1.00  0.00    -0.297 N 
HETATM    6  C12 UNL     1       1.711  -3.981   0.634  1.00  0.00     0.161 C 
HETATM    7  C13 UNL     1       2.412  -1.674   0.458  1.00  0.00     0.266 A 
HETATM    8  O9  UNL     1       3.591  -2.108   0.717  1.00  0.00    -0.267 OA
ENDROOT
BRANCH   3   9
HETATM    9  N1  UNL     1      -1.355  -0.385  -0.504  1.00  0.00    -0.320 N 
HETATM   10  C8  UNL     1      -2.475   0.009   0.250  1.00  0.00     0.257 C 
HETATM   11  O4  UNL     1      -2.436  -0.013   1.492  1.00  0.00    -0.270 OA
ATOM     12  H1  UNL     1      -1.481  -0.349  -1.516  1.00  0.00     0.169 HD
BRANCH  10  13
HETATM   13  C9  UNL     1      -3.705   0.458  -0.446  1.00  0.00     0.293 C 
BRANCH  13  14
HETATM   14  N2  UNL     1      -4.253   1.681   0.044  1.00  0.00    -0.293 N 
ATOM     15  H2  UNL     1      -4.382   2.434  -0.632  1.00  0.00     0.183 HD
BRANCH  14  16
HETATM   16  N3  UNL     1      -4.630   1.942   1.367  1.00  0.00    -0.213 N 
ATOM     17  H3  UNL     1      -4.692   1.174   2.036  1.00  0.00     0.215 HD
BRANCH  16  18
HETATM   18  O5  UNL     1      -4.895   3.124   1.741  1.00  0.00    -0.275 OA
ATOM     19  H5  UNL     1      -5.151   3.301   2.639  1.00  0.00     0.246 HD
ENDBRANCH  16  18
ENDBRANCH  14  16
ENDBRANCH  13  14
BRANCH  13  20
HETATM   20  C10 UNL     1      -4.759  -0.619  -0.319  1.00  0.00     0.207 C 
HETATM   21  O6  UNL     1      -5.902  -0.313   0.094  1.00  0.00    -0.646 OA
HETATM   22  O7  UNL     1      -4.473  -1.924  -0.648  1.00  0.00    -0.646 OA
ENDBRANCH  13  20
ENDBRANCH  10  13
ENDBRANCH   3   9
BRANCH   2  23
HETATM   23  C5  UNL     1       0.741   1.549  -0.347  1.00  0.00     0.053 C 
HETATM   24  C6  UNL     1      -0.045   2.382   0.634  1.00  0.00     0.077 C 
BRANCH  23  25
HETATM   25  O3  UNL     1       1.775   2.189  -0.970  1.00  0.00    -0.364 OA
ATOM     26  H3  UNL     1       1.665   3.109  -1.179  1.00  0.00     0.217 HD
ENDBRANCH  23  25
ENDBRANCH   2  23
BRANCH   4  27
HETATM   27  O8  UNL     1      -0.891  -3.068   0.062  1.00  0.00    -0.344 OA
ATOM     28  H8  UNL     1      -0.700  -3.987   0.211  1.00  0.00     0.219 HD
ENDBRANCH   4  27
BRANCH   1  29
HETATM   29  C2  UNL     1       3.339   0.603   0.320  1.00  0.00     0.299 C 
HETATM   30  O2  UNL     1       3.472   1.127   1.498  1.00  0.00    -0.259 OA
BRANCH  29  31
HETATM   31  O1  UNL     1       4.210   0.962  -0.627  1.00  0.00    -0.322 OA
HETATM   32  C1  UNL     1       5.245   1.878  -0.349  1.00  0.00     0.213 C 
ENDBRANCH  29  31
ENDBRANCH   1  29
TORSDOF 11
