REMARK  3 active torsions:
REMARK  status: ('A' for Active; 'I' for Inactive)
REMARK    1  A    between atoms: C2_2  and  N2_6 
REMARK    2  A    between atoms: N2_6  and  N3_8 
REMARK    3  A    between atoms: C3_10  and  C4_11 
ROOT
HETATM    1  N3  UNL     1      -1.276   0.792   1.034  1.00  0.00    -0.309 N 
ATOM      2  H3  UNL     1      -0.716   1.235   1.762  1.00  0.00     0.186 HD
HETATM    3  C3  UNL     1      -0.698   0.077   0.154  1.00  0.00     0.131 C 
ENDROOT
BRANCH   1   4
HETATM    4  N2  UNL     1      -2.671   0.985   1.025  1.00  0.00    -0.290 N 
ATOM      5  H2  UNL     1      -3.127   1.527   1.759  1.00  0.00     0.188 HD
BRANCH   4   6
HETATM    6  C2  UNL     1      -3.429   0.409  -0.028  1.00  0.00     0.085 C 
HETATM    7  C1  UNL     1      -3.946  -0.971   0.144  1.00  0.00     0.090 C 
HETATM    8  N1  UNL     1      -3.649   1.092  -1.099  1.00  0.00    -0.388 N 
ATOM      9  H12 UNL     1      -4.194   0.678  -1.856  1.00  0.00     0.157 HD
ATOM     10  H11 UNL     1      -3.294   2.041  -1.217  1.00  0.00     0.157 HD
ENDBRANCH   4   6
ENDBRANCH   1   4
BRANCH   3  11
HETATM   11  C4  UNL     1       0.744  -0.085   0.216  1.00  0.00     0.022 C 
HETATM   12  N4  UNL     1       1.404   0.480   1.134  1.00  0.00    -0.392 N 
HETATM   13  C5  UNL     1       2.828   0.374   1.269  1.00  0.00     0.119 C 
ATOM     14  H4  UNL     1       0.896   1.042   1.817  1.00  0.00     0.159 HD
HETATM   15  C6  UNL     1       3.564   0.211  -0.014  1.00  0.00     0.020 C 
HETATM   16  C7  UNL     1       2.703  -0.128  -1.188  1.00  0.00     0.008 C 
HETATM   17  C8  UNL     1       1.469  -0.915  -0.796  1.00  0.00     0.058 C 
ENDBRANCH   3  11
TORSDOF 3
