REMARK  3 active torsions:
REMARK  status: ('A' for Active; 'I' for Inactive)
REMARK    1  A    between atoms: N2_4  and  C1_6 
REMARK    2  A    between atoms: C1_6  and  N3_7 
REMARK    3  A    between atoms: N3_7  and  C2_10 
ROOT
HETATM    1  C1  UNL     1       1.481  -0.252   0.370  1.00  0.00     0.371 C 
ENDROOT
BRANCH   1   2
HETATM    2  N2  UNL     1       2.670   0.523   0.515  1.00  0.00    -0.318 N 
HETATM    3  N1  UNL     1       3.753  -0.093   0.393  1.00  0.00    -0.348 N 
ATOM      4  H12 UNL     1       3.767  -1.095   0.200  1.00  0.00     0.176 HD
ATOM      5  H11 UNL     1       4.603   0.461   0.497  1.00  0.00     0.176 HD
ATOM      6  H2  UNL     1       2.639   1.524   0.708  1.00  0.00     0.181 HD
ENDBRANCH   1   2
BRANCH   1   7
HETATM    7  N3  UNL     1       0.278   0.471   0.678  1.00  0.00    -0.054 N 
ATOM      8  H32 UNL     1      -0.060   0.302   1.625  1.00  0.00     0.279 HD
ATOM      9  H31 UNL     1       0.426   1.476   0.771  1.00  0.00     0.279 HD
BRANCH   7  10
HETATM   10  C2  UNL     1      -0.697   0.127  -0.349  1.00  0.00     0.188 A 
HETATM   11  C3  UNL     1      -2.078   0.631  -0.288  1.00  0.00     0.035 A 
HETATM   12  C4  UNL     1      -1.785  -0.842  -0.072  1.00  0.00     0.035 A 
ENDBRANCH   7  10
ENDBRANCH   1   7
TORSDOF 3
