REMARK  8 active torsions:
REMARK  status: ('A' for Active; 'I' for Inactive)
REMARK    1  A    between atoms: C2_2  and  C3_3 
REMARK    2  A    between atoms: C3_3  and  C4_4 
REMARK    3  A    between atoms: C4_4  and  N1_5 
REMARK    4  A    between atoms: N1_5  and  C5_6 
REMARK    5  A    between atoms: C6_9  and  C7_10 
REMARK    6  A    between atoms: C17_21  and  N4_22 
REMARK    7  A    between atoms: N4_22  and  C18_24 
REMARK    8  A    between atoms: C18_24  and  C19_25 
ROOT
HETATM    1  C5  UNL     1       1.379  -0.006  -0.461  1.00  0.00     0.255 A 
HETATM    2  N2  UNL     1       0.094  -0.489  -0.343  1.00  0.00    -0.318 N 
ATOM      3  H2  UNL     1      -0.107  -1.396  -0.764  1.00  0.00     0.170 HD
HETATM    4  C6  UNL     1      -0.904   0.133   0.275  1.00  0.00     0.055 A 
HETATM    5  C16 UNL     1      -0.612   1.363   0.831  1.00  0.00     0.076 A 
HETATM    6  C17 UNL     1       0.685   1.886   0.728  1.00  0.00     0.106 A 
HETATM    7  N5  UNL     1       1.616   1.184   0.092  1.00  0.00    -0.303 N 
ATOM      8  H5  UNL     1       2.556   1.573   0.023  1.00  0.00     0.171 HD
ENDROOT
BRANCH   4   9
HETATM    9  C7  UNL     1      -2.253  -0.473   0.462  1.00  0.00     0.201 C 
HETATM   10  C8  UNL     1      -3.368   0.489   0.682  1.00  0.00     0.048 C 
HETATM   11  C9  UNL     1      -3.995   1.088  -0.528  1.00  0.00     0.003 C 
HETATM   12  C10 UNL     1      -5.219   0.252  -0.942  1.00  0.00     0.002 C 
HETATM   13  C11 UNL     1      -4.588  -0.928  -1.698  1.00  0.00     0.030 C 
HETATM   14  C12 UNL     1      -3.944  -1.782  -0.676  1.00  0.00     0.274 C 
HETATM   15  N3  UNL     1      -2.535  -1.535  -0.434  1.00  0.00     0.104 N 
HETATM   16  C13 UNL     1      -2.016  -2.790   0.119  1.00  0.00     0.274 C 
HETATM   17  C14 UNL     1      -1.369  -2.438   1.416  1.00  0.00     0.033 C 
HETATM   18  C15 UNL     1      -2.113  -1.197   1.842  1.00  0.00     0.050 C 
ENDBRANCH   4   9
BRANCH   1  19
HETATM   19  N1  UNL     1       2.199  -0.710  -0.999  1.00  0.00    -0.416 NA
BRANCH  19  20
HETATM   20  C4  UNL     1       3.366  -1.136  -1.499  1.00  0.00     0.222 C 
BRANCH  20  21
HETATM   21  C3  UNL     1       4.061  -2.203  -0.606  1.00  0.00     0.033 C 
BRANCH  21  22
HETATM   22  C2  UNL     1       5.347  -2.666  -1.218  1.00  0.00    -0.002 C 
HETATM   23  C1  UNL     1       6.022  -3.708  -0.328  1.00  0.00     0.005 C 
ENDBRANCH  21  22
ENDBRANCH  20  21
ENDBRANCH  19  20
ENDBRANCH   1  19
BRANCH   6  24
HETATM   24  N4  UNL     1       0.907   3.026   1.269  1.00  0.00    -0.376 N 
ATOM     25  H4  UNL     1       0.105   3.456   1.730  1.00  0.00     0.161 HD
BRANCH  24  26
HETATM   26  C18 UNL     1       2.108   3.772   1.316  1.00  0.00     0.121 C 
BRANCH  26  27
HETATM   27  C19 UNL     1       1.774   5.273   1.260  1.00  0.00     0.015 C 
HETATM   28  C20 UNL     1       1.049   5.570  -0.043  1.00  0.00     0.006 C 
ENDBRANCH  26  27
ENDBRANCH  24  26
ENDBRANCH   6  24
TORSDOF 8
