REMARK  5 active torsions:
REMARK  status: ('A' for Active; 'I' for Inactive)
REMARK    1  A    between atoms: N1_2  and  C3_4 
REMARK    2  A    between atoms: C3_4  and  N2_5 
REMARK    3  A    between atoms: C3_4  and  C4_9 
REMARK    4  A    between atoms: C3_4  and  C5_14 
REMARK    5  A    between atoms: C4_9  and  N3_10 
ROOT
HETATM    1  C3  UNL     1      -0.378   0.170  -0.487  1.00  0.00     0.393 C 
ENDROOT
BRANCH   1   2
HETATM    2  N1  UNL     1      -0.843  -0.817   0.444  1.00  0.00     0.122 N 
HETATM    3  C1  UNL     1      -2.249  -1.102   0.309  1.00  0.00     0.312 C 
HETATM    4  C2  UNL     1      -0.101  -2.030   0.489  1.00  0.00     0.312 C 
ENDBRANCH   1   2
BRANCH   1   5
HETATM    5  N2  UNL     1      -0.659  -0.176  -1.866  1.00  0.00    -0.036 N 
ATOM      6  H23 UNL     1      -0.284  -1.097  -2.094  1.00  0.00     0.277 HD
ATOM      7  H22 UNL     1      -1.653  -0.363  -1.999  1.00  0.00     0.277 HD
ATOM      8  H21 UNL     1      -0.328   0.526  -2.528  1.00  0.00     0.277 HD
ENDBRANCH   1   5
BRANCH   1   9
HETATM    9  C4  UNL     1      -1.120   1.484  -0.219  1.00  0.00     0.306 C 
BRANCH   9  10
HETATM   10  N3  UNL     1      -0.885   1.955   1.118  1.00  0.00    -0.075 N 
ATOM     11  H33 UNL     1      -1.120   1.245   1.811  1.00  0.00     0.274 HD
ATOM     12  H32 UNL     1       0.112   2.042   1.314  1.00  0.00     0.274 HD
ATOM     13  H31 UNL     1      -1.379   2.829   1.296  1.00  0.00     0.274 HD
ENDBRANCH   9  10
ENDBRANCH   1   9
BRANCH   1  14
HETATM   14  C5  UNL     1       1.062   0.502  -0.376  1.00  0.00     0.455 C 
HETATM   15  N4  UNL     1       2.050  -0.508  -0.561  1.00  0.00    -0.018 N 
HETATM   16  C6  UNL     1       2.857   0.030   0.543  1.00  0.00     0.468 C 
ATOM     17  H42 UNL     1       1.772  -1.489  -0.546  1.00  0.00     0.281 HD
ATOM     18  H41 UNL     1       2.476  -0.630  -1.480  1.00  0.00     0.281 HD
HETATM   19  N5  UNL     1       1.611   0.693   0.957  1.00  0.00    -0.018 N 
ATOM     20  H52 UNL     1       1.643   1.627   1.365  1.00  0.00     0.281 HD
ATOM     21  H51 UNL     1       1.100   0.353   1.772  1.00  0.00     0.281 HD
ENDBRANCH   1  14
TORSDOF 5
