REMARK  9 active torsions:
REMARK  status: ('A' for Active; 'I' for Inactive)
REMARK    1  A    between atoms: C3_5  and  N2_6 
REMARK    2  A    between atoms: N2_6  and  C4_8 
REMARK    3  A    between atoms: C4_8  and  C5_9 
REMARK    4  A    between atoms: C5_9  and  C6_10 
REMARK    5  A    between atoms: C6_10  and  C7_11 
REMARK    6  A    between atoms: C7_11  and  O1_12 
REMARK    7  A    between atoms: O1_12  and  N3_13 
REMARK    8  A    between atoms: C8_18  and  N5_19 
REMARK    9  A    between atoms: N5_19  and  C9_21 
ROOT
HETATM    1  C1  UNL     1       2.318   2.252   2.332  1.00  0.00     0.070 C 
HETATM    2  C2  UNL     1       1.798   1.216   1.383  1.00  0.00     0.047 A 
HETATM    3  N1  UNL     1       2.639   0.391   0.739  1.00  0.00    -0.194 N 
ATOM      4  H1  UNL     1       3.642   0.476   0.902  1.00  0.00     0.184 HD
HETATM    5  C3  UNL     1       2.190  -0.545  -0.116  1.00  0.00     0.679 A 
HETATM    6  N4  UNL     1       0.883  -0.629  -0.304  1.00  0.00    -0.175 N 
ATOM      7  H4  UNL     1       0.542  -1.340  -0.951  1.00  0.00     0.186 HD
HETATM    8  C8  UNL     1      -0.051   0.177   0.314  1.00  0.00     0.144 A 
HETATM    9  C18 UNL     1       0.425   1.129   1.184  1.00  0.00     0.111 A 
HETATM   10  C19 UNL     1      -0.447   2.043   1.909  1.00  0.00     0.105 C 
HETATM   11  N7  UNL     1      -1.114   2.773   2.498  1.00  0.00    -0.191 NA
ENDROOT
BRANCH   8  12
HETATM   12  N5  UNL     1      -1.222   0.016   0.077  1.00  0.00    -0.343 N 
ATOM     13  H5  UNL     1      -1.211  -0.757  -0.588  1.00  0.00     0.167 HD
BRANCH  12  14
HETATM   14  C9  UNL     1      -2.524   0.281   0.196  1.00  0.00     0.032 C 
HETATM   15  C10 UNL     1      -3.208   1.405  -0.258  1.00  0.00     0.111 C 
HETATM   16  N6  UNL     1      -4.528   1.226   0.100  1.00  0.00    -0.387 N 
HETATM   17  C11 UNL     1      -4.376   0.680   1.483  1.00  0.00     0.133 C 
HETATM   18  C17 UNL     1      -5.847   1.189  -0.407  1.00  0.00     0.131 C 
HETATM   19  C12 UNL     1      -3.673  -0.546   0.801  1.00  0.00     0.056 C 
HETATM   20  C13 UNL     1      -4.533  -0.979  -0.326  1.00  0.00     0.022 C 
HETATM   21  C14 UNL     1      -5.912  -0.417  -0.519  1.00  0.00    -0.031 C 
HETATM   22  C15 UNL     1      -6.330  -0.652  -1.944  1.00  0.00     0.016 C 
HETATM   23  C16 UNL     1      -6.965  -0.939   0.392  1.00  0.00     0.016 C 
ENDBRANCH  12  14
ENDBRANCH   8  12
BRANCH   5  24
HETATM   24  N2  UNL     1       3.033  -1.331  -0.744  1.00  0.00    -0.226 N 
ATOM     25  H2  UNL     1       2.704  -2.045  -1.394  1.00  0.00     0.177 HD
BRANCH  24  26
HETATM   26  C4  UNL     1       4.483  -1.146  -0.476  1.00  0.00     0.138 C 
BRANCH  26  27
HETATM   27  C5  UNL     1       5.284  -2.115  -1.261  1.00  0.00     0.022 C 
BRANCH  27  28
HETATM   28  C6  UNL     1       6.742  -2.030  -1.019  1.00  0.00     0.030 C 
BRANCH  28  29
HETATM   29  C7  UNL     1       7.443  -0.761  -1.321  1.00  0.00     0.208 C 
BRANCH  29  30
HETATM   30  O1  UNL     1       6.980   0.307  -0.542  1.00  0.00    -0.221 OA
BRANCH  30  31
HETATM   31  N3  UNL     1       7.478   1.571  -0.645  1.00  0.00     0.004 N 
HETATM   32  O2  UNL     1       8.631   1.899  -0.230  1.00  0.00    -0.511 OA
HETATM   33  O3  UNL     1       6.724   2.586  -1.223  1.00  0.00    -0.511 OA
ENDBRANCH  30  31
ENDBRANCH  29  30
ENDBRANCH  28  29
ENDBRANCH  27  28
ENDBRANCH  26  27
ENDBRANCH  24  26
ENDBRANCH   5  24
TORSDOF 9
