REMARK  6 active torsions:
REMARK  status: ('A' for Active; 'I' for Inactive)
REMARK    1  A    between atoms: C1_2  and  C2_3 
REMARK       I    between atoms: C1_2  and  N3_21 
REMARK    2  A    between atoms: C2_3  and  C3_4 
REMARK    3  A    between atoms: C3_4  and  N1_5 
REMARK    4  A    between atoms: N2_8  and  S1_9 
REMARK    5  A    between atoms: S1_9  and  C6_12 
REMARK    6  A    between atoms: N3_21  and  C15_23 
ROOT
HETATM    1  N1  UNL     1       0.232  -0.591   0.121  1.00  0.00     0.095 N 
HETATM    2  C4  UNL     1       0.766   0.725  -0.153  1.00  0.00     0.317 C 
HETATM    3  C5  UNL     1       2.249   0.629  -0.480  1.00  0.00     0.106 C 
HETATM    4  N2  UNL     1       2.636  -0.683  -0.818  1.00  0.00    -0.287 N 
HETATM    5  C13 UNL     1       2.436  -1.646   0.225  1.00  0.00     0.170 C 
HETATM    6  C14 UNL     1       1.113  -1.377   0.946  1.00  0.00     0.293 C 
ENDROOT
BRANCH   1   7
HETATM    7  C3  UNL     1      -1.117  -0.570   0.585  1.00  0.00     0.282 C 
BRANCH   7   8
HETATM    8  C2  UNL     1      -2.097  -0.122  -0.479  1.00  0.00     0.133 C 
BRANCH   8   9
HETATM    9  C1  UNL     1      -3.473  -0.131   0.077  1.00  0.00     0.219 C 
HETATM   10  O1  UNL     1      -3.663  -0.483   1.265  1.00  0.00    -0.274 OA
HETATM   11  N3  UNL     1      -4.601   0.247  -0.695  1.00  0.00    -0.356 N 
ATOM     12  H3  UNL     1      -4.462   0.537  -1.663  1.00  0.00     0.162 HD
BRANCH  11  13
HETATM   13  C15 UNL     1      -5.929   0.235  -0.158  1.00  0.00     0.084 C 
HETATM   14  C16 UNL     1      -6.501   1.632  -0.134  1.00  0.00     0.025 C 
HETATM   15  C17 UNL     1      -7.874   1.609   0.492  1.00  0.00     0.002 C 
HETATM   16  C18 UNL     1      -8.787   0.629  -0.205  1.00  0.00     0.000 C 
HETATM   17  C19 UNL     1      -8.164  -0.745  -0.092  1.00  0.00     0.002 C 
HETATM   18  C20 UNL     1      -6.856  -0.684  -0.888  1.00  0.00     0.025 C 
ENDBRANCH  11  13
ENDBRANCH   8   9
ENDBRANCH   7   8
ENDBRANCH   1   7
BRANCH   4  19
HETATM   19  S1  UNL     1       4.043  -0.863  -1.658  1.00  0.00     0.236 S 
HETATM   20  O2  UNL     1       4.278  -2.299  -2.141  1.00  0.00    -0.205 OA
HETATM   21  O3  UNL     1       3.916  -0.087  -2.987  1.00  0.00    -0.205 OA
BRANCH  19  22
HETATM   22  C6  UNL     1       5.546  -0.339  -0.953  1.00  0.00     0.134 C 
HETATM   23  C7  UNL     1       5.690   1.164  -0.788  1.00  0.00     0.026 C 
HETATM   24  C8  UNL     1       6.521   1.212   0.480  1.00  0.00    -0.013 C 
HETATM   25  C9  UNL     1       7.809   0.483   0.168  1.00  0.00     0.005 C 
HETATM   26  C12 UNL     1       5.804   0.168   1.323  1.00  0.00     0.010 C 
HETATM   27  C10 UNL     1       7.505  -1.015   0.321  1.00  0.00     0.006 C 
HETATM   28  C11 UNL     1       5.969  -0.982   0.311  1.00  0.00     0.006 C 
ENDBRANCH  19  22
ENDBRANCH   4  19
TORSDOF 6
