REMARK  14 active torsions:
REMARK  status: ('A' for Active; 'I' for Inactive)
REMARK    1  A    between atoms: C3_3  and  C4_4 
REMARK    2  A    between atoms: C4_4  and  C5_5 
REMARK    3  A    between atoms: C5_5  and  S1_6 
REMARK    4  A    between atoms: S1_6  and  C6_7 
REMARK    5  A    between atoms: C6_7  and  C7_8 
REMARK    6  A    between atoms: C14_22  and  C15_23 
REMARK    7  A    between atoms: C15_23  and  N4_24 
REMARK    8  A    between atoms: C15_23  and  N7_39 
REMARK    9  A    between atoms: N4_24  and  C16_25 
REMARK   10  A    between atoms: C16_25  and  C17_26 
REMARK   11  A    between atoms: C17_26  and  N5_27 
REMARK   12  A    between atoms: C18_29  and  C19_31 
REMARK   13  A    between atoms: C19_31  and  C20_32 
REMARK   14  A    between atoms: N7_39  and  N8_41 
ROOT
HETATM    1  C15 UNL     1       0.447  -2.034  -1.108  1.00  0.00     0.204 C 
ENDROOT
BRANCH   1   2
HETATM    2  C14 UNL     1      -0.791  -2.326  -0.402  1.00  0.00     0.030 A 
HETATM    3  C2  UNL     1      -1.426  -1.485   0.496  1.00  0.00    -0.041 A 
HETATM    4  C1  UNL     1      -0.734  -0.262   0.943  1.00  0.00     0.050 C 
HETATM    5  C3  UNL     1      -2.647  -1.738   1.052  1.00  0.00    -0.051 A 
HETATM    6  C11 UNL     1      -3.293  -2.934   0.692  1.00  0.00     0.007 A 
HETATM    7  C12 UNL     1      -2.713  -3.801  -0.180  1.00  0.00     0.002 A 
HETATM    8  C13 UNL     1      -1.458  -3.489  -0.728  1.00  0.00     0.017 A 
BRANCH   5   9
HETATM    9  C4  UNL     1      -3.431  -0.901   1.969  1.00  0.00     0.049 C 
BRANCH   9  10
HETATM   10  C5  UNL     1      -3.935   0.283   1.158  1.00  0.00     0.079 C 
BRANCH  10  11
HETATM   11  S1  UNL     1      -4.636  -0.300  -0.401  1.00  0.00    -0.161 SA
BRANCH  11  12
HETATM   12  C6  UNL     1      -5.131   1.159  -1.357  1.00  0.00     0.150 C 
BRANCH  12  13
HETATM   13  C7  UNL     1      -6.324   1.754  -0.744  1.00  0.00     0.091 A 
HETATM   14  N1  UNL     1      -7.520   1.274  -1.267  1.00  0.00    -0.332 N 
HETATM   15  C8  UNL     1      -8.678   1.745  -0.759  1.00  0.00     0.101 A 
ATOM     16  H1  UNL     1      -7.522   0.582  -2.017  1.00  0.00     0.168 HD
HETATM   17  N2  UNL     1      -9.794   1.301  -1.261  1.00  0.00    -0.385 N 
HETATM   18  C9  UNL     1      -8.749   2.668   0.240  1.00  0.00     0.065 A 
ATOM     19  H22 UNL     1      -9.741   0.610  -2.009  1.00  0.00     0.157 HD
ATOM     20  H21 UNL     1     -10.669   1.657  -0.877  1.00  0.00     0.157 HD
HETATM   21  C10 UNL     1      -7.520   3.152   0.765  1.00  0.00     0.093 A 
HETATM   22  N3  UNL     1      -6.403   2.641   0.218  1.00  0.00    -0.355 N 
ATOM     23  H3  UNL     1      -5.518   2.982   0.594  1.00  0.00     0.166 HD
ENDBRANCH  12  13
ENDBRANCH  11  12
ENDBRANCH  10  11
ENDBRANCH   9  10
ENDBRANCH   5   9
ENDBRANCH   1   2
BRANCH   1  24
HETATM   24  N4  UNL     1       1.236  -1.116  -1.203  1.00  0.00    -0.400 NA
BRANCH  24  25
HETATM   25  C16 UNL     1       2.075  -0.116  -1.291  1.00  0.00     0.177 C 
BRANCH  25  26
HETATM   26  C17 UNL     1       2.711   0.700  -0.263  1.00  0.00     0.180 C 
BRANCH  26  27
HETATM   27  N5  UNL     1       3.633   0.002   0.640  1.00  0.00    -0.376 N 
HETATM   28  C18 UNL     1       4.834  -0.113   0.255  1.00  0.00     0.093 C 
HETATM   29  N6  UNL     1       5.264   0.400  -0.994  1.00  0.00    -0.088 NA
ATOM     30  H5  UNL     1       3.321  -0.373   1.536  1.00  0.00     0.160 HD
BRANCH  28  31
HETATM   31  C19 UNL     1       5.897  -0.761   1.116  1.00  0.00     0.111 C 
BRANCH  31  32
HETATM   32  C20 UNL     1       6.961   0.295   1.196  1.00  0.00    -0.051 A 
HETATM   33  C21 UNL     1       6.789   1.296   2.170  1.00  0.00     0.009 A 
HETATM   34  C22 UNL     1       7.744   2.265   2.194  1.00  0.00     0.024 A 
HETATM   35  C23 UNL     1       8.808   2.277   1.338  1.00  0.00     0.034 A 
HETATM   36 CL1  UNL     1       9.975   3.574   1.464  1.00  0.00    -0.084 Cl
HETATM   37  C24 UNL     1       8.952   1.283   0.397  1.00  0.00     0.024 A 
HETATM   38  C25 UNL     1       8.000   0.270   0.331  1.00  0.00     0.009 A 
ENDBRANCH  31  32
ENDBRANCH  28  31
ENDBRANCH  26  27
ENDBRANCH  25  26
ENDBRANCH  24  25
ENDBRANCH   1  24
BRANCH   1  39
HETATM   39  N7  UNL     1       0.923  -3.161  -1.954  1.00  0.00    -0.259 N 
ATOM     40  H7  UNL     1       0.960  -4.105  -1.570  1.00  0.00     0.191 HD
BRANCH  39  41
HETATM   41  N8  UNL     1       1.314  -2.932  -3.256  1.00  0.00    -0.247 N 
HETATM   42  N9  UNL     1       0.802  -2.109  -4.069  1.00  0.00    -0.331 N 
ATOM     43  H92 UNL     1       0.018  -1.566  -3.707  1.00  0.00     0.178 HD
ATOM     44  H91 UNL     1       1.091  -1.940  -5.032  1.00  0.00     0.178 HD
ATOM     45  H8  UNL     1       2.099  -3.485  -3.600  1.00  0.00     0.207 HD
ENDBRANCH  39  41
ENDBRANCH   1  39
TORSDOF 14
