REMARK  7 active torsions:
REMARK  status: ('A' for Active; 'I' for Inactive)
REMARK    1  A    between atoms: N1_1  and  N2_4 
REMARK    2  A    between atoms: N2_4  and  N3_5 
REMARK    3  A    between atoms: N3_5  and  C1_7 
REMARK    4  A    between atoms: C1_7  and  C2_8 
REMARK    5  A    between atoms: C2_8  and  N4_9 
REMARK    6  A    between atoms: C4_11  and  O1_12 
REMARK    7  A    between atoms: C5_14  and  O2_15 
ROOT
HETATM    1  N4  UNL     1      -0.260  -0.537   0.157  1.00  0.00     0.124 N 
HETATM    2  C3  UNL     1      -0.935   0.200   1.176  1.00  0.00     0.311 C 
HETATM    3  C4  UNL     1      -2.232  -0.167   0.436  1.00  0.00     0.205 C 
HETATM    4  C5  UNL     1      -1.304  -0.241  -0.754  1.00  0.00     0.387 C 
ENDROOT
BRANCH   1   5
HETATM    5  C2  UNL     1       1.087  -0.343  -0.130  1.00  0.00     0.298 C 
BRANCH   5   6
HETATM    6  C1  UNL     1       2.013  -0.860   0.984  1.00  0.00     0.186 C 
BRANCH   6   7
HETATM    7  N3  UNL     1       3.375  -0.576   0.496  1.00  0.00    -0.251 N 
ATOM      8  H3  UNL     1       4.091  -1.302   0.522  1.00  0.00     0.197 HD
BRANCH   7   9
HETATM    9  N2  UNL     1       3.640   0.534   0.060  1.00  0.00    -0.249 NA
BRANCH   9  10
HETATM   10  N1  UNL     1       3.884   1.743  -0.131  1.00  0.00    -0.261 N 
ATOM     11  H12 UNL     1       3.763   1.940   0.862  1.00  0.00     0.193 HD
ATOM     12  H11 UNL     1       4.105   2.670  -0.495  1.00  0.00     0.193 HD
ENDBRANCH   9  10
ENDBRANCH   7   9
ENDBRANCH   6   7
ENDBRANCH   5   6
ENDBRANCH   1   5
BRANCH   4  13
HETATM   13  O2  UNL     1      -1.202   0.974  -1.459  1.00  0.00    -0.366 OA
ATOM     14  H2  UNL     1      -1.902   1.172  -2.070  1.00  0.00     0.212 HD
ENDBRANCH   4  13
BRANCH   3  15
HETATM   15  O1  UNL     1      -3.145   0.849   0.437  1.00  0.00    -0.389 OA
ATOM     16  H1  UNL     1      -3.946   0.622  -0.020  1.00  0.00     0.210 HD
ENDBRANCH   3  15
TORSDOF 7
