REMARK  15 active torsions:
REMARK  status: ('A' for Active; 'I' for Inactive)
REMARK    1  A    between atoms: C4_4  and  C5_5 
REMARK    2  A    between atoms: C5_5  and  C6_6 
REMARK    3  A    between atoms: C6_6  and  S1_7 
REMARK    4  A    between atoms: S1_7  and  C7_8 
REMARK    5  A    between atoms: C7_8  and  C8_9 
REMARK    6  A    between atoms: C8_9  and  O2_11 
REMARK    7  A    between atoms: O2_11  and  C9_12 
REMARK    8  A    between atoms: C10_13  and  O3_14 
REMARK    9  A    between atoms: C12_17  and  O4_18 
REMARK   10  A    between atoms: C13_20  and  O5_21 
REMARK   11  A    between atoms: O5_21  and  C14_22 
REMARK   12  A    between atoms: C16_24  and  O6_26 
REMARK   13  A    between atoms: C18_28  and  C19_29 
REMARK   14  A    between atoms: C19_29  and  O7_30 
REMARK   15  A    between atoms: C21_34  and  O9_35 
ROOT
HETATM    1  C9  UNL     1      -0.590   2.636   0.094  1.00  0.00     0.192 C 
HETATM    2  C10 UNL     1      -0.192   3.820  -0.758  1.00  0.00     0.152 C 
HETATM    3  C11 UNL     1       1.290   4.003  -0.808  1.00  0.00     0.069 C 
HETATM    4  C12 UNL     1       2.090   2.863  -0.283  1.00  0.00     0.152 C 
HETATM    5  C13 UNL     1       1.536   1.497  -0.569  1.00  0.00     0.184 C 
HETATM    6  C21 UNL     1       0.061   1.363  -0.376  1.00  0.00     0.181 C 
ENDROOT
BRANCH   5   7
HETATM    7  O5  UNL     1       2.232   0.549   0.212  1.00  0.00    -0.350 OA
BRANCH   7   8
HETATM    8  C14 UNL     1       2.955  -0.345  -0.598  1.00  0.00     0.269 C 
HETATM    9  C15 UNL     1       4.406  -0.186  -0.307  1.00  0.00     0.103 C 
HETATM   10  C16 UNL     1       5.046  -1.361   0.392  1.00  0.00     0.086 C 
HETATM   11  C17 UNL     1       4.879  -1.183   1.876  1.00  0.00     0.051 C 
HETATM   12  C18 UNL     1       4.461  -2.644  -0.008  1.00  0.00    -0.001 C 
HETATM   13  C20 UNL     1       3.213  -2.747  -0.418  1.00  0.00     0.146 C 
HETATM   14  O8  UNL     1       2.437  -1.638  -0.474  1.00  0.00    -0.332 OA
BRANCH  10  15
HETATM   15  O6  UNL     1       6.407  -1.403   0.047  1.00  0.00    -0.385 OA
ATOM     16  H6  UNL     1       6.810  -2.142   0.487  1.00  0.00     0.211 HD
ENDBRANCH  10  15
BRANCH  12  17
HETATM   17  C19 UNL     1       5.295  -3.861   0.044  1.00  0.00     0.203 C 
BRANCH  17  18
HETATM   18  O7  UNL     1       6.420  -3.762  -0.775  1.00  0.00    -0.396 OA
ATOM     19  H7  UNL     1       6.957  -4.545  -0.742  1.00  0.00     0.209 HD
ENDBRANCH  17  18
ENDBRANCH  12  17
ENDBRANCH   7   8
ENDBRANCH   5   7
BRANCH   4  20
HETATM   20  O4  UNL     1       2.292   3.062   1.096  1.00  0.00    -0.393 OA
ATOM     21  H4  UNL     1       2.803   2.334   1.431  1.00  0.00     0.210 HD
ENDBRANCH   4  20
BRANCH   6  22
HETATM   22  O9  UNL     1      -0.515   0.831  -1.503  1.00  0.00    -0.390 OA
ATOM     23  H9  UNL     1      -0.104   0.027  -1.800  1.00  0.00     0.210 HD
ENDBRANCH   6  22
BRANCH   1  24
HETATM   24  O2  UNL     1      -1.955   2.497   0.286  1.00  0.00    -0.310 OA
BRANCH  24  25
HETATM   25  C8  UNL     1      -2.601   2.591   1.505  1.00  0.00     0.268 C 
HETATM   26  O1  UNL     1      -1.850   2.821   2.496  1.00  0.00    -0.264 OA
BRANCH  25  27
HETATM   27  C7  UNL     1      -4.048   2.448   1.727  1.00  0.00     0.184 C 
BRANCH  27  28
HETATM   28  S1  UNL     1      -4.871   2.131   0.148  1.00  0.00    -0.159 SA
BRANCH  28  29
HETATM   29  C6  UNL     1      -4.379   0.505  -0.503  1.00  0.00     0.078 C 
BRANCH  29  30
HETATM   30  C5  UNL     1      -4.954  -0.522   0.473  1.00  0.00     0.037 C 
BRANCH  30  31
HETATM   31  C4  UNL     1      -4.599  -1.877   0.000  1.00  0.00    -0.024 C 
HETATM   32  C2  UNL     1      -5.555  -2.732  -0.297  1.00  0.00    -0.091 C 
HETATM   33  C1  UNL     1      -5.242  -4.110  -0.777  1.00  0.00     0.042 C 
HETATM   34  C3  UNL     1      -6.994  -2.325  -0.158  1.00  0.00     0.042 C 
ENDBRANCH  30  31
ENDBRANCH  29  30
ENDBRANCH  28  29
ENDBRANCH  27  28
ENDBRANCH  25  27
ENDBRANCH  24  25
ENDBRANCH   1  24
BRANCH   2  35
HETATM   35  O3  UNL     1      -0.768   5.003  -0.309  1.00  0.00    -0.393 OA
ATOM     36  H3  UNL     1      -0.518   5.747  -0.844  1.00  0.00     0.210 HD
ENDBRANCH   2  35
TORSDOF 15
