REMARK  15 active torsions:
REMARK  status: ('A' for Active; 'I' for Inactive)
REMARK    1  A    between atoms: C4_4  and  O1_5 
REMARK    2  A    between atoms: C5_7  and  O2_8 
REMARK    3  A    between atoms: N1_11  and  C7_13 
REMARK    4  A    between atoms: C7_13  and  O3_14 
REMARK    5  A    between atoms: C7_13  and  C8_16 
REMARK    6  A    between atoms: C8_16  and  C10_18 
REMARK    7  A    between atoms: C13_21  and  O4_22 
REMARK    8  A    between atoms: O4_22  and  C14_23 
REMARK    9  A    between atoms: C14_23  and  C15_25 
REMARK   10  A    between atoms: C15_25  and  C16_26 
REMARK   11  A    between atoms: C20_31  and  O7_32 
REMARK   12  A    between atoms: O7_32  and  C21_33 
REMARK   13  A    between atoms: C21_33  and  C22_34 
REMARK   14  A    between atoms: C22_34  and  O8_35 
REMARK   15  A    between atoms: C22_34  and  O9_37 
ROOT
HETATM    1  C1  UNL     1       3.014  -3.470  -2.730  1.00  0.00     0.048 C 
HETATM    2  C2  UNL     1       2.135  -2.724  -1.769  1.00  0.00    -0.031 C 
HETATM    3  C3  UNL     1       0.833  -2.706  -2.025  1.00  0.00     0.015 C 
HETATM    4  C4  UNL     1      -0.275  -2.044  -1.242  1.00  0.00     0.184 C 
HETATM    5  C5  UNL     1       0.034  -0.628  -0.923  1.00  0.00     0.156 C 
HETATM    6  C6  UNL     1      -0.723  -0.045   0.182  1.00  0.00     0.057 C 
HETATM    7  N1  UNL     1      -1.922   0.090   0.524  1.00  0.00    -0.365 N 
ATOM      8  H1  UNL     1      -2.073   0.577   1.407  1.00  0.00     0.161 HD
HETATM    9  C13 UNL     1       0.605   0.375   0.794  1.00  0.00     0.213 C 
HETATM   10  C19 UNL     1       1.348  -0.422  -0.226  1.00  0.00     0.203 C 
HETATM   11  O6  UNL     1       1.917  -1.582   0.281  1.00  0.00    -0.346 OA
HETATM   12  C20 UNL     1       2.848  -2.085  -0.626  1.00  0.00     0.290 C 
ENDROOT
BRANCH   5  13
HETATM   13  O2  UNL     1      -0.062   0.161  -2.085  1.00  0.00    -0.378 OA
ATOM     14  H2  UNL     1       0.136   1.067  -1.881  1.00  0.00     0.211 HD
ENDBRANCH   5  13
BRANCH   7  15
HETATM   15  C7  UNL     1      -3.100  -0.339  -0.144  1.00  0.00     0.221 C 
BRANCH  15  16
HETATM   16  O3  UNL     1      -3.525   0.768  -0.921  1.00  0.00    -0.377 OA
ATOM     17  H3  UNL     1      -4.313   0.481  -1.368  1.00  0.00     0.212 HD
ENDBRANCH  15  16
BRANCH  15  18
HETATM   18  C8  UNL     1      -4.160  -0.508   0.927  1.00  0.00     0.033 C 
HETATM   19  C9  UNL     1      -3.670  -1.544   1.915  1.00  0.00     0.015 C 
BRANCH  18  20
HETATM   20  C10 UNL     1      -5.471  -0.997   0.369  1.00  0.00    -0.015 C 
HETATM   21  C11 UNL     1      -6.430  -1.122   1.543  1.00  0.00     0.010 C 
HETATM   22  C12 UNL     1      -6.062  -0.075  -0.653  1.00  0.00     0.010 C 
ENDBRANCH  18  20
ENDBRANCH  15  18
ENDBRANCH   7  15
BRANCH   9  23
HETATM   23  O4  UNL     1       0.712   1.780   0.666  1.00  0.00    -0.307 OA
BRANCH  23  24
HETATM   24  C14 UNL     1       0.892   2.653   1.710  1.00  0.00     0.259 C 
HETATM   25  O5  UNL     1       0.969   2.187   2.875  1.00  0.00    -0.265 OA
BRANCH  24  26
HETATM   26  C15 UNL     1       1.002   4.120   1.553  1.00  0.00     0.115 C 
BRANCH  26  27
HETATM   27  C16 UNL     1       0.899   4.540   0.102  1.00  0.00    -0.013 C 
HETATM   28  C17 UNL     1       1.019   6.048   0.027  1.00  0.00     0.010 C 
HETATM   29  C18 UNL     1       2.066   3.969  -0.708  1.00  0.00     0.010 C 
ENDBRANCH  26  27
ENDBRANCH  24  26
ENDBRANCH  23  24
ENDBRANCH   9  23
BRANCH   4  30
HETATM   30  O1  UNL     1      -0.671  -2.819  -0.176  1.00  0.00    -0.388 OA
ATOM     31  H1  UNL     1      -1.368  -2.402   0.317  1.00  0.00     0.210 HD
ENDBRANCH   4  30
BRANCH  12  32
HETATM   32  O7  UNL     1       3.724  -2.976  -0.063  1.00  0.00    -0.352 OA
BRANCH  32  33
HETATM   33  C21 UNL     1       5.048  -2.623  -0.081  1.00  0.00     0.231 C 
BRANCH  33  34
HETATM   34  C22 UNL     1       5.321  -1.330   0.666  1.00  0.00     0.277 C 
BRANCH  34  35
HETATM   35  O8  UNL     1       4.923  -1.496   2.012  1.00  0.00    -0.369 OA
ATOM     36  H8  UNL     1       5.094  -0.687   2.479  1.00  0.00     0.212 HD
ENDBRANCH  34  35
BRANCH  34  37
HETATM   37  O9  UNL     1       6.686  -1.057   0.710  1.00  0.00    -0.369 OA
ATOM     38  H9  UNL     1       6.857  -0.248   1.177  1.00  0.00     0.212 HD
ENDBRANCH  34  37
ENDBRANCH  33  34
ENDBRANCH  32  33
ENDBRANCH  12  32
TORSDOF 15
