REMARK  5 active torsions:
REMARK  status: ('A' for Active; 'I' for Inactive)
REMARK    1  A    between atoms: N1_1  and  C1_4 
REMARK    2  A    between atoms: C3_10  and  C4_11 
REMARK    3  A    between atoms: C4_11  and  C5_12 
REMARK    4  A    between atoms: C9_16  and  O1_17 
REMARK    5  A    between atoms: O1_17  and  C10_18 
ROOT
HETATM    1  C5  UNL     1       1.266  -0.832   0.062  1.00  0.00    -0.051 A 
HETATM    2  C6  UNL     1       1.406  -1.556   1.228  1.00  0.00     0.007 A 
HETATM    3  C7  UNL     1       0.506  -1.482   2.263  1.00  0.00     0.003 A 
HETATM    4  C8  UNL     1      -0.599  -0.648   2.152  1.00  0.00     0.037 A 
HETATM    5  C9  UNL     1      -0.767   0.093   0.993  1.00  0.00     0.076 A 
HETATM    6  C16 UNL     1       0.169  -0.019  -0.020  1.00  0.00     0.044 A 
ENDROOT
BRANCH   1   7
HETATM    7  C4  UNL     1       2.245  -0.957  -1.011  1.00  0.00     0.082 C 
BRANCH   7   8
HETATM    8  C3  UNL     1       3.423  -0.038  -0.889  1.00  0.00     0.008 A 
HETATM    9  C1  UNL     1       3.464   1.279  -1.258  1.00  0.00     0.121 A 
HETATM   10  N2  UNL     1       4.718   1.719  -0.932  1.00  0.00    -0.286 N 
HETATM   11  N3  UNL     1       5.413   0.738  -0.396  1.00  0.00    -0.310 N 
ATOM     12  H2  UNL     1       5.063   2.667  -1.082  1.00  0.00     0.188 HD
HETATM   13  C2  UNL     1       4.653  -0.354  -0.353  1.00  0.00     0.118 A 
ATOM     14  H3  UNL     1       6.376   0.804  -0.067  1.00  0.00     0.186 HD
BRANCH   9  15
HETATM   15  N1  UNL     1       2.574   2.043  -1.819  1.00  0.00    -0.384 N 
ATOM     16  H12 UNL     1       2.605   3.025  -2.094  1.00  0.00     0.157 HD
ATOM     17  H11 UNL     1       1.639   1.715  -2.062  1.00  0.00     0.157 HD
ENDBRANCH   9  15
ENDBRANCH   7   8
ENDBRANCH   1   7
BRANCH   5  18
HETATM   18  O1  UNL     1      -1.884   0.900   0.951  1.00  0.00    -0.311 OA
BRANCH  18  19
HETATM   19  C10 UNL     1      -3.119   0.559   0.452  1.00  0.00     0.076 A 
HETATM   20  C11 UNL     1      -3.361  -0.671  -0.148  1.00  0.00     0.037 A 
HETATM   21  C12 UNL     1      -4.633  -0.947  -0.627  1.00  0.00     0.003 A 
HETATM   22  C13 UNL     1      -5.681  -0.032  -0.528  1.00  0.00     0.000 A 
HETATM   23  C14 UNL     1      -5.431   1.189   0.071  1.00  0.00     0.003 A 
HETATM   24  C15 UNL     1      -4.167   1.448   0.541  1.00  0.00     0.037 A 
ENDBRANCH  18  19
ENDBRANCH   5  18
TORSDOF 5
