REMARK  5 active torsions:
REMARK  status: ('A' for Active; 'I' for Inactive)
REMARK    1  A    between atoms: O1_1  and  C1_3 
REMARK    2  A    between atoms: C4_6  and  C5_7 
REMARK    3  A    between atoms: C11_13  and  O2_14 
REMARK    4  A    between atoms: C12_16  and  C13_17 
REMARK    5  A    between atoms: C13_17  and  N1_18 
ROOT
HETATM    1  C1  UNL     1      -0.248   1.595  -0.893  1.00  0.00     0.076 A 
HETATM    2  C2  UNL     1       1.015   1.731  -1.512  1.00  0.00     0.038 A 
HETATM    3  C3  UNL     1       1.972   0.740  -1.242  1.00  0.00     0.013 A 
HETATM    4  C4  UNL     1       1.703  -0.306  -0.435  1.00  0.00    -0.020 A 
HETATM    5  C11 UNL     1       0.403  -0.437   0.183  1.00  0.00     0.083 A 
HETATM    6  C12 UNL     1      -0.476   0.569  -0.105  1.00  0.00     0.037 A 
ENDROOT
BRANCH   6   7
HETATM    7  C13 UNL     1      -1.754   0.633   0.711  1.00  0.00     0.321 C 
BRANCH   7   8
HETATM    8  N1  UNL     1      -2.782  -0.360   0.409  1.00  0.00     0.132 N 
HETATM    9  C14 UNL     1      -3.342   0.160  -0.848  1.00  0.00     0.277 C 
HETATM   10  C15 UNL     1      -4.686  -0.467  -1.193  1.00  0.00     0.030 C 
HETATM   11  C16 UNL     1      -5.643   0.104  -0.134  1.00  0.00     0.007 C 
HETATM   12  C17 UNL     1      -5.167  -0.565   1.143  1.00  0.00     0.076 C 
HETATM   13  C18 UNL     1      -3.760  -0.225   1.485  1.00  0.00     0.311 C 
HETATM   14 CL1  UNL     1      -3.731   1.446   2.093  1.00  0.00    -0.068 Cl
HETATM   15 CL2  UNL     1      -3.263  -1.321   2.842  1.00  0.00    -0.068 Cl
ENDBRANCH   7   8
ENDBRANCH   6   7
BRANCH   1  16
HETATM   16  O1  UNL     1      -1.210   2.598  -1.208  1.00  0.00    -0.360 OA
ATOM     17  H1  UNL     1      -2.059   2.507  -0.792  1.00  0.00     0.217 HD
ENDBRANCH   1  16
BRANCH   5  18
HETATM   18  O2  UNL     1       0.177  -1.534   0.992  1.00  0.00    -0.359 OA
ATOM     19  H2  UNL     1      -0.677  -1.620   1.398  1.00  0.00     0.217 HD
ENDBRANCH   5  18
BRANCH   4  20
HETATM   20  C5  UNL     1       2.704  -1.320   0.013  1.00  0.00     0.021 C 
HETATM   21  C6  UNL     1       3.382  -0.803   1.315  1.00  0.00     0.009 C 
HETATM   22  C7  UNL     1       4.231   0.409   1.121  1.00  0.00     0.001 C 
HETATM   23  C8  UNL     1       5.056   0.457  -0.077  1.00  0.00     0.000 C 
HETATM   24  C9  UNL     1       4.960  -0.677  -1.020  1.00  0.00     0.001 C 
HETATM   25  C10 UNL     1       3.832  -1.606  -0.920  1.00  0.00     0.009 C 
ENDBRANCH   4  20
TORSDOF 5
