REMARK  5 active torsions:
REMARK  status: ('A' for Active; 'I' for Inactive)
REMARK    1  A    between atoms: C2_2  and  N1_3 
REMARK    2  A    between atoms: C3_4  and  O1_5 
REMARK    3  A    between atoms: C6_9  and  O2_10 
REMARK    4  A    between atoms: C7_12  and  C8_13 
REMARK    5  A    between atoms: C11_17  and  C12_18 
ROOT
HETATM    1  N1  UNL     1      -2.850   1.208   0.051  1.00  0.00    -0.308 N 
HETATM    2  C3  UNL     1      -3.541   0.040   0.185  1.00  0.00     0.151 A 
HETATM    3  C4  UNL     1      -2.696  -1.034   0.088  1.00  0.00     0.004 A 
HETATM    4  C5  UNL     1      -1.422  -0.492  -0.117  1.00  0.00     0.012 A 
HETATM    5  C6  UNL     1      -1.563   0.864  -0.132  1.00  0.00     0.151 A 
HETATM    6  C7  UNL     1      -0.356  -1.533  -0.259  1.00  0.00     0.058 C 
HETATM    7  C17 UNL     1      -0.782  -2.456  -1.329  1.00  0.00     0.014 C 
HETATM    8  C18 UNL     1      -2.169  -3.021  -1.149  1.00  0.00     0.006 C 
HETATM    9  C19 UNL     1      -2.766  -2.513   0.142  1.00  0.00     0.044 C 
ENDROOT
BRANCH   6  10
HETATM   10  C8  UNL     1       0.989  -1.022  -0.204  1.00  0.00    -0.025 A 
HETATM   11  C9  UNL     1       1.329  -0.336   0.972  1.00  0.00     0.052 A 
HETATM   12  C10 UNL     1       2.572   0.190   1.138  1.00  0.00     0.123 A 
HETATM   13  F1  UNL     1       2.932   0.860   2.268  1.00  0.00    -0.206 F 
HETATM   14  C11 UNL     1       3.550   0.072   0.159  1.00  0.00    -0.014 A 
HETATM   15  C15 UNL     1       3.189  -0.608  -0.989  1.00  0.00     0.035 A 
HETATM   16  C16 UNL     1       1.927  -1.146  -1.165  1.00  0.00     0.041 A 
HETATM   17 CL1  UNL     1       1.689  -1.974  -2.695  1.00  0.00    -0.084 Cl
BRANCH  14  18
HETATM   18  C12 UNL     1       4.899   0.653   0.365  1.00  0.00     0.022 A 
HETATM   19  C13 UNL     1       5.916   0.614  -0.727  1.00  0.00     0.010 A 
HETATM   20  C14 UNL     1       5.221   1.900  -0.349  1.00  0.00     0.010 A 
ENDBRANCH  14  18
ENDBRANCH   6  10
BRANCH   5  21
HETATM   21  O2  UNL     1      -0.529   1.763  -0.311  1.00  0.00    -0.345 OA
ATOM     22  H2  UNL     1       0.380   1.520  -0.440  1.00  0.00     0.219 HD
ENDBRANCH   5  21
BRANCH   2  23
HETATM   23  O1  UNL     1      -4.907  -0.067   0.392  1.00  0.00    -0.345 OA
ATOM     24  H1  UNL     1      -5.388  -0.881   0.485  1.00  0.00     0.219 HD
ENDBRANCH   2  23
BRANCH   1  25
HETATM   25  C2  UNL     1      -3.464   2.518   0.107  1.00  0.00     0.129 C 
HETATM   26  C1  UNL     1      -3.505   3.066   1.510  1.00  0.00     0.027 C 
ENDBRANCH   1  25
TORSDOF 5
