REMARK  6 active torsions:
REMARK  status: ('A' for Active; 'I' for Inactive)
REMARK    1  A    between atoms: C2_2  and  C3_3 
REMARK    2  A    between atoms: C6_10  and  N3_11 
REMARK    3  A    between atoms: N3_11  and  C7_14 
REMARK    4  A    between atoms: C7_14  and  C8_15 
REMARK    5  A    between atoms: C8_15  and  O2_16 
REMARK    6  A    between atoms: C8_15  and  C9_18 
ROOT
HETATM    1  N3  UNL     1      -0.751  -0.548  -0.432  1.00  0.00    -0.044 N 
ATOM      2  H31 UNL     1      -1.294  -0.018  -1.114  1.00  0.00     0.280 HD
ATOM      3  H32 UNL     1      -0.619   0.174   0.277  1.00  0.00     0.280 HD
ENDROOT
BRANCH   1   4
HETATM    4  C6  UNL     1       0.522  -0.957  -0.993  1.00  0.00     0.348 A 
HETATM    5  O1  UNL     1       1.349  -1.509   0.019  1.00  0.00    -0.286 OA
HETATM    6  C5  UNL     1       2.480  -0.753   0.246  1.00  0.00     0.228 A 
HETATM    7  N1  UNL     1       2.456   0.321  -0.545  1.00  0.00    -0.317 N 
HETATM    8  N2  UNL     1       3.630  -0.660   0.965  1.00  0.00    -0.324 N 
HETATM    9  C4  UNL     1       3.540   1.072  -0.348  1.00  0.00     0.119 A 
HETATM   10  C15 UNL     1       1.241   0.316  -1.362  1.00  0.00     0.194 A 
HETATM   11  C3  UNL     1       4.303   0.447   0.625  1.00  0.00     0.028 A 
ATOM     12  H2  UNL     1       3.937  -1.337   1.664  1.00  0.00     0.169 HD
BRANCH  11  13
HETATM   13  C2  UNL     1       5.620   0.928   1.153  1.00  0.00     0.054 C 
HETATM   14  C1  UNL     1       6.761   0.320   0.320  1.00  0.00     0.011 C 
ENDBRANCH  11  13
ENDBRANCH   1   4
BRANCH   1  15
HETATM   15  C7  UNL     1      -1.531  -1.659   0.099  1.00  0.00     0.272 C 
BRANCH  15  16
HETATM   16  C8  UNL     1      -2.578  -1.032   0.971  1.00  0.00     0.178 C 
BRANCH  16  17
HETATM   17  O2  UNL     1      -1.931  -0.274   1.952  1.00  0.00    -0.389 OA
ATOM     18  H2  UNL     1      -2.594   0.123   2.504  1.00  0.00     0.210 HD
ENDBRANCH  16  17
BRANCH  16  19
HETATM   19  C9  UNL     1      -3.688  -0.358   0.362  1.00  0.00    -0.005 A 
HETATM   20  C10 UNL     1      -4.167  -0.580  -0.894  1.00  0.00     0.037 A 
HETATM   21  C11 UNL     1      -5.288   0.121  -1.337  1.00  0.00     0.056 A 
HETATM   22 CL1  UNL     1      -5.901  -0.158  -2.945  1.00  0.00    -0.083 Cl
HETATM   23  C12 UNL     1      -5.956   1.045  -0.563  1.00  0.00     0.057 A 
HETATM   24 CL2  UNL     1      -7.367   1.931  -1.085  1.00  0.00    -0.082 Cl
HETATM   25  C13 UNL     1      -5.469   1.271   0.709  1.00  0.00     0.050 A 
HETATM   26  C14 UNL     1      -4.371   0.585   1.150  1.00  0.00     0.044 A 
HETATM   27 CL3  UNL     1      -3.801   0.921   2.784  1.00  0.00    -0.084 Cl
ENDBRANCH  16  19
ENDBRANCH  15  16
ENDBRANCH   1  15
TORSDOF 6
