REMARK  7 active torsions:
REMARK  status: ('A' for Active; 'I' for Inactive)
REMARK    1  A    between atoms: N3_7  and  C4_9 
REMARK    2  A    between atoms: C4_9  and  C5_10 
REMARK    3  A    between atoms: C5_10  and  N4_11 
REMARK    4  A    between atoms: C5_10  and  C6_15 
REMARK    5  A    between atoms: C5_10  and  C7_18 
REMARK    6  A    between atoms: C6_15  and  O1_16 
REMARK    7  A    between atoms: C7_18  and  O2_19 
ROOT
HETATM    1  N1  UNL     1       5.390   1.416   1.077  1.00  0.00    -0.063 NA
HETATM    2  C1  UNL     1       4.283   0.697   0.554  1.00  0.00     0.194 A 
HETATM    3  N2  UNL     1       2.972   0.887   0.760  1.00  0.00    -0.324 N 
ATOM      4  H2  UNL     1       2.566   1.612   1.352  1.00  0.00     0.169 HD
HETATM    5  C2  UNL     1       2.272  -0.036   0.058  1.00  0.00     0.134 A 
HETATM    6  C3  UNL     1       1.008  -0.528  -0.278  1.00  0.00     0.197 A 
HETATM    7  N3  UNL     1      -0.083  -0.016   0.173  1.00  0.00    -0.364 N 
ATOM      8  H3  UNL     1      -0.061   0.784   0.805  1.00  0.00     0.161 HD
HETATM    9  O3  UNL     1       1.198  -1.535  -1.084  1.00  0.00    -0.216 OA
HETATM   10  N5  UNL     1       2.488  -1.728  -1.291  1.00  0.00    -0.241 N 
ATOM     11  H5  UNL     1       2.889  -2.455  -1.884  1.00  0.00     0.196 HD
HETATM   12  C8  UNL     1       3.183  -0.824  -0.604  1.00  0.00     0.159 A 
HETATM   13  N6  UNL     1       4.392  -0.367  -0.293  1.00  0.00    -0.313 N 
ATOM     14  H6  UNL     1       5.271  -0.754  -0.637  1.00  0.00     0.170 HD
ENDROOT
BRANCH   7  15
HETATM   15  C4  UNL     1      -1.325  -0.593  -0.232  1.00  0.00     0.165 C 
BRANCH  15  16
HETATM   16  C5  UNL     1      -2.523   0.208   0.205  1.00  0.00     0.181 C 
BRANCH  16  17
HETATM   17  N4  UNL     1      -2.486   0.274   1.656  1.00  0.00    -0.065 N 
ATOM     18  H43 UNL     1      -2.436  -0.644   2.097  1.00  0.00     0.275 HD
ATOM     19  H42 UNL     1      -1.606   0.641   2.018  1.00  0.00     0.275 HD
ATOM     20  H41 UNL     1      -3.297   0.817   1.952  1.00  0.00     0.275 HD
ENDBRANCH  16  17
BRANCH  16  21
HETATM   21  C6  UNL     1      -3.809  -0.473  -0.216  1.00  0.00     0.206 C 
BRANCH  21  22
HETATM   22  O1  UNL     1      -3.887  -1.755   0.296  1.00  0.00    -0.398 OA
ATOM     23  H1  UNL     1      -4.693  -2.182   0.032  1.00  0.00     0.209 HD
ENDBRANCH  21  22
ENDBRANCH  16  21
BRANCH  16  24
HETATM   24  C7  UNL     1      -2.520   1.608  -0.318  1.00  0.00     0.206 C 
BRANCH  24  25
HETATM   25  O2  UNL     1      -3.655   2.251   0.186  1.00  0.00    -0.398 OA
ATOM     26  H2  UNL     1      -3.653   3.141  -0.146  1.00  0.00     0.209 HD
ENDBRANCH  24  25
ENDBRANCH  16  24
ENDBRANCH  15  16
ENDBRANCH   7  15
TORSDOF 7
