REMARK  11 active torsions:
REMARK  status: ('A' for Active; 'I' for Inactive)
REMARK    1  A    between atoms: C2_2  and  N1_3 
REMARK    2  A    between atoms: C3_4  and  S1_5 
REMARK    3  A    between atoms: S1_5  and  C4_6 
REMARK    4  A    between atoms: C4_6  and  C5_7 
REMARK    5  A    between atoms: C5_7  and  C6_9 
REMARK       I    between atoms: C6_9  and  N2_11 
REMARK    6  A    between atoms: N2_11  and  C7_13 
REMARK    7  A    between atoms: C8_16  and  S2_17 
REMARK    8  A    between atoms: S2_17  and  N4_18 
REMARK    9  A    between atoms: C9_23  and  O5_24 
REMARK   10  A    between atoms: C10_28  and  N6_29 
REMARK   11  A    between atoms: C11_36  and  C12_37 
ROOT
HETATM    1  C5  UNL     1      -0.604   1.916   1.217  1.00  0.00     0.226 C 
HETATM    2  O1  UNL     1      -0.400   3.140   1.350  1.00  0.00    -0.286 OA
ENDROOT
BRANCH   1   3
HETATM    3  C4  UNL     1       0.487   0.919   1.513  1.00  0.00     0.171 C 
BRANCH   3   4
HETATM    4  S1  UNL     1       1.180   0.247   0.006  1.00  0.00    -0.084 SA
BRANCH   4   5
HETATM    5  C3  UNL     1       2.500  -0.891   0.245  1.00  0.00     0.163 A 
HETATM    6  N1  UNL     1       3.874  -0.659   0.270  1.00  0.00    -0.310 N 
HETATM    7  C11 UNL     1       4.454  -1.807   0.501  1.00  0.00     0.157 A 
HETATM    8  N8  UNL     1       3.460  -2.769   0.626  1.00  0.00    -0.281 N 
HETATM    9  N7  UNL     1       2.330  -2.191   0.468  1.00  0.00    -0.278 N 
ATOM     10  H8  UNL     1       3.606  -3.761   0.811  1.00  0.00     0.188 HD
ATOM     11  H7  UNL     1       1.426  -2.661   0.507  1.00  0.00     0.189 HD
BRANCH   6  12
HETATM   12  C2  UNL     1       4.304   0.688   0.078  1.00  0.00     0.128 C 
HETATM   13  C1  UNL     1       4.544   1.106  -1.335  1.00  0.00     0.027 C 
ENDBRANCH   6  12
BRANCH   7  14
HETATM   14  C12 UNL     1       5.858  -2.183   0.649  1.00  0.00     0.147 A 
HETATM   15  N9  UNL     1       6.183  -3.512   0.937  1.00  0.00    -0.234 N 
HETATM   16  O6  UNL     1       7.444  -3.615   0.963  1.00  0.00    -0.155 OA
ATOM     17  H9  UNL     1       5.518  -4.268   1.098  1.00  0.00     0.197 HD
HETATM   18  N10 UNL     1       8.026  -2.509   0.726  1.00  0.00    -0.224 N 
HETATM   19  C13 UNL     1       7.032  -1.541   0.513  1.00  0.00     0.154 A 
ATOM     20  H10 UNL     1       9.034  -2.354   0.696  1.00  0.00     0.198 HD
HETATM   21  N11 UNL     1       7.397  -0.397   0.252  1.00  0.00    -0.382 N 
ATOM     22 2H11 UNL     1       6.675   0.306   0.097  1.00  0.00     0.157 HD
ATOM     23 1H11 UNL     1       8.287   0.090   0.149  1.00  0.00     0.157 HD
ENDBRANCH   7  14
ENDBRANCH   4   5
ENDBRANCH   3   4
ENDBRANCH   1   3
BRANCH   1  24
HETATM   24  C6  UNL     1      -1.891   1.398   0.770  1.00  0.00     0.293 C 
HETATM   25  O2  UNL     1      -1.982   0.121   0.661  1.00  0.00    -0.264 OA
HETATM   26  N2  UNL     1      -3.009   2.214   0.464  1.00  0.00    -0.303 N 
ATOM     27  H2  UNL     1      -2.940   3.227   0.558  1.00  0.00     0.171 HD
BRANCH  26  28
HETATM   28  C7  UNL     1      -4.218   1.629   0.029  1.00  0.00     0.154 A 
HETATM   29  N3  UNL     1      -4.377   0.302  -0.109  1.00  0.00    -0.325 N 
HETATM   30  C8  UNL     1      -5.533  -0.238  -0.529  1.00  0.00     0.201 A 
ATOM     31  H3  UNL     1      -3.595  -0.315   0.112  1.00  0.00     0.168 HD
HETATM   32  C9  UNL     1      -6.622   0.529  -0.844  1.00  0.00     0.183 A 
HETATM   33  N5  UNL     1      -6.503   1.863  -0.718  1.00  0.00    -0.318 N 
HETATM   34  C10 UNL     1      -5.330   2.426  -0.291  1.00  0.00     0.146 A 
ATOM     35  H5  UNL     1      -7.297   2.463  -0.943  1.00  0.00     0.169 HD
BRANCH  30  36
HETATM   36  S2  UNL     1      -5.699  -1.984  -0.688  1.00  0.00     0.276 S 
HETATM   37  O3  UNL     1      -4.898  -2.652   0.365  1.00  0.00    -0.199 OA
HETATM   38  O4  UNL     1      -7.169  -2.336  -0.502  1.00  0.00    -0.199 OA
BRANCH  36  39
HETATM   39  N4  UNL     1      -5.163  -2.469  -2.273  1.00  0.00    -0.323 N 
ATOM     40  H42 UNL     1      -4.811  -1.830  -2.986  1.00  0.00     0.169 HD
ATOM     41  H41 UNL     1      -5.259  -3.480  -2.365  1.00  0.00     0.169 HD
ENDBRANCH  36  39
ENDBRANCH  30  36
BRANCH  32  42
HETATM   42  O5  UNL     1      -7.841  -0.021  -1.286  1.00  0.00    -0.344 OA
ATOM     43  H5  UNL     1      -8.597   0.511  -1.505  1.00  0.00     0.219 HD
ENDBRANCH  32  42
BRANCH  34  44
HETATM   44  N6  UNL     1      -5.210   3.662  -0.184  1.00  0.00    -0.382 N 
ATOM     45  H62 UNL     1      -4.336   4.081   0.134  1.00  0.00     0.157 HD
ATOM     46  H61 UNL     1      -6.017   4.241  -0.416  1.00  0.00     0.157 HD
ENDBRANCH  34  44
ENDBRANCH  26  28
ENDBRANCH   1  24
TORSDOF 11
