REMARK  7 active torsions:
REMARK  status: ('A' for Active; 'I' for Inactive)
REMARK    1  A    between atoms: O1_2  and  C2_3 
REMARK    2  A    between atoms: C2_3  and  C3_4 
REMARK    3  A    between atoms: C4_5  and  N1_6 
REMARK       I    between atoms: N1_6  and  C5_8 
REMARK    4  A    between atoms: C6_13  and  O2_14 
REMARK    5  A    between atoms: C7_16  and  N4_17 
REMARK    6  A    between atoms: N4_17  and  C8_18 
REMARK    7  A    between atoms: N5_22  and  N6_23 
ROOT
HETATM    1  C3  UNL     1      -1.055   0.464  -0.177  1.00  0.00     0.128 C 
HETATM    2  C4  UNL     1      -0.220   0.040   1.053  1.00  0.00     0.137 C 
HETATM    3  C6  UNL     1       1.185  -0.079   0.719  1.00  0.00     0.180 C 
HETATM    4  C7  UNL     1       1.542  -0.025  -0.709  1.00  0.00     0.216 C 
HETATM    5  C9  UNL     1       0.475  -0.499  -1.633  1.00  0.00     0.114 C 
HETATM    6  C10 UNL     1       0.738  -1.852  -2.276  1.00  0.00     0.031 C 
HETATM    7  N5  UNL     1      -0.885  -0.569  -1.145  1.00  0.00    -0.222 NA
ENDROOT
BRANCH   2   8
HETATM    8  N1  UNL     1      -0.616   0.944   2.091  1.00  0.00    -0.356 N 
HETATM    9  C5  UNL     1       0.023   2.247   2.159  1.00  0.00     0.182 C 
HETATM   10  N2  UNL     1       0.129   2.998   1.135  1.00  0.00    -0.374 N 
HETATM   11  N3  UNL     1       0.519   2.618   3.424  1.00  0.00    -0.064 NA
ATOM     12  H22 UNL     1      -0.230   2.729   0.219  1.00  0.00     0.158 HD
ATOM     13  H21 UNL     1       0.578   3.913   1.183  1.00  0.00     0.158 HD
ATOM     14  H1  UNL     1      -1.331   0.679   2.768  1.00  0.00     0.162 HD
ENDBRANCH   2   8
BRANCH   1  15
HETATM   15  C2  UNL     1      -2.448   0.659   0.340  1.00  0.00     0.190 C 
BRANCH  15  16
HETATM   16  O1  UNL     1      -2.996  -0.353   1.028  1.00  0.00    -0.394 OA
HETATM   17  C1  UNL     1      -3.222  -1.506   0.355  1.00  0.00     0.201 C 
ENDBRANCH  15  16
ENDBRANCH   1  15
BRANCH   3  18
HETATM   18  O2  UNL     1       2.017   0.776   1.488  1.00  0.00    -0.390 OA
ATOM     19  H2  UNL     1       2.938   0.698   1.269  1.00  0.00     0.210 HD
ENDBRANCH   3  18
BRANCH   7  20
HETATM   20  N6  UNL     1      -1.683  -0.394  -2.254  1.00  0.00    -0.362 NA
ATOM     21  H62 UNL     1      -2.642  -0.443  -1.910  1.00  0.00     0.171 HD
ATOM     22  H61 UNL     1      -1.561  -1.133  -2.946  1.00  0.00     0.171 HD
ENDBRANCH   7  20
BRANCH   4  23
HETATM   23  N4  UNL     1       2.811  -0.574  -1.079  1.00  0.00    -0.413 NA
BRANCH  23  24
HETATM   24  C8  UNL     1       3.995  -1.086  -1.423  1.00  0.00     0.435 C 
HETATM   25  O3  UNL     1       4.481  -2.232  -1.316  1.00  0.00    -0.269 OA
ENDBRANCH  23  24
ENDBRANCH   4  23
TORSDOF 7
