REMARK  12 active torsions:
REMARK  status: ('A' for Active; 'I' for Inactive)
REMARK    1  A    between atoms: C3_3  and  N1_4 
REMARK    2  A    between atoms: C7_10  and  C8_11 
REMARK    3  A    between atoms: C8_11  and  C9_12 
REMARK    4  A    between atoms: C9_12  and  C10_13 
REMARK    5  A    between atoms: C10_13  and  N2_14 
REMARK    6  A    between atoms: C13_23  and  C14_24 
REMARK    7  A    between atoms: C14_24  and  C15_25 
REMARK    8  A    between atoms: C15_25  and  C16_26 
REMARK    9  A    between atoms: C16_26  and  C17_27 
REMARK   10  A    between atoms: C17_27  and  N6_28 
REMARK   11  A    between atoms: C24_40  and  C25_41 
REMARK   12  A    between atoms: C26_42  and  C27_43 
ROOT
HETATM    1  C1  UNL     1       2.978  -0.633  -4.848  1.00  0.00     0.013 C 
HETATM    2  C2  UNL     1       2.279  -1.114  -3.980  1.00  0.00    -0.087 C 
HETATM    3  C3  UNL     1       1.394  -1.679  -2.929  1.00  0.00     0.366 C 
ENDROOT
BRANCH   3   4
HETATM    4  N1  UNL     1       1.725  -1.245  -1.603  1.00  0.00     0.118 N 
HETATM    5  C4  UNL     1       0.585  -1.586  -0.752  1.00  0.00     0.319 C 
HETATM    6  C5  UNL     1       0.425  -3.048  -0.668  1.00  0.00     0.054 C 
HETATM    7  C6  UNL     1      -0.662  -0.884  -1.243  1.00  0.00     0.293 C 
HETATM    8  O1  UNL     1      -0.348   0.280  -1.702  1.00  0.00    -0.263 OA
HETATM    9  O2  UNL     1      -1.848  -1.471  -1.168  1.00  0.00    -0.305 OA
HETATM   10  C7  UNL     1      -3.068  -1.365  -0.559  1.00  0.00     0.223 C 
HETATM   11  C12 UNL     1      -3.095  -1.080   0.885  1.00  0.00     0.248 C 
HETATM   12  O3  UNL     1      -2.752  -1.985   1.687  1.00  0.00    -0.271 OA
HETATM   13  N5  UNL     1      -3.476   0.141   1.499  1.00  0.00    -0.344 N 
HETATM   14  C13 UNL     1      -2.950   1.454   1.013  1.00  0.00     0.192 C 
ATOM     15  H5  UNL     1      -4.122   0.123   2.288  1.00  0.00     0.163 HD
HETATM   16  C18 UNL     1      -2.144   1.869   2.237  1.00  0.00     0.313 C 
HETATM   17  O4  UNL     1      -2.827   2.463   3.123  1.00  0.00    -0.255 OA
HETATM   18  N7  UNL     1      -0.852   1.583   2.280  1.00  0.00    -0.386 NA
HETATM   19  C19 UNL     1       0.314   1.351   2.314  1.00  0.00     0.163 C 
HETATM   20  C20 UNL     1       1.396   2.363   2.116  1.00  0.00     0.034 C 
HETATM   21  C21 UNL     1       0.783   3.730   2.199  1.00  0.00     0.016 C 
HETATM   22  C22 UNL     1       2.048   2.199   0.761  1.00  0.00     0.011 C 
HETATM   23  C23 UNL     1       3.154   1.172   0.788  1.00  0.00     0.009 C 
HETATM   24  C24 UNL     1       3.494   0.765  -0.600  1.00  0.00     0.015 C 
HETATM   25  C30 UNL     1       3.968  -0.680  -0.677  1.00  0.00     0.027 C 
HETATM   26  C31 UNL     1       5.211  -0.860  -1.481  1.00  0.00     0.007 C 
HETATM   27  C35 UNL     1       2.934  -1.682  -1.036  1.00  0.00     0.230 C 
HETATM   28  C32 UNL     1       5.916  -2.136  -1.062  1.00  0.00     0.001 C 
HETATM   29  C33 UNL     1       4.893  -3.207  -0.915  1.00  0.00     0.002 C 
HETATM   30  C34 UNL     1       3.657  -2.808  -1.757  1.00  0.00     0.036 C 
BRANCH  10  31
HETATM   31  C8  UNL     1      -3.946  -2.547  -0.913  1.00  0.00     0.044 C 
BRANCH  31  32
HETATM   32  C9  UNL     1      -3.446  -3.886  -0.546  1.00  0.00     0.023 C 
BRANCH  32  33
HETATM   33  C10 UNL     1      -4.412  -4.995  -0.956  1.00  0.00     0.122 C 
BRANCH  33  34
HETATM   34  N2  UNL     1      -5.694  -4.855  -0.342  1.00  0.00    -0.367 N 
HETATM   35  C11 UNL     1      -6.008  -5.490   0.711  1.00  0.00     0.196 C 
HETATM   36  N3  UNL     1      -7.282  -5.344   1.313  1.00  0.00    -0.067 NA
HETATM   37  N4  UNL     1      -5.080  -6.375   1.317  1.00  0.00    -0.067 NA
ATOM     38  H2  UNL     1      -6.378  -4.226  -0.763  1.00  0.00     0.161 HD
ENDBRANCH  33  34
ENDBRANCH  32  33
ENDBRANCH  31  32
ENDBRANCH  10  31
BRANCH  14  39
HETATM   39  C14 UNL     1      -4.147   2.333   0.852  1.00  0.00     0.036 C 
BRANCH  39  40
HETATM   40  C15 UNL     1      -3.949   3.686   0.301  1.00  0.00     0.004 C 
BRANCH  40  41
HETATM   41  C16 UNL     1      -3.087   4.655   1.004  1.00  0.00     0.027 C 
BRANCH  41  42
HETATM   42  C17 UNL     1      -3.006   5.990   0.246  1.00  0.00     0.229 C 
BRANCH  42  43
HETATM   43  N6  UNL     1      -4.280   6.615   0.087  1.00  0.00    -0.079 N 
ATOM     44  H63 UNL     1      -4.944   5.982  -0.358  1.00  0.00     0.274 HD
ATOM     45  H62 UNL     1      -4.743   6.734   0.988  1.00  0.00     0.274 HD
ATOM     46  H61 UNL     1      -4.226   7.501  -0.416  1.00  0.00     0.274 HD
ENDBRANCH  42  43
ENDBRANCH  41  42
ENDBRANCH  40  41
ENDBRANCH  39  40
ENDBRANCH  14  39
BRANCH  24  47
HETATM   47  C25 UNL     1       4.530   1.592  -1.204  1.00  0.00    -0.013 C 
HETATM   48  C26 UNL     1       5.303   2.544  -0.837  1.00  0.00     0.060 C 
BRANCH  48  49
HETATM   49  C27 UNL     1       5.479   3.229   0.393  1.00  0.00    -0.079 C 
HETATM   50  C28 UNL     1       5.641   3.841   1.432  1.00  0.00    -0.106 C 
HETATM   51  C29 UNL     1       5.810   4.565   2.687  1.00  0.00     0.112 C 
ENDBRANCH  48  49
ENDBRANCH  24  47
ENDBRANCH   3   4
TORSDOF 12
