REMARK  14 active torsions:
REMARK  status: ('A' for Active; 'I' for Inactive)
REMARK    1  A    between atoms: O1_2  and  C2_3 
REMARK    2  A    between atoms: C4_5  and  C5_6 
REMARK    3  A    between atoms: N1_7  and  N2_9 
REMARK    4  A    between atoms: N2_9  and  C6_11 
REMARK    5  A    between atoms: C7_14  and  N4_15 
REMARK    6  A    between atoms: N4_15  and  C8_17 
REMARK    7  A    between atoms: C8_17  and  C9_18 
REMARK    8  A    between atoms: C9_18  and  C10_19 
REMARK    9  A    between atoms: C10_19  and  N5_20 
REMARK   10  A    between atoms: C11_26  and  N7_27 
REMARK   11  A    between atoms: N7_27  and  C12_29 
REMARK   12  A    between atoms: C12_29  and  C13_30 
REMARK   13  A    between atoms: C13_30  and  C14_31 
REMARK   14  A    between atoms: C14_31  and  C15_32 
ROOT
HETATM    1  C6  UNL     1       2.419   0.486  -0.155  1.00  0.00     0.726 A 
HETATM    2  N3  UNL     1       2.883   1.734   0.003  1.00  0.00    -0.020 N 
ATOM      3  H3  UNL     1       3.873   1.877   0.203  1.00  0.00     0.203 HD
HETATM    4  C7  UNL     1       2.074   2.796  -0.096  1.00  0.00     0.707 A 
HETATM    5  N6  UNL     1       0.757   2.565  -0.364  1.00  0.00    -0.022 N 
ATOM      6  H6  UNL     1       0.122   3.359  -0.444  1.00  0.00     0.203 HD
HETATM    7  C11 UNL     1       0.271   1.321  -0.526  1.00  0.00     0.707 A 
HETATM    8  N8  UNL     1       1.104   0.293  -0.420  1.00  0.00    -0.020 N 
ATOM      9  H8  UNL     1       0.749  -0.656  -0.540  1.00  0.00     0.203 HD
ENDROOT
BRANCH   7  10
HETATM   10  N7  UNL     1      -0.963   1.146  -0.774  1.00  0.00    -0.225 N 
ATOM     11  H7  UNL     1      -1.561   1.970  -0.844  1.00  0.00     0.177 HD
BRANCH  10  12
HETATM   12  C12 UNL     1      -1.564  -0.144  -0.961  1.00  0.00     0.138 C 
BRANCH  12  13
HETATM   13  C13 UNL     1      -1.855  -0.773   0.414  1.00  0.00     0.025 C 
BRANCH  13  14
HETATM   14  C14 UNL     1      -2.474  -2.122   0.269  1.00  0.00     0.041 C 
BRANCH  14  15
HETATM   15  C15 UNL     1      -3.796  -1.993  -0.489  1.00  0.00    -0.044 A 
HETATM   16  C16 UNL     1      -3.844  -2.271  -1.837  1.00  0.00     0.057 A 
HETATM   17  S1  UNL     1      -5.464  -1.967  -2.244  1.00  0.00    -0.105 SA
HETATM   18  C17 UNL     1      -6.053  -1.499  -0.725  1.00  0.00    -0.003 A 
HETATM   19  C18 UNL     1      -4.953  -1.591   0.088  1.00  0.00    -0.037 A 
HETATM   20  C22 UNL     1      -7.395  -1.065  -0.219  1.00  0.00    -0.013 C 
HETATM   21  C19 UNL     1      -5.199  -1.240   1.554  1.00  0.00     0.040 C 
HETATM   22  C20 UNL     1      -5.992   0.046   1.564  1.00  0.00     0.006 C 
HETATM   23  C21 UNL     1      -7.337  -0.166   0.960  1.00  0.00     0.014 C 
HETATM   24  C23 UNL     1      -8.125  -2.339   0.164  1.00  0.00     0.020 C 
HETATM   25  C24 UNL     1      -8.142  -0.405  -1.370  1.00  0.00     0.020 C 
ENDBRANCH  14  15
ENDBRANCH  13  14
ENDBRANCH  12  13
ENDBRANCH  10  12
ENDBRANCH   7  10
BRANCH   4  26
HETATM   26  N4  UNL     1       2.472   4.022   0.044  1.00  0.00    -0.225 N 
ATOM     27  H4  UNL     1       1.802   4.786  -0.044  1.00  0.00     0.177 HD
BRANCH  26  28
HETATM   28  C8  UNL     1       3.856   4.310   0.324  1.00  0.00     0.139 C 
BRANCH  28  29
HETATM   29  C9  UNL     1       4.183   5.770   0.099  1.00  0.00     0.047 C 
BRANCH  29  30
HETATM   30  C10 UNL     1       3.354   6.670   0.984  1.00  0.00     0.231 C 
BRANCH  30  31
HETATM   31  N5  UNL     1       3.602   6.366   2.385  1.00  0.00    -0.079 N 
ATOM     32  H53 UNL     1       3.447   5.380   2.594  1.00  0.00     0.274 HD
ATOM     33  H52 UNL     1       4.594   6.415   2.615  1.00  0.00     0.274 HD
ATOM     34  H51 UNL     1       3.042   6.974   2.983  1.00  0.00     0.274 HD
ENDBRANCH  30  31
ENDBRANCH  29  30
ENDBRANCH  28  29
ENDBRANCH  26  28
ENDBRANCH   4  26
BRANCH   1  35
HETATM   35  N2  UNL     1       3.208  -0.526  -0.055  1.00  0.00    -0.131 N 
ATOM     36  H2  UNL     1       4.196  -0.375   0.146  1.00  0.00     0.205 HD
BRANCH  35  37
HETATM   37  N1  UNL     1       2.746  -1.787  -0.213  1.00  0.00    -0.297 N 
HETATM   38  C5  UNL     1       3.231  -2.910  -0.367  1.00  0.00     0.120 C 
ATOM     39  H1  UNL     1       1.727  -1.817  -0.202  1.00  0.00     0.186 HD
BRANCH  38  40
HETATM   40  C4  UNL     1       4.626  -3.282  -0.436  1.00  0.00     0.001 A 
HETATM   41  C3  UNL     1       5.680  -2.398  -0.340  1.00  0.00     0.052 A 
HETATM   42  C2  UNL     1       7.017  -2.808  -0.414  1.00  0.00     0.086 A 
HETATM   43  C27 UNL     1       7.328  -4.132  -0.589  1.00  0.00     0.045 A 
HETATM   44  C26 UNL     1       6.291  -5.009  -0.685  1.00  0.00     0.042 A 
HETATM   45 BR2  UNL     1       9.126  -4.758  -0.698  1.00  0.00    -0.048 Br
HETATM   46  C25 UNL     1       4.990  -4.626  -0.614  1.00  0.00     0.024 A 
HETATM   47 BR1  UNL     1       3.602  -5.928  -0.759  1.00  0.00    -0.050 Br
BRANCH  42  48
HETATM   48  O1  UNL     1       8.013  -1.862  -0.309  1.00  0.00    -0.355 OA
HETATM   49  C1  UNL     1       7.790  -0.495  -0.130  1.00  0.00     0.210 C 
ENDBRANCH  42  48
ENDBRANCH  38  40
ENDBRANCH  35  37
ENDBRANCH   1  35
TORSDOF 14
