REMARK  2 active torsions:
REMARK  status: ('A' for Active; 'I' for Inactive)
REMARK    1  A    between atoms: C1_1  and  C15_19 
REMARK    2  A    between atoms: C2_2  and  C3_3 
ROOT
HETATM    1  C3  UNL     1      -0.006  -1.337  -0.774  1.00  0.00     0.095 A 
HETATM    2  N1  UNL     1      -0.347  -2.413  -1.459  1.00  0.00    -0.358 N 
ATOM      3  H1  UNL     1       0.399  -3.014  -1.809  1.00  0.00     0.166 HD
HETATM    4  C4  UNL     1      -1.616  -2.763  -1.722  1.00  0.00     0.090 A 
HETATM    5  C5  UNL     1      -2.616  -1.941  -1.242  1.00  0.00     0.030 A 
HETATM    6  C6  UNL     1      -2.315  -0.808  -0.522  1.00  0.00    -0.012 A 
HETATM    7  C7  UNL     1      -1.004  -0.496  -0.281  1.00  0.00     0.006 A 
HETATM    8  C8  UNL     1      -0.573   0.682   0.471  1.00  0.00     0.162 A 
HETATM    9  N2  UNL     1      -1.650   1.502   0.947  1.00  0.00    -0.385 N 
ATOM     10  H2  UNL     1      -1.419   2.340   1.480  1.00  0.00     0.160 HD
HETATM   11  C9  UNL     1      -3.015   1.209   0.716  1.00  0.00     0.039 A 
HETATM   12  C10 UNL     1      -3.969   2.089   1.235  1.00  0.00     0.030 A 
HETATM   13  C11 UNL     1      -5.291   1.785   0.999  1.00  0.00     0.002 A 
HETATM   14  C12 UNL     1      -5.638   0.661   0.283  1.00  0.00     0.001 A 
HETATM   15  C13 UNL     1      -4.666  -0.215  -0.232  1.00  0.00     0.014 A 
HETATM   16  C14 UNL     1      -3.355   0.079  -0.003  1.00  0.00     0.001 A 
ENDROOT
BRANCH   1  17
HETATM   17  C2  UNL     1       1.388  -1.017  -0.526  1.00  0.00    -0.043 C 
HETATM   18  C1  UNL     1       2.543  -0.731  -0.325  1.00  0.00    -0.060 C 
BRANCH  18  19
HETATM   19  C15 UNL     1       3.919  -0.369  -0.069  1.00  0.00     0.018 A 
HETATM   20  C16 UNL     1       4.931  -1.284  -0.167  1.00  0.00     0.020 A 
HETATM   21  C17 UNL     1       6.231  -0.922   0.079  1.00  0.00     0.001 A 
HETATM   22  C18 UNL     1       6.556   0.392   0.436  1.00  0.00     0.000 A 
HETATM   23  C19 UNL     1       5.563   1.329   0.541  1.00  0.00     0.001 A 
HETATM   24  C20 UNL     1       4.265   0.930   0.287  1.00  0.00     0.020 A 
ENDBRANCH  18  19
ENDBRANCH   1  17
TORSDOF 2
