REMARK  7 active torsions:
REMARK  status: ('A' for Active; 'I' for Inactive)
REMARK    1  A    between atoms: N1_1  and  C1_5 
REMARK    2  A    between atoms: C1_5  and  C2_6 
REMARK    3  A    between atoms: C2_6  and  C3_7 
REMARK    4  A    between atoms: C3_7  and  N2_8 
REMARK    5  A    between atoms: C6_14  and  C7_15 
REMARK    6  A    between atoms: C7_15  and  C8_16 
REMARK    7  A    between atoms: C8_16  and  N4_17 
ROOT
HETATM    1  N2  UNL     1      -0.715  -1.001   0.321  1.00  0.00     0.092 N 
HETATM    2  C4  UNL     1      -0.490  -2.325  -0.241  1.00  0.00     0.300 C 
HETATM    3  C5  UNL     1       0.936  -2.739  -0.009  1.00  0.00     0.262 C 
HETATM    4  N3  UNL     1       1.717  -1.929  -0.919  1.00  0.00    -0.068 N 
ATOM      5  H31 UNL     1       1.427  -2.022  -1.893  1.00  0.00     0.277 HD
ATOM      6  H32 UNL     1       2.673  -2.264  -1.038  1.00  0.00     0.277 HD
HETATM    7  C6  UNL     1       1.643  -0.558  -0.423  1.00  0.00     0.215 C 
HETATM    8  C9  UNL     1       0.468  -0.212   0.377  1.00  0.00     0.305 C 
ENDROOT
BRANCH   1   9
HETATM    9  C3  UNL     1      -1.810  -0.345  -0.367  1.00  0.00     0.274 C 
BRANCH   9  10
HETATM   10  C2  UNL     1      -2.328   0.818   0.427  1.00  0.00     0.057 C 
BRANCH  10  11
HETATM   11  C1  UNL     1      -3.477   1.430  -0.404  1.00  0.00     0.231 C 
BRANCH  11  12
HETATM   12  N1  UNL     1      -3.996   2.542   0.349  1.00  0.00    -0.079 N 
ATOM     13  H13 UNL     1      -4.278   2.288   1.296  1.00  0.00     0.274 HD
ATOM     14  H12 UNL     1      -3.280   3.222   0.604  1.00  0.00     0.274 HD
ATOM     15  H11 UNL     1      -4.755   2.946  -0.200  1.00  0.00     0.274 HD
ENDBRANCH  11  12
ENDBRANCH  10  11
ENDBRANCH   9  10
ENDBRANCH   1   9
BRANCH   7  16
HETATM   16  C7  UNL     1       2.945  -0.368   0.344  1.00  0.00     0.062 C 
BRANCH  16  17
HETATM   17  C8  UNL     1       3.114   0.974   0.956  1.00  0.00     0.231 C 
BRANCH  17  18
HETATM   18  N4  UNL     1       3.119   2.085   0.050  1.00  0.00    -0.079 N 
ATOM     19  H43 UNL     1       3.828   1.941  -0.669  1.00  0.00     0.274 HD
ATOM     20  H42 UNL     1       2.273   2.069  -0.520  1.00  0.00     0.274 HD
ATOM     21  H41 UNL     1       3.235   3.007   0.470  1.00  0.00     0.274 HD
ENDBRANCH  17  18
ENDBRANCH  16  17
ENDBRANCH   7  16
TORSDOF 7
