REMARK  6 active torsions:
REMARK  status: ('A' for Active; 'I' for Inactive)
REMARK    1  A    between atoms: C6_7  and  C7_8 
REMARK    2  A    between atoms: C7_8  and  N1_9 
REMARK    3  A    between atoms: C7_8  and  C11_17 
REMARK    4  A    between atoms: N1_9  and  S1_11 
REMARK    5  A    between atoms: S1_11  and  C8_14 
REMARK       I    between atoms: C11_17  and  N2_19 
REMARK    6  A    between atoms: N2_19  and  C12_21 
ROOT
HETATM    1  C7  UNL     1      -0.293  -0.830  -0.709  1.00  0.00     0.219 C 
ENDROOT
BRANCH   1   2
HETATM    2  C6  UNL     1      -0.635  -0.062   0.508  1.00  0.00    -0.004 A 
HETATM    3  C5  UNL     1      -0.323  -0.466   1.775  1.00  0.00     0.043 A 
HETATM    4  C4  UNL     1      -0.612   0.281   2.889  1.00  0.00     0.025 A 
HETATM    5 CL1  UNL     1       0.454  -2.020   2.028  1.00  0.00    -0.084 Cl
HETATM    6  C3  UNL     1      -1.255   1.503   2.708  1.00  0.00     0.008 A 
HETATM    7  C2  UNL     1      -1.575   1.919   1.429  1.00  0.00    -0.061 A 
HETATM    8  C1  UNL     1      -2.265   3.240   1.311  1.00  0.00     0.048 C 
HETATM    9  C17 UNL     1      -1.278   1.165   0.334  1.00  0.00     0.018 A 
ENDBRANCH   1   2
BRANCH   1  10
HETATM   10  N1  UNL     1      -1.096  -2.034  -0.754  1.00  0.00    -0.301 N 
ATOM     11  H1  UNL     1      -1.046  -2.738  -0.018  1.00  0.00     0.173 HD
BRANCH  10  12
HETATM   12  S1  UNL     1      -2.119  -2.215  -2.083  1.00  0.00     0.231 S 
HETATM   13  O1  UNL     1      -1.396  -2.283  -3.406  1.00  0.00    -0.206 OA
HETATM   14  O2  UNL     1      -2.924  -3.503  -1.980  1.00  0.00    -0.206 OA
BRANCH  12  15
HETATM   15  C8  UNL     1      -3.325  -0.888  -2.100  1.00  0.00     0.121 C 
HETATM   16  C9  UNL     1      -4.190  -1.012  -3.351  1.00  0.00     0.027 C 
HETATM   17  C10 UNL     1      -4.247  -0.957  -0.927  1.00  0.00     0.027 C 
ENDBRANCH  12  15
ENDBRANCH  10  12
ENDBRANCH   1  10
BRANCH   1  18
HETATM   18  C11 UNL     1       1.150  -1.151  -0.708  1.00  0.00     0.246 C 
HETATM   19  O3  UNL     1       1.494  -2.238  -1.251  1.00  0.00    -0.271 OA
HETATM   20  N2  UNL     1       2.092  -0.315  -0.152  1.00  0.00    -0.354 N 
ATOM     21  H2  UNL     1       1.748   0.539   0.287  1.00  0.00     0.162 HD
BRANCH  20  22
HETATM   22  C12 UNL     1       3.530  -0.531  -0.130  1.00  0.00     0.084 C 
HETATM   23  C13 UNL     1       4.077  -0.515   1.264  1.00  0.00     0.025 C 
HETATM   24  C14 UNL     1       4.876   0.765   1.441  1.00  0.00     0.002 C 
HETATM   25  C15 UNL     1       5.213   1.241   0.072  1.00  0.00     0.002 C 
HETATM   26  C16 UNL     1       4.191   0.637  -0.825  1.00  0.00     0.025 C 
ENDBRANCH  20  22
ENDBRANCH   1  18
TORSDOF 6
