REMARK  8 active torsions:
REMARK  status: ('A' for Active; 'I' for Inactive)
REMARK    1  A    between atoms: C2_2  and  C4_4 
REMARK    2  A    between atoms: C4_4  and  C5_5 
REMARK    3  A    between atoms: C5_5  and  O1_6 
REMARK    4  A    between atoms: C5_5  and  C6_8 
REMARK    5  A    between atoms: C5_5  and  N3_21 
REMARK    6  A    between atoms: C10_13  and  C11_14 
REMARK    7  A    between atoms: C11_14  and  N1_15 
REMARK    8  A    between atoms: N1_15  and  C13_17 
ROOT
HETATM    1  C6  UNL     1      -0.234  -0.591  -0.607  1.00  0.00     0.009 A 
HETATM    2  C7  UNL     1      -0.014  -1.324  -1.751  1.00  0.00     0.036 A 
HETATM    3  C8  UNL     1       1.243  -1.778  -2.050  1.00  0.00     0.035 A 
HETATM    4 CL1  UNL     1       1.571  -2.719  -3.507  1.00  0.00    -0.084 Cl
HETATM    5  C9  UNL     1       2.339  -1.529  -1.231  1.00  0.00     0.032 A 
HETATM    6  C10 UNL     1       2.146  -0.806  -0.095  1.00  0.00    -0.038 A 
HETATM    7  C14 UNL     1       0.846  -0.351   0.191  1.00  0.00     0.021 A 
ENDROOT
BRANCH   1   8
HETATM    8  C5  UNL     1      -1.605  -0.088  -0.266  1.00  0.00     0.287 C 
BRANCH   8   9
HETATM    9  C4  UNL     1      -1.563   1.048   0.710  1.00  0.00     0.081 C 
BRANCH   9  10
HETATM   10  C2  UNL     1      -0.895   2.283   0.205  1.00  0.00    -0.018 C 
HETATM   11  C1  UNL     1      -0.946   3.311   1.339  1.00  0.00     0.009 C 
HETATM   12  C3  UNL     1      -1.749   2.888  -0.915  1.00  0.00     0.009 C 
ENDBRANCH   9  10
ENDBRANCH   8   9
BRANCH   8  13
HETATM   13  O1  UNL     1      -2.267   0.204  -1.424  1.00  0.00    -0.359 OA
ATOM     14  H1  UNL     1      -2.294  -0.516  -2.043  1.00  0.00     0.213 HD
ENDBRANCH   8  13
BRANCH   8  15
HETATM   15  N3  UNL     1      -2.308  -1.187   0.383  1.00  0.00     0.128 N 
HETATM   16  C15 UNL     1      -2.615  -2.275  -0.476  1.00  0.00     0.277 C 
HETATM   17  C16 UNL     1      -3.633  -3.069   0.335  1.00  0.00     0.032 C 
HETATM   18  C17 UNL     1      -4.484  -1.987   0.934  1.00  0.00     0.032 C 
HETATM   19  C18 UNL     1      -3.590  -0.782   0.894  1.00  0.00     0.277 C 
ENDBRANCH   8  15
ENDBRANCH   1   8
BRANCH   6  20
HETATM   20  C11 UNL     1       3.235  -0.474   0.846  1.00  0.00     0.162 C 
BRANCH  20  21
HETATM   21  N1  UNL     1       4.467  -0.019   0.272  1.00  0.00    -0.361 N 
HETATM   22  C12 UNL     1       5.359  -0.955  -0.360  1.00  0.00     0.152 C 
BRANCH  21  23
HETATM   23  C13 UNL     1       4.830   1.348   0.298  1.00  0.00     0.183 C 
HETATM   24  N2  UNL     1       3.968   2.292   0.895  1.00  0.00    -0.070 NA
HETATM   25  S1  UNL     1       6.226   1.837  -0.352  1.00  0.00    -0.044 SA
ENDBRANCH  21  23
ENDBRANCH  20  21
ENDBRANCH   6  20
TORSDOF 8
