REMARK  6 active torsions:
REMARK  status: ('A' for Active; 'I' for Inactive)
REMARK       I    between atoms: C1_2  and  N1_3 
REMARK       I    between atoms: C1_2  and  N3_17 
REMARK    1  A    between atoms: N1_3  and  C2_5 
REMARK    2  A    between atoms: C2_5  and  C3_6 
REMARK       I    between atoms: C3_6  and  N2_8 
REMARK    3  A    between atoms: C7_12  and  C8_13 
REMARK    4  A    between atoms: C8_13  and  C9_14 
REMARK    5  A    between atoms: C9_14  and  C10_15 
REMARK    6  A    between atoms: N3_17  and  C11_19 
ROOT
HETATM    1  O1  UNL     1      -1.341  -0.518  -1.370  1.00  0.00    -0.247 OA
HETATM    2  C1  UNL     1      -1.106   0.140  -0.302  1.00  0.00     0.317 C 
HETATM    3  N1  UNL     1       0.247   0.347   0.038  1.00  0.00    -0.334 N 
ATOM      4  H1  UNL     1       0.467   0.868   0.887  1.00  0.00     0.164 HD
HETATM    5  N3  UNL     1      -2.158   0.639   0.507  1.00  0.00    -0.334 N 
ATOM      6  H3  UNL     1      -1.898   1.158   1.346  1.00  0.00     0.165 HD
ENDROOT
BRANCH   3   7
HETATM    7  C2  UNL     1       1.318  -0.147  -0.763  1.00  0.00     0.227 C 
BRANCH   7   8
HETATM    8  C3  UNL     1       2.650   0.196  -0.204  1.00  0.00     0.237 C 
HETATM    9  O2  UNL     1       2.662   0.852   0.862  1.00  0.00    -0.272 OA
HETATM   10  N2  UNL     1       3.802  -0.221  -0.878  1.00  0.00    -0.346 N 
HETATM   11  C4  UNL     1       3.848  -0.987  -2.111  1.00  0.00     0.126 C 
HETATM   12  C7  UNL     1       5.236  -0.040  -0.583  1.00  0.00     0.087 C 
HETATM   13  C5  UNL     1       4.842  -2.075  -1.732  1.00  0.00     0.022 C 
HETATM   14  C6  UNL     1       5.674  -1.472  -0.578  1.00  0.00     0.027 C 
BRANCH  12  15
HETATM   15  C8  UNL     1       5.449   0.759   0.629  1.00  0.00     0.026 C 
BRANCH  15  16
HETATM   16  C9  UNL     1       6.821   1.052   1.059  1.00  0.00     0.017 C 
BRANCH  16  17
HETATM   17  C10 UNL     1       7.734  -0.045   1.444  1.00  0.00     0.115 C 
HETATM   18 CL1  UNL     1       7.122  -1.018   2.804  1.00  0.00    -0.130 Cl
ENDBRANCH  16  17
ENDBRANCH  15  16
ENDBRANCH  12  15
ENDBRANCH   7   8
ENDBRANCH   3   7
BRANCH   5  19
HETATM   19  C11 UNL     1      -3.551   0.475   0.245  1.00  0.00     0.035 C 
HETATM   20  C12 UNL     1      -3.927  -0.976   0.225  1.00  0.00     0.035 C 
HETATM   21  C13 UNL     1      -5.399  -1.179  -0.063  1.00  0.00    -0.012 C 
HETATM   22  C14 UNL     1      -5.697  -0.573  -1.407  1.00  0.00     0.009 C 
HETATM   23  C18 UNL     1      -6.186  -0.566   1.054  1.00  0.00     0.009 C 
HETATM   24  C15 UNL     1      -5.421   0.911  -1.305  1.00  0.00    -0.012 C 
HETATM   25  C16 UNL     1      -6.302   1.501  -0.241  1.00  0.00     0.009 C 
HETATM   26  C20 UNL     1      -3.962   1.122  -1.075  1.00  0.00     0.035 C 
HETATM   27  C17 UNL     1      -5.847   0.918   1.089  1.00  0.00    -0.012 C 
HETATM   28  C19 UNL     1      -4.387   1.145   1.315  1.00  0.00     0.035 C 
ENDBRANCH   5  19
TORSDOF 6
