REMARK  6 active torsions:
REMARK  status: ('A' for Active; 'I' for Inactive)
REMARK    1  A    between atoms: O1_2  and  C2_3 
REMARK    2  A    between atoms: C5_6  and  S1_7 
REMARK    3  A    between atoms: C6_8  and  C7_9 
REMARK    4  A    between atoms: C7_9  and  O2_10 
REMARK    5  A    between atoms: C9_12  and  C10_13 
REMARK    6  A    between atoms: C11_15  and  N1_16 
REMARK       I    between atoms: N1_16  and  C12_18 
ROOT
HETATM    1  S1  UNL     1      -0.678   0.397  -1.253  1.00  0.00    -0.165 SA
HETATM    2  C6  UNL     1      -1.611  -0.934  -0.532  1.00  0.00     0.078 C 
HETATM    3  C9  UNL     1      -2.549   0.139   0.034  1.00  0.00     0.094 C 
HETATM    4  C11 UNL     1      -1.278   0.953   0.315  1.00  0.00     0.152 C 
ENDROOT
BRANCH   1   5
HETATM    5  C5  UNL     1       1.058   0.107  -1.342  1.00  0.00     0.144 C 
HETATM    6  C4  UNL     1       1.701  -0.120  -0.013  1.00  0.00     0.081 C 
HETATM    7  C3  UNL     1       3.127   0.251  -0.292  1.00  0.00     0.034 C 
HETATM    8  C2  UNL     1       4.223  -0.246   0.248  1.00  0.00     0.146 C 
HETATM    9  C13 UNL     1       3.025   1.296  -1.305  1.00  0.00     0.250 C 
HETATM   10  N3  UNL     1       1.702   1.309  -1.825  1.00  0.00    -0.344 N 
HETATM   11  O5  UNL     1       4.004   2.037  -1.621  1.00  0.00    -0.268 OA
ATOM     12  H3  UNL     1       1.288   2.025  -2.422  1.00  0.00     0.164 HD
BRANCH   8  13
HETATM   13  O1  UNL     1       4.229  -1.240   1.207  1.00  0.00    -0.367 OA
HETATM   14  C1  UNL     1       5.106  -1.231   2.318  1.00  0.00     0.208 C 
ENDBRANCH   8  13
ENDBRANCH   1   5
BRANCH   2  15
HETATM   15  C7  UNL     1      -2.261  -1.840  -1.538  1.00  0.00     0.182 C 
BRANCH  15  16
HETATM   16  O2  UNL     1      -2.949  -2.822  -0.853  1.00  0.00    -0.395 OA
HETATM   17  C8  UNL     1      -3.561  -3.676  -1.743  1.00  0.00     0.201 C 
ENDBRANCH  15  16
ENDBRANCH   2  15
BRANCH   4  18
HETATM   18  N1  UNL     1      -1.495   2.360   0.416  1.00  0.00    -0.332 N 
HETATM   19  C12 UNL     1      -1.088   3.085   1.562  1.00  0.00     0.329 C 
HETATM   20  N2  UNL     1      -1.290   4.490   1.696  1.00  0.00    -0.040 NA
HETATM   21  O4  UNL     1      -0.526   2.473   2.505  1.00  0.00    -0.251 OA
ATOM     22  H1  UNL     1      -1.952   2.852  -0.352  1.00  0.00     0.165 HD
ENDBRANCH   4  18
BRANCH   3  23
HETATM   23  C10 UNL     1      -3.295  -0.268   1.231  1.00  0.00     0.239 C 
HETATM   24  O3  UNL     1      -2.762  -1.000   2.043  1.00  0.00    -0.306 OA
ENDBRANCH   3  23
TORSDOF 6
