REMARK  10 active torsions:
REMARK  status: ('A' for Active; 'I' for Inactive)
REMARK    1  A    between atoms: C2_2  and  N1_3 
REMARK    2  A    between atoms: N1_3  and  C3_4 
REMARK       I    between atoms: N1_3  and  C5_6 
REMARK    3  A    between atoms: N3_8  and  C6_10 
REMARK    4  A    between atoms: C7_11  and  O1_12 
REMARK    5  A    between atoms: C8_14  and  O2_15 
REMARK    6  A    between atoms: C9_17  and  C10_18 
REMARK    7  A    between atoms: C10_18  and  O3_19 
REMARK    8  A    between atoms: N4_22  and  C13_24 
REMARK    9  A    between atoms: C13_24  and  C14_25 
REMARK   10  A    between atoms: C14_25  and  C15_26 
ROOT
HETATM    1  C6  UNL     1      -0.549   0.496  -1.137  1.00  0.00     0.322 C 
HETATM    2  C7  UNL     1      -0.778  -0.522  -2.222  1.00  0.00     0.198 C 
HETATM    3  C8  UNL     1      -1.328  -1.823  -1.745  1.00  0.00     0.158 C 
HETATM    4  C9  UNL     1      -2.494  -1.618  -0.834  1.00  0.00     0.067 C 
HETATM    5  C11 UNL     1      -2.302  -0.505   0.139  1.00  0.00     0.249 C 
HETATM    6  N4  UNL     1      -1.810   0.718  -0.423  1.00  0.00    -0.047 N 
HETATM    7  C12 UNL     1      -2.728   1.261  -1.425  1.00  0.00     0.275 C 
ENDROOT
BRANCH   1   8
HETATM    8  N3  UNL     1       0.552   0.212  -0.290  1.00  0.00    -0.334 N 
HETATM    9  C5  UNL     1       1.667   0.841  -0.247  1.00  0.00     0.188 C 
HETATM   10  N1  UNL     1       2.724   0.490   0.636  1.00  0.00    -0.356 N 
HETATM   11  N2  UNL     1       1.897   1.957  -1.112  1.00  0.00    -0.064 NA
ATOM     12  H3  UNL     1       0.445  -0.574   0.351  1.00  0.00     0.164 HD
BRANCH  10  13
HETATM   13  C2  UNL     1       4.058   0.283   0.162  1.00  0.00     0.121 C 
HETATM   14  C1  UNL     1       4.217   0.468  -1.327  1.00  0.00     0.026 C 
ENDBRANCH  10  13
BRANCH  10  15
HETATM   15  C3  UNL     1       2.490   0.329   2.055  1.00  0.00     0.121 C 
HETATM   16  C4  UNL     1       2.655  -1.137   2.423  1.00  0.00     0.026 C 
ENDBRANCH  10  15
ENDBRANCH   1   8
BRANCH   2  17
HETATM   17  O1  UNL     1       0.362  -0.696  -2.976  1.00  0.00    -0.389 OA
ATOM     18  H1  UNL     1       0.217  -1.338  -3.661  1.00  0.00     0.210 HD
ENDBRANCH   2  17
BRANCH   6  19
HETATM   19  C13 UNL     1      -1.646   1.721   0.575  1.00  0.00     0.246 C 
BRANCH  19  20
HETATM   20  C14 UNL     1      -1.757   1.241   1.998  1.00  0.00     0.097 C 
BRANCH  20  21
HETATM   21  C15 UNL     1      -1.561   2.424   2.880  1.00  0.00     0.232 C 
HETATM   22  O4  UNL     1      -0.478   2.905   3.159  1.00  0.00    -0.307 OA
ENDBRANCH  20  21
ENDBRANCH  19  20
ENDBRANCH   6  19
BRANCH   3  23
HETATM   23  O2  UNL     1      -0.374  -2.690  -1.227  1.00  0.00    -0.392 OA
ATOM     24  H2  UNL     1      -0.724  -3.519  -0.923  1.00  0.00     0.210 HD
ENDBRANCH   3  23
BRANCH   4  25
HETATM   25  C10 UNL     1      -2.798  -2.873  -0.010  1.00  0.00     0.173 C 
BRANCH  25  26
HETATM   26  O3  UNL     1      -1.739  -3.246   0.778  1.00  0.00    -0.400 OA
ATOM     27  H3  UNL     1      -1.928  -4.024   1.289  1.00  0.00     0.209 HD
ENDBRANCH  25  26
ENDBRANCH   4  25
TORSDOF 10
