REMARK  6 active torsions:
REMARK  status: ('A' for Active; 'I' for Inactive)
REMARK    1  A    between atoms: C2_2  and  N1_3 
REMARK    2  A    between atoms: C2_2  and  C8_11 
REMARK    3  A    between atoms: N1_3  and  C3_6 
REMARK    4  A    between atoms: C3_6  and  C4_7 
REMARK       I    between atoms: C8_11  and  N2_13 
REMARK    5  A    between atoms: N2_13  and  C9_15 
REMARK    6  A    between atoms: C9_15  and  C10_16 
ROOT
HETATM    1  C8  UNL     1       0.379  -0.506   0.231  1.00  0.00     0.248 C 
HETATM    2  O1  UNL     1       0.586   0.729   0.285  1.00  0.00    -0.271 OA
HETATM    3  N2  UNL     1       1.340  -1.500   0.089  1.00  0.00    -0.350 N 
ATOM      4  H2  UNL     1       1.018  -2.467   0.067  1.00  0.00     0.163 HD
ENDROOT
BRANCH   1   5
HETATM    5  C2  UNL     1      -1.097  -0.865   0.339  1.00  0.00     0.273 C 
HETATM    6  C1  UNL     1      -1.495  -1.684  -0.860  1.00  0.00     0.050 C 
BRANCH   5   7
HETATM    7  N1  UNL     1      -1.914   0.319   0.483  1.00  0.00    -0.062 N 
ATOM      8  H12 UNL     1      -1.562   0.934   1.216  1.00  0.00     0.278 HD
ATOM      9  H11 UNL     1      -1.808   0.951  -0.311  1.00  0.00     0.278 HD
BRANCH   7  10
HETATM   10  C3  UNL     1      -3.281  -0.035   0.699  1.00  0.00     0.242 C 
BRANCH  10  11
HETATM   11  C4  UNL     1      -4.185   1.158   0.860  1.00  0.00    -0.020 A 
HETATM   12  C5  UNL     1      -3.901   2.113   1.998  1.00  0.00     0.017 C 
HETATM   13  C6  UNL     1      -5.636   1.013   0.515  1.00  0.00     0.011 A 
HETATM   14  C7  UNL     1      -4.766   1.752  -0.409  1.00  0.00     0.011 A 
ENDBRANCH  10  11
ENDBRANCH   7  10
ENDBRANCH   5   7
ENDBRANCH   1   5
BRANCH   3  15
HETATM   15  C9  UNL     1       2.760  -1.267  -0.030  1.00  0.00     0.040 A 
HETATM   16  C14 UNL     1       3.379  -1.050   1.339  1.00  0.00     0.034 A 
HETATM   17  C15 UNL     1       3.557  -2.354   0.620  1.00  0.00     0.034 A 
BRANCH  15  18
HETATM   18  C10 UNL     1       3.281  -0.546  -1.214  1.00  0.00     0.056 A 
HETATM   19  C11 UNL     1       3.066   0.898  -1.536  1.00  0.00     0.054 A 
HETATM   20  C12 UNL     1       4.477   0.204  -1.449  1.00  0.00     0.106 A 
HETATM   21  C13 UNL     1       5.372   0.896  -0.492  1.00  0.00     0.052 C 
HETATM   22  F1  UNL     1       5.109   0.088  -2.711  1.00  0.00    -0.243 F 
ENDBRANCH  15  18
ENDBRANCH   3  15
TORSDOF 6
