REMARK  6 active torsions:
REMARK  status: ('A' for Active; 'I' for Inactive)
REMARK    1  A    between atoms: C1_2  and  C2_3 
REMARK       I    between atoms: C1_2  and  N1_13 
REMARK    2  A    between atoms: C2_3  and  C3_4 
REMARK    3  A    between atoms: C3_4  and  C4_5 
REMARK    4  A    between atoms: N1_13  and  C10_15 
REMARK    5  A    between atoms: C10_15  and  C11_16 
REMARK    6  A    between atoms: C11_16  and  C12_17 
ROOT
HETATM    1  O1  UNL     1       0.482   0.368   0.370  1.00  0.00    -0.274 OA
HETATM    2  C1  UNL     1       0.287  -0.788  -0.056  1.00  0.00     0.218 C 
HETATM    3  N1  UNL     1       1.377  -1.572  -0.461  1.00  0.00    -0.361 N 
ATOM      4  H1  UNL     1       1.218  -2.519  -0.806  1.00  0.00     0.162 HD
ENDROOT
BRANCH   2   5
HETATM    5  C2  UNL     1      -1.069  -1.322  -0.133  1.00  0.00     0.123 C 
BRANCH   5   6
HETATM    6  C3  UNL     1      -2.167  -0.409   0.303  1.00  0.00     0.056 C 
HETATM    7  C5  UNL     1      -2.038   0.098   1.694  1.00  0.00     0.021 C 
HETATM    8  C6  UNL     1      -2.287   1.591   1.816  1.00  0.00     0.001 C 
HETATM    9  C7  UNL     1      -3.641   1.889   1.211  1.00  0.00     0.000 C 
HETATM   10  C8  UNL     1      -3.620   1.466  -0.228  1.00  0.00     0.001 C 
HETATM   11  C9  UNL     1      -2.314   0.797  -0.623  1.00  0.00     0.021 C 
BRANCH   6  12
HETATM   12  C4  UNL     1      -3.437  -1.173   0.140  1.00  0.00     0.182 C 
HETATM   13  O2  UNL     1      -4.132  -1.373   1.163  1.00  0.00    -0.647 OA
HETATM   14  O3  UNL     1      -3.831  -1.647  -1.120  1.00  0.00    -0.647 OA
ENDBRANCH   6  12
ENDBRANCH   5   6
ENDBRANCH   2   5
BRANCH   3  15
HETATM   15  C10 UNL     1       2.717  -1.053  -0.394  1.00  0.00     0.123 C 
BRANCH  15  16
HETATM   16  C11 UNL     1       2.991   0.144  -1.219  1.00  0.00     0.027 C 
BRANCH  16  17
HETATM   17  C12 UNL     1       4.403   0.650  -1.121  1.00  0.00     0.024 A 
HETATM   18  C13 UNL     1       5.467  -0.375  -1.564  1.00  0.00     0.045 A 
HETATM   19  C14 UNL     1       5.377   0.130  -0.163  1.00  0.00     0.174 A 
HETATM   20  F1  UNL     1       6.382   0.991   0.250  1.00  0.00    -0.249 F 
ENDBRANCH  16  17
ENDBRANCH  15  16
ENDBRANCH   3  15
TORSDOF 6
