REMARK  1 active torsions:
REMARK  status: ('A' for Active; 'I' for Inactive)
REMARK    1  A    between atoms: C2_2  and  O1_3 
ROOT
HETATM    1  C1  UNL     1      -1.730   1.732   0.082  1.00  0.00     0.084 C 
HETATM    2  C2  UNL     1      -1.480   0.308  -0.429  1.00  0.00     0.206 C 
HETATM    3  O2  UNL     1      -0.342   0.416  -1.287  1.00  0.00    -0.308 OA
HETATM    4  C3  UNL     1       0.956   0.254  -0.826  1.00  0.00     0.109 A 
HETATM    5  C4  UNL     1       2.037   0.944  -1.282  1.00  0.00     0.041 A 
HETATM    6  C5  UNL     1       3.312   0.733  -0.777  1.00  0.00     0.030 A 
HETATM    7  C6  UNL     1       3.484  -0.206   0.218  1.00  0.00     0.075 A 
HETATM    8 CL1  UNL     1       5.063  -0.537   0.914  1.00  0.00    -0.081 Cl
HETATM    9  C7  UNL     1       2.370  -0.914   0.685  1.00  0.00     0.174 A 
HETATM   10  F1  UNL     1       2.508  -1.847   1.665  1.00  0.00    -0.201 F 
HETATM   11  C8  UNL     1       1.126  -0.698   0.182  1.00  0.00     0.144 A 
HETATM   12  O3  UNL     1      -0.025  -1.356   0.589  1.00  0.00    -0.317 OA
HETATM   13  C9  UNL     1      -1.282  -0.667   0.679  1.00  0.00     0.177 C 
HETATM   14  C10 UNL     1      -2.348  -1.724   0.752  1.00  0.00     0.065 C 
HETATM   15 BR1  UNL     1      -1.352   0.334   2.357  1.00  0.00    -0.048 Br
ENDROOT
BRANCH   2  16
HETATM   16  O1  UNL     1      -2.613  -0.042  -1.171  1.00  0.00    -0.362 OA
ATOM     17  H1  UNL     1      -2.458  -0.924  -1.488  1.00  0.00     0.213 HD
ENDBRANCH   2  16
TORSDOF 1
