REMARK  5 active torsions:
REMARK  status: ('A' for Active; 'I' for Inactive)
REMARK    1  A    between atoms: N1_2  and  C2_4 
REMARK    2  A    between atoms: C5_7  and  N2_8 
REMARK    3  A    between atoms: C6_13  and  C7_14 
REMARK    4  A    between atoms: C8_15  and  C9_16 
REMARK    5  A    between atoms: C9_16  and  N4_17 
ROOT
HETATM    1  C2  UNL     1       3.368  -0.636   0.700  1.00  0.00     0.101 A 
HETATM    2  C3  UNL     1       3.231   0.027  -0.493  1.00  0.00     0.062 A 
HETATM    3  C4  UNL     1       1.941   0.435  -0.881  1.00  0.00     0.004 A 
HETATM    4  C5  UNL     1       1.806   1.121  -2.117  1.00  0.00     0.119 C 
HETATM    5  C6  UNL     1       0.885   0.156  -0.059  1.00  0.00     0.044 A 
HETATM    6  C13 UNL     1       1.086  -0.525   1.149  1.00  0.00     0.111 A 
HETATM    7  N6  UNL     1       2.329  -0.909   1.505  1.00  0.00    -0.351 N 
ATOM      8  H6  UNL     1       2.479  -1.405   2.383  1.00  0.00     0.166 HD
ENDROOT
BRANCH   5   9
HETATM    9  C7  UNL     1      -0.471   0.514  -0.335  1.00  0.00    -0.063 C 
HETATM   10  C8  UNL     1      -1.619   0.801  -0.540  1.00  0.00    -0.081 C 
BRANCH  10  11
HETATM   11  C9  UNL     1      -3.019   1.160  -0.815  1.00  0.00     0.223 C 
BRANCH  11  12
HETATM   12  N4  UNL     1      -3.828   0.306   0.011  1.00  0.00    -0.341 N 
HETATM   13  C10 UNL     1      -4.240   0.571   1.255  1.00  0.00     0.110 A 
HETATM   14  C11 UNL     1      -5.001  -0.485   1.733  1.00  0.00     0.106 A 
HETATM   15  N5  UNL     1      -5.032  -1.388   0.740  1.00  0.00    -0.361 N 
HETATM   16  C12 UNL     1      -4.312  -0.899  -0.313  1.00  0.00     0.183 A 
ATOM     17  H5  UNL     1      -5.512  -2.287   0.767  1.00  0.00     0.166 HD
ENDBRANCH  11  12
ENDBRANCH  10  11
ENDBRANCH   5   9
BRANCH   4  18
HETATM   18  N2  UNL     1       0.719   1.530  -2.563  1.00  0.00    -0.318 N 
HETATM   19  N3  UNL     1       0.003   2.117  -3.449  1.00  0.00    -0.345 N 
ATOM     20  H32 UNL     1       0.708   2.377  -4.139  1.00  0.00     0.176 HD
ATOM     21  H31 UNL     1      -0.888   2.452  -3.815  1.00  0.00     0.176 HD
ATOM     22  H2  UNL     1       0.044   1.253  -1.850  1.00  0.00     0.185 HD
ENDBRANCH   4  18
BRANCH   1  23
HETATM   23  N1  UNL     1       4.540  -1.020   1.077  1.00  0.00    -0.381 N 
HETATM   24  C1  UNL     1       5.716  -0.752   0.242  1.00  0.00     0.147 C 
ATOM     25  H1  UNL     1       4.650  -1.514   1.963  1.00  0.00     0.160 HD
ENDBRANCH   1  23
TORSDOF 5
