REMARK  3 active torsions:
REMARK  status: ('A' for Active; 'I' for Inactive)
REMARK       I    between atoms: N1_2  and  C2_4 
REMARK       I    between atoms: C2_4  and  N2_6 
REMARK    1  A    between atoms: N2_6  and  C3_8 
REMARK    2  A    between atoms: C11_16  and  C12_17 
REMARK    3  A    between atoms: C12_17  and  N3_18 
REMARK       I    between atoms: N3_18  and  C13_20 
REMARK       I    between atoms: C13_20  and  N4_22 
ROOT
HETATM    1  C3  UNL     1       1.840  -0.237   0.119  1.00  0.00     0.037 C 
HETATM    2  C4  UNL     1       2.800  -0.885  -0.856  1.00  0.00     0.033 C 
HETATM    3  C5  UNL     1       2.722  -2.378  -0.891  1.00  0.00     0.034 C 
HETATM    4  C6  UNL     1       1.344  -2.938  -0.754  1.00  0.00     0.123 C 
HETATM    5  C7  UNL     1       1.169  -3.339   0.695  1.00  0.00     0.037 C 
HETATM    6  C8  UNL     1       0.792  -2.106   1.485  1.00  0.00    -0.007 C 
HETATM    7  C9  UNL     1       1.771  -1.010   1.414  1.00  0.00     0.036 C 
HETATM    8  C10 UNL     1      -0.533  -1.651   0.919  1.00  0.00     0.044 C 
HETATM    9  C11 UNL     1      -0.304  -1.285  -0.535  1.00  0.00     0.080 C 
HETATM   10  C16 UNL     1       0.512  -0.011  -0.515  1.00  0.00     0.070 C 
HETATM   11  O3  UNL     1       0.336  -2.212  -1.273  1.00  0.00    -0.373 OA
ENDROOT
BRANCH   9  12
HETATM   12  C12 UNL     1      -1.674  -1.072  -1.117  1.00  0.00     0.162 C 
BRANCH  12  13
HETATM   13  N3  UNL     1      -2.467  -0.110  -0.435  1.00  0.00    -0.340 N 
HETATM   14  C13 UNL     1      -3.768   0.162  -0.901  1.00  0.00     0.317 C 
HETATM   15  O2  UNL     1      -4.201  -0.446  -1.904  1.00  0.00    -0.247 OA
HETATM   16  N4  UNL     1      -4.631   1.107  -0.283  1.00  0.00    -0.343 N 
HETATM   17  C14 UNL     1      -4.191   1.845   0.878  1.00  0.00     0.154 C 
HETATM   18  C15 UNL     1      -5.967   1.362  -0.784  1.00  0.00     0.154 C 
ATOM     19  H3  UNL     1      -2.099   0.377   0.382  1.00  0.00     0.164 HD
ENDBRANCH  12  13
ENDBRANCH   9  12
BRANCH   1  20
HETATM   20  N2  UNL     1       2.408   1.058   0.452  1.00  0.00    -0.334 N 
HETATM   21  C2  UNL     1       2.709   2.084  -0.458  1.00  0.00     0.316 C 
HETATM   22  N1  UNL     1       3.264   3.337  -0.046  1.00  0.00    -0.347 N 
HETATM   23  O1  UNL     1       2.497   1.931  -1.678  1.00  0.00    -0.247 OA
HETATM   24  C1  UNL     1       3.570   4.385  -0.990  1.00  0.00     0.151 C 
ATOM     25  H1  UNL     1       3.449   3.494   0.945  1.00  0.00     0.163 HD
ATOM     26  H2  UNL     1       2.606   1.238   1.436  1.00  0.00     0.165 HD
ENDBRANCH   1  20
TORSDOF 3
