REMARK  4 active torsions:
REMARK  status: ('A' for Active; 'I' for Inactive)
REMARK    1  A    between atoms: N3_4  and  N4_6 
REMARK       I    between atoms: N4_6  and  C2_8 
REMARK    2  A    between atoms: C2_8  and  C3_10 
REMARK    3  A    between atoms: C4_13  and  N6_14 
REMARK    4  A    between atoms: N6_14  and  C5_16 
ROOT
HETATM    1  C3  UNL     1       1.160  -0.857  -0.052  1.00  0.00     0.206 A 
HETATM    2  N5  UNL     1       1.833   0.315  -0.138  1.00  0.00    -0.168 N 
ATOM      3  H5  UNL     1       1.432   1.206  -0.430  1.00  0.00     0.186 HD
HETATM    4  C4  UNL     1       3.122   0.117   0.224  1.00  0.00     0.700 A 
HETATM    5  N7  UNL     1       3.236  -1.176   0.532  1.00  0.00    -0.130 N 
ATOM      6  H7  UNL     1       4.089  -1.639   0.844  1.00  0.00     0.205 HD
HETATM    7  N8  UNL     1       2.064  -1.756   0.367  1.00  0.00    -0.266 N 
ATOM      8  H8  UNL     1       1.872  -2.744   0.533  1.00  0.00     0.189 HD
ENDROOT
BRANCH   1   9
HETATM    9  C2  UNL     1      -0.250  -1.068  -0.355  1.00  0.00     0.305 C 
HETATM   10  N4  UNL     1      -1.058   0.010  -0.788  1.00  0.00    -0.261 N 
ATOM     11  H4  UNL     1      -0.642   0.936  -0.885  1.00  0.00     0.190 HD
HETATM   12  O1  UNL     1      -0.730  -2.223  -0.224  1.00  0.00    -0.263 OA
BRANCH  10  13
HETATM   13  N3  UNL     1      -2.401  -0.161  -1.084  1.00  0.00    -0.273 N 
HETATM   14  C1  UNL     1      -3.371   0.056  -0.281  1.00  0.00     0.215 C 
HETATM   15  N1  UNL     1      -3.198   0.513   1.060  1.00  0.00    -0.065 NA
HETATM   16  N2  UNL     1      -4.687  -0.170  -0.746  1.00  0.00    -0.065 NA
ATOM     17  H3  UNL     1      -2.635  -0.488  -2.022  1.00  0.00     0.189 HD
ENDBRANCH  10  13
ENDBRANCH   1   9
BRANCH   4  18
HETATM   18  N6  UNL     1       4.091   0.961   0.281  1.00  0.00    -0.166 N 
ATOM     19  H6  UNL     1       5.014   0.645   0.577  1.00  0.00     0.186 HD
BRANCH  18  20
HETATM   20  C5  UNL     1       3.894   2.341  -0.066  1.00  0.00     0.368 C 
HETATM   21  O2  UNL     1       4.446   2.822  -1.097  1.00  0.00    -0.283 OA
ENDBRANCH  18  20
ENDBRANCH   4  18
TORSDOF 4
