REMARK  2 active torsions:
REMARK  status: ('A' for Active; 'I' for Inactive)
REMARK    1  A    between atoms: O1_1  and  N1_3 
REMARK    2  A    between atoms: N1_3  and  C1_5 
ROOT
HETATM    1  C1  UNL     1      -1.842   0.733  -0.166  1.00  0.00     0.166 A 
HETATM    2  C2  UNL     1      -0.511   0.384  -0.025  1.00  0.00     0.145 A 
HETATM    3  N2  UNL     1      -0.203  -0.909   0.223  1.00  0.00    -0.261 N 
HETATM    4  C3  UNL     1      -1.176  -1.830   0.329  1.00  0.00     0.332 A 
HETATM    5  O2  UNL     1      -0.907  -3.034   0.558  1.00  0.00    -0.246 OA
HETATM    6  N3  UNL     1      -2.467  -1.481   0.190  1.00  0.00    -0.273 N 
ATOM      7  H3  UNL     1      -3.186  -2.200   0.275  1.00  0.00     0.173 HD
HETATM    8  C4  UNL     1      -2.840  -0.212  -0.058  1.00  0.00     0.281 A 
HETATM    9  O3  UNL     1      -4.028   0.159  -0.194  1.00  0.00    -0.265 OA
HETATM   10  C5  UNL     1       1.045  -1.644   0.427  1.00  0.00     0.307 C 
HETATM   11  O4  UNL     1       1.986  -0.811   1.015  1.00  0.00    -0.347 OA
HETATM   12  C6  UNL     1       2.713  -0.086   0.091  1.00  0.00     0.342 C 
HETATM   13  O5  UNL     1       2.545   1.289   0.320  1.00  0.00    -0.348 OA
HETATM   14  C7  UNL     1       1.621   1.825  -0.599  1.00  0.00     0.294 C 
HETATM   15  N4  UNL     1       0.255   1.567  -0.190  1.00  0.00    -0.353 N 
ATOM     16  H4  UNL     1      -0.267   2.417   0.025  1.00  0.00     0.163 HD
ENDROOT
BRANCH   1  17
HETATM   17  N1  UNL     1      -2.117   2.113  -0.428  1.00  0.00    -0.260 N 
ATOM     18  H1  UNL     1      -1.837   2.575  -1.293  1.00  0.00     0.194 HD
BRANCH  17  19
HETATM   19  O1  UNL     1      -2.734   2.715   0.497  1.00  0.00    -0.289 OA
ATOM     20  H1  UNL     1      -2.917   3.631   0.323  1.00  0.00     0.244 HD
ENDBRANCH  17  19
ENDBRANCH   1  17
TORSDOF 2
