REMARK  10 active torsions:
REMARK  status: ('A' for Active; 'I' for Inactive)
REMARK    1  A    between atoms: N1_2  and  C3_4 
REMARK    2  A    between atoms: C5_8  and  C6_9 
REMARK    3  A    between atoms: C6_9  and  C7_10 
REMARK    4  A    between atoms: C9_14  and  C10_15 
REMARK    5  A    between atoms: C10_15  and  C11_16 
REMARK    6  A    between atoms: C11_16  and  C12_17 
REMARK    7  A    between atoms: C12_17  and  C13_18 
REMARK    8  A    between atoms: C13_18  and  C14_19 
REMARK    9  A    between atoms: C14_19  and  C15_20 
REMARK   10  A    between atoms: C15_20  and  C16_21 
ROOT
HETATM    1  C13 UNL     1      -1.206  -0.511   2.203  1.00  0.00     0.000 C 
ENDROOT
BRANCH   1   2
HETATM    2  C12 UNL     1      -0.119   0.164   1.374  1.00  0.00     0.000 C 
BRANCH   2   3
HETATM    3  C11 UNL     1       0.907   0.780   2.291  1.00  0.00     0.006 C 
BRANCH   3   4
HETATM    4  C10 UNL     1       1.983   1.426   1.512  1.00  0.00     0.057 C 
BRANCH   4   5
HETATM    5  C9  UNL     1       2.753   0.431   0.729  1.00  0.00     0.009 A 
HETATM    6  N3  UNL     1       2.757  -0.908   0.736  1.00  0.00    -0.369 N 
HETATM    7  C8  UNL     1       3.614  -1.401  -0.170  1.00  0.00     0.095 A 
ATOM      8  H3  UNL     1       2.181  -1.481   1.353  1.00  0.00     0.165 HD
HETATM    9  C7  UNL     1       4.213  -0.349  -0.816  1.00  0.00    -0.035 A 
HETATM   10  C28 UNL     1       3.684   0.791  -0.262  1.00  0.00     0.033 A 
BRANCH   9  11
HETATM   11  C6  UNL     1       5.245  -0.419  -1.911  1.00  0.00     0.099 C 
BRANCH  11  12
HETATM   12  C5  UNL     1       6.609  -0.418  -1.268  1.00  0.00     0.046 A 
HETATM   13  C4  UNL     1       7.342  -1.513  -0.866  1.00  0.00     0.132 A 
HETATM   14  N2  UNL     1       8.494  -1.039  -0.347  1.00  0.00    -0.200 N 
HETATM   15  C3  UNL     1       8.522   0.300  -0.401  1.00  0.00     0.679 A 
ATOM     16  H2  UNL     1       9.241  -1.620   0.034  1.00  0.00     0.183 HD
HETATM   17  N6  UNL     1       7.342   0.669  -0.977  1.00  0.00    -0.194 N 
ATOM     18  H6  UNL     1       7.057   1.631  -1.160  1.00  0.00     0.184 HD
BRANCH  15  19
HETATM   19  N1  UNL     1       9.451   1.098  -0.002  1.00  0.00    -0.226 N 
HETATM   20  C1  UNL     1      10.639   0.527   0.588  1.00  0.00     0.168 C 
HETATM   21  C2  UNL     1       9.332   2.514  -0.130  1.00  0.00     0.168 C 
ENDBRANCH  15  19
ENDBRANCH  11  12
ENDBRANCH   9  11
ENDBRANCH   4   5
ENDBRANCH   3   4
ENDBRANCH   2   3
ENDBRANCH   1   2
BRANCH   1  22
HETATM   22  C14 UNL     1      -2.257  -1.157   1.366  1.00  0.00     0.001 C 
BRANCH  22  23
HETATM   23  C15 UNL     1      -2.941  -0.154   0.497  1.00  0.00     0.010 C 
BRANCH  23  24
HETATM   24  C16 UNL     1      -3.991  -0.843  -0.316  1.00  0.00    -0.027 A 
HETATM   25  C17 UNL     1      -3.640  -1.955  -1.273  1.00  0.00     0.017 A 
HETATM   26  C18 UNL     1      -4.001  -0.639  -1.783  1.00  0.00     0.021 A 
HETATM   27  C19 UNL     1      -5.273  -0.267  -2.434  1.00  0.00     0.239 C 
HETATM   28  N4  UNL     1      -6.481  -0.850  -2.044  1.00  0.00    -0.056 N 
HETATM   29  C20 UNL     1      -7.194  -0.059  -1.049  1.00  0.00     0.217 C 
ATOM     30  H42 UNL     1      -7.073  -1.040  -2.853  1.00  0.00     0.278 HD
ATOM     31  H41 UNL     1      -6.337  -1.805  -1.717  1.00  0.00     0.278 HD
HETATM   32  C21 UNL     1      -7.867   1.117  -1.686  1.00  0.00     0.171 C 
HETATM   33  C23 UNL     1      -8.309  -0.802  -0.416  1.00  0.00     0.254 C 
HETATM   34  C24 UNL     1      -6.147   0.321  -0.044  1.00  0.00     0.062 A 
HETATM   35  N5  UNL     1      -8.926   1.419  -0.765  1.00  0.00    -0.352 N 
HETATM   36  C22 UNL     1      -9.411   0.155  -0.280  1.00  0.00     0.290 C 
ATOM     37  H5  UNL     1      -9.266   2.345  -0.506  1.00  0.00     0.162 HD
HETATM   38  O1  UNL     1     -10.562  -0.075   0.174  1.00  0.00    -0.264 OA
HETATM   39  O2  UNL     1      -8.400  -1.998  -0.038  1.00  0.00    -0.284 OA
HETATM   40  C25 UNL     1      -6.361   0.413   1.357  1.00  0.00    -0.022 A 
HETATM   41  C27 UNL     1      -5.379  -0.918   0.254  1.00  0.00     0.027 A 
HETATM   42  C26 UNL     1      -5.684  -0.655   1.634  1.00  0.00    -0.024 A 
ENDBRANCH  23  24
ENDBRANCH  22  23
ENDBRANCH   1  22
TORSDOF 10
