REMARK  10 active torsions:
REMARK  status: ('A' for Active; 'I' for Inactive)
REMARK    1  A    between atoms: O1_2  and  C2_3 
REMARK    2  A    between atoms: C2_3  and  C3_4 
REMARK    3  A    between atoms: C3_4  and  O2_5 
REMARK    4  A    between atoms: O2_5  and  C4_6 
REMARK    5  A    between atoms: C4_6  and  C5_7 
REMARK    6  A    between atoms: C5_7  and  N1_8 
REMARK    7  A    between atoms: N1_8  and  C6_10 
REMARK    8  A    between atoms: C19_23  and  O3_24 
REMARK    9  A    between atoms: C23_29  and  O4_30 
REMARK   10  A    between atoms: C24_32  and  O5_33 
ROOT
HETATM    1  C6  UNL     1       2.599  -0.798   0.296  1.00  0.00     0.026 C 
HETATM    2  C7  UNL     1       3.556  -1.741  -0.388  1.00  0.00     0.038 C 
HETATM    3  C8  UNL     1       2.158   0.198  -0.785  1.00  0.00     0.031 C 
HETATM    4  C9  UNL     1       0.816   0.711  -0.311  1.00  0.00     0.012 C 
HETATM    5  C10 UNL     1      -0.210  -0.303  -0.857  1.00  0.00    -0.036 C 
HETATM    6  C11 UNL     1      -0.067  -0.181  -2.380  1.00  0.00     0.016 C 
HETATM    7  C12 UNL     1       0.291  -1.615  -0.369  1.00  0.00    -0.004 C 
HETATM    8  C13 UNL     1      -0.754  -2.578   0.059  1.00  0.00     0.006 C 
HETATM    9  C14 UNL     1      -2.026  -1.972   0.582  1.00  0.00     0.011 C 
HETATM   10  C15 UNL     1      -2.611  -0.905  -0.361  1.00  0.00    -0.032 C 
HETATM   11  C16 UNL     1      -2.791  -1.644  -1.681  1.00  0.00     0.016 C 
HETATM   12  C17 UNL     1      -1.540   0.154  -0.432  1.00  0.00     0.005 C 
HETATM   13  C18 UNL     1      -1.903   1.337  -1.287  1.00  0.00     0.038 C 
HETATM   14  C19 UNL     1      -2.388   2.456  -0.364  1.00  0.00     0.119 C 
HETATM   15  C20 UNL     1      -3.799   2.086  -0.002  1.00  0.00     0.037 C 
HETATM   16  C21 UNL     1      -3.875   0.863   0.899  1.00  0.00    -0.001 C 
HETATM   17  C22 UNL     1      -5.206   1.078   1.640  1.00  0.00     0.039 C 
HETATM   18  C23 UNL     1      -6.353   1.105   0.697  1.00  0.00     0.147 C 
HETATM   19  C24 UNL     1      -6.314   0.130  -0.420  1.00  0.00     0.147 C 
HETATM   20  C25 UNL     1      -5.013  -0.349  -0.893  1.00  0.00     0.044 C 
HETATM   21  C26 UNL     1      -3.912  -0.427   0.170  1.00  0.00    -0.030 C 
HETATM   22  C27 UNL     1      -4.453  -1.513   1.110  1.00  0.00     0.016 C 
HETATM   23  C28 UNL     1       1.354  -1.539   0.704  1.00  0.00     0.036 C 
ENDROOT
BRANCH   1  24
HETATM   24  N1  UNL     1       3.113  -0.129   1.431  1.00  0.00    -0.391 N 
ATOM     25  H1  UNL     1       2.739  -0.347   2.355  1.00  0.00     0.159 HD
BRANCH  24  26
HETATM   26  C5  UNL     1       4.119   0.820   1.307  1.00  0.00     0.082 C 
BRANCH  26  27
HETATM   27  C4  UNL     1       5.515   0.407   0.924  1.00  0.00     0.211 C 
BRANCH  27  28
HETATM   28  O2  UNL     1       6.121  -0.449   1.791  1.00  0.00    -0.384 OA
BRANCH  28  29
HETATM   29  C3  UNL     1       7.359  -0.871   1.460  1.00  0.00     0.194 C 
BRANCH  29  30
HETATM   30  C2  UNL     1       8.429   0.140   1.237  1.00  0.00     0.193 C 
BRANCH  30  31
HETATM   31  O1  UNL     1       8.171   1.013   0.193  1.00  0.00    -0.394 OA
HETATM   32  C1  UNL     1       9.176   1.962   0.043  1.00  0.00     0.201 C 
ENDBRANCH  30  31
ENDBRANCH  29  30
ENDBRANCH  28  29
ENDBRANCH  27  28
ENDBRANCH  26  27
ENDBRANCH  24  26
ENDBRANCH   1  24
BRANCH  14  33
HETATM   33  O3  UNL     1      -2.398   3.621  -1.084  1.00  0.00    -0.396 OA
ATOM     34  H3  UNL     1      -2.699   4.316  -0.511  1.00  0.00     0.210 HD
ENDBRANCH  14  33
BRANCH  19  35
HETATM   35  O5  UNL     1      -7.208  -0.944  -0.172  1.00  0.00    -0.393 OA
ATOM     36  H5  UNL     1      -7.183  -1.569  -0.887  1.00  0.00     0.210 HD
ENDBRANCH  19  35
BRANCH  18  37
HETATM   37  O4  UNL     1      -6.580   2.424   0.223  1.00  0.00    -0.393 OA
ATOM     38  H4  UNL     1      -7.314   2.441  -0.380  1.00  0.00     0.210 HD
ENDBRANCH  18  37
TORSDOF 10
