REMARK  7 active torsions:
REMARK  status: ('A' for Active; 'I' for Inactive)
REMARK    1  A    between atoms: C2_2  and  C3_3 
REMARK    2  A    between atoms: C4_6  and  N2_7 
REMARK    3  A    between atoms: C5_12  and  N4_13 
REMARK    4  A    between atoms: N4_13  and  C6_15 
REMARK    5  A    between atoms: C6_15  and  C7_16 
REMARK    6  A    between atoms: C7_16  and  C8_17 
REMARK    7  A    between atoms: C8_17  and  N5_18 
ROOT
HETATM    1  C3  UNL     1       4.356   0.374  -0.133  1.00  0.00     0.135 A 
HETATM    2  N1  UNL     1       5.138  -0.744  -0.135  1.00  0.00    -0.176 N 
ATOM      3  H1  UNL     1       6.152  -0.630  -0.137  1.00  0.00     0.186 HD
HETATM    4  C4  UNL     1       4.634  -1.982  -0.135  1.00  0.00     0.692 A 
HETATM    5  N3  UNL     1       3.303  -2.110  -0.132  1.00  0.00    -0.023 N 
ATOM      6  H3  UNL     1       2.896  -3.045  -0.132  1.00  0.00     0.203 HD
HETATM    7  C5  UNL     1       2.474  -1.030  -0.129  1.00  0.00     0.694 A 
HETATM    8  N6  UNL     1       3.010   0.197  -0.130  1.00  0.00    -0.176 N 
ATOM      9  H6  UNL     1       2.397   1.012  -0.128  1.00  0.00     0.186 HD
ENDROOT
BRANCH   7  10
HETATM   10  N4  UNL     1       1.231  -1.254  -0.123  1.00  0.00    -0.225 N 
ATOM     11  H4  UNL     1       0.933  -2.229  -0.120  1.00  0.00     0.177 HD
BRANCH  10  12
HETATM   12  C6  UNL     1       0.218  -0.269  -0.120  1.00  0.00     0.140 C 
BRANCH  12  13
HETATM   13  C7  UNL     1      -0.785  -0.617   0.986  1.00  0.00     0.050 C 
BRANCH  13  14
HETATM   14  C8  UNL     1      -1.850   0.422   1.019  1.00  0.00     0.274 C 
BRANCH  14  15
HETATM   15  N5  UNL     1      -2.536   0.476  -0.247  1.00  0.00     0.092 N 
HETATM   16  C9  UNL     1      -3.486   1.569  -0.246  1.00  0.00     0.298 C 
HETATM   17  C10 UNL     1      -4.808   1.102   0.289  1.00  0.00     0.198 C 
HETATM   18  O1  UNL     1      -5.334   0.252  -0.658  1.00  0.00    -0.388 OA
HETATM   19  C11 UNL     1      -4.539  -0.785  -1.034  1.00  0.00     0.198 C 
HETATM   20  C12 UNL     1      -3.120  -0.778  -0.610  1.00  0.00     0.298 C 
ENDBRANCH  14  15
ENDBRANCH  13  14
ENDBRANCH  12  13
ENDBRANCH  10  12
ENDBRANCH   7  10
BRANCH   4  21
HETATM   21  N2  UNL     1       5.408  -3.037  -0.136  1.00  0.00    -0.234 N 
ATOM     22  H22 UNL     1       6.423  -2.939  -0.138  1.00  0.00     0.174 HD
ATOM     23  H21 UNL     1       5.023  -3.982  -0.136  1.00  0.00     0.174 HD
ENDBRANCH   4  21
BRANCH   1  24
HETATM   24  C2  UNL     1       4.998   1.662  -0.134  1.00  0.00     0.039 C 
HETATM   25  C1  UNL     1       4.328   2.776  -0.104  1.00  0.00     0.015 C 
ENDBRANCH   1  24
TORSDOF 7
