REMARK  1 active torsions:
REMARK  status: ('A' for Active; 'I' for Inactive)
REMARK    1  A    between atoms: C8_11  and  C9_12 
ROOT
HETATM    1  C1  UNL     1      -3.266   0.842  -1.945  1.00  0.00     0.032 C 
HETATM    2  C2  UNL     1      -2.654  -0.195  -1.019  1.00  0.00     0.078 C 
HETATM    3  C3  UNL     1      -3.281  -0.101   0.311  1.00  0.00     0.103 C 
HETATM    4  C4  UNL     1      -2.241   0.392   1.334  1.00  0.00     0.252 C 
HETATM    5  F1  UNL     1      -1.973   1.681   1.017  1.00  0.00    -0.206 F 
HETATM    6  F2  UNL     1      -2.808   0.346   2.597  1.00  0.00    -0.206 F 
HETATM    7  C5  UNL     1      -1.138  -0.586   1.268  1.00  0.00     0.099 C 
HETATM    8  C6  UNL     1       0.197  -0.303   1.841  1.00  0.00     0.115 C 
HETATM    9  C7  UNL     1       1.025  -1.418   2.242  1.00  0.00     0.065 C 
HETATM   10  N1  UNL     1       1.681  -2.298   2.585  1.00  0.00    -0.197 NA
HETATM   11  C8  UNL     1       0.587   0.299   0.514  1.00  0.00     0.066 C 
HETATM   12  C15 UNL     1      -0.461  -0.611  -0.106  1.00  0.00     0.098 C 
HETATM   13  N2  UNL     1      -1.231   0.042  -1.074  1.00  0.00    -0.412 N 
ATOM     14  H2  UNL     1      -0.812   0.650  -1.778  1.00  0.00     0.154 HD
ENDROOT
BRANCH  11  15
HETATM   15  C9  UNL     1       1.949   0.122   0.080  1.00  0.00     0.030 A 
HETATM   16  C10 UNL     1       2.883   1.009   0.615  1.00  0.00     0.126 A 
HETATM   17  F3  UNL     1       2.520   1.859   1.624  1.00  0.00    -0.205 F 
HETATM   18  C11 UNL     1       4.180   1.051   0.192  1.00  0.00     0.046 A 
HETATM   19  C12 UNL     1       4.624   0.196  -0.810  1.00  0.00     0.048 A 
HETATM   20  C13 UNL     1       3.740  -0.670  -1.344  1.00  0.00     0.155 A 
HETATM   21  F4  UNL     1       4.140  -1.521  -2.352  1.00  0.00    -0.203 F 
HETATM   22  C14 UNL     1       2.425  -0.703  -0.902  1.00  0.00     0.164 A 
HETATM   23  F5  UNL     1       1.636  -1.569  -1.521  1.00  0.00    -0.202 F 
ENDBRANCH  11  15
TORSDOF 1
