REMARK  4 active torsions:
REMARK  status: ('A' for Active; 'I' for Inactive)
REMARK    1  A    between atoms: C2_2  and  C3_3 
REMARK    2  A    between atoms: C3_3  and  O1_6 
REMARK    3  A    between atoms: O1_6  and  C4_7 
REMARK    4  A    between atoms: C10_16  and  O2_18 
ROOT
HETATM    1  C1  UNL     1       1.545  -2.255  -0.164  1.00  0.00     0.025 C 
HETATM    2  C2  UNL     1       1.518  -0.767  -0.276  1.00  0.00     0.060 C 
HETATM    3  C5  UNL     1       1.349  -0.370  -1.790  1.00  0.00     0.097 C 
HETATM    4  C6  UNL     1       0.001  -0.008  -1.905  1.00  0.00    -0.181 C 
HETATM    5  C7  UNL     1      -1.328   0.433  -2.017  1.00  0.00     0.093 C 
HETATM    6  C8  UNL     1      -1.923   0.254  -0.581  1.00  0.00     0.007 A 
HETATM    7  C9  UNL     1      -3.314  -0.368  -0.679  1.00  0.00     0.020 C 
HETATM    8  C10 UNL     1      -1.720   1.127   0.508  1.00  0.00     0.071 A 
HETATM    9  C11 UNL     1      -2.755   1.217   1.600  1.00  0.00     0.047 C 
HETATM   10  C12 UNL     1      -0.979  -0.261   0.403  1.00  0.00    -0.001 A 
HETATM   11  C13 UNL     1      -1.637  -1.368   1.279  1.00  0.00     0.019 C 
HETATM   12  C14 UNL     1       0.413  -0.139   0.572  1.00  0.00     0.031 C 
ENDROOT
BRANCH   2  13
HETATM   13  C3  UNL     1       2.839  -0.209   0.203  1.00  0.00     0.369 C 
HETATM   14  F1  UNL     1       3.017  -0.578   1.501  1.00  0.00    -0.175 F 
HETATM   15  F2  UNL     1       3.811  -0.717  -0.639  1.00  0.00    -0.175 F 
BRANCH  13  16
HETATM   16  O1  UNL     1       2.761   1.164   0.140  1.00  0.00    -0.227 OA
BRANCH  16  17
HETATM   17  C4  UNL     1       3.924   1.798   0.558  1.00  0.00     0.529 C 
HETATM   18  F3  UNL     1       5.005   1.429  -0.220  1.00  0.00    -0.144 F 
HETATM   19  F4  UNL     1       4.204   1.554   1.888  1.00  0.00    -0.144 F 
HETATM   20  F5  UNL     1       3.757   3.163   0.418  1.00  0.00    -0.144 F 
ENDBRANCH  16  17
ENDBRANCH  13  16
ENDBRANCH   2  13
BRANCH   8  21
HETATM   21  O2  UNL     1      -0.921   2.275   0.445  1.00  0.00    -0.389 OA
ATOM     22  H2  UNL     1      -0.784   2.863   1.179  1.00  0.00     0.210 HD
ENDBRANCH   8  21
TORSDOF 4
