REMARK  13 active torsions:
REMARK  status: ('A' for Active; 'I' for Inactive)
REMARK    1  A    between atoms: C2_2  and  N1_3 
REMARK       I    between atoms: N1_3  and  C3_5 
REMARK    2  A    between atoms: C3_5  and  C4_7 
REMARK    3  A    between atoms: C4_7  and  N2_8 
REMARK       I    between atoms: N2_8  and  C5_10 
REMARK    4  A    between atoms: C5_10  and  C6_12 
REMARK       I    between atoms: N3_17  and  C11_18 
REMARK    5  A    between atoms: C11_18  and  C12_20 
REMARK    6  A    between atoms: C12_20  and  N4_21 
REMARK    7  A    between atoms: C12_20  and  C25_42 
REMARK       I    between atoms: N4_21  and  C13_23 
REMARK    8  A    between atoms: C13_23  and  C14_25 
REMARK    9  A    between atoms: C14_25  and  C15_26 
REMARK   10  A    between atoms: C15_26  and  C16_27 
REMARK       I    between atoms: C16_27  and  N5_29 
REMARK   11  A    between atoms: C20_33  and  C21_34 
REMARK       I    between atoms: C21_34  and  N6_36 
REMARK   12  A    between atoms: N6_36  and  C23_38 
REMARK   13  A    between atoms: C23_38  and  C24_39 
ROOT
HETATM    1  C12 UNL     1       0.538   1.492   0.179  1.00  0.00     0.184 C 
ENDROOT
BRANCH   1   2
HETATM    2  C11 UNL     1       1.424   0.489   0.751  1.00  0.00     0.244 C 
HETATM    3  N3  UNL     1       1.776   0.347   2.078  1.00  0.00    -0.337 N 
HETATM    4  C6  UNL     1       2.752  -0.558   2.648  1.00  0.00     0.179 C 
HETATM    5  C10 UNL     1       1.017   1.070   3.129  1.00  0.00     0.127 C 
HETATM    6  C7  UNL     1       1.973  -1.805   3.011  1.00  0.00     0.035 C 
HETATM    7  C8  UNL     1       0.649  -1.360   3.599  1.00  0.00     0.004 C 
HETATM    8  C9  UNL     1       0.755   0.007   4.237  1.00  0.00     0.020 C 
HETATM    9  O3  UNL     1       1.924  -0.348  -0.089  1.00  0.00    -0.271 OA
BRANCH   4  10
HETATM   10  C5  UNL     1       3.988  -0.764   1.919  1.00  0.00     0.241 C 
HETATM   11  N2  UNL     1       4.635   0.112   1.029  1.00  0.00    -0.341 N 
ATOM     12  H2  UNL     1       4.181   1.011   0.867  1.00  0.00     0.163 HD
HETATM   13  O2  UNL     1       4.577  -1.890   2.112  1.00  0.00    -0.271 OA
BRANCH  11  14
HETATM   14  C4  UNL     1       5.851  -0.117   0.331  1.00  0.00     0.114 C 
HETATM   15  C29 UNL     1       7.027  -0.332   1.270  1.00  0.00     0.041 C 
HETATM   16  C30 UNL     1       7.661   1.033   1.407  1.00  0.00     0.003 C 
HETATM   17  C31 UNL     1       7.501   1.658   0.050  1.00  0.00     0.003 C 
HETATM   18  C32 UNL     1       6.205   1.131  -0.467  1.00  0.00     0.041 C 
BRANCH  14  19
HETATM   19  C3  UNL     1       5.850  -1.268  -0.595  1.00  0.00     0.246 C 
HETATM   20  N1  UNL     1       6.977  -1.643  -1.359  1.00  0.00    -0.359 N 
ATOM     21  H1  UNL     1       7.823  -1.082  -1.256  1.00  0.00     0.162 HD
HETATM   22  O1  UNL     1       4.818  -1.965  -0.731  1.00  0.00    -0.271 OA
BRANCH  20  23
HETATM   23  C2  UNL     1       7.024  -2.745  -2.263  1.00  0.00     0.118 C 
HETATM   24  C1  UNL     1       6.763  -4.073  -1.619  1.00  0.00     0.026 C 
ENDBRANCH  20  23
ENDBRANCH  14  19
ENDBRANCH  11  14
ENDBRANCH   4  10
ENDBRANCH   1   2
BRANCH   1  25
HETATM   25  N4  UNL     1      -0.042   1.001  -1.096  1.00  0.00    -0.347 N 
HETATM   26  C13 UNL     1      -1.424   1.056  -1.365  1.00  0.00     0.218 C 
HETATM   27  O4  UNL     1      -2.183   1.545  -0.497  1.00  0.00    -0.274 OA
ATOM     28  H4  UNL     1       0.582   0.610  -1.802  1.00  0.00     0.163 HD
BRANCH  26  29
HETATM   29  C14 UNL     1      -1.963   0.554  -2.630  1.00  0.00     0.112 C 
BRANCH  29  30
HETATM   30  C15 UNL     1      -3.426   0.761  -2.765  1.00  0.00     0.112 C 
BRANCH  30  31
HETATM   31  C16 UNL     1      -4.273   0.097  -1.757  1.00  0.00     0.221 C 
HETATM   32  O5  UNL     1      -3.803  -0.714  -0.939  1.00  0.00    -0.273 OA
HETATM   33  N5  UNL     1      -5.650   0.405  -1.741  1.00  0.00    -0.339 N 
HETATM   34  C17 UNL     1      -6.344   1.306  -2.626  1.00  0.00     0.127 C 
HETATM   35  C20 UNL     1      -6.629  -0.116  -0.828  1.00  0.00     0.179 C 
HETATM   36  C18 UNL     1      -7.326   2.022  -1.702  1.00  0.00     0.022 C 
HETATM   37  C19 UNL     1      -7.541   1.090  -0.558  1.00  0.00     0.037 C 
BRANCH  35  38
HETATM   38  C21 UNL     1      -7.447  -1.185  -1.417  1.00  0.00     0.242 C 
HETATM   39  O6  UNL     1      -7.437  -1.455  -2.654  1.00  0.00    -0.271 OA
HETATM   40  N6  UNL     1      -8.293  -1.972  -0.611  1.00  0.00    -0.350 N 
HETATM   41  C22 UNL     1      -9.150  -3.020  -1.208  1.00  0.00     0.152 C 
BRANCH  40  42
HETATM   42  C23 UNL     1      -8.341  -1.816   0.804  1.00  0.00     0.196 C 
BRANCH  42  43
HETATM   43  C24 UNL     1      -7.351  -2.730   1.526  1.00  0.00     0.370 C 
HETATM   44  F1  UNL     1      -7.603  -4.056   1.262  1.00  0.00    -0.213 F 
HETATM   45  F2  UNL     1      -7.487  -2.456   2.885  1.00  0.00    -0.213 F 
ENDBRANCH  42  43
ENDBRANCH  40  42
ENDBRANCH  35  38
ENDBRANCH  30  31
ENDBRANCH  29  30
ENDBRANCH  26  29
ENDBRANCH   1  25
BRANCH   1  46
HETATM   46  C25 UNL     1       1.237   2.791  -0.180  1.00  0.00    -0.022 C 
HETATM   47  C26 UNL     1       1.885   3.482   0.969  1.00  0.00     0.017 C 
HETATM   48  C27 UNL     1       0.229   3.765  -0.793  1.00  0.00     0.017 C 
HETATM   49  C28 UNL     1       2.277   2.545  -1.252  1.00  0.00     0.017 C 
ENDBRANCH   1  46
TORSDOF 13
