REMARK  0 active torsions:
REMARK  status: ('A' for Active; 'I' for Inactive)
ROOT
HETATM    1  C1  UNL     1       4.451  -0.779   0.570  1.00  0.00     0.018 C 
HETATM    2  C2  UNL     1       3.303  -0.404   0.412  1.00  0.00    -0.076 C 
HETATM    3  C3  UNL     1       1.942   0.017   0.231  1.00  0.00     0.033 A 
HETATM    4  C4  UNL     1       1.641   1.362   0.137  1.00  0.00     0.109 A 
HETATM    5  N1  UNL     1       0.367   1.784  -0.034  1.00  0.00    -0.364 N 
ATOM      6  H1  UNL     1       0.191   2.787  -0.098  1.00  0.00     0.165 HD
HETATM    7  C5  UNL     1      -0.678   0.941  -0.123  1.00  0.00     0.042 A 
HETATM    8  C6  UNL     1      -1.978   1.392  -0.298  1.00  0.00     0.030 A 
HETATM    9  C7  UNL     1      -3.047   0.521  -0.388  1.00  0.00     0.002 A 
HETATM   10  C8  UNL     1      -2.786  -0.831  -0.299  1.00  0.00     0.001 A 
HETATM   11  C9  UNL     1      -1.488  -1.288  -0.124  1.00  0.00     0.014 A 
HETATM   12  C10 UNL     1      -0.421  -0.418  -0.034  1.00  0.00    -0.008 A 
HETATM   13  C11 UNL     1       0.881  -0.859   0.141  1.00  0.00     0.035 A 
ENDROOT
TORSDOF 0
