REMARK  3 active torsions:
REMARK  status: ('A' for Active; 'I' for Inactive)
REMARK    1  A    between atoms: C4_4  and  C5_5 
REMARK    2  A    between atoms: N1_6  and  N2_8 
REMARK       I    between atoms: N2_8  and  C6_10 
REMARK    3  A    between atoms: C6_10  and  C7_12 
ROOT
HETATM    1  C7  UNL     1      -1.295  -0.860  -0.841  1.00  0.00     0.121 C 
HETATM    2  C8  UNL     1      -1.843  -1.234  -1.973  1.00  0.00     0.083 C 
HETATM    3  S1  UNL     1      -3.591  -0.877  -1.821  1.00  0.00    -0.111 SA
HETATM    4  C9  UNL     1      -3.340   0.350  -0.454  1.00  0.00     0.192 C 
HETATM    5  N3  UNL     1      -2.189  -0.343   0.121  1.00  0.00    -0.253 N 
HETATM    6  S2  UNL     1      -2.865   0.031   1.671  1.00  0.00     0.245 S 
HETATM    7  O2  UNL     1      -2.909  -1.093   2.634  1.00  0.00    -0.204 OA
HETATM    8  O3  UNL     1      -2.281   1.291   2.194  1.00  0.00    -0.204 OA
HETATM    9  C10 UNL     1      -4.327   0.234   0.669  1.00  0.00     0.107 C 
HETATM   10  C11 UNL     1      -5.225  -0.958   0.658  1.00  0.00     0.037 C 
HETATM   11  C12 UNL     1      -4.981   1.561   0.950  1.00  0.00     0.037 C 
ENDROOT
BRANCH   1  12
HETATM   12  C6  UNL     1       0.137  -0.984  -0.564  1.00  0.00     0.287 C 
HETATM   13  N2  UNL     1       0.738  -0.583   0.656  1.00  0.00    -0.265 N 
ATOM     14  H2  UNL     1       0.142  -0.186   1.382  1.00  0.00     0.190 HD
HETATM   15  O1  UNL     1       0.886  -1.469  -1.443  1.00  0.00    -0.264 OA
BRANCH  13  16
HETATM   16  N1  UNL     1       2.083  -0.702   0.909  1.00  0.00    -0.309 N 
HETATM   17  C5  UNL     1       2.983  -0.158   0.162  1.00  0.00     0.107 C 
ATOM     18  H1  UNL     1       2.382  -1.243   1.721  1.00  0.00     0.186 HD
BRANCH  17  19
HETATM   19  C4  UNL     1       4.387  -0.324   0.487  1.00  0.00     0.020 C 
HETATM   20  C2  UNL     1       5.291   0.237  -0.284  1.00  0.00    -0.086 C 
HETATM   21  C1  UNL     1       6.723   0.067   0.048  1.00  0.00     0.043 C 
HETATM   22  C3  UNL     1       4.893   1.026  -1.464  1.00  0.00     0.043 C 
ENDBRANCH  17  19
ENDBRANCH  13  16
ENDBRANCH   1  12
TORSDOF 3
