REMARK  3 active torsions:
REMARK  status: ('A' for Active; 'I' for Inactive)
REMARK    1  A    between atoms: C4_8  and  C5_9 
REMARK    2  A    between atoms: C9_13  and  C10_14 
REMARK    3  A    between atoms: C10_14  and  C11_16 
ROOT
HETATM    1  C5  UNL     1       1.424  -0.010  -0.808  1.00  0.00    -0.033 A 
HETATM    2  C6  UNL     1       1.433   1.324  -0.473  1.00  0.00     0.011 A 
HETATM    3  C7  UNL     1       0.252   2.030  -0.302  1.00  0.00     0.002 A 
HETATM    4  C8  UNL     1      -0.981   1.432  -0.458  1.00  0.00     0.015 A 
HETATM    5  C9  UNL     1      -1.013   0.099  -0.793  1.00  0.00     0.016 A 
HETATM    6  C17 UNL     1       0.177  -0.596  -0.961  1.00  0.00     0.027 A 
ENDROOT
BRANCH   1   7
HETATM    7  C4  UNL     1       2.644  -0.776  -0.982  1.00  0.00     0.054 C 
HETATM    8  C3  UNL     1       3.657  -0.673  -0.183  1.00  0.00     0.148 A 
HETATM    9  C2  UNL     1       4.895  -1.448  -0.360  1.00  0.00     0.282 A 
HETATM   10  O4  UNL     1       3.626   0.185   0.897  1.00  0.00    -0.266 OA
HETATM   11  N1  UNL     1       6.009  -1.348   0.504  1.00  0.00    -0.283 N 
HETATM   12  O2  UNL     1       4.906  -2.231  -1.357  1.00  0.00    -0.265 OA
HETATM   13  C1  UNL     1       5.889  -0.433   1.597  1.00  0.00     0.324 A 
ATOM     14  H1  UNL     1       6.854  -1.899   0.356  1.00  0.00     0.172 HD
HETATM   15  O1  UNL     1       6.877  -0.316   2.398  1.00  0.00    -0.261 OA
HETATM   16  C18 UNL     1       4.664   0.333   1.771  1.00  0.00     0.357 A 
HETATM   17  O5  UNL     1       4.612   1.122   2.748  1.00  0.00    -0.253 OA
ENDBRANCH   1   7
BRANCH   5  18
HETATM   18  C10 UNL     1      -2.279  -0.576  -0.947  1.00  0.00     0.192 C 
HETATM   19  O3  UNL     1      -2.266  -1.602  -1.720  1.00  0.00    -0.287 OA
BRANCH  18  20
HETATM   20  C11 UNL     1      -3.546  -0.229  -0.334  1.00  0.00     0.015 A 
HETATM   21  C12 UNL     1      -3.616   0.466   0.845  1.00  0.00     0.015 A 
HETATM   22  C13 UNL     1      -4.875   0.774   1.355  1.00  0.00     0.001 A 
HETATM   23  C14 UNL     1      -6.042   0.410   0.727  1.00  0.00     0.000 A 
HETATM   24  C15 UNL     1      -5.985  -0.289  -0.458  1.00  0.00     0.001 A 
HETATM   25  C16 UNL     1      -4.743  -0.597  -0.969  1.00  0.00     0.015 A 
ENDBRANCH  18  20
ENDBRANCH   5  18
TORSDOF 3
