REMARK  7 active torsions:
REMARK  status: ('A' for Active; 'I' for Inactive)
REMARK    1  A    between atoms: C2_7  and  C3_8 
REMARK    2  A    between atoms: C3_8  and  N4_9 
REMARK       I    between atoms: N4_9  and  C4_11 
REMARK    3  A    between atoms: C5_14  and  C6_15 
REMARK    4  A    between atoms: C8_17  and  N5_18 
REMARK    5  A    between atoms: C9_25  and  N7_26 
REMARK    6  A    between atoms: N8_29  and  C11_30 
REMARK    7  A    between atoms: C13_33  and  N9_34 
ROOT
HETATM    1  C6  UNL     1       1.494  -1.010  -0.107  1.00  0.00     0.183 C 
HETATM    2  C7  UNL     1       1.600  -2.510  -0.063  1.00  0.00     0.101 C 
HETATM    3  C8  UNL     1       0.594  -2.962   1.015  1.00  0.00     0.388 C 
HETATM    4  N6  UNL     1      -0.692  -2.585   0.502  1.00  0.00    -0.001 N 
ATOM      5  H61 UNL     1      -1.465  -2.954   1.056  1.00  0.00     0.284 HD
ATOM      6  H62 UNL     1      -0.923  -3.051  -0.375  1.00  0.00     0.284 HD
HETATM    7  C9  UNL     1      -0.712  -1.106   0.394  1.00  0.00     0.444 C 
HETATM    8  O5  UNL     1       0.180  -0.743  -0.582  1.00  0.00    -0.332 OA
ENDROOT
BRANCH   7   9
HETATM    9  N7  UNL     1      -2.086  -0.700   0.169  1.00  0.00    -0.230 N 
HETATM   10  C10 UNL     1      -3.110  -1.540  -0.012  1.00  0.00     0.341 A 
HETATM   11  O3  UNL     1      -3.038  -2.802  -0.040  1.00  0.00    -0.246 OA
HETATM   12  N8  UNL     1      -4.286  -0.910  -0.169  1.00  0.00    -0.233 N 
HETATM   13  C12 UNL     1      -3.988   0.400  -0.084  1.00  0.00     0.135 A 
HETATM   14  C13 UNL     1      -4.782   1.545  -0.165  1.00  0.00     0.146 A 
HETATM   15  C15 UNL     1      -2.603   0.522   0.129  1.00  0.00     0.162 A 
HETATM   16  N10 UNL     1      -4.169   2.735  -0.032  1.00  0.00    -0.175 N 
HETATM   17  C14 UNL     1      -2.850   2.853   0.171  1.00  0.00     0.679 A 
ATOM     18  H10 UNL     1      -4.732   3.583  -0.088  1.00  0.00     0.186 HD
HETATM   19  N11 UNL     1      -2.335   4.033   0.290  1.00  0.00    -0.234 N 
HETATM   20  N12 UNL     1      -2.067   1.763   0.251  1.00  0.00    -0.174 N 
ATOM     21 2H11 UNL     1      -2.929   4.860   0.229  1.00  0.00     0.174 HD
ATOM     22 1H11 UNL     1      -1.331   4.123   0.445  1.00  0.00     0.174 HD
ATOM     23  H12 UNL     1      -1.064   1.869   0.404  1.00  0.00     0.186 HD
BRANCH  12  24
HETATM   24  C11 UNL     1      -5.564  -1.497  -0.370  1.00  0.00     0.364 C 
HETATM   25  O4  UNL     1      -5.611  -2.771  -0.408  1.00  0.00    -0.283 OA
ENDBRANCH  12  24
BRANCH  14  26
HETATM   26  N9  UNL     1      -6.041   1.453  -0.353  1.00  0.00    -0.383 N 
ATOM     27  H92 UNL     1      -6.506   0.551  -0.454  1.00  0.00     0.157 HD
ATOM     28  H91 UNL     1      -6.621   2.290  -0.412  1.00  0.00     0.157 HD
ENDBRANCH  14  26
ENDBRANCH   7   9
BRANCH   3  29
HETATM   29  N5  UNL     1       0.916  -2.573   2.325  1.00  0.00    -0.050 N 
ATOM     30  H53 UNL     1       1.856  -2.888   2.565  1.00  0.00     0.276 HD
ATOM     31  H52 UNL     1       1.051  -1.563   2.370  1.00  0.00     0.276 HD
ATOM     32  H51 UNL     1       0.251  -2.872   3.038  1.00  0.00     0.276 HD
ENDBRANCH   3  29
BRANCH   1  33
HETATM   33  C5  UNL     1       2.543  -0.391  -0.941  1.00  0.00     0.084 A 
HETATM   34  N1  UNL     1       3.194  -0.882  -2.006  1.00  0.00    -0.282 N 
HETATM   35  C1  UNL     1       3.029  -2.164  -2.623  1.00  0.00     0.179 C 
HETATM   36  N2  UNL     1       4.052   0.062  -2.462  1.00  0.00    -0.240 N 
HETATM   37  N3  UNL     1       3.953   1.127  -1.713  1.00  0.00    -0.287 N 
ATOM     38  H2  UNL     1       4.676  -0.042  -3.262  1.00  0.00     0.208 HD
HETATM   39  C2  UNL     1       3.021   0.893  -0.749  1.00  0.00     0.071 A 
ATOM     40  H3  UNL     1       4.485   1.989  -1.831  1.00  0.00     0.188 HD
BRANCH  39  41
HETATM   41  C3  UNL     1       2.586   1.857   0.307  1.00  0.00     0.186 C 
BRANCH  41  42
HETATM   42  N4  UNL     1       3.421   3.030   0.187  1.00  0.00    -0.330 N 
HETATM   43  C4  UNL     1       4.815   2.868   0.468  1.00  0.00     0.283 C 
HETATM   44  O1  UNL     1       5.315   1.753   0.820  1.00  0.00    -0.630 OA
HETATM   45  O2  UNL     1       5.721   3.914   0.373  1.00  0.00    -0.630 OA
ATOM     46  H4  UNL     1       3.034   3.933  -0.086  1.00  0.00     0.165 HD
ENDBRANCH  41  42
ENDBRANCH  39  41
ENDBRANCH   1  33
TORSDOF 7
