REMARK  13 active torsions:
REMARK  status: ('A' for Active; 'I' for Inactive)
REMARK    1  A    between atoms: O1_2  and  C2_3 
REMARK    2  A    between atoms: C5_8  and  O4_9 
REMARK    3  A    between atoms: O4_9  and  C6_10 
REMARK    4  A    between atoms: C7_11  and  N1_12 
REMARK    5  A    between atoms: C9_17  and  N2_18 
REMARK    6  A    between atoms: C10_22  and  O5_23 
REMARK    7  A    between atoms: O5_23  and  C11_24 
REMARK    8  A    between atoms: C12_27  and  C13_28 
REMARK    9  A    between atoms: C13_28  and  N4_29 
REMARK   10  A    between atoms: C14_33  and  O7_34 
REMARK   11  A    between atoms: C15_36  and  O8_37 
REMARK   12  A    between atoms: C16_39  and  O9_40 
REMARK   13  A    between atoms: C17_42  and  O10_43 
ROOT
HETATM    1  C6  UNL     1      -1.256   0.435  -0.356  1.00  0.00     0.186 C 
HETATM    2  C7  UNL     1      -0.882   1.186  -1.587  1.00  0.00     0.217 C 
HETATM    3  C8  UNL     1      -0.338   0.228  -2.606  1.00  0.00     0.071 C 
HETATM    4  C9  UNL     1       0.510  -0.857  -2.042  1.00  0.00     0.217 C 
HETATM    5  C10 UNL     1       0.990  -0.654  -0.651  1.00  0.00     0.186 C 
HETATM    6  C16 UNL     1      -0.062  -0.213   0.317  1.00  0.00     0.180 C 
ENDROOT
BRANCH   5   7
HETATM    7  O5  UNL     1       2.073   0.200  -0.537  1.00  0.00    -0.347 OA
BRANCH   7   8
HETATM    8  C11 UNL     1       3.210  -0.416  -0.029  1.00  0.00     0.315 C 
HETATM    9  O6  UNL     1       4.137  -0.434  -1.041  1.00  0.00    -0.251 OA
HETATM   10  N3  UNL     1       5.118   0.441  -0.962  1.00  0.00    -0.089 NA
HETATM   11  C12 UNL     1       6.017   0.189   0.154  1.00  0.00     0.163 C 
HETATM   12  C14 UNL     1       5.206  -0.269   1.360  1.00  0.00     0.175 C 
HETATM   13  C15 UNL     1       3.760   0.231   1.180  1.00  0.00     0.205 C 
BRANCH  11  14
HETATM   14  C13 UNL     1       6.855   1.394   0.475  1.00  0.00     0.255 C 
BRANCH  14  15
HETATM   15  N4  UNL     1       7.754   1.161   1.583  1.00  0.00    -0.078 N 
ATOM     16  H43 UNL     1       7.247   0.836   2.406  1.00  0.00     0.274 HD
ATOM     17  H42 UNL     1       8.338   0.341   1.417  1.00  0.00     0.274 HD
ATOM     18  H41 UNL     1       8.323   1.979   1.801  1.00  0.00     0.274 HD
ENDBRANCH  14  15
ENDBRANCH  11  14
BRANCH  12  19
HETATM   19  O7  UNL     1       5.142  -1.657   1.312  1.00  0.00    -0.391 OA
ATOM     20  H7  UNL     1       4.636  -1.943   2.064  1.00  0.00     0.210 HD
ENDBRANCH  12  19
BRANCH  13  21
HETATM   21  O8  UNL     1       3.816   1.602   1.083  1.00  0.00    -0.388 OA
ATOM     22  H8  UNL     1       4.170   2.018   1.860  1.00  0.00     0.210 HD
ENDBRANCH  13  21
ENDBRANCH   7   8
ENDBRANCH   5   7
BRANCH   4  23
HETATM   23  N2  UNL     1      -0.167  -2.164  -2.102  1.00  0.00    -0.072 N 
ATOM     24  H23 UNL     1      -1.080  -2.131  -1.648  1.00  0.00     0.274 HD
ATOM     25  H22 UNL     1      -0.469  -2.383  -3.051  1.00  0.00     0.274 HD
ATOM     26  H21 UNL     1       0.414  -2.908  -1.715  1.00  0.00     0.274 HD
ENDBRANCH   4  23
BRANCH   6  27
HETATM   27  O9  UNL     1      -0.572  -1.288   1.071  1.00  0.00    -0.390 OA
ATOM     28  H9  UNL     1       0.176  -1.694   1.493  1.00  0.00     0.210 HD
ENDBRANCH   6  27
BRANCH   1  29
HETATM   29  O4  UNL     1      -2.214  -0.513  -0.626  1.00  0.00    -0.348 OA
BRANCH  29  30
HETATM   30  C5  UNL     1      -3.407  -0.364   0.035  1.00  0.00     0.297 C 
HETATM   31  O3  UNL     1      -3.624  -1.537   0.804  1.00  0.00    -0.329 OA
HETATM   32  C3  UNL     1      -4.791  -1.432   1.543  1.00  0.00     0.262 C 
HETATM   33  O2  UNL     1      -5.912  -1.225   0.767  1.00  0.00    -0.329 OA
HETATM   34  C4  UNL     1      -4.972  -2.746   2.275  1.00  0.00     0.071 C 
HETATM   35  C2  UNL     1      -5.826  -0.126  -0.054  1.00  0.00     0.295 C 
HETATM   36  C17 UNL     1      -4.575  -0.321  -0.922  1.00  0.00     0.228 C 
BRANCH  35  37
HETATM   37  O1  UNL     1      -5.651   1.070   0.616  1.00  0.00    -0.363 OA
HETATM   38  C1  UNL     1      -6.622   2.010   0.300  1.00  0.00     0.204 C 
ENDBRANCH  35  37
BRANCH  36  39
HETATM   39  O10 UNL     1      -4.482   0.626  -1.904  1.00  0.00    -0.386 OA
ATOM     40  H10 UNL     1      -3.708   0.505  -2.441  1.00  0.00     0.210 HD
ENDBRANCH  36  39
ENDBRANCH  29  30
ENDBRANCH   1  29
BRANCH   2  41
HETATM   41  N1  UNL     1       0.034   2.281  -1.316  1.00  0.00    -0.072 N 
ATOM     42  H13 UNL     1      -0.344   2.907  -0.605  1.00  0.00     0.274 HD
ATOM     43  H12 UNL     1       0.863   1.952  -0.821  1.00  0.00     0.274 HD
ATOM     44  H11 UNL     1       0.290   2.795  -2.159  1.00  0.00     0.274 HD
ENDBRANCH   2  41
TORSDOF 13
