REMARK  0 active torsions:
REMARK  status: ('A' for Active; 'I' for Inactive)
ROOT
HETATM    1  C1  UNL     1      -1.797   0.563   0.861  1.00  0.00     0.032 C 
HETATM    2  C2  UNL     1      -2.051  -0.121  -0.474  1.00  0.00     0.235 C 
HETATM    3  N1  UNL     1      -0.761  -0.177  -1.110  1.00  0.00    -0.047 N 
ATOM      4  H11 UNL     1      -0.567   0.629  -1.704  1.00  0.00     0.280 HD
ATOM      5  H12 UNL     1      -0.699  -0.888  -1.839  1.00  0.00     0.280 HD
HETATM    6  C3  UNL     1       0.190  -0.352  -0.067  1.00  0.00     0.211 C 
HETATM    7  C4  UNL     1      -0.454  -0.007   1.241  1.00  0.00     0.064 C 
HETATM    8  C5  UNL     1       1.432   0.467  -0.350  1.00  0.00     0.084 C 
HETATM    9  C6  UNL     1       2.470  -0.366   0.401  1.00  0.00     0.143 C 
HETATM   10  N2  UNL     1       1.929  -1.680   0.254  1.00  0.00    -0.338 N 
ATOM     11  H2  UNL     1       2.484  -2.531   0.345  1.00  0.00     0.179 HD
HETATM   12  N3  UNL     1       0.734  -1.679   0.009  1.00  0.00    -0.305 N 
ATOM     13  H3  UNL     1       0.183  -2.526  -0.127  1.00  0.00     0.182 HD
ENDROOT
TORSDOF 0
