REMARK  9 active torsions:
REMARK  status: ('A' for Active; 'I' for Inactive)
REMARK    1  A    between atoms: O1_2  and  C2_3 
REMARK    2  A    between atoms: C2_3  and  C3_5 
REMARK    3  A    between atoms: C4_6  and  C5_7 
REMARK    4  A    between atoms: C5_7  and  C6_8 
REMARK    5  A    between atoms: C6_8  and  N1_9 
REMARK    6  A    between atoms: N1_9  and  C7_11 
REMARK    7  A    between atoms: C7_11  and  C8_12 
REMARK    8  A    between atoms: C8_12  and  O3_13 
REMARK    9  A    between atoms: S2_21  and  S3_22 
ROOT
HETATM    1  C3  UNL     1      -1.137   0.177  -0.942  1.00  0.00     0.163 C 
HETATM    2  C4  UNL     1      -0.230   0.642   0.147  1.00  0.00     0.045 C 
HETATM    3  C9  UNL     1      -0.870   1.422   1.241  1.00  0.00     0.067 C 
HETATM    4  C10 UNL     1       0.264   2.179   1.950  1.00  0.00     0.047 C 
HETATM    5  C11 UNL     1      -1.566   0.615   2.290  1.00  0.00     0.047 C 
HETATM    6  O4  UNL     1      -1.712   2.470   0.758  1.00  0.00    -0.324 OA
HETATM    7  C12 UNL     1      -1.746   2.909  -0.550  1.00  0.00     0.177 C 
HETATM    8  S1  UNL     1      -1.596   4.441  -1.014  1.00  0.00    -0.045 SA
HETATM    9  S2  UNL     1      -1.978   1.587  -1.720  1.00  0.00    -0.060 SA
ENDROOT
BRANCH   2  10
HETATM   10  C5  UNL     1       0.614  -0.444   0.676  1.00  0.00     0.029 C 
BRANCH  10  11
HETATM   11  C6  UNL     1       1.542  -1.067  -0.383  1.00  0.00     0.119 C 
BRANCH  11  12
HETATM   12  N1  UNL     1       2.368  -0.020  -0.846  1.00  0.00    -0.400 N 
ATOM     13  H1  UNL     1       2.282   0.912  -0.440  1.00  0.00     0.158 HD
BRANCH  12  14
HETATM   14  C7  UNL     1       3.307  -0.256  -1.862  1.00  0.00     0.081 C 
BRANCH  14  15
HETATM   15  C8  UNL     1       4.478  -1.124  -1.501  1.00  0.00     0.208 C 
BRANCH  15  16
HETATM   16  O3  UNL     1       4.048  -2.372  -1.116  1.00  0.00    -0.396 OA
ATOM     17  H3  UNL     1       4.789  -2.921  -0.888  1.00  0.00     0.209 HD
ENDBRANCH  15  16
ENDBRANCH  14  15
ENDBRANCH  12  14
ENDBRANCH  11  12
ENDBRANCH  10  11
ENDBRANCH   2  10
BRANCH   1  18
HETATM   18  C2  UNL     1      -2.026  -0.933  -0.624  1.00  0.00     0.273 C 
HETATM   19  O2  UNL     1      -3.301  -0.791  -0.639  1.00  0.00    -0.264 OA
BRANCH  18  20
HETATM   20  O1  UNL     1      -1.639  -2.219  -0.285  1.00  0.00    -0.326 OA
HETATM   21  C1  UNL     1      -2.471  -3.286   0.020  1.00  0.00     0.213 C 
ENDBRANCH  18  20
ENDBRANCH   1  18
BRANCH   9  22
HETATM   22  S3  UNL     1      -3.852   1.340  -1.861  1.00  0.00     0.011 SA
HETATM   23 CL1  UNL     1      -4.606   3.082  -2.786  1.00  0.00    -0.032 Cl
ENDBRANCH   9  22
TORSDOF 9
