REMARK  1 active torsions:
REMARK  status: ('A' for Active; 'I' for Inactive)
REMARK    1  A    between atoms: N1_1  and  C1_4 
ROOT
HETATM    1  C1  UNL     1      -0.373   1.216  -0.042  1.00  0.00     0.135 A 
HETATM    2  N2  UNL     1      -1.657   0.840   0.060  1.00  0.00    -0.293 N 
ATOM      3  H2  UNL     1      -2.412   1.526   0.071  1.00  0.00     0.172 HD
HETATM    4  C2  UNL     1      -1.908  -0.487   0.147  1.00  0.00     0.327 A 
HETATM    5  O1  UNL     1      -3.090  -0.931   0.246  1.00  0.00    -0.247 OA
HETATM    6  N3  UNL     1      -0.896  -1.383   0.131  1.00  0.00    -0.292 N 
ATOM      7  H3  UNL     1      -1.126  -2.374   0.199  1.00  0.00     0.172 HD
HETATM    8  C3  UNL     1       0.394  -1.036   0.031  1.00  0.00     0.154 A 
HETATM    9  N4  UNL     1       1.570  -1.668  -0.010  1.00  0.00    -0.267 N 
ATOM     10  H4  UNL     1       1.696  -2.679   0.036  1.00  0.00     0.186 HD
HETATM   11  N5  UNL     1       2.546  -0.781  -0.120  1.00  0.00    -0.020 NA
HETATM   12  N6  UNL     1       2.022   0.435  -0.152  1.00  0.00    -0.277 N 
ATOM     13  H6  UNL     1       2.540   1.310  -0.232  1.00  0.00     0.184 HD
HETATM   14  C4  UNL     1       0.680   0.311  -0.060  1.00  0.00     0.135 A 
ENDROOT
BRANCH   1  15
HETATM   15  N1  UNL     1      -0.142   2.483  -0.124  1.00  0.00    -0.383 N 
ATOM     16  H12 UNL     1      -0.915   3.148  -0.111  1.00  0.00     0.157 HD
ATOM     17  H11 UNL     1       0.834   2.769  -0.202  1.00  0.00     0.157 HD
ENDBRANCH   1  15
TORSDOF 1
