REMARK  2 active torsions:
REMARK  status: ('A' for Active; 'I' for Inactive)
REMARK    1  A    between atoms: N1_1  and  C1_4 
REMARK    2  A    between atoms: N3_7  and  O1_8 
ROOT
HETATM    1  C1  UNL     1      -1.221  -0.906   0.035  1.00  0.00     0.729 A 
HETATM    2  N2  UNL     1      -1.985   0.187  -0.030  1.00  0.00    -0.088 N 
ATOM      3  H2  UNL     1      -3.005   0.178  -0.040  1.00  0.00     0.209 HD
HETATM    4  N3  UNL     1      -1.247   1.280  -0.080  1.00  0.00     0.033 N 
HETATM    5  C2  UNL     1       0.048   0.896  -0.046  1.00  0.00     0.765 A 
HETATM    6  N4  UNL     1       1.335   1.296  -0.054  1.00  0.00    -0.134 N 
ATOM      7  H4  UNL     1       1.647   2.266  -0.102  1.00  0.00     0.189 HD
HETATM    8  C3  UNL     1       2.147   0.226   0.010  1.00  0.00     0.354 A 
HETATM    9  O2  UNL     1       3.425   0.214   0.024  1.00  0.00    -0.245 OA
HETATM   10  N5  UNL     1       1.328  -0.839   0.058  1.00  0.00    -0.214 N 
ATOM     11  H5  UNL     1       1.641  -1.808   0.112  1.00  0.00     0.193 HD
HETATM   12  N6  UNL     1       0.060  -0.459   0.025  1.00  0.00     0.099 N 
ENDROOT
BRANCH   1  13
HETATM   13  N1  UNL     1      -1.582  -2.142   0.096  1.00  0.00    -0.231 N 
ATOM     14  H12 UNL     1      -2.545  -2.478   0.104  1.00  0.00     0.174 HD
ATOM     15  H11 UNL     1      -0.998  -2.977   0.146  1.00  0.00     0.174 HD
ENDBRANCH   1  13
BRANCH   4  16
HETATM   16  O1  UNL     1      -1.690   2.592  -0.153  1.00  0.00    -0.254 OA
ATOM     17  H1  UNL     1      -1.159   3.379  -0.189  1.00  0.00     0.247 HD
ENDBRANCH   4  16
TORSDOF 2
