REMARK  4 active torsions:
REMARK  status: ('A' for Active; 'I' for Inactive)
REMARK    1  A    between atoms: C2_2  and  C3_3 
REMARK    2  A    between atoms: C3_3  and  S1_4 
REMARK    3  A    between atoms: S1_4  and  C4_5 
REMARK    4  A    between atoms: C17_18  and  C18_19 
ROOT
HETATM    1  C4  UNL     1       3.037  -0.659  -0.325  1.00  0.00     0.052 C 
HETATM    2  C5  UNL     1       3.128   0.310   0.836  1.00  0.00     0.016 C 
HETATM    3  C6  UNL     1       1.749   0.254   1.519  1.00  0.00     0.009 C 
HETATM    4  C7  UNL     1       0.984  -0.729   0.711  1.00  0.00     0.031 C 
HETATM    5  C8  UNL     1       1.575  -0.464  -0.680  1.00  0.00     0.006 C 
HETATM    6  C9  UNL     1       0.999  -1.457  -1.607  1.00  0.00     0.007 C 
HETATM    7  C10 UNL     1      -0.455  -1.095  -1.817  1.00  0.00     0.009 C 
HETATM    8  C11 UNL     1      -0.978  -0.183  -0.700  1.00  0.00     0.031 C 
HETATM    9  C12 UNL     1      -2.445  -0.032  -0.814  1.00  0.00     0.008 C 
HETATM   10  C13 UNL     1      -2.789   1.273  -1.548  1.00  0.00     0.007 C 
HETATM   11  C14 UNL     1      -3.382   2.093  -0.419  1.00  0.00     0.006 C 
HETATM   12  C15 UNL     1      -4.249   1.057   0.261  1.00  0.00    -0.003 C 
HETATM   13  C16 UNL     1      -5.384   0.618  -0.628  1.00  0.00     0.011 C 
HETATM   14  C17 UNL     1      -3.237  -0.088   0.421  1.00  0.00     0.020 C 
HETATM   15  C19 UNL     1      -2.550   0.056   1.710  1.00  0.00     0.020 C 
HETATM   16  C20 UNL     1      -1.084   0.317   1.661  1.00  0.00     0.045 C 
HETATM   17  C21 UNL     1      -0.476  -0.612   0.657  1.00  0.00     0.111 C 
HETATM   18  F1  UNL     1      -1.035  -1.877   0.890  1.00  0.00    -0.242 F 
ENDROOT
BRANCH   1  19
HETATM   19  S1  UNL     1       4.110  -0.285  -1.698  1.00  0.00    -0.160 SA
BRANCH  19  20
HETATM   20  C3  UNL     1       5.857  -0.425  -1.360  1.00  0.00     0.100 C 
BRANCH  20  21
HETATM   21  C2  UNL     1       6.350   0.592  -0.422  1.00  0.00    -0.027 C 
HETATM   22  C1  UNL     1       6.919   0.296   0.728  1.00  0.00     0.007 C 
ENDBRANCH  20  21
ENDBRANCH  19  20
ENDBRANCH   1  19
BRANCH  14  23
HETATM   23  C18 UNL     1      -4.089  -1.336   0.470  1.00  0.00     0.241 C 
HETATM   24  O1  UNL     1      -4.412  -1.860   1.510  1.00  0.00    -0.306 OA
ENDBRANCH  14  23
TORSDOF 4
