REMARK  5 active torsions:
REMARK  status: ('A' for Active; 'I' for Inactive)
REMARK    1  A    between atoms: N1_1  and  C1_5 
REMARK    2  A    between atoms: C4_8  and  N2_9 
REMARK    3  A    between atoms: N2_9  and  C5_11 
REMARK    4  A    between atoms: C7_14  and  N3_15 
REMARK    5  A    between atoms: N3_15  and  C8_17 
ROOT
HETATM    1  C1  UNL     1      -1.318  -0.877   0.643  1.00  0.00     0.206 C 
HETATM    2  C2  UNL     1      -0.085  -1.721   0.447  1.00  0.00     0.037 C 
HETATM    3  C3  UNL     1       1.152  -1.128   0.984  1.00  0.00     0.027 C 
HETATM    4  C4  UNL     1       1.320   0.341   0.802  1.00  0.00     0.085 C 
HETATM    5  C6  UNL     1       0.093   1.139   0.660  1.00  0.00     0.052 C 
HETATM    6  C7  UNL     1      -1.094   0.505   0.051  1.00  0.00     0.116 C 
ENDROOT
BRANCH   1   7
HETATM    7  N1  UNL     1      -2.385  -1.480  -0.137  1.00  0.00    -0.073 N 
ATOM      8  H13 UNL     1      -2.139  -1.604  -1.119  1.00  0.00     0.274 HD
ATOM      9  H12 UNL     1      -2.536  -2.464   0.087  1.00  0.00     0.274 HD
ATOM     10  H11 UNL     1      -3.220  -0.909  -0.004  1.00  0.00     0.274 HD
ENDBRANCH   1   7
BRANCH   6  11
HETATM   11  N3  UNL     1      -1.118   0.478  -1.384  1.00  0.00    -0.361 N 
ATOM     12  H3  UNL     1      -0.377  -0.023  -1.875  1.00  0.00     0.162 HD
BRANCH  11  13
HETATM   13  C8  UNL     1      -2.140   1.126  -2.160  1.00  0.00     0.348 C 
HETATM   14  O2  UNL     1      -3.063   1.749  -1.564  1.00  0.00    -0.284 OA
ENDBRANCH  11  13
ENDBRANCH   6  11
BRANCH   4  15
HETATM   15  N2  UNL     1       2.212   0.616  -0.306  1.00  0.00    -0.364 N 
ATOM     16  H2  UNL     1       1.916   0.355  -1.247  1.00  0.00     0.162 HD
BRANCH  15  17
HETATM   17  C5  UNL     1       3.476   1.231  -0.140  1.00  0.00     0.348 C 
HETATM   18  O1  UNL     1       3.918   1.584   0.985  1.00  0.00    -0.284 OA
ENDBRANCH  15  17
ENDBRANCH   4  15
TORSDOF 5
