REMARK  6 active torsions:
REMARK  status: ('A' for Active; 'I' for Inactive)
REMARK    1  A    between atoms: C3_3  and  C4_4 
REMARK    2  A    between atoms: C4_4  and  C5_5 
REMARK    3  A    between atoms: C6_7  and  C7_8 
REMARK    4  A    between atoms: C7_8  and  O2_9 
REMARK    5  A    between atoms: C8_11  and  O3_12 
REMARK    6  A    between atoms: C9_14  and  O4_15 
ROOT
HETATM    1  C1  UNL     1       3.441   1.616   1.919  1.00  0.00     0.096 C 
HETATM    2  C2  UNL     1       3.284   0.753   1.066  1.00  0.00    -0.188 C 
HETATM    3  C3  UNL     1       3.084  -0.253   0.042  1.00  0.00     0.082 C 
ENDROOT
BRANCH   3   4
HETATM    4  C4  UNL     1       1.955   0.089  -0.896  1.00  0.00     0.046 C 
BRANCH   4   5
HETATM    5  C5  UNL     1       0.637   0.229  -0.180  1.00  0.00     0.154 C 
HETATM    6  O1  UNL     1      -0.331   0.544  -1.139  1.00  0.00    -0.373 OA
HETATM    7  C6  UNL     1      -1.560   0.289  -0.538  1.00  0.00     0.176 C 
HETATM    8  C8  UNL     1      -1.348  -0.816   0.456  1.00  0.00     0.180 C 
HETATM    9  C9  UNL     1       0.117  -1.129   0.294  1.00  0.00     0.178 C 
BRANCH   7  10
HETATM   10  C7  UNL     1      -1.973   1.584   0.162  1.00  0.00     0.198 C 
BRANCH  10  11
HETATM   11  O2  UNL     1      -3.212   1.426   0.804  1.00  0.00    -0.398 OA
ATOM     12  H2  UNL     1      -3.469   2.231   1.239  1.00  0.00     0.209 HD
ENDBRANCH  10  11
ENDBRANCH   7  10
BRANCH   8  13
HETATM   13  O3  UNL     1      -2.156  -1.919   0.204  1.00  0.00    -0.390 OA
ATOM     14  H3  UNL     1      -2.022  -2.618   0.833  1.00  0.00     0.210 HD
ENDBRANCH   8  13
BRANCH   9  15
HETATM   15  O4  UNL     1       0.271  -2.042  -0.740  1.00  0.00    -0.390 OA
ATOM     16  H4  UNL     1      -0.052  -2.886  -0.446  1.00  0.00     0.210 HD
ENDBRANCH   9  15
ENDBRANCH   4   5
ENDBRANCH   3   4
TORSDOF 6
