REMARK  4 active torsions:
REMARK  status: ('A' for Active; 'I' for Inactive)
REMARK    1  A    between atoms: C1_4  and  C2_5 
REMARK    2  A    between atoms: C1_4  and  N6_13 
REMARK    3  A    between atoms: N2_6  and  N3_8 
REMARK    4  A    between atoms: N6_13  and  C4_15 
ROOT
HETATM    1  N1  UNL     1      -0.401  -1.698  -0.713  1.00  0.00    -0.385 N 
ATOM      2  H11 UNL     1      -1.102  -2.353  -1.060  1.00  0.00     0.157 HD
ATOM      3  H12 UNL     1       0.502  -2.059  -0.405  1.00  0.00     0.157 HD
HETATM    4  C1  UNL     1      -0.653  -0.430  -0.665  1.00  0.00     0.112 C 
ENDROOT
BRANCH   4   5
HETATM    5  C2  UNL     1       0.341   0.498  -0.173  1.00  0.00     0.154 C 
HETATM    6  N2  UNL     1       1.480   0.054   0.217  1.00  0.00    -0.306 N 
ATOM      7  H2  UNL     1       1.667  -0.948   0.175  1.00  0.00     0.186 HD
BRANCH   6   8
HETATM    8  N3  UNL     1       2.467   0.912   0.697  1.00  0.00    -0.276 N 
HETATM    9  C3  UNL     1       3.697   0.622   0.498  1.00  0.00     0.215 C 
HETATM   10  N4  UNL     1       4.034  -0.548  -0.198  1.00  0.00    -0.065 NA
HETATM   11  N5  UNL     1       4.691   1.508   0.995  1.00  0.00    -0.065 NA
ATOM     12  H3  UNL     1       2.212   1.761   1.201  1.00  0.00     0.189 HD
ENDBRANCH   6   8
ENDBRANCH   4   5
BRANCH   4  13
HETATM   13  N6  UNL     1      -1.920   0.077  -1.097  1.00  0.00    -0.371 N 
ATOM     14  H6  UNL     1      -2.121   0.232  -2.085  1.00  0.00     0.161 HD
BRANCH  13  15
HETATM   15  C4  UNL     1      -2.904   0.360  -0.073  1.00  0.00     0.083 A 
HETATM   16  C5  UNL     1      -3.300  -0.828   0.760  1.00  0.00     0.027 A 
HETATM   17  C6  UNL     1      -4.278  -0.152  -0.142  1.00  0.00     0.027 A 
ENDBRANCH  13  15
ENDBRANCH   4  13
TORSDOF 4
