REMARK  10 active torsions:
REMARK  status: ('A' for Active; 'I' for Inactive)
REMARK    1  A    between atoms: C2_2  and  S1_4 
REMARK    2  A    between atoms: S1_4  and  S2_5 
REMARK    3  A    between atoms: S2_5  and  C3_6 
REMARK    4  A    between atoms: C4_8  and  C5_9 
REMARK    5  A    between atoms: C5_9  and  O3_10 
REMARK    6  A    between atoms: C6_12  and  O4_13 
REMARK    7  A    between atoms: C7_15  and  O5_16 
REMARK    8  A    between atoms: C8_18  and  C9_19 
REMARK    9  A    between atoms: C9_19  and  N1_20 
REMARK   10  A    between atoms: N1_20  and  C10_22 
ROOT
HETATM    1  C3  UNL     1      -0.125  -0.532  -0.834  1.00  0.00     0.203 C 
HETATM    2  O2  UNL     1      -0.014  -1.399   0.213  1.00  0.00    -0.364 OA
HETATM    3  C4  UNL     1      -1.180  -1.481   0.924  1.00  0.00     0.177 C 
HETATM    4  C6  UNL     1      -1.741  -0.174   1.399  1.00  0.00     0.178 C 
HETATM    5  C7  UNL     1      -1.807   0.893   0.343  1.00  0.00     0.158 C 
HETATM    6  C8  UNL     1      -0.475   0.889  -0.375  1.00  0.00     0.074 C 
ENDROOT
BRANCH   1   7
HETATM    7  S2  UNL     1       1.326  -0.425  -1.879  1.00  0.00    -0.057 SA
BRANCH   7   8
HETATM    8  S1  UNL     1       2.916   0.429  -0.754  1.00  0.00    -0.018 SA
BRANCH   8   9
HETATM    9  C2  UNL     1       3.792  -0.922   0.029  1.00  0.00     0.192 C 
HETATM   10  C1  UNL     1       4.970  -0.590   0.891  1.00  0.00     0.105 C 
HETATM   11  O1  UNL     1       3.493  -2.078  -0.097  1.00  0.00    -0.285 OA
ENDBRANCH   8   9
ENDBRANCH   7   8
ENDBRANCH   1   7
BRANCH   6  12
HETATM   12  C9  UNL     1      -0.445   1.763  -1.586  1.00  0.00     0.130 C 
BRANCH  12  13
HETATM   13  N1  UNL     1      -0.753   3.134  -1.323  1.00  0.00    -0.390 N 
ATOM     14  H1  UNL     1      -1.591   3.340  -0.780  1.00  0.00     0.159 HD
BRANCH  13  15
HETATM   15  C10 UNL     1      -0.049   4.110  -1.723  1.00  0.00     0.165 C 
HETATM   16  S3  UNL     1       1.152   5.204  -1.807  1.00  0.00    -0.075 SA
ENDBRANCH  13  15
ENDBRANCH  12  13
ENDBRANCH   6  12
BRANCH   3  17
HETATM   17  C5  UNL     1      -2.264  -2.271   0.234  1.00  0.00     0.198 C 
BRANCH  17  18
HETATM   18  O3  UNL     1      -1.835  -3.574   0.004  1.00  0.00    -0.398 OA
ATOM     19  H3  UNL     1      -2.518  -4.072  -0.431  1.00  0.00     0.209 HD
ENDBRANCH  17  18
ENDBRANCH   3  17
BRANCH   5  20
HETATM   20  O5  UNL     1      -1.920   2.119   1.000  1.00  0.00    -0.392 OA
ATOM     21  H5  UNL     1      -1.962   2.794   0.332  1.00  0.00     0.210 HD
ENDBRANCH   5  20
BRANCH   4  22
HETATM   22  O4  UNL     1      -3.057  -0.424   1.833  1.00  0.00    -0.390 OA
ATOM     23  H4  UNL     1      -3.412   0.404   2.134  1.00  0.00     0.210 HD
ENDBRANCH   4  22
TORSDOF 10
