REMARK  10 active torsions:
REMARK  status: ('A' for Active; 'I' for Inactive)
REMARK    1  A    between atoms: O1_2  and  C2_3 
REMARK    2  A    between atoms: N1_6  and  O3_8 
REMARK    3  A    between atoms: C7_14  and  C8_15 
REMARK    4  A    between atoms: C8_15  and  O5_16 
REMARK    5  A    between atoms: C8_15  and  C9_18 
REMARK    6  A    between atoms: C9_18  and  C10_19 
REMARK    7  A    between atoms: N2_20  and  C11_22 
REMARK    8  A    between atoms: C11_22  and  C12_23 
REMARK    9  A    between atoms: C12_23  and  C13_24 
REMARK   10  A    between atoms: C13_24  and  C14_25 
ROOT
HETATM    1  C2  UNL     1      -2.522  -1.852  -1.262  1.00  0.00     0.306 A 
HETATM    2  O2  UNL     1      -3.942  -1.971  -1.197  1.00  0.00    -0.298 OA
HETATM    3  C3  UNL     1      -4.376  -0.999  -0.332  1.00  0.00     0.172 A 
HETATM    4  N1  UNL     1      -5.648  -0.852  -0.055  1.00  0.00    -0.247 N 
ATOM      5  H1  UNL     1      -5.920  -0.114   0.595  1.00  0.00     0.196 HD
HETATM    6  C4  UNL     1      -3.240  -0.226   0.176  1.00  0.00     0.014 A 
HETATM    7  C5  UNL     1      -2.182  -0.768  -0.403  1.00  0.00     0.054 A 
HETATM    8  C6  UNL     1      -0.776  -0.382  -0.251  1.00  0.00     0.168 C 
HETATM    9  O4  UNL     1      -0.221  -0.581  -1.396  1.00  0.00    -0.292 OA
HETATM   10  C7  UNL     1       0.251   0.127   0.629  1.00  0.00     0.093 C 
HETATM   11  C15 UNL     1      -0.128   1.090   1.773  1.00  0.00    -0.004 C 
HETATM   12  C16 UNL     1       0.535   2.447   1.594  1.00  0.00     0.011 C 
HETATM   13  C17 UNL     1      -1.534   1.045   1.658  1.00  0.00     0.010 C 
HETATM   14  C18 UNL     1      -2.791   1.501   2.063  1.00  0.00    -0.010 C 
HETATM   15  C19 UNL     1      -2.883   3.025   2.015  1.00  0.00     0.010 C 
HETATM   16  C20 UNL     1      -3.715   0.817   1.093  1.00  0.00     0.023 C 
HETATM   17  C21 UNL     1      -4.422   1.883   0.306  1.00  0.00     0.015 C 
ENDROOT
BRANCH  10  18
HETATM   18  C8  UNL     1       0.994  -1.020   1.268  1.00  0.00     0.134 C 
BRANCH  18  19
HETATM   19  O5  UNL     1       0.152  -1.841   2.012  1.00  0.00    -0.394 OA
ATOM     20  H5  UNL     1       0.620  -2.563   2.414  1.00  0.00     0.210 HD
ENDBRANCH  18  19
BRANCH  18  21
HETATM   21  C9  UNL     1       1.725  -1.897   0.282  1.00  0.00     0.076 C 
BRANCH  21  22
HETATM   22  C10 UNL     1       2.743  -1.119  -0.488  1.00  0.00     0.058 C 
HETATM   23  N2  UNL     1       3.544  -0.391   0.176  1.00  0.00    -0.402 N 
ATOM     24  H2  UNL     1       3.465  -0.364   1.193  1.00  0.00     0.158 HD
BRANCH  23  25
HETATM   25  C11 UNL     1       4.546   0.385  -0.461  1.00  0.00     0.119 C 
BRANCH  25  26
HETATM   26  C12 UNL     1       4.471   0.152  -1.947  1.00  0.00     0.030 C 
BRANCH  26  27
HETATM   27  C13 UNL     1       5.511   0.969  -2.635  1.00  0.00     0.114 C 
BRANCH  27  28
HETATM   28  C14 UNL     1       6.859   0.609  -2.178  1.00  0.00     0.172 C 
HETATM   29  O6  UNL     1       7.427   1.120  -1.203  1.00  0.00    -0.648 OA
HETATM   30  O7  UNL     1       7.543  -0.381  -2.897  1.00  0.00    -0.648 OA
ENDBRANCH  27  28
ENDBRANCH  26  27
ENDBRANCH  25  26
ENDBRANCH  23  25
ENDBRANCH  21  22
ENDBRANCH  18  21
ENDBRANCH  10  18
BRANCH   1  31
HETATM   31  O1  UNL     1      -1.944  -3.082  -0.922  1.00  0.00    -0.361 OA
HETATM   32  C1  UNL     1      -1.333  -3.688  -1.979  1.00  0.00     0.205 C 
ENDBRANCH   1  31
BRANCH   4  33
HETATM   33  O3  UNL     1      -6.617  -1.627  -0.585  1.00  0.00    -0.288 OA
ATOM     34  H3  UNL     1      -7.539  -1.520  -0.384  1.00  0.00     0.244 HD
ENDBRANCH   4  33
TORSDOF 10
