REMARK  9 active torsions:
REMARK  status: ('A' for Active; 'I' for Inactive)
REMARK    1  A    between atoms: C2_2  and  N1_3 
REMARK    2  A    between atoms: C2_2  and  N8_29 
REMARK    3  A    between atoms: N1_3  and  C3_6 
REMARK    4  A    between atoms: C3_6  and  C4_7 
REMARK    5  A    between atoms: C3_6  and  C5_9 
REMARK    6  A    between atoms: C7_13  and  N3_14 
REMARK    7  A    between atoms: N3_14  and  N4_16 
REMARK    8  A    between atoms: C8_21  and  N6_22 
REMARK    9  A    between atoms: C10_32  and  N10_33 
ROOT
HETATM    1  C5  UNL     1       1.073   1.025   0.576  1.00  0.00     0.164 A 
HETATM    2  N2  UNL     1       1.748  -0.134   0.634  1.00  0.00    -0.331 N 
ATOM      3  H2  UNL     1       1.361  -1.024   0.949  1.00  0.00     0.168 HD
HETATM    4  C6  UNL     1       3.020   0.056   0.211  1.00  0.00     0.133 A 
HETATM    5  C7  UNL     1       4.138  -0.716   0.051  1.00  0.00     0.166 A 
HETATM    6  N5  UNL     1       5.311  -0.235  -0.408  1.00  0.00    -0.173 N 
ATOM      7  H5  UNL     1       6.128  -0.836  -0.517  1.00  0.00     0.186 HD
HETATM    8  C8  UNL     1       5.355   1.075  -0.716  1.00  0.00     0.679 A 
HETATM    9  N7  UNL     1       4.274   1.858  -0.569  1.00  0.00    -0.168 N 
ATOM     10  H7  UNL     1       4.352   2.845  -0.814  1.00  0.00     0.186 HD
HETATM   11  C9  UNL     1       3.085   1.398  -0.110  1.00  0.00     0.195 A 
HETATM   12  O2  UNL     1       1.910   1.924   0.123  1.00  0.00    -0.275 OA
ENDROOT
BRANCH   1  13
HETATM   13  C3  UNL     1      -0.377   1.220   0.968  1.00  0.00     0.323 C 
BRANCH  13  14
HETATM   14  N1  UNL     1      -1.192   0.166   0.493  1.00  0.00    -0.035 N 
ATOM     15  H12 UNL     1      -0.984  -0.713   0.967  1.00  0.00     0.281 HD
ATOM     16  H11 UNL     1      -0.939  -0.106  -0.457  1.00  0.00     0.281 HD
BRANCH  14  17
HETATM   17  C2  UNL     1      -2.582   0.505   0.594  1.00  0.00     0.309 C 
HETATM   18  C1  UNL     1      -2.923   1.710  -0.276  1.00  0.00     0.065 C 
BRANCH  17  19
HETATM   19  N8  UNL     1      -3.405  -0.604   0.078  1.00  0.00    -0.196 N 
HETATM   20  N9  UNL     1      -2.994  -1.633  -0.644  1.00  0.00    -0.124 N 
HETATM   21  C10 UNL     1      -4.068  -2.420  -0.903  1.00  0.00     0.694 A 
ATOM     22  H9  UNL     1      -2.037  -1.805  -0.952  1.00  0.00     0.206 HD
HETATM   23  N11 UNL     1      -5.154  -1.871  -0.334  1.00  0.00    -0.139 N 
HETATM   24  C11 UNL     1      -4.707  -0.743   0.269  1.00  0.00     0.357 A 
ATOM     25  H11 UNL     1      -6.110  -2.227  -0.352  1.00  0.00     0.189 HD
HETATM   26  O3  UNL     1      -5.432   0.063   0.920  1.00  0.00    -0.244 OA
BRANCH  21  27
HETATM   27  N10 UNL     1      -4.008  -3.504  -1.585  1.00  0.00    -0.233 N 
ATOM     28 2H10 UNL     1      -3.183  -3.921  -2.017  1.00  0.00     0.174 HD
ATOM     29 1H10 UNL     1      -4.816  -4.096  -1.780  1.00  0.00     0.174 HD
ENDBRANCH  21  27
ENDBRANCH  17  19
ENDBRANCH  14  17
ENDBRANCH  13  14
BRANCH  13  30
HETATM   30  C4  UNL     1      -0.483   1.545   2.396  1.00  0.00     0.272 C 
HETATM   31  O1  UNL     1      -1.182   0.932   3.146  1.00  0.00    -0.304 OA
ENDBRANCH  13  30
ENDBRANCH   1  13
BRANCH   5  32
HETATM   32  N3  UNL     1       4.043  -1.968   0.359  1.00  0.00    -0.290 N 
ATOM     33  H3  UNL     1       4.863  -2.565   0.249  1.00  0.00     0.188 HD
BRANCH  32  34
HETATM   34  N4  UNL     1       2.866  -2.528   0.834  1.00  0.00    -0.344 N 
ATOM     35  H42 UNL     1       2.056  -1.917   0.938  1.00  0.00     0.176 HD
ATOM     36  H41 UNL     1       2.791  -3.516   1.077  1.00  0.00     0.176 HD
ENDBRANCH  32  34
ENDBRANCH   5  32
BRANCH   8  37
HETATM   37  N6  UNL     1       6.484   1.565  -1.162  1.00  0.00    -0.234 N 
ATOM     38  H62 UNL     1       7.305   0.970  -1.274  1.00  0.00     0.174 HD
ATOM     39  H61 UNL     1       6.517   2.557  -1.395  1.00  0.00     0.174 HD
ENDBRANCH   8  37
TORSDOF 9
