REMARK  6 active torsions:
REMARK  status: ('A' for Active; 'I' for Inactive)
REMARK    1  A    between atoms: C2_2  and  C3_3 
REMARK    2  A    between atoms: C2_2  and  N6_30 
REMARK    3  A    between atoms: C3_3  and  N1_4 
REMARK       I    between atoms: N1_4  and  C4_6 
REMARK       I    between atoms: C4_6  and  N2_8 
REMARK    4  A    between atoms: C7_11  and  N3_12 
REMARK    5  A    between atoms: C9_14  and  C10_15 
REMARK    6  A    between atoms: C10_15  and  O2_16 
ROOT
HETATM    1  N1  UNL     1      -2.818  -0.401  -0.340  1.00  0.00    -0.341 N 
ATOM      2  H1  UNL     1      -2.273   0.449  -0.197  1.00  0.00     0.164 HD
HETATM    3  C4  UNL     1      -2.149  -1.624  -0.345  1.00  0.00     0.318 C 
HETATM    4  O1  UNL     1      -2.779  -2.667  -0.532  1.00  0.00    -0.247 OA
HETATM    5  N2  UNL     1      -0.691  -1.638  -0.129  1.00  0.00    -0.329 N 
HETATM    6  C5  UNL     1      -0.222  -0.330   0.142  1.00  0.00     0.130 C 
HETATM    7  C6  UNL     1       1.135  -0.121   0.662  1.00  0.00     0.047 C 
HETATM    8  C7  UNL     1       2.260  -0.844  -0.013  1.00  0.00     0.114 C 
HETATM    9  C13 UNL     1       2.410  -2.260   0.321  1.00  0.00     0.010 C 
HETATM   10  C14 UNL     1       2.204  -3.148  -0.913  1.00  0.00     0.009 C 
HETATM   11  C15 UNL     1       0.814  -3.109  -1.426  1.00  0.00     0.026 C 
HETATM   12  C16 UNL     1      -0.161  -2.963  -0.283  1.00  0.00     0.089 C 
HETATM   13  C17 UNL     1       0.329  -3.467   1.032  1.00  0.00     0.026 C 
HETATM   14  C18 UNL     1       1.597  -2.783   1.443  1.00  0.00     0.009 C 
ENDROOT
BRANCH   8  15
HETATM   15  N3  UNL     1       3.451  -0.056   0.326  1.00  0.00    -0.282 N 
HETATM   16  C8  UNL     1       3.848   1.065  -0.253  1.00  0.00     0.141 A 
HETATM   17  C9  UNL     1       4.981   1.503   0.383  1.00  0.00     0.078 A 
HETATM   18  N4  UNL     1       5.241   0.597   1.359  1.00  0.00    -0.286 N 
HETATM   19  N5  UNL     1       4.278  -0.335   1.283  1.00  0.00    -0.240 N 
ATOM     20  H4  UNL     1       6.017   0.620   2.021  1.00  0.00     0.188 HD
ATOM     21  H5  UNL     1       4.207  -1.149   1.893  1.00  0.00     0.208 HD
BRANCH  17  22
HETATM   22  C10 UNL     1       5.781   2.702   0.124  1.00  0.00     0.103 A 
HETATM   23  C11 UNL     1       7.256   2.438  -0.168  1.00  0.00     0.048 A 
HETATM   24  C12 UNL     1       6.340   3.053  -1.184  1.00  0.00     0.048 A 
BRANCH  22  25
HETATM   25  O2  UNL     1       5.497   3.766   1.006  1.00  0.00    -0.383 OA
ATOM     26  H2  UNL     1       6.016   4.544   0.838  1.00  0.00     0.211 HD
ENDBRANCH  22  25
ENDBRANCH  17  22
ENDBRANCH   8  15
BRANCH   1  27
HETATM   27  C3  UNL     1      -4.243  -0.279  -0.527  1.00  0.00     0.159 C 
BRANCH  27  28
HETATM   28  C2  UNL     1      -4.645   1.186  -0.485  1.00  0.00     0.235 C 
HETATM   29  C1  UNL     1      -4.286   1.833   0.819  1.00  0.00     0.044 C 
BRANCH  28  30
HETATM   30  N6  UNL     1      -5.971   1.429  -0.938  1.00  0.00     0.085 N 
HETATM   31  C19 UNL     1      -6.990   0.943  -0.054  1.00  0.00     0.310 C 
HETATM   32  C20 UNL     1      -6.167   2.829  -1.294  1.00  0.00     0.310 C 
ENDBRANCH  28  30
ENDBRANCH  27  28
ENDBRANCH   1  27
TORSDOF 6
