REMARK  7 active torsions:
REMARK  status: ('A' for Active; 'I' for Inactive)
REMARK    1  A    between atoms: C3_3  and  C4_4 
REMARK    2  A    between atoms: C5_6  and  C6_7 
REMARK    3  A    between atoms: C6_7  and  O2_8 
REMARK    4  A    between atoms: C16_22  and  C17_23 
REMARK    5  A    between atoms: C17_23  and  C19_25 
REMARK    6  A    between atoms: C21_27  and  C22_28 
REMARK    7  A    between atoms: C22_28  and  O6_29 
ROOT
HETATM    1  C4  UNL     1       0.728   1.265  -0.123  1.00  0.00     0.052 C 
HETATM    2  O1  UNL     1      -0.555   1.516  -0.079  1.00  0.00    -0.341 OA
HETATM    3  C5  UNL     1      -1.739   1.051  -0.319  1.00  0.00     0.104 A 
HETATM    4  C7  UNL     1      -2.436  -0.160  -0.703  1.00  0.00     0.045 A 
HETATM    5  C8  UNL     1      -2.114  -1.563  -1.105  1.00  0.00     0.031 C 
HETATM    6  C9  UNL     1      -2.379  -2.427   0.155  1.00  0.00     0.086 C 
HETATM    7  C10 UNL     1      -1.139  -2.086   0.946  1.00  0.00     0.133 C 
HETATM    8  O3  UNL     1      -0.718  -2.784   1.796  1.00  0.00    -0.297 OA
HETATM    9  C11 UNL     1      -0.579  -0.766   0.473  1.00  0.00     0.082 C 
HETATM   10  C12 UNL     1      -0.026  -0.704  -0.896  1.00  0.00     0.017 C 
HETATM   11  C13 UNL     1      -0.185  -0.052  -2.158  1.00  0.00     0.124 C 
HETATM   12  C14 UNL     1      -0.857  -0.861  -3.206  1.00  0.00     0.260 C 
HETATM   13  O4  UNL     1      -1.489  -0.499  -4.211  1.00  0.00    -0.265 OA
HETATM   14  O5  UNL     1      -0.581  -2.113  -2.754  1.00  0.00    -0.315 OA
HETATM   15  C15 UNL     1      -0.608  -1.896  -1.356  1.00  0.00     0.147 C 
HETATM   16  C16 UNL     1       1.282  -0.108  -0.504  1.00  0.00     0.058 C 
HETATM   17  C21 UNL     1      -1.933  -0.000   0.635  1.00  0.00     0.033 A 
ENDROOT
BRANCH  16  18
HETATM   18  C17 UNL     1       2.153  -0.882   0.331  1.00  0.00    -0.008 C 
HETATM   19  C18 UNL     1       2.475  -2.210  -0.407  1.00  0.00     0.011 C 
BRANCH  18  20
HETATM   20  C19 UNL     1       3.491  -0.436   0.771  1.00  0.00     0.000 C 
HETATM   21  C20 UNL     1       4.030  -1.586   1.635  1.00  0.00     0.005 C 
ENDBRANCH  18  20
ENDBRANCH  16  18
BRANCH   1  22
HETATM   22  C3  UNL     1       1.385   1.840   1.073  1.00  0.00     0.028 C 
HETATM   23  C2  UNL     1       1.839   3.060   1.075  1.00  0.00    -0.028 C 
HETATM   24  C1  UNL     1       1.724   3.938  -0.118  1.00  0.00     0.036 C 
ENDBRANCH   1  22
BRANCH   3  25
HETATM   25  C6  UNL     1      -2.659   2.308  -0.383  1.00  0.00     0.204 C 
BRANCH  25  26
HETATM   26  O2  UNL     1      -3.959   1.985  -0.655  1.00  0.00    -0.398 OA
ATOM     27  H2  UNL     1      -4.520   2.751  -0.694  1.00  0.00     0.209 HD
ENDBRANCH  25  26
ENDBRANCH   3  25
BRANCH  17  28
HETATM   28  C22 UNL     1      -2.570   0.129   1.908  1.00  0.00     0.178 C 
BRANCH  28  29
HETATM   29  O6  UNL     1      -3.869   0.548   1.811  1.00  0.00    -0.400 OA
ATOM     30  H6  UNL     1      -4.292   0.634   2.657  1.00  0.00     0.209 HD
ENDBRANCH  28  29
ENDBRANCH  17  28
TORSDOF 7
