REMARK  1 active torsions:
REMARK  status: ('A' for Active; 'I' for Inactive)
REMARK    1  A    between atoms: C4_9  and  N3_10 
ROOT
HETATM    1  N1  UNL     1      -1.911  -1.388  -0.455  1.00  0.00    -0.387 N 
ATOM      2  H11 UNL     1      -2.757  -0.850  -0.268  1.00  0.00     0.157 HD
ATOM      3  H12 UNL     1      -2.213  -2.283  -0.841  1.00  0.00     0.157 HD
HETATM    4  C1  UNL     1      -0.709  -0.976  -0.231  1.00  0.00     0.105 A 
HETATM    5  N2  UNL     1       0.469  -1.725  -0.492  1.00  0.00    -0.358 N 
ATOM      6  H2  UNL     1       0.459  -2.673  -0.869  1.00  0.00     0.166 HD
HETATM    7  C2  UNL     1       1.533  -1.100  -0.211  1.00  0.00     0.064 A 
HETATM    8  C3  UNL     1       1.205   0.225   0.305  1.00  0.00     0.085 A 
HETATM    9  C4  UNL     1      -0.276   0.308   0.323  1.00  0.00     0.254 A 
ENDROOT
BRANCH   9  10
HETATM   10  N3  UNL     1      -0.698   1.437  -0.469  1.00  0.00    -0.068 N 
ATOM     11  H33 UNL     1      -0.392   1.337  -1.437  1.00  0.00     0.275 HD
ATOM     12  H32 UNL     1      -1.708   1.424  -0.611  1.00  0.00     0.275 HD
ATOM     13  H31 UNL     1      -0.396   2.332  -0.083  1.00  0.00     0.275 HD
ENDBRANCH   9  10
TORSDOF 1
