REMARK  1 active torsions:
REMARK  status: ('A' for Active; 'I' for Inactive)
REMARK    1  A    between atoms: N1_1  and  C1_5 
ROOT
HETATM    1  C1  UNL     1       0.938  -0.127  -0.526  1.00  0.00     0.283 C 
HETATM    2  C2  UNL     1      -0.014  -1.092   0.121  1.00  0.00     0.073 C 
HETATM    3  C3  UNL     1      -1.426  -0.594  -0.203  1.00  0.00     0.124 C 
HETATM    4  N2  UNL     1      -1.554   0.685   0.471  1.00  0.00    -0.386 N 
ATOM      5  H2  UNL     1      -2.360   0.894   1.060  1.00  0.00     0.160 HD
HETATM    6  C4  UNL     1      -0.518   1.633   0.281  1.00  0.00     0.172 C 
HETATM    7  N3  UNL     1       0.606   1.229  -0.176  1.00  0.00    -0.359 N 
ATOM      8  H3  UNL     1       1.334   1.932  -0.304  1.00  0.00     0.162 HD
ENDROOT
BRANCH   1   9
HETATM    9  N1  UNL     1       2.316  -0.348  -0.060  1.00  0.00    -0.058 N 
ATOM     10  H13 UNL     1       2.379  -0.312   0.957  1.00  0.00     0.276 HD
ATOM     11  H12 UNL     1       2.609  -1.315  -0.200  1.00  0.00     0.276 HD
ATOM     12  H11 UNL     1       2.962   0.307  -0.499  1.00  0.00     0.276 HD
ENDBRANCH   1   9
TORSDOF 1
