REMARK  7 active torsions:
REMARK  status: ('A' for Active; 'I' for Inactive)
REMARK    1  A    between atoms: C2_2  and  N1_3 
REMARK       I    between atoms: N1_3  and  C3_4 
REMARK    2  A    between atoms: N1_3  and  C4_9 
REMARK    3  A    between atoms: C4_9  and  C5_10 
REMARK    4  A    between atoms: C7_12  and  O1_13 
REMARK    5  A    between atoms: C7_12  and  N4_15 
REMARK    6  A    between atoms: C9_17  and  C10_18 
REMARK    7  A    between atoms: C11_21  and  C12_22 
ROOT
HETATM    1  C4  UNL     1      -1.395  -0.134   0.547  1.00  0.00     0.088 C 
HETATM    2  C7  UNL     1      -0.303   0.626   0.099  1.00  0.00     0.166 C 
ENDROOT
BRANCH   2   3
HETATM    3  O1  UNL     1      -0.606   1.703  -0.658  1.00  0.00    -0.344 OA
ATOM      4  H1  UNL     1       0.133   2.217  -0.961  1.00  0.00     0.219 HD
ENDBRANCH   2   3
BRANCH   2   5
HETATM    5  N4  UNL     1       1.088   0.543   0.248  1.00  0.00    -0.354 N 
HETATM    6  C8  UNL     1       2.087   1.578  -0.237  1.00  0.00     0.143 C 
HETATM    7  C9  UNL     1       2.896   1.166   0.949  1.00  0.00     0.127 C 
HETATM    8  C11 UNL     1       2.251  -0.168   0.672  1.00  0.00     0.102 C 
BRANCH   7   9
HETATM    9  C10 UNL     1       4.325   1.291   0.897  1.00  0.00     0.180 C 
HETATM   10  O2  UNL     1       5.181   0.376   1.013  1.00  0.00    -0.648 OA
HETATM   11  O3  UNL     1       4.872   2.560   0.694  1.00  0.00    -0.648 OA
ENDBRANCH   7   9
BRANCH   8  12
HETATM   12  C12 UNL     1       2.855  -0.977  -0.422  1.00  0.00     0.022 C 
HETATM   13  C13 UNL     1       1.892  -1.989  -0.983  1.00  0.00     0.007 C 
ENDBRANCH   8  12
ENDBRANCH   2   5
BRANCH   1  14
HETATM   14  N1  UNL     1      -2.714   0.324  -0.033  1.00  0.00    -0.294 N 
HETATM   15  C3  UNL     1      -3.400  -0.535  -0.906  1.00  0.00     0.193 C 
HETATM   16  N2  UNL     1      -2.852  -0.816  -2.052  1.00  0.00    -0.373 N 
HETATM   17  N3  UNL     1      -4.655  -1.105  -0.592  1.00  0.00    -0.063 NA
ATOM     18  H22 UNL     1      -1.946  -0.405  -2.279  1.00  0.00     0.158 HD
ATOM     19  H21 UNL     1      -3.350  -1.440  -2.686  1.00  0.00     0.158 HD
BRANCH  14  20
HETATM   20  C2  UNL     1      -3.212   1.590   0.316  1.00  0.00     0.090 C 
HETATM   21  C1  UNL     1      -3.832   2.354  -0.560  1.00  0.00     0.030 C 
ENDBRANCH  14  20
ENDBRANCH   1  14
BRANCH   1  22
HETATM   22  C5  UNL     1      -1.527  -1.154   1.297  1.00  0.00     0.003 C 
HETATM   23  C6  UNL     1      -0.506  -1.884   2.037  1.00  0.00     0.038 C 
ENDBRANCH   1  22
TORSDOF 7
