REMARK  3 active torsions:
REMARK  status: ('A' for Active; 'I' for Inactive)
REMARK    1  A    between atoms: C5_10  and  C6_11 
REMARK       I    between atoms: C6_11  and  N3_13 
REMARK    2  A    between atoms: N3_13  and  N4_15 
REMARK    3  A    between atoms: C7_17  and  C8_18 
ROOT
HETATM    1  C6  UNL     1      -0.493   0.638   0.105  1.00  0.00     0.273 C 
HETATM    2  O1  UNL     1      -0.002   1.786  -0.083  1.00  0.00    -0.266 OA
HETATM    3  N3  UNL     1       0.344  -0.412   0.598  1.00  0.00    -0.266 N 
ATOM      4  H3  UNL     1      -0.095  -1.322   0.734  1.00  0.00     0.190 HD
ENDROOT
BRANCH   1   5
HETATM    5  C5  UNL     1      -1.899   0.310  -0.165  1.00  0.00     0.077 A 
HETATM    6  C1  UNL     1      -2.756  -0.335   0.674  1.00  0.00     0.114 A 
HETATM    7  N1  UNL     1      -2.404  -0.566   1.879  1.00  0.00    -0.385 N 
HETATM    8  N2  UNL     1      -4.005  -0.708   0.251  1.00  0.00    -0.352 N 
ATOM      9  H12 UNL     1      -3.046  -1.049   2.507  1.00  0.00     0.157 HD
ATOM     10  H11 UNL     1      -1.474  -0.288   2.194  1.00  0.00     0.157 HD
HETATM   11  C2  UNL     1      -4.422  -0.451  -0.988  1.00  0.00     0.089 A 
ATOM     12  H2  UNL     1      -4.628  -1.192   0.898  1.00  0.00     0.166 HD
HETATM   13  C3  UNL     1      -3.579   0.213  -1.885  1.00  0.00     0.018 A 
HETATM   14  C4  UNL     1      -2.323   0.587  -1.461  1.00  0.00     0.022 A 
ENDBRANCH   1   5
BRANCH   3  15
HETATM   15  N4  UNL     1       1.682  -0.319   0.908  1.00  0.00    -0.305 N 
HETATM   16  C7  UNL     1       2.540  -0.009   0.018  1.00  0.00     0.157 C 
ATOM     17  H4  UNL     1       1.991  -0.501   1.863  1.00  0.00     0.186 HD
BRANCH  16  18
HETATM   18  C8  UNL     1       3.954   0.092   0.323  1.00  0.00     0.148 A 
HETATM   19  N5  UNL     1       4.500  -0.109   1.544  1.00  0.00    -0.269 N 
HETATM   20  N6  UNL     1       5.804   0.041   1.399  1.00  0.00    -0.007 NA
ATOM     21  H5  UNL     1       4.003  -0.332   2.406  1.00  0.00     0.185 HD
HETATM   22  N7  UNL     1       6.081   0.329   0.126  1.00  0.00    -0.007 NA
HETATM   23  N8  UNL     1       4.939   0.364  -0.548  1.00  0.00    -0.269 N 
ATOM     24  H8  UNL     1       4.830   0.561  -1.543  1.00  0.00     0.185 HD
ENDBRANCH  16  18
ENDBRANCH   3  15
TORSDOF 3
