REMARK  10 active torsions:
REMARK  status: ('A' for Active; 'I' for Inactive)
REMARK    1  A    between atoms: C2_2  and  C3_3 
REMARK    2  A    between atoms: C3_3  and  C4_4 
REMARK    3  A    between atoms: C4_4  and  C5_5 
REMARK    4  A    between atoms: C5_5  and  C6_6 
REMARK    5  A    between atoms: C6_6  and  N1_7 
REMARK    6  A    between atoms: N1_7  and  C8_9 
REMARK    7  A    between atoms: C8_9  and  C11_12 
REMARK    8  A    between atoms: C13_15  and  C15_17 
REMARK    9  A    between atoms: C15_17  and  O2_18 
REMARK   10  A    between atoms: C15_17  and  C16_20 
ROOT
HETATM    1  C11 UNL     1      -0.869  -0.381  -0.386  1.00  0.00     0.172 C 
HETATM    2  C12 UNL     1      -1.409  -1.154   0.764  1.00  0.00     0.203 C 
HETATM    3  O1  UNL     1      -2.738  -1.463   0.733  1.00  0.00    -0.373 OA
HETATM    4  C13 UNL     1      -3.591  -0.511   0.251  1.00  0.00     0.107 C 
HETATM    5  C14 UNL     1      -3.807   0.646   1.185  1.00  0.00     0.051 C 
HETATM    6  C18 UNL     1      -3.052   0.014  -1.049  1.00  0.00     0.209 C 
HETATM    7  O3  UNL     1      -1.774   0.530  -0.918  1.00  0.00    -0.378 OA
ENDROOT
BRANCH   1   8
HETATM    8  C8  UNL     1       0.349   0.410   0.002  1.00  0.00     0.052 C 
HETATM    9  C9  UNL     1       0.895   1.143  -1.234  1.00  0.00     0.041 C 
HETATM   10  C10 UNL     1      -0.027   1.551   0.957  1.00  0.00     0.041 C 
BRANCH   8  11
HETATM   11  N1  UNL     1       1.420  -0.307   0.571  1.00  0.00    -0.386 N 
HETATM   12  C7  UNL     1       1.874   0.047   1.839  1.00  0.00     0.149 C 
BRANCH  11  13
HETATM   13  C6  UNL     1       2.039  -1.304  -0.176  1.00  0.00     0.058 C 
BRANCH  13  14
HETATM   14  C5  UNL     1       3.400  -1.030  -0.713  1.00  0.00     0.044 C 
BRANCH  14  15
HETATM   15  C4  UNL     1       4.472  -0.735   0.265  1.00  0.00     0.009 C 
BRANCH  15  16
HETATM   16  C3  UNL     1       5.789  -0.521  -0.492  1.00  0.00     0.026 C 
BRANCH  16  17
HETATM   17  C2  UNL     1       5.723   0.601  -1.450  1.00  0.00    -0.037 C 
HETATM   18  C1  UNL     1       6.541   1.654  -1.325  1.00  0.00     0.007 C 
ENDBRANCH  16  17
ENDBRANCH  15  16
ENDBRANCH  14  15
ENDBRANCH  13  14
ENDBRANCH  11  13
ENDBRANCH   8  11
ENDBRANCH   1   8
BRANCH   4  19
HETATM   19  C15 UNL     1      -4.944  -1.143   0.007  1.00  0.00     0.176 C 
BRANCH  19  20
HETATM   20  O2  UNL     1      -5.463  -1.651   1.183  1.00  0.00    -0.389 OA
ATOM     21  H2  UNL     1      -6.312  -2.048   1.030  1.00  0.00     0.210 HD
ENDBRANCH  19  20
BRANCH  19  22
HETATM   22  C16 UNL     1      -5.824  -0.206  -0.708  1.00  0.00    -0.003 C 
HETATM   23  C17 UNL     1      -6.702   0.593  -0.146  1.00  0.00     0.009 C 
ENDBRANCH  19  22
ENDBRANCH   4  19
TORSDOF 10
