REMARK  7 active torsions:
REMARK  status: ('A' for Active; 'I' for Inactive)
REMARK    1  A    between atoms: N1_7  and  C7_8 
REMARK    2  A    between atoms: C7_8  and  C8_9 
REMARK    3  A    between atoms: C8_9  and  N2_10 
REMARK    4  A    between atoms: N2_10  and  C9_12 
REMARK    5  A    between atoms: C10_15  and  S1_16 
REMARK    6  A    between atoms: S1_16  and  C11_17 
REMARK    7  A    between atoms: C15_23  and  N5_24 
ROOT
HETATM    1  C9  UNL     1       1.390   0.069  -0.274  1.00  0.00     0.694 A 
HETATM    2  N3  UNL     1       2.562   0.379  -0.869  1.00  0.00    -0.169 N 
ATOM      3  H3  UNL     1       2.669   1.303  -1.287  1.00  0.00     0.186 HD
HETATM    4  C10 UNL     1       3.593  -0.482  -0.932  1.00  0.00     0.175 A 
HETATM    5  N4  UNL     1       3.465  -1.723  -0.376  1.00  0.00    -0.170 N 
ATOM      6  H4  UNL     1       4.236  -2.390  -0.413  1.00  0.00     0.186 HD
HETATM    7  C15 UNL     1       2.310  -2.050   0.218  1.00  0.00     0.692 A 
HETATM    8  N6  UNL     1       1.288  -1.158   0.265  1.00  0.00    -0.023 N 
ATOM      9  H6  UNL     1       0.417  -1.427   0.723  1.00  0.00     0.203 HD
ENDROOT
BRANCH   1  10
HETATM   10  N2  UNL     1       0.451   0.949  -0.256  1.00  0.00    -0.224 N 
ATOM     11  H2  UNL     1       0.656   1.843  -0.702  1.00  0.00     0.177 HD
BRANCH  10  12
HETATM   12  C8  UNL     1      -0.844   0.809   0.320  1.00  0.00     0.168 C 
BRANCH  12  13
HETATM   13  C7  UNL     1      -1.783   0.256  -0.737  1.00  0.00     0.292 C 
BRANCH  13  14
HETATM   14  N1  UNL     1      -3.115   0.083  -0.244  1.00  0.00     0.090 N 
HETATM   15  C6  UNL     1      -3.249  -0.964   0.750  1.00  0.00     0.276 C 
HETATM   16  C4  UNL     1      -4.613  -0.759   1.396  1.00  0.00     0.010 C 
HETATM   17  C3  UNL     1      -5.700  -0.885   0.389  1.00  0.00     0.012 C 
HETATM   18  C5  UNL     1      -4.579   0.610   2.067  1.00  0.00     0.011 C 
HETATM   19  C2  UNL     1      -5.432  -0.299  -0.952  1.00  0.00     0.010 C 
HETATM   20  C1  UNL     1      -5.994   1.120  -1.081  1.00  0.00     0.011 C 
HETATM   21  C16 UNL     1      -3.977  -0.276  -1.345  1.00  0.00     0.276 C 
ENDBRANCH  13  14
ENDBRANCH  12  13
ENDBRANCH  10  12
ENDBRANCH   1  10
BRANCH   4  22
HETATM   22  S1  UNL     1       5.096   0.034  -1.740  1.00  0.00    -0.084 SA
BRANCH  22  23
HETATM   23  C11 UNL     1       6.146   0.812  -0.458  1.00  0.00     0.005 C 
HETATM   24  C12 UNL     1       6.582  -0.195   0.559  1.00  0.00     0.026 C 
HETATM   25  C13 UNL     1       7.308   1.542  -1.085  1.00  0.00     0.026 C 
HETATM   26  C14 UNL     1       5.262   1.887   0.190  1.00  0.00     0.026 C 
ENDBRANCH  22  23
ENDBRANCH   4  22
BRANCH   7  27
HETATM   27  N5  UNL     1       2.178  -3.208   0.740  1.00  0.00    -0.234 N 
ATOM     28  H52 UNL     1       2.946  -3.878   0.705  1.00  0.00     0.174 HD
ATOM     29  H51 UNL     1       1.298  -3.457   1.192  1.00  0.00     0.174 HD
ENDBRANCH   7  27
TORSDOF 7
