REMARK  15 active torsions:
REMARK  status: ('A' for Active; 'I' for Inactive)
REMARK    1  A    between atoms: O1_2  and  C2_3 
REMARK    2  A    between atoms: C2_3  and  C3_5 
REMARK    3  A    between atoms: N1_9  and  C7_10 
REMARK    4  A    between atoms: C7_10  and  O3_11 
REMARK    5  A    between atoms: C8_13  and  N2_14 
REMARK    6  A    between atoms: C8_13  and  C16_34 
REMARK       I    between atoms: N2_14  and  C9_16 
REMARK    7  A    between atoms: C9_16  and  C10_18 
REMARK    8  A    between atoms: C10_18  and  C11_19 
REMARK    9  A    between atoms: C10_18  and  N4_23 
REMARK   10  A    between atoms: C11_19  and  S1_20 
REMARK       I    between atoms: N4_23  and  C13_25 
REMARK   11  A    between atoms: C13_25  and  C14_27 
REMARK   12  A    between atoms: C14_27  and  N5_28 
REMARK   13  A    between atoms: C14_27  and  C15_32 
REMARK   14  A    between atoms: C16_34  and  N6_35 
REMARK   15  A    between atoms: C16_34  and  N7_39 
ROOT
HETATM    1  S1  UNL     1       2.400   4.020  -0.164  1.00  0.00    -0.048 SA
HETATM    2  C12 UNL     1       3.494   3.892  -1.562  1.00  0.00     0.133 C 
HETATM    3  N3  UNL     1       4.194   3.798  -2.484  1.00  0.00    -0.184 NA
ENDROOT
BRANCH   1   4
HETATM    4  C11 UNL     1       2.956   2.785   1.083  1.00  0.00     0.125 C 
BRANCH   4   5
HETATM    5  C10 UNL     1       2.740   1.429   0.527  1.00  0.00     0.187 C 
BRANCH   5   6
HETATM    6  C9  UNL     1       1.319   1.152   0.299  1.00  0.00     0.245 C 
HETATM    7  N2  UNL     1       0.303   2.071   0.555  1.00  0.00    -0.322 N 
ATOM      8  H2  UNL     1       0.562   2.991   0.910  1.00  0.00     0.169 HD
HETATM    9  O4  UNL     1       1.048  -0.024  -0.160  1.00  0.00    -0.271 OA
BRANCH   7  10
HETATM   10  C8  UNL     1      -1.153   1.778   0.336  1.00  0.00     0.121 C 
HETATM   11  C7  UNL     1      -1.467   0.400   0.595  1.00  0.00     0.166 C 
BRANCH  11  12
HETATM   12  N1  UNL     1      -2.236  -0.574  -0.007  1.00  0.00    -0.346 N 
HETATM   13  C3  UNL     1      -3.047  -0.632  -1.166  1.00  0.00     0.186 C 
HETATM   14  C4  UNL     1      -2.640  -2.036  -1.708  1.00  0.00     0.037 C 
HETATM   15  C5  UNL     1      -2.836  -2.840  -0.456  1.00  0.00     0.022 C 
HETATM   16  C6  UNL     1      -2.339  -1.947   0.621  1.00  0.00     0.126 C 
BRANCH  13  17
HETATM   17  C2  UNL     1      -4.505  -0.780  -0.801  1.00  0.00     0.281 C 
HETATM   18  O2  UNL     1      -5.327  -0.851  -1.747  1.00  0.00    -0.263 OA
BRANCH  17  19
HETATM   19  O1  UNL     1      -4.955  -0.838   0.490  1.00  0.00    -0.325 OA
HETATM   20  C1  UNL     1      -6.313  -0.978   0.862  1.00  0.00     0.213 C 
ENDBRANCH  17  19
ENDBRANCH  13  17
ENDBRANCH  11  12
BRANCH  11  21
HETATM   21  O3  UNL     1      -0.859  -0.050   1.705  1.00  0.00    -0.345 OA
ATOM     22  H3  UNL     1      -0.329   0.621   2.120  1.00  0.00     0.219 HD
ENDBRANCH  11  21
BRANCH  10  23
HETATM   23  C16 UNL     1      -1.687   2.587  -0.746  1.00  0.00     0.431 C 
BRANCH  23  24
HETATM   24  N6  UNL     1      -3.122   2.742  -0.771  1.00  0.00    -0.045 N 
ATOM     25  H63 UNL     1      -3.569   1.825  -0.771  1.00  0.00     0.277 HD
ATOM     26  H62 UNL     1      -3.447   3.105   0.125  1.00  0.00     0.277 HD
ATOM     27  H61 UNL     1      -3.497   3.310  -1.531  1.00  0.00     0.277 HD
ENDBRANCH  23  24
BRANCH  23  28
HETATM   28  N7  UNL     1      -1.194   2.337  -2.076  1.00  0.00    -0.045 N 
ATOM     29  H73 UNL     1      -0.176   2.406  -2.076  1.00  0.00     0.277 HD
ATOM     30  H72 UNL     1      -1.320   1.350  -2.301  1.00  0.00     0.277 HD
ATOM     31  H71 UNL     1      -1.569   2.905  -2.836  1.00  0.00     0.277 HD
ENDBRANCH  23  28
ENDBRANCH  10  23
ENDBRANCH   7  10
ENDBRANCH   5   6
BRANCH   5  32
HETATM   32  N4  UNL     1       3.366   0.326   1.200  1.00  0.00    -0.345 N 
HETATM   33  C13 UNL     1       4.388  -0.472   0.620  1.00  0.00     0.249 C 
HETATM   34  O5  UNL     1       4.804  -0.227  -0.559  1.00  0.00    -0.271 OA
ATOM     35  H4  UNL     1       3.060   0.103   2.147  1.00  0.00     0.163 HD
BRANCH  33  36
HETATM   36  C14 UNL     1       5.031  -1.605   1.300  1.00  0.00     0.284 C 
BRANCH  36  37
HETATM   37  N5  UNL     1       4.421  -1.749   2.606  1.00  0.00    -0.066 N 
ATOM     38  H53 UNL     1       4.455  -0.889   3.154  1.00  0.00     0.275 HD
ATOM     39  H52 UNL     1       3.406  -1.841   2.559  1.00  0.00     0.275 HD
ATOM     40  H51 UNL     1       4.867  -2.535   3.078  1.00  0.00     0.275 HD
ENDBRANCH  36  37
BRANCH  36  41
HETATM   41  C15 UNL     1       4.651  -2.869   0.514  1.00  0.00     0.128 C 
HETATM   42  S2  UNL     1       5.392  -4.319   1.277  1.00  0.00    -0.095 SA
ENDBRANCH  36  41
ENDBRANCH  33  36
ENDBRANCH   5  32
ENDBRANCH   4   5
ENDBRANCH   1   4
TORSDOF 15
