REMARK  4 active torsions:
REMARK  status: ('A' for Active; 'I' for Inactive)
REMARK    1  A    between atoms: N1_1  and  N2_4 
REMARK    2  A    between atoms: N6_10  and  N7_12 
REMARK    3  A    between atoms: C2_14  and  C3_15 
REMARK    4  A    between atoms: N8_20  and  O1_21 
ROOT
HETATM    1  N2  UNL     1      -2.667  -0.364   0.333  1.00  0.00    -0.011 N 
HETATM    2  N3  UNL     1      -4.010  -0.707   0.538  1.00  0.00     0.030 NA
HETATM    3  N4  UNL     1      -4.636  -0.078  -0.551  1.00  0.00     0.008 NA
HETATM    4  N5  UNL     1      -3.787  -0.273  -1.647  1.00  0.00    -0.114 N 
ATOM      5  H5  UNL     1      -4.044  -0.328  -2.633  1.00  0.00     0.203 HD
HETATM    6  C1  UNL     1      -2.476  -0.379  -1.076  1.00  0.00     0.743 C 
HETATM    7  N6  UNL     1      -1.375  -0.468  -1.743  1.00  0.00    -0.129 N 
ATOM      8  H6  UNL     1      -1.399  -0.466  -2.763  1.00  0.00     0.205 HD
ENDROOT
BRANCH   7   9
HETATM    9  N7  UNL     1      -0.160  -0.566  -1.083  1.00  0.00    -0.295 N 
HETATM   10  C2  UNL     1       0.598   0.464  -0.977  1.00  0.00     0.139 C 
ATOM     11  H7  UNL     1       0.132  -1.457  -0.681  1.00  0.00     0.186 HD
BRANCH  10  12
HETATM   12  C3  UNL     1       1.883   0.359  -0.279  1.00  0.00     0.078 A 
HETATM   13  C4  UNL     1       2.725   1.439  -0.143  1.00  0.00     0.033 A 
HETATM   14  C5  UNL     1       3.945   1.331   0.523  1.00  0.00     0.004 A 
HETATM   15  C6  UNL     1       4.321   0.114   1.059  1.00  0.00     0.020 A 
HETATM   16  C7  UNL     1       3.452  -0.947   0.903  1.00  0.00     0.123 A 
HETATM   17  N8  UNL     1       2.272  -0.812   0.251  1.00  0.00    -0.235 N 
BRANCH  17  18
HETATM   18  O1  UNL     1       1.408  -1.888   0.103  1.00  0.00    -0.283 OA
ATOM     19  H1  UNL     1       1.683  -2.716   0.478  1.00  0.00     0.245 HD
ENDBRANCH  17  18
ENDBRANCH  10  12
ENDBRANCH   7   9
BRANCH   1  20
HETATM   20  N1  UNL     1      -1.675  -0.061   1.257  1.00  0.00    -0.311 N 
ATOM     21  H12 UNL     1      -1.812  -0.050   2.268  1.00  0.00     0.179 HD
ATOM     22  H11 UNL     1      -0.697   0.189   1.108  1.00  0.00     0.179 HD
ENDBRANCH   1  20
TORSDOF 4
