REMARK  4 active torsions:
REMARK  status: ('A' for Active; 'I' for Inactive)
REMARK    1  A    between atoms: C3_3  and  C4_5 
REMARK       I    between atoms: N1_6  and  C5_8 
REMARK    2  A    between atoms: C5_8  and  C6_10 
REMARK    3  A    between atoms: C9_17  and  N4_18 
REMARK    4  A    between atoms: C11_23  and  C12_24 
ROOT
HETATM    1  C6  UNL     1      -0.929  -0.652  -0.696  1.00  0.00     0.122 C 
HETATM    2  C7  UNL     1      -1.855  -1.815  -0.521  1.00  0.00     0.035 A 
HETATM    3  C8  UNL     1      -2.618  -1.914   0.633  1.00  0.00     0.095 A 
HETATM    4  N2  UNL     1      -3.372  -3.027   0.580  1.00  0.00    -0.292 N 
ATOM      5  H2  UNL     1      -4.026  -3.344   1.296  1.00  0.00     0.187 HD
HETATM    6  N3  UNL     1      -3.115  -3.639  -0.566  1.00  0.00    -0.284 N 
ATOM      7  H3  UNL     1      -3.544  -4.511  -0.875  1.00  0.00     0.188 HD
HETATM    8  C9  UNL     1      -2.187  -2.925  -1.272  1.00  0.00     0.123 A 
HETATM    9  S1  UNL     1      -2.489  -0.650   1.902  1.00  0.00    -0.110 SA
HETATM   10  C10 UNL     1      -1.813   0.837   1.100  1.00  0.00     0.086 C 
HETATM   11  C11 UNL     1      -1.726   0.577  -0.391  1.00  0.00     0.013 C 
ENDROOT
BRANCH   1  12
HETATM   12  C5  UNL     1       0.275  -0.806   0.168  1.00  0.00     0.230 C 
HETATM   13  N1  UNL     1       1.305   0.163   0.180  1.00  0.00    -0.335 N 
HETATM   14  C4  UNL     1       2.548  -0.163   0.258  1.00  0.00     0.114 C 
ATOM     15  H1  UNL     1       1.055   1.150   0.125  1.00  0.00     0.168 HD
HETATM   16  O1  UNL     1       0.355  -1.830   0.894  1.00  0.00    -0.272 OA
BRANCH  14  17
HETATM   17  C3  UNL     1       3.601   0.816   0.270  1.00  0.00     0.045 C 
HETATM   18  C2  UNL     1       4.874   0.464   0.351  1.00  0.00    -0.006 C 
HETATM   19  C1  UNL     1       5.937   1.508   0.361  1.00  0.00     0.038 C 
HETATM   20 CL1  UNL     1       3.169   2.510   0.176  1.00  0.00    -0.083 Cl
ENDBRANCH  14  17
ENDBRANCH   1  12
BRANCH  11  21
HETATM   21  C12 UNL     1      -1.212   1.792  -1.090  1.00  0.00     0.002 C 
HETATM   22  C13 UNL     1      -2.088   2.974  -0.712  1.00  0.00     0.005 C 
ENDBRANCH  11  21
BRANCH   8  23
HETATM   23  N4  UNL     1      -1.700  -3.216  -2.424  1.00  0.00    -0.384 N 
ATOM     24  H42 UNL     1      -1.008  -2.683  -2.951  1.00  0.00     0.157 HD
ATOM     25  H41 UNL     1      -1.945  -4.036  -2.979  1.00  0.00     0.157 HD
ENDBRANCH   8  23
TORSDOF 4
