REMARK  7 active torsions:
REMARK  status: ('A' for Active; 'I' for Inactive)
REMARK    1  A    between atoms: C3_3  and  N1_4 
REMARK    2  A    between atoms: N1_4  and  C5_6 
REMARK    3  A    between atoms: C5_6  and  C6_7 
REMARK    4  A    between atoms: C9_14  and  N4_15 
REMARK    5  A    between atoms: N4_15  and  C10_17 
REMARK    6  A    between atoms: C10_17  and  C11_18 
REMARK    7  A    between atoms: C14_26  and  N7_27 
ROOT
HETATM    1  C1  UNL     1       5.350   2.731   0.199  1.00  0.00     0.098 C 
HETATM    2  C2  UNL     1       5.416   1.548  -0.118  1.00  0.00    -0.158 C 
HETATM    3  C3  UNL     1       5.524   0.142  -0.493  1.00  0.00     0.351 C 
ENDROOT
BRANCH   3   4
HETATM    4  N1  UNL     1       4.369  -0.555   0.092  1.00  0.00     0.098 N 
HETATM    5  C4  UNL     1       4.598  -0.520   1.517  1.00  0.00     0.311 C 
BRANCH   4   6
HETATM    6  C5  UNL     1       3.167   0.128  -0.325  1.00  0.00     0.314 C 
BRANCH   6   7
HETATM    7  C6  UNL     1       1.927  -0.538   0.078  1.00  0.00     0.003 A 
HETATM    8  C7  UNL     1       1.872  -1.742   0.752  1.00  0.00     0.099 A 
HETATM    9  N2  UNL     1       0.571  -2.074   0.942  1.00  0.00    -0.350 N 
HETATM   10  C8  UNL     1      -0.230  -1.131   0.418  1.00  0.00     0.135 A 
ATOM     11  H2  UNL     1       0.247  -2.918   1.415  1.00  0.00     0.166 HD
HETATM   12  N3  UNL     1      -1.587  -0.990   0.345  1.00  0.00    -0.176 N 
HETATM   13  C15 UNL     1       0.615  -0.180  -0.117  1.00  0.00     0.062 A 
HETATM   14  C9  UNL     1      -2.096   0.091  -0.257  1.00  0.00     0.681 A 
ATOM     15  H3  UNL     1      -2.203  -1.699   0.744  1.00  0.00     0.186 HD
HETATM   16  N6  UNL     1      -1.277   1.015  -0.776  1.00  0.00    -0.176 N 
HETATM   17  C14 UNL     1       0.065   0.905  -0.721  1.00  0.00     0.129 A 
ATOM     18  H6  UNL     1      -1.684   1.833  -1.230  1.00  0.00     0.186 HD
BRANCH  14  19
HETATM   19  N4  UNL     1      -3.394   0.210  -0.321  1.00  0.00    -0.218 N 
ATOM     20  H4  UNL     1      -3.797   1.029  -0.777  1.00  0.00     0.178 HD
BRANCH  19  21
HETATM   21  C10 UNL     1      -4.276  -0.791   0.239  1.00  0.00     0.222 C 
BRANCH  21  22
HETATM   22  C11 UNL     1      -5.676  -0.312   0.138  1.00  0.00     0.141 A 
HETATM   23  N5  UNL     1      -6.530  -0.465  -0.886  1.00  0.00    -0.347 N 
HETATM   24  C12 UNL     1      -7.685   0.139  -0.515  1.00  0.00     0.114 A 
ATOM     25  H5  UNL     1      -6.346  -0.942  -1.769  1.00  0.00     0.167 HD
HETATM   26  C13 UNL     1      -7.500   0.652   0.742  1.00  0.00     0.161 A 
HETATM   27  O1  UNL     1      -6.275   0.360   1.105  1.00  0.00    -0.307 OA
ENDBRANCH  21  22
ENDBRANCH  19  21
ENDBRANCH  14  19
BRANCH  17  28
HETATM   28  N7  UNL     1       0.825   1.798  -1.223  1.00  0.00    -0.384 N 
ATOM     29  H72 UNL     1       0.412   2.613  -1.677  1.00  0.00     0.157 HD
ATOM     30  H71 UNL     1       1.841   1.715  -1.181  1.00  0.00     0.157 HD
ENDBRANCH  17  28
ENDBRANCH   6   7
ENDBRANCH   4   6
ENDBRANCH   3   4
TORSDOF 7
