REMARK  2 active torsions:
REMARK  status: ('A' for Active; 'I' for Inactive)
REMARK    1  A    between atoms: C5_12  and  N4_13 
REMARK    2  A    between atoms: N4_13  and  N5_15 
ROOT
HETATM    1  C1  UNL     1      -2.895  -1.328  -0.472  1.00  0.00     0.040 C 
HETATM    2  C2  UNL     1      -2.706   0.105  -0.092  1.00  0.00     0.019 C 
HETATM    3  C3  UNL     1      -1.490   0.584   0.102  1.00  0.00     0.132 A 
HETATM    4  N1  UNL     1      -1.269   1.921   0.459  1.00  0.00    -0.176 N 
ATOM      5  H1  UNL     1      -2.056   2.559   0.578  1.00  0.00     0.185 HD
HETATM    6  C4  UNL     1       0.060   2.380   0.654  1.00  0.00     0.692 A 
HETATM    7  N2  UNL     1       0.227   3.635   0.987  1.00  0.00    -0.234 N 
ATOM      8  H21 UNL     1       1.182   3.965   1.127  1.00  0.00     0.174 HD
ATOM      9  H22 UNL     1      -0.559   4.274   1.106  1.00  0.00     0.174 HD
HETATM   10  N3  UNL     1       1.153   1.491   0.488  1.00  0.00    -0.021 N 
ATOM     11  H3  UNL     1       2.106   1.826   0.629  1.00  0.00     0.203 HD
HETATM   12  C5  UNL     1       0.944   0.240   0.154  1.00  0.00     0.714 A 
HETATM   13  N6  UNL     1      -0.366  -0.273  -0.054  1.00  0.00    -0.174 N 
ATOM     14  H6  UNL     1      -0.499  -1.250  -0.314  1.00  0.00     0.186 HD
ENDROOT
BRANCH  12  15
HETATM   15  N4  UNL     1       2.054  -0.651  -0.012  1.00  0.00    -0.134 N 
HETATM   16  C6  UNL     1       1.845  -2.024  -0.370  1.00  0.00     0.197 C 
BRANCH  15  17
HETATM   17  N5  UNL     1       3.346  -0.161   0.182  1.00  0.00    -0.329 N 
ATOM     18  H52 UNL     1       3.495   0.815   0.437  1.00  0.00     0.177 HD
ATOM     19  H51 UNL     1       4.136  -0.795   0.064  1.00  0.00     0.177 HD
ENDBRANCH  15  17
ENDBRANCH  12  15
TORSDOF 2
