REMARK  9 active torsions:
REMARK  status: ('A' for Active; 'I' for Inactive)
REMARK    1  A    between atoms: C2_2  and  C3_3 
REMARK    2  A    between atoms: C3_3  and  N1_4 
REMARK    3  A    between atoms: N1_4  and  C4_6 
REMARK    4  A    between atoms: C5_9  and  N3_10 
REMARK    5  A    between atoms: C7_16  and  N5_17 
REMARK    6  A    between atoms: N5_17  and  C8_19 
REMARK    7  A    between atoms: C8_19  and  C10_21 
REMARK    8  A    between atoms: C10_21  and  O1_22 
REMARK    9  A    between atoms: C13_28  and  O2_29 
ROOT
HETATM    1  C4  UNL     1      -1.664   0.424   0.328  1.00  0.00     0.132 A 
HETATM    2  N2  UNL     1      -1.611   1.667   0.879  1.00  0.00    -0.176 N 
ATOM      3  H2  UNL     1      -2.484   2.164   1.057  1.00  0.00     0.186 HD
HETATM    4  C5  UNL     1      -0.453   2.261   1.196  1.00  0.00     0.678 A 
HETATM    5  N4  UNL     1       0.696   1.634   0.973  1.00  0.00    -0.187 N 
ATOM      6  H4  UNL     1       1.569   2.100   1.220  1.00  0.00     0.184 HD
HETATM    7  C6  UNL     1       0.745   0.417   0.438  1.00  0.00     0.109 A 
HETATM    8  C7  UNL     1       1.970  -0.206   0.208  1.00  0.00     0.130 A 
HETATM    9  N6  UNL     1       1.985  -1.422  -0.340  1.00  0.00    -0.342 N 
ATOM     10  H6  UNL     1       2.878  -1.884  -0.513  1.00  0.00     0.167 HD
HETATM   11  C11 UNL     1       0.822  -2.060  -0.674  1.00  0.00     0.041 A 
HETATM   12  C12 UNL     1       0.838  -3.408  -1.282  1.00  0.00     0.071 C 
HETATM   13  C13 UNL     1      -0.413  -1.472  -0.460  1.00  0.00     0.106 A 
HETATM   14  C15 UNL     1      -0.462  -0.215   0.103  1.00  0.00     0.074 A 
ENDROOT
BRANCH   8  15
HETATM   15  N5  UNL     1       3.027   0.421   0.534  1.00  0.00    -0.368 N 
ATOM     16  H5  UNL     1       2.913   1.347   0.946  1.00  0.00     0.161 HD
BRANCH  15  17
HETATM   17  C8  UNL     1       4.364  -0.066   0.370  1.00  0.00     0.102 C 
HETATM   18  C9  UNL     1       5.224   0.621   1.427  1.00  0.00     0.034 C 
BRANCH  17  19
HETATM   19  C10 UNL     1       4.942   0.252  -0.996  1.00  0.00     0.188 C 
BRANCH  19  20
HETATM   20  O1  UNL     1       4.993   1.602  -1.238  1.00  0.00    -0.399 OA
ATOM     21  H1  UNL     1       5.355   1.801  -2.093  1.00  0.00     0.209 HD
ENDBRANCH  19  20
ENDBRANCH  17  19
ENDBRANCH  15  17
ENDBRANCH   8  15
BRANCH   4  22
HETATM   22  N3  UNL     1      -0.503   3.451   1.720  1.00  0.00    -0.234 N 
ATOM     23  H32 UNL     1      -1.386   3.933   1.891  1.00  0.00     0.174 HD
ATOM     24  H31 UNL     1       0.379   3.903   1.961  1.00  0.00     0.174 HD
ENDBRANCH   4  22
BRANCH   1  25
HETATM   25  N1  UNL     1      -2.771  -0.116   0.017  1.00  0.00    -0.375 N 
ATOM     26  H1  UNL     1      -2.732  -1.049  -0.392  1.00  0.00     0.161 HD
BRANCH  25  27
HETATM   27  C3  UNL     1      -4.064   0.464   0.188  1.00  0.00     0.121 C 
BRANCH  27  28
HETATM   28  C2  UNL     1      -4.396   1.351  -1.000  1.00  0.00     0.015 C 
HETATM   29  C1  UNL     1      -5.780   1.964  -0.806  1.00  0.00     0.006 C 
ENDBRANCH  27  28
ENDBRANCH  25  27
ENDBRANCH   1  25
BRANCH  13  30
HETATM   30  O2  UNL     1      -1.528  -2.161  -0.815  1.00  0.00    -0.353 OA
HETATM   31  C14 UNL     1      -2.218  -3.112  -0.021  1.00  0.00     0.210 C 
ENDBRANCH  13  30
TORSDOF 9
