REMARK  8 active torsions:
REMARK  status: ('A' for Active; 'I' for Inactive)
REMARK    1  A    between atoms: N1_2  and  C2_4 
REMARK    2  A    between atoms: C2_4  and  C3_5 
REMARK    3  A    between atoms: C3_5  and  C4_6 
REMARK    4  A    between atoms: C3_5  and  C11_13 
REMARK    5  A    between atoms: C4_6  and  C5_7 
REMARK       I    between atoms: C11_13  and  N2_15 
REMARK    6  A    between atoms: N2_15  and  C12_17 
REMARK    7  A    between atoms: C12_17  and  C14_19 
REMARK       I    between atoms: C14_19  and  N3_21 
REMARK    8  A    between atoms: C18_25  and  N4_26 
ROOT
HETATM    1  C11 UNL     1      -0.922   0.101   1.234  1.00  0.00     0.227 C 
HETATM    2  O1  UNL     1      -0.800  -0.796   2.084  1.00  0.00    -0.273 OA
HETATM    3  N2  UNL     1       0.121   0.208   0.294  1.00  0.00    -0.348 N 
ATOM      4  H2  UNL     1       0.061   0.931  -0.423  1.00  0.00     0.163 HD
ENDROOT
BRANCH   3   5
HETATM    5  C12 UNL     1       1.285  -0.674   0.304  1.00  0.00     0.172 C 
HETATM    6  C13 UNL     1       1.322  -1.492  -0.978  1.00  0.00     0.042 C 
BRANCH   5   7
HETATM    7  C14 UNL     1       2.525   0.128   0.373  1.00  0.00     0.242 C 
HETATM    8  O2  UNL     1       2.391   1.396   0.348  1.00  0.00    -0.271 OA
HETATM    9  N3  UNL     1       3.831  -0.391   0.464  1.00  0.00    -0.348 N 
HETATM   10  C15 UNL     1       4.156  -1.791   0.527  1.00  0.00     0.126 C 
HETATM   11  C19 UNL     1       4.997   0.511   0.496  1.00  0.00     0.158 C 
HETATM   12  C16 UNL     1       4.936  -2.154  -0.715  1.00  0.00     0.022 C 
HETATM   13  C17 UNL     1       6.188  -1.307  -0.768  1.00  0.00     0.036 C 
HETATM   14  C18 UNL     1       5.923   0.165  -0.652  1.00  0.00     0.201 C 
BRANCH  14  15
HETATM   15  N4  UNL     1       7.195   0.818  -0.406  1.00  0.00    -0.073 N 
ATOM     16  H43 UNL     1       7.688   0.438   0.402  1.00  0.00     0.274 HD
ATOM     17  H42 UNL     1       7.899   0.595  -1.109  1.00  0.00     0.274 HD
ATOM     18  H41 UNL     1       7.015   1.819  -0.327  1.00  0.00     0.274 HD
ENDBRANCH  14  15
ENDBRANCH   5   7
ENDBRANCH   3   5
BRANCH   1  19
HETATM   19  C3  UNL     1      -2.066   1.006   1.190  1.00  0.00     0.116 C 
BRANCH  19  20
HETATM   20  C2  UNL     1      -1.724   2.431   1.494  1.00  0.00     0.069 C 
BRANCH  20  21
HETATM   21  N1  UNL     1      -1.053   3.233   0.595  1.00  0.00    -0.406 N 
HETATM   22  C1  UNL     1      -1.629   3.705  -0.593  1.00  0.00     0.145 C 
ATOM     23  H1  UNL     1      -0.090   3.496   0.805  1.00  0.00     0.158 HD
ENDBRANCH  20  21
ENDBRANCH  19  20
BRANCH  19  24
HETATM   24  C4  UNL     1      -2.936   0.889   0.004  1.00  0.00     0.024 C 
BRANCH  24  25
HETATM   25  C5  UNL     1      -3.346  -0.533  -0.351  1.00  0.00    -0.013 C 
HETATM   26  C6  UNL     1      -4.211  -0.439  -1.569  1.00  0.00     0.005 C 
HETATM   27  C7  UNL     1      -5.666  -0.451  -1.402  1.00  0.00     0.000 C 
HETATM   28  C8  UNL     1      -6.209  -0.888  -0.084  1.00  0.00     0.000 C 
HETATM   29  C9  UNL     1      -5.253  -1.953   0.436  1.00  0.00     0.000 C 
HETATM   30  C10 UNL     1      -4.006  -1.150   0.835  1.00  0.00     0.005 C 
ENDBRANCH  24  25
ENDBRANCH  19  24
ENDBRANCH   1  19
TORSDOF 8
