REMARK  7 active torsions:
REMARK  status: ('A' for Active; 'I' for Inactive)
REMARK    1  A    between atoms: C2_2  and  C4_4 
REMARK    2  A    between atoms: C8_10  and  C9_11 
REMARK    3  A    between atoms: C9_11  and  N2_12 
REMARK       I    between atoms: N2_12  and  C10_14 
REMARK    4  A    between atoms: C10_14  and  C11_16 
REMARK    5  A    between atoms: C11_16  and  O2_18 
REMARK    6  A    between atoms: C11_16  and  C13_20 
REMARK    7  A    between atoms: C13_20  and  N3_21 
ROOT
HETATM    1  N2  UNL     1       0.473  -1.242  -0.375  1.00  0.00    -0.358 N 
ATOM      2  H2  UNL     1       0.348  -2.232  -0.166  1.00  0.00     0.162 HD
HETATM    3  C10 UNL     1      -0.568  -0.365  -0.101  1.00  0.00     0.253 C 
HETATM    4  O1  UNL     1      -0.522   0.865  -0.320  1.00  0.00    -0.270 OA
ENDROOT
BRANCH   3   5
HETATM    5  C11 UNL     1      -1.876  -0.846   0.502  1.00  0.00     0.161 C 
HETATM    6  C12 UNL     1      -1.963  -0.132   1.826  1.00  0.00     0.058 C 
BRANCH   5   7
HETATM    7  O2  UNL     1      -1.786  -2.231   0.692  1.00  0.00    -0.379 OA
ATOM      8  H2  UNL     1      -2.604  -2.532   1.069  1.00  0.00     0.211 HD
ENDBRANCH   5   7
BRANCH   5   9
HETATM    9  C13 UNL     1      -2.929  -0.475  -0.487  1.00  0.00     0.319 C 
BRANCH   9  10
HETATM   10  N3  UNL     1      -4.259  -0.885  -0.191  1.00  0.00     0.091 N 
HETATM   11  C14 UNL     1      -5.095  -0.439  -1.317  1.00  0.00     0.274 C 
HETATM   12  C15 UNL     1      -5.470   1.030  -1.117  1.00  0.00     0.050 C 
HETATM   13  C16 UNL     1      -6.639   1.015  -0.129  1.00  0.00     0.085 C 
HETATM   14 CL1  UNL     1      -8.135   0.768  -1.051  1.00  0.00    -0.125 Cl
HETATM   15  C17 UNL     1      -6.363  -0.139   0.816  1.00  0.00     0.050 C 
HETATM   16  C18 UNL     1      -4.851  -0.345   0.991  1.00  0.00     0.274 C 
ENDBRANCH   9  10
ENDBRANCH   5   9
ENDBRANCH   3   5
BRANCH   1  17
HETATM   17  C9  UNL     1       1.718  -0.809  -0.941  1.00  0.00     0.127 C 
BRANCH  17  18
HETATM   18  C8  UNL     1       2.473   0.185  -0.086  1.00  0.00     0.011 C 
HETATM   19  C4  UNL     1       3.748   0.561  -0.770  1.00  0.00     0.012 C 
HETATM   20  C5  UNL     1       4.540   1.429   0.182  1.00  0.00     0.119 C 
HETATM   21  N1  UNL     1       4.828   0.784   1.403  1.00  0.00    -0.421 N 
HETATM   22  C6  UNL     1       3.741   0.217   2.103  1.00  0.00     0.114 C 
ATOM     23  H1  UNL     1       5.780   0.730   1.764  1.00  0.00     0.153 HD
HETATM   24  C7  UNL     1       2.602  -0.288   1.324  1.00  0.00     0.026 C 
BRANCH  19  25
HETATM   25  C2  UNL     1       4.529  -0.514  -1.402  1.00  0.00    -0.017 C 
HETATM   26  C1  UNL     1       5.663   0.170  -2.188  1.00  0.00     0.010 C 
HETATM   27  C3  UNL     1       5.159  -1.519  -0.521  1.00  0.00     0.010 C 
ENDBRANCH  19  25
ENDBRANCH  17  18
ENDBRANCH   1  17
TORSDOF 7
