REMARK  9 active torsions:
REMARK  status: ('A' for Active; 'I' for Inactive)
REMARK    1  A    between atoms: N1_2  and  C2_4 
REMARK    2  A    between atoms: C3_7  and  N3_8 
REMARK    3  A    between atoms: N3_8  and  C4_10 
REMARK    4  A    between atoms: C4_10  and  C5_11 
REMARK    5  A    between atoms: C5_11  and  O1_12 
REMARK    6  A    between atoms: O1_12  and  C6_13 
REMARK    7  A    between atoms: C6_13  and  C7_14 
REMARK    8  A    between atoms: C9_17  and  N4_18 
REMARK    9  A    between atoms: N4_18  and  C10_20 
ROOT
HETATM    1  C2  UNL     1       1.705   3.531   0.031  1.00  0.00     0.679 A 
HETATM    2  N2  UNL     1       1.801   2.217   0.335  1.00  0.00    -0.176 N 
ATOM      3  H2  UNL     1       2.671   1.856   0.727  1.00  0.00     0.186 HD
HETATM    4  C3  UNL     1       0.777   1.381   0.132  1.00  0.00     0.133 A 
HETATM    5  C8  UNL     1      -0.393   1.905  -0.405  1.00  0.00     0.079 A 
HETATM    6  C9  UNL     1      -1.469   1.067  -0.628  1.00  0.00     0.117 A 
HETATM    7  N5  UNL     1      -2.596   1.581  -1.147  1.00  0.00    -0.352 N 
ATOM      8  H5  UNL     1      -3.392   0.965  -1.313  1.00  0.00     0.166 HD
HETATM    9  C16 UNL     1      -2.705   2.904  -1.458  1.00  0.00     0.092 A 
HETATM   10  C17 UNL     1      -1.656   3.753  -1.248  1.00  0.00     0.048 A 
HETATM   11  C18 UNL     1      -0.470   3.244  -0.708  1.00  0.00     0.068 A 
HETATM   12  N6  UNL     1       0.579   4.047  -0.488  1.00  0.00    -0.191 N 
ATOM     13  H6  UNL     1       0.523   5.040  -0.712  1.00  0.00     0.184 HD
ENDROOT
BRANCH   4  14
HETATM   14  N3  UNL     1       0.804   0.125   0.399  1.00  0.00    -0.373 N 
ATOM     15  H3  UNL     1      -0.025  -0.439   0.210  1.00  0.00     0.161 HD
BRANCH  14  16
HETATM   16  C4  UNL     1       1.995  -0.524   0.969  1.00  0.00     0.147 C 
BRANCH  16  17
HETATM   17  C5  UNL     1       2.941  -0.930  -0.129  1.00  0.00     0.187 C 
BRANCH  17  18
HETATM   18  O1  UNL     1       4.081  -1.531   0.292  1.00  0.00    -0.387 OA
BRANCH  18  19
HETATM   19  C6  UNL     1       3.829  -2.700   0.979  1.00  0.00     0.199 C 
BRANCH  19  20
HETATM   20  C7  UNL     1       5.157  -3.345   1.386  1.00  0.00     0.248 C 
HETATM   21  F1  UNL     1       5.864  -2.503   2.184  1.00  0.00    -0.253 F 
ENDBRANCH  19  20
ENDBRANCH  18  19
ENDBRANCH  17  18
ENDBRANCH  16  17
ENDBRANCH  14  16
ENDBRANCH   4  14
BRANCH   1  22
HETATM   22  N1  UNL     1       2.719   4.321   0.241  1.00  0.00    -0.230 N 
HETATM   23  C1  UNL     1       2.632   5.726  -0.079  1.00  0.00     0.165 C 
ATOM     24  H1  UNL     1       3.581   3.944   0.635  1.00  0.00     0.177 HD
ENDBRANCH   1  22
BRANCH   6  25
HETATM   25  N4  UNL     1      -1.359  -0.161  -0.336  1.00  0.00    -0.371 N 
ATOM     26  H4  UNL     1      -0.466  -0.463   0.053  1.00  0.00     0.161 HD
BRANCH  25  27
HETATM   27  C10 UNL     1      -2.365  -1.165  -0.499  1.00  0.00     0.083 C 
HETATM   28  C11 UNL     1      -1.734  -2.556  -0.576  1.00  0.00     0.025 C 
HETATM   29  C12 UNL     1      -2.806  -3.522  -0.960  1.00  0.00     0.002 C 
HETATM   30  C13 UNL     1      -4.129  -3.258  -0.308  1.00  0.00     0.000 C 
HETATM   31  C14 UNL     1      -4.043  -2.386   0.912  1.00  0.00     0.002 C 
HETATM   32  C15 UNL     1      -3.223  -1.164   0.745  1.00  0.00     0.025 C 
ENDBRANCH  25  27
ENDBRANCH   6  25
TORSDOF 9
