REMARK  8 active torsions:
REMARK  status: ('A' for Active; 'I' for Inactive)
REMARK    1  A    between atoms: C2_2  and  C3_3 
REMARK    2  A    between atoms: C8_8  and  C9_9 
REMARK    3  A    between atoms: C9_9  and  O1_12 
REMARK    4  A    between atoms: C12_14  and  C13_15 
REMARK    5  A    between atoms: C14_16  and  C15_17 
REMARK    6  A    between atoms: C15_17  and  O2_19 
REMARK    7  A    between atoms: C15_17  and  C17_21 
REMARK    8  A    between atoms: C17_21  and  C18_22 
ROOT
HETATM    1  C3  UNL     1      -1.422  -1.738   0.059  1.00  0.00     0.043 C 
HETATM    2  C4  UNL     1      -2.886  -1.947   0.113  1.00  0.00    -0.079 C 
HETATM    3  C5  UNL     1      -3.474  -3.254  -0.335  1.00  0.00     0.044 C 
HETATM    4  C6  UNL     1      -3.639  -0.953   0.562  1.00  0.00    -0.023 C 
HETATM    5  C7  UNL     1      -2.860   0.281   0.963  1.00  0.00     0.035 C 
HETATM    6  C8  UNL     1      -2.114   0.632  -0.344  1.00  0.00     0.031 C 
HETATM    7  C12 UNL     1      -1.074  -0.406  -0.578  1.00  0.00     0.027 C 
ENDROOT
BRANCH   7   8
HETATM    8  C13 UNL     1       0.293  -0.044  -0.149  1.00  0.00    -0.022 C 
HETATM    9  C14 UNL     1       1.299  -0.011  -0.990  1.00  0.00     0.007 C 
BRANCH   9  10
HETATM   10  C15 UNL     1       2.688   0.335  -0.665  1.00  0.00     0.076 C 
HETATM   11  C16 UNL     1       3.109   1.520  -1.468  1.00  0.00     0.050 C 
BRANCH  10  12
HETATM   12  O2  UNL     1       3.487  -0.754  -1.096  1.00  0.00    -0.386 OA
ATOM     13  H2  UNL     1       4.386  -0.530  -0.886  1.00  0.00     0.211 HD
ENDBRANCH  10  12
BRANCH  10  14
HETATM   14  C17 UNL     1       2.956   0.486   0.809  1.00  0.00     0.087 C 
BRANCH  14  15
HETATM   15  C18 UNL     1       4.376   0.836   1.082  1.00  0.00    -0.014 C 
HETATM   16  C19 UNL     1       5.435  -0.107   0.634  1.00  0.00     0.056 C 
HETATM   17  S1  UNL     1       4.795   2.031   1.751  1.00  0.00    -0.090 SA
ENDBRANCH  14  15
ENDBRANCH  10  14
ENDBRANCH   9  10
ENDBRANCH   7   8
BRANCH   1  18
HETATM   18  C2  UNL     1      -0.768  -2.834  -0.738  1.00  0.00    -0.027 C 
HETATM   19  C1  UNL     1       0.099  -3.630  -0.140  1.00  0.00     0.007 C 
ENDBRANCH   1  18
BRANCH   6  20
HETATM   20  C9  UNL     1      -1.690   2.052  -0.357  1.00  0.00     0.055 C 
HETATM   21  C10 UNL     1      -0.990   2.385  -1.625  1.00  0.00     0.045 C 
HETATM   22  C11 UNL     1      -2.987   2.876  -0.308  1.00  0.00     0.045 C 
BRANCH  20  23
HETATM   23  O1  UNL     1      -0.989   2.441   0.781  1.00  0.00    -0.390 OA
ATOM     24  H1  UNL     1      -0.717   3.351   0.773  1.00  0.00     0.210 HD
ENDBRANCH  20  23
ENDBRANCH   6  20
TORSDOF 8
