REMARK  12 active torsions:
REMARK  status: ('A' for Active; 'I' for Inactive)
REMARK    1  A    between atoms: C2_2  and  C3_3 
REMARK    2  A    between atoms: C3_3  and  N1_4 
REMARK    3  A    between atoms: N1_4  and  C4_7 
REMARK    4  A    between atoms: C4_7  and  C5_8 
REMARK    5  A    between atoms: C5_8  and  O1_9 
REMARK    6  A    between atoms: O1_9  and  C6_10 
REMARK    7  A    between atoms: C10_14  and  C11_15 
REMARK    8  A    between atoms: C11_15  and  C12_16 
REMARK    9  A    between atoms: C12_16  and  C13_17 
REMARK   10  A    between atoms: C13_17  and  C14_18 
REMARK   11  A    between atoms: C14_18  and  C15_19 
REMARK   12  A    between atoms: C15_19  and  C16_20 
ROOT
HETATM    1  C6  UNL     1       2.201   0.950   0.894  1.00  0.00     0.069 A 
HETATM    2  C7  UNL     1       2.025   0.094   1.966  1.00  0.00     0.037 A 
HETATM    3  C8  UNL     1       0.760  -0.173   2.442  1.00  0.00     0.003 A 
HETATM    4  C9  UNL     1      -0.351   0.417   1.850  1.00  0.00     0.007 A 
HETATM    5  C10 UNL     1      -0.210   1.287   0.765  1.00  0.00    -0.056 A 
HETATM    6  C22 UNL     1       1.069   1.524   0.323  1.00  0.00     0.044 A 
ENDROOT
BRANCH   5   7
HETATM    7  C11 UNL     1      -1.407   1.904   0.146  1.00  0.00     0.038 C 
BRANCH   7   8
HETATM    8  C12 UNL     1      -1.989   1.089  -0.982  1.00  0.00     0.005 C 
BRANCH   8   9
HETATM    9  C13 UNL     1      -2.416  -0.277  -0.541  1.00  0.00     0.001 C 
BRANCH   9  10
HETATM   10  C14 UNL     1      -3.013  -1.104  -1.625  1.00  0.00     0.005 C 
BRANCH  10  11
HETATM   11  C15 UNL     1      -4.269  -0.581  -2.228  1.00  0.00     0.038 C 
BRANCH  11  12
HETATM   12  C16 UNL     1      -5.402  -0.468  -1.267  1.00  0.00    -0.058 A 
HETATM   13  C17 UNL     1      -5.701   0.657  -0.542  1.00  0.00     0.007 A 
HETATM   14  C18 UNL     1      -6.777   0.691   0.351  1.00  0.00     0.001 A 
HETATM   15  C19 UNL     1      -7.589  -0.403   0.545  1.00  0.00     0.000 A 
HETATM   16  C20 UNL     1      -7.294  -1.537  -0.181  1.00  0.00     0.001 A 
HETATM   17  C21 UNL     1      -6.236  -1.577  -1.061  1.00  0.00     0.007 A 
ENDBRANCH  11  12
ENDBRANCH  10  11
ENDBRANCH   9  10
ENDBRANCH   8   9
ENDBRANCH   7   8
ENDBRANCH   5   7
BRANCH   1  18
HETATM   18  O1  UNL     1       3.453   1.239   0.391  1.00  0.00    -0.349 OA
BRANCH  18  19
HETATM   19  C5  UNL     1       4.583   0.617   1.018  1.00  0.00     0.203 C 
BRANCH  19  20
HETATM   20  C4  UNL     1       5.862   1.058   0.323  1.00  0.00     0.259 C 
BRANCH  20  21
HETATM   21  N1  UNL     1       6.991   0.429   0.958  1.00  0.00    -0.070 N 
ATOM     22  H12 UNL     1       7.020   0.648   1.954  1.00  0.00     0.277 HD
ATOM     23  H11 UNL     1       7.866   0.867   0.668  1.00  0.00     0.277 HD
BRANCH  21  24
HETATM   24  C3  UNL     1       7.027  -1.003   0.738  1.00  0.00     0.259 C 
BRANCH  24  25
HETATM   25  C2  UNL     1       7.305  -1.258  -0.698  1.00  0.00    -0.010 C 
HETATM   26  C1  UNL     1       6.437  -1.927  -1.428  1.00  0.00     0.008 C 
ENDBRANCH  24  25
ENDBRANCH  21  24
ENDBRANCH  20  21
ENDBRANCH  19  20
ENDBRANCH  18  19
ENDBRANCH   1  18
TORSDOF 12
