REMARK  6 active torsions:
REMARK  status: ('A' for Active; 'I' for Inactive)
REMARK    1  A    between atoms: O1_2  and  C2_3 
REMARK    2  A    between atoms: C2_3  and  C3_5 
REMARK    3  A    between atoms: C4_7  and  C5_8 
REMARK    4  A    between atoms: C6_12  and  N2_13 
REMARK    5  A    between atoms: C7_19  and  O5_20 
REMARK    6  A    between atoms: C8_22  and  O6_23 
ROOT
HETATM    1  C3  UNL     1      -0.368  -0.324  -0.586  1.00  0.00     0.187 C 
HETATM    2 CL1  UNL     1       0.227  -0.292  -2.237  1.00  0.00    -0.102 Cl
HETATM    3  C4  UNL     1       0.643  -0.673   0.439  1.00  0.00     0.230 C 
HETATM    4  O4  UNL     1       0.804  -2.030   0.356  1.00  0.00    -0.343 OA
HETATM    5  C7  UNL     1      -0.355  -2.608  -0.080  1.00  0.00     0.289 C 
HETATM    6  C8  UNL     1      -1.318  -1.527  -0.471  1.00  0.00     0.209 C 
ENDROOT
BRANCH   3   7
HETATM    7  C5  UNL     1       1.946  -0.022   0.281  1.00  0.00     0.137 A 
HETATM    8  N1  UNL     1       3.056  -0.476   0.935  1.00  0.00    -0.242 N 
HETATM    9  O3  UNL     1       4.047   0.268   0.622  1.00  0.00    -0.200 OA
ATOM     10  H1  UNL     1       3.089  -1.275   1.568  1.00  0.00     0.196 HD
HETATM   11  C6  UNL     1       3.654   1.200  -0.212  1.00  0.00     0.242 A 
HETATM   12  N3  UNL     1       2.345   1.025  -0.429  1.00  0.00    -0.307 N 
ATOM     13  H3  UNL     1       1.757   1.597  -1.035  1.00  0.00     0.171 HD
BRANCH  11  14
HETATM   14  N2  UNL     1       4.380   2.128  -0.741  1.00  0.00    -0.364 N 
ATOM     15  H22 UNL     1       5.378   2.261  -0.576  1.00  0.00     0.159 HD
ATOM     16  H21 UNL     1       4.074   2.853  -1.390  1.00  0.00     0.159 HD
ENDBRANCH  11  14
ENDBRANCH   3   7
BRANCH   1  17
HETATM   17  C2  UNL     1      -1.183   0.867  -0.238  1.00  0.00     0.288 C 
HETATM   18  O2  UNL     1      -0.815   1.611   0.692  1.00  0.00    -0.263 OA
BRANCH  17  19
HETATM   19  O1  UNL     1      -2.352   1.197  -0.906  1.00  0.00    -0.325 OA
HETATM   20  C1  UNL     1      -3.132   2.333  -0.576  1.00  0.00     0.213 C 
ENDBRANCH  17  19
ENDBRANCH   1  17
BRANCH   6  21
HETATM   21  O6  UNL     1      -2.263  -1.268   0.524  1.00  0.00    -0.388 OA
ATOM     22  H6  UNL     1      -2.850  -2.011   0.595  1.00  0.00     0.210 HD
ENDBRANCH   6  21
BRANCH   5  23
HETATM   23  O5  UNL     1      -0.903  -3.452   0.879  1.00  0.00    -0.369 OA
ATOM     24  H5  UNL     1      -1.709  -3.854   0.576  1.00  0.00     0.212 HD
ENDBRANCH   5  23
TORSDOF 6
