REMARK  1 active torsions:
REMARK  status: ('A' for Active; 'I' for Inactive)
REMARK    1  A    between atoms: N1_3  and  C2_5 
ROOT
HETATM    1 BR1  UNL     1       2.877  -0.283  -0.677  1.00  0.00    -0.045 Br
HETATM    2  C1  UNL     1       1.850   0.933   0.391  1.00  0.00     0.140 C 
HETATM    3  N1  UNL     1       0.590   0.897   0.353  1.00  0.00    -0.389 N 
ATOM      4  H1  UNL     1       0.056   1.550   0.927  1.00  0.00     0.159 HD
ENDROOT
BRANCH   3   5
HETATM    5  C2  UNL     1      -0.107  -0.035  -0.473  1.00  0.00     0.081 A 
HETATM    6  C3  UNL     1      -1.578  -0.147  -0.448  1.00  0.00     0.027 A 
HETATM    7  C4  UNL     1      -0.764  -1.160   0.296  1.00  0.00     0.027 A 
ENDBRANCH   3   5
TORSDOF 1
