REMARK  1 active torsions:
REMARK  status: ('A' for Active; 'I' for Inactive)
REMARK    1  A    between atoms: C1_4  and  N2_5 
ROOT
HETATM    1  N2  UNL     1      -0.053   0.198  -0.031  1.00  0.00    -0.359 N 
HETATM    2  C2  UNL     1       0.792  -0.786  -0.798  1.00  0.00     0.161 A 
HETATM    3  C3  UNL     1       1.298  -0.231   0.434  1.00  0.00     0.175 A 
HETATM    4 BR1  UNL     1       2.539   1.218   0.527  1.00  0.00    -0.067 Br
ENDROOT
BRANCH   1   5
HETATM    5  C1  UNL     1      -1.224   0.948   0.124  1.00  0.00     0.172 C 
HETATM    6  N1  UNL     1      -2.319   0.332   0.410  1.00  0.00    -0.395 N 
ATOM      7  H12 UNL     1      -2.315  -0.682   0.518  1.00  0.00     0.156 HD
ATOM      8  H11 UNL     1      -3.173   0.879   0.523  1.00  0.00     0.156 HD
ENDBRANCH   1   5
TORSDOF 1
