REMARK  8 active torsions:
REMARK  status: ('A' for Active; 'I' for Inactive)
REMARK    1  A    between atoms: C2_2  and  C3_3 
REMARK    2  A    between atoms: C3_3  and  C4_4 
REMARK    3  A    between atoms: C4_4  and  C5_5 
REMARK    4  A    between atoms: C5_5  and  C6_6 
REMARK    5  A    between atoms: C5_5  and  C8_8 
REMARK    6  A    between atoms: C8_8  and  C9_9 
REMARK    7  A    between atoms: C9_9  and  C10_10 
REMARK    8  A    between atoms: C10_10  and  N1_11 
ROOT
HETATM    1  C5  UNL     1      -0.784   0.836  -0.034  1.00  0.00    -0.015 C 
ENDROOT
BRANCH   1   2
HETATM    2  C4  UNL     1      -1.918   0.001  -0.552  1.00  0.00     0.008 C 
BRANCH   2   3
HETATM    3  C3  UNL     1      -1.962  -1.395  -0.017  1.00  0.00     0.027 C 
BRANCH   3   4
HETATM    4  C2  UNL     1      -2.096  -1.422   1.464  1.00  0.00    -0.037 C 
HETATM    5  C1  UNL     1      -3.150  -2.017   2.004  1.00  0.00     0.007 C 
ENDBRANCH   3   4
ENDBRANCH   2   3
ENDBRANCH   1   2
BRANCH   1   6
HETATM    6  C6  UNL     1      -0.885   2.203  -0.667  1.00  0.00     0.000 C 
HETATM    7  C7  UNL     1      -2.195   2.881  -0.329  1.00  0.00     0.005 C 
ENDBRANCH   1   6
BRANCH   1   8
HETATM    8  C8  UNL     1       0.506   0.140  -0.378  1.00  0.00     0.006 C 
BRANCH   8   9
HETATM    9  C9  UNL     1       1.718   0.872   0.082  1.00  0.00     0.028 C 
BRANCH   9  10
HETATM   10  C10 UNL     1       2.943   0.080  -0.322  1.00  0.00     0.231 C 
BRANCH  10  11
HETATM   11  N1  UNL     1       2.980  -1.242   0.245  1.00  0.00    -0.079 N 
HETATM   12  C11 UNL     1       4.207  -1.905  -0.205  1.00  0.00     0.266 C 
ATOM     13  H12 UNL     1       2.888  -1.235   1.261  1.00  0.00     0.276 HD
ATOM     14  H11 UNL     1       2.142  -1.783   0.033  1.00  0.00     0.276 HD
ENDBRANCH  10  11
ENDBRANCH   9  10
ENDBRANCH   8   9
ENDBRANCH   1   8
TORSDOF 8
