REMARK  14 active torsions:
REMARK  status: ('A' for Active; 'I' for Inactive)
REMARK    1  A    between atoms: C2_2  and  N1_3 
REMARK    2  A    between atoms: N1_3  and  C3_5 
REMARK    3  A    between atoms: C3_5  and  N2_6 
REMARK    4  A    between atoms: C3_5  and  C17_31 
REMARK    5  A    between atoms: N2_6  and  C4_8 
REMARK    6  A    between atoms: C5_13  and  C6_14 
REMARK       I    between atoms: C6_14  and  N5_16 
REMARK    7  A    between atoms: N5_16  and  C7_18 
REMARK    8  A    between atoms: C7_18  and  C8_19 
REMARK    9  A    between atoms: C8_19  and  C9_20 
REMARK   10  A    between atoms: C9_20  and  N6_21 
REMARK   11  A    between atoms: N7_24  and  C12_25 
REMARK   12  A    between atoms: C17_31  and  N8_32 
REMARK   13  A    between atoms: N8_32  and  C18_34 
REMARK   14  A    between atoms: C18_34  and  C19_35 
ROOT
HETATM    1  C4  UNL     1      -2.042  -0.045   1.676  1.00  0.00     0.167 A 
HETATM    2  N3  UNL     1      -1.010  -0.022   2.530  1.00  0.00    -0.278 N 
ATOM      3  H3  UNL     1      -1.077  -0.475   3.441  1.00  0.00     0.189 HD
HETATM    4  N4  UNL     1       0.053   0.577   2.179  1.00  0.00    -0.287 N 
ATOM      5  H4  UNL     1       0.851   0.606   2.814  1.00  0.00     0.188 HD
HETATM    6  C5  UNL     1       0.135   1.164   0.997  1.00  0.00     0.160 A 
HETATM    7  S1  UNL     1      -1.415   0.832   0.351  1.00  0.00    -0.028 SA
ENDROOT
BRANCH   1   8
HETATM    8  N2  UNL     1      -3.209  -0.616   1.875  1.00  0.00    -0.323 N 
ATOM      9  H2  UNL     1      -3.409  -1.106   2.747  1.00  0.00     0.169 HD
BRANCH   8  10
HETATM   10  C3  UNL     1      -4.200  -0.532   0.830  1.00  0.00     0.107 C 
BRANCH  10  11
HETATM   11  N1  UNL     1      -4.089  -1.324  -0.143  1.00  0.00    -0.378 N 
ATOM     12  H1  UNL     1      -4.805  -1.238  -0.864  1.00  0.00     0.160 HD
BRANCH  11  13
HETATM   13  C2  UNL     1      -3.097  -2.326  -0.374  1.00  0.00     0.116 C 
HETATM   14  C1  UNL     1      -2.507  -2.304  -1.767  1.00  0.00     0.026 C 
ENDBRANCH  11  13
ENDBRANCH  10  11
BRANCH  10  15
HETATM   15  C17 UNL     1      -5.258   0.461   1.017  1.00  0.00     0.084 C 
HETATM   16  C22 UNL     1      -5.919   0.283   2.384  1.00  0.00     0.039 C 
HETATM   17  C23 UNL     1      -6.352   1.652   2.814  1.00  0.00     0.003 C 
HETATM   18  C24 UNL     1      -5.842   2.614   1.747  1.00  0.00     0.003 C 
HETATM   19  C25 UNL     1      -4.614   1.834   1.235  1.00  0.00     0.039 C 
BRANCH  15  20
HETATM   20  N8  UNL     1      -6.207   0.613  -0.019  1.00  0.00    -0.406 N 
ATOM     21  H8  UNL     1      -6.271   1.491  -0.535  1.00  0.00     0.154 HD
BRANCH  20  22
HETATM   22  C18 UNL     1      -7.066  -0.465  -0.332  1.00  0.00     0.118 C 
BRANCH  22  23
HETATM   23  C19 UNL     1      -8.027  -0.048  -1.462  1.00  0.00    -0.005 C 
HETATM   24  C20 UNL     1      -7.239   0.330  -2.684  1.00  0.00     0.011 C 
HETATM   25  C21 UNL     1      -8.912  -1.236  -1.765  1.00  0.00     0.011 C 
ENDBRANCH  22  23
ENDBRANCH  20  22
ENDBRANCH  15  20
ENDBRANCH  10  15
ENDBRANCH   8  10
ENDBRANCH   1   8
BRANCH   6  26
HETATM   26  C6  UNL     1       1.262   1.911   0.403  1.00  0.00     0.276 C 
HETATM   27  O1  UNL     1       1.124   2.399  -0.719  1.00  0.00    -0.265 OA
HETATM   28  N5  UNL     1       2.445   2.033   1.147  1.00  0.00    -0.355 N 
ATOM     29  H5  UNL     1       2.493   1.605   2.072  1.00  0.00     0.162 HD
BRANCH  28  30
HETATM   30  C7  UNL     1       3.595   2.743   0.648  1.00  0.00     0.125 C 
BRANCH  30  31
HETATM   31  C8  UNL     1       4.115   2.134  -0.631  1.00  0.00     0.050 C 
BRANCH  31  32
HETATM   32  C9  UNL     1       4.505   0.694  -0.371  1.00  0.00     0.274 C 
BRANCH  32  33
HETATM   33  N6  UNL     1       5.004   0.046  -1.557  1.00  0.00     0.091 N 
HETATM   34  C10 UNL     1       6.270   0.568  -2.007  1.00  0.00     0.302 C 
HETATM   35  C11 UNL     1       7.277   0.428  -0.916  1.00  0.00     0.303 C 
HETATM   36  N7  UNL     1       7.244  -0.847  -0.265  1.00  0.00     0.095 N 
HETATM   37  C15 UNL     1       6.452  -1.841  -0.955  1.00  0.00     0.303 C 
HETATM   38  C16 UNL     1       5.063  -1.376  -1.281  1.00  0.00     0.302 C 
BRANCH  36  39
HETATM   39  C12 UNL     1       8.625  -1.355  -0.236  1.00  0.00     0.215 C 
HETATM   40  C13 UNL     1       9.509  -0.419   0.585  1.00  0.00     0.042 C 
HETATM   41  C14 UNL     1       8.651  -2.755   0.334  1.00  0.00     0.042 C 
ENDBRANCH  36  39
ENDBRANCH  32  33
ENDBRANCH  31  32
ENDBRANCH  30  31
ENDBRANCH  28  30
ENDBRANCH   6  26
TORSDOF 14
