REMARK  12 active torsions:
REMARK  status: ('A' for Active; 'I' for Inactive)
REMARK    1  A    between atoms: C2_2  and  C3_3 
REMARK    2  A    between atoms: C3_3  and  C4_4 
REMARK    3  A    between atoms: C4_4  and  C5_5 
REMARK    4  A    between atoms: C5_5  and  N1_6 
REMARK    5  A    between atoms: C9_15  and  C10_16 
REMARK    6  A    between atoms: C13_21  and  O2_22 
REMARK    7  A    between atoms: O2_22  and  C14_23 
REMARK    8  A    between atoms: C14_23  and  C15_24 
REMARK    9  A    between atoms: C15_24  and  N5_25 
REMARK   10  A    between atoms: C16_27  and  C17_28 
REMARK   11  A    between atoms: C17_28  and  C18_29 
REMARK   12  A    between atoms: N7_35  and  O3_37 
ROOT
HETATM    1  C10 UNL     1      -0.283  -1.288  -1.399  1.00  0.00     0.134 A 
HETATM    2  N4  UNL     1      -0.333  -2.151  -2.408  1.00  0.00    -0.350 N 
ATOM      3  H4  UNL     1       0.543  -2.568  -2.724  1.00  0.00     0.166 HD
HETATM    4  C11 UNL     1      -1.462  -2.509  -3.037  1.00  0.00     0.094 A 
HETATM    5  C12 UNL     1      -2.643  -1.943  -2.606  1.00  0.00     0.073 A 
HETATM    6  C13 UNL     1      -2.621  -1.030  -1.545  1.00  0.00     0.145 A 
HETATM    7  N8  UNL     1      -1.432  -0.735  -0.978  1.00  0.00    -0.321 N 
ATOM      8  H8  UNL     1      -1.405  -0.070  -0.205  1.00  0.00     0.169 HD
ENDROOT
BRANCH   1   9
HETATM    9  C9  UNL     1       1.004  -0.963  -0.777  1.00  0.00     0.079 A 
HETATM   10  N3  UNL     1       1.217  -0.111   0.250  1.00  0.00    -0.339 N 
HETATM   11  C8  UNL     1       2.539  -0.069   0.551  1.00  0.00     0.124 A 
ATOM     12  H3  UNL     1       0.491   0.422   0.728  1.00  0.00     0.167 HD
HETATM   13  N2  UNL     1       3.131   0.723   1.582  1.00  0.00    -0.311 N 
HETATM   14  C24 UNL     1       3.175  -0.926  -0.320  1.00  0.00     0.078 A 
HETATM   15  C7  UNL     1       4.477   0.632   2.042  1.00  0.00     0.241 C 
ATOM     16  H2  UNL     1       2.535   1.418   2.031  1.00  0.00     0.170 HD
HETATM   17  C6  UNL     1       5.449  -0.483   1.972  1.00  0.00     0.229 C 
HETATM   18  O1  UNL     1       4.915   1.690   2.607  1.00  0.00    -0.271 OA
HETATM   19  N1  UNL     1       5.607  -1.049   0.653  1.00  0.00    -0.339 N 
HETATM   20  C25 UNL     1       4.615  -1.193  -0.354  1.00  0.00     0.258 C 
HETATM   21  O4  UNL     1       5.022  -1.627  -1.487  1.00  0.00    -0.267 OA
HETATM   22  C23 UNL     1       2.221  -1.461  -1.123  1.00  0.00     0.054 A 
BRANCH  19  23
HETATM   23  C5  UNL     1       6.891  -1.547   0.260  1.00  0.00     0.127 C 
BRANCH  23  24
HETATM   24  C4  UNL     1       7.788  -0.562  -0.410  1.00  0.00     0.020 C 
BRANCH  24  25
HETATM   25  C3  UNL     1       8.111   0.636   0.456  1.00  0.00     0.001 C 
BRANCH  25  26
HETATM   26  C2  UNL     1       9.036   1.551  -0.351  1.00  0.00    -0.004 C 
HETATM   27  C1  UNL     1       8.347   1.992  -1.610  1.00  0.00     0.005 C 
ENDBRANCH  25  26
ENDBRANCH  24  25
ENDBRANCH  23  24
ENDBRANCH  19  23
ENDBRANCH   1   9
BRANCH   6  28
HETATM   28  O2  UNL     1      -3.823  -0.474  -1.131  1.00  0.00    -0.328 OA
BRANCH  28  29
HETATM   29  C14 UNL     1      -3.849   0.454  -0.063  1.00  0.00     0.255 C 
BRANCH  29  30
HETATM   30  C15 UNL     1      -5.189   0.940   0.244  1.00  0.00     0.125 C 
HETATM   31  N7  UNL     1      -5.462   2.190   0.162  1.00  0.00    -0.253 N 
ATOM     32  H7  UNL     1      -6.401   2.525   0.376  1.00  0.00     0.195 HD
BRANCH  30  33
HETATM   33  N5  UNL     1      -6.229   0.055   0.638  1.00  0.00    -0.356 N 
HETATM   34  C16 UNL     1      -6.331  -0.412   1.816  1.00  0.00     0.068 C 
ATOM     35  H5  UNL     1      -6.925  -0.218  -0.056  1.00  0.00     0.166 HD
BRANCH  34  36
HETATM   36  C17 UNL     1      -7.453  -1.329   2.127  1.00  0.00     0.101 C 
BRANCH  36  37
HETATM   37  C18 UNL     1      -8.688  -1.015   1.385  1.00  0.00     0.013 A 
HETATM   38  C19 UNL     1      -9.027  -1.533   0.136  1.00  0.00     0.026 A 
HETATM   39  C20 UNL     1     -10.251  -1.006  -0.227  1.00  0.00     0.019 A 
HETATM   40  C21 UNL     1     -10.624  -0.174   0.822  1.00  0.00     0.088 A 
HETATM   41  N6  UNL     1      -9.680  -0.193   1.770  1.00  0.00    -0.369 N 
ATOM     42  H6  UNL     1      -9.708   0.332   2.644  1.00  0.00     0.165 HD
ENDBRANCH  36  37
ENDBRANCH  34  36
ENDBRANCH  30  33
BRANCH  31  43
HETATM   43  O3  UNL     1      -4.493   3.066  -0.212  1.00  0.00    -0.284 OA
HETATM   44  C22 UNL     1      -4.586   4.402   0.267  1.00  0.00     0.237 C 
ENDBRANCH  31  43
ENDBRANCH  29  30
ENDBRANCH  28  29
ENDBRANCH   6  28
TORSDOF 12
