REMARK  8 active torsions:
REMARK  status: ('A' for Active; 'I' for Inactive)
REMARK    1  A    between atoms: C2_2  and  C3_3 
REMARK    2  A    between atoms: C3_3  and  C4_4 
REMARK    3  A    between atoms: C4_4  and  C5_5 
REMARK    4  A    between atoms: C6_8  and  O1_9 
REMARK    5  A    between atoms: C7_11  and  C8_12 
REMARK    6  A    between atoms: N2_13  and  N3_15 
REMARK    7  A    between atoms: C11_24  and  C12_25 
REMARK    8  A    between atoms: C12_25  and  C13_26 
ROOT
HETATM    1  C5  UNL     1       2.257  -0.658  -0.430  1.00  0.00     0.175 C 
HETATM    2  N1  UNL     1       0.945  -0.191  -0.775  1.00  0.00    -0.359 N 
ATOM      3  H1  UNL     1       0.397  -0.889  -1.278  1.00  0.00     0.162 HD
HETATM    4  C6  UNL     1       0.257   0.992  -0.579  1.00  0.00     0.140 C 
HETATM    5  C7  UNL     1      -0.060   1.767   0.611  1.00  0.00     0.199 C 
HETATM    6  N6  UNL     1      -1.326   1.528   1.252  1.00  0.00    -0.342 N 
ATOM      7  H6  UNL     1      -1.746   2.354   1.678  1.00  0.00     0.163 HD
HETATM    8  C10 UNL     1      -2.083   0.354   1.392  1.00  0.00     0.245 C 
HETATM    9  O2  UNL     1      -2.354  -0.011   2.571  1.00  0.00    -0.271 OA
HETATM   10  C11 UNL     1      -2.623  -0.538   0.338  1.00  0.00     0.200 C 
HETATM   11  N7  UNL     1      -2.591  -1.932   0.687  1.00  0.00    -0.344 N 
ATOM     12  H7  UNL     1      -3.510  -2.346   0.845  1.00  0.00     0.163 HD
HETATM   13  C16 UNL     1      -1.530  -2.816   0.847  1.00  0.00     0.220 C 
HETATM   14  O3  UNL     1      -1.573  -3.946   0.267  1.00  0.00    -0.274 OA
HETATM   15  C17 UNL     1      -0.301  -2.624   1.632  1.00  0.00     0.127 C 
HETATM   16  C18 UNL     1       0.940  -3.278   1.143  1.00  0.00     0.089 C 
HETATM   17  C19 UNL     1       0.937  -3.855  -0.216  1.00  0.00     0.032 C 
HETATM   18  N8  UNL     1       2.138  -2.468   1.436  1.00  0.00    -0.355 N 
ATOM     19  H8  UNL     1       2.855  -2.879   2.034  1.00  0.00     0.162 HD
HETATM   20  C20 UNL     1       2.361  -1.160   0.944  1.00  0.00     0.240 C 
HETATM   21  O4  UNL     1       2.703  -0.287   1.824  1.00  0.00    -0.271 OA
ENDROOT
BRANCH   5  22
HETATM   22  C8  UNL     1      -0.015   3.221   0.224  1.00  0.00     0.113 C 
HETATM   23  N2  UNL     1       0.851   4.050   0.639  1.00  0.00    -0.311 N 
ATOM     24  H2  UNL     1       1.565   3.704   1.280  1.00  0.00     0.185 HD
BRANCH  23  25
HETATM   25  N3  UNL     1       0.901   5.379   0.292  1.00  0.00    -0.277 N 
HETATM   26  C9  UNL     1      -0.088   6.200   0.411  1.00  0.00     0.215 C 
HETATM   27  N4  UNL     1       0.011   7.566   0.038  1.00  0.00    -0.065 NA
HETATM   28  N5  UNL     1      -1.323   5.732   0.931  1.00  0.00    -0.065 NA
ATOM     29  H3  UNL     1       1.777   5.740  -0.084  1.00  0.00     0.189 HD
ENDBRANCH  23  25
ENDBRANCH   5  22
BRANCH   4  30
HETATM   30  O1  UNL     1      -0.196   1.513  -1.681  1.00  0.00    -0.348 OA
ATOM     31  H1  UNL     1      -0.669   2.326  -1.546  1.00  0.00     0.219 HD
ENDBRANCH   4  30
BRANCH   1  32
HETATM   32  C4  UNL     1       3.341   0.337  -0.782  1.00  0.00     0.035 C 
BRANCH  32  33
HETATM   33  C3  UNL     1       4.692  -0.217  -0.431  1.00  0.00     0.002 C 
BRANCH  33  34
HETATM   34  C2  UNL     1       5.023  -1.509  -1.154  1.00  0.00    -0.004 C 
HETATM   35  C1  UNL     1       6.420  -1.901  -0.678  1.00  0.00     0.005 C 
ENDBRANCH  33  34
ENDBRANCH  32  33
ENDBRANCH   1  32
BRANCH  10  36
HETATM   36  C12 UNL     1      -3.965   0.014   0.017  1.00  0.00     0.010 C 
BRANCH  36  37
HETATM   37  C13 UNL     1      -4.841  -0.563  -0.989  1.00  0.00    -0.089 C 
HETATM   38  C14 UNL     1      -4.263  -0.609  -2.389  1.00  0.00     0.042 C 
HETATM   39  C15 UNL     1      -5.632  -1.787  -0.635  1.00  0.00     0.042 C 
ENDBRANCH  36  37
ENDBRANCH  10  36
TORSDOF 8
