REMARK  6 active torsions:
REMARK  status: ('A' for Active; 'I' for Inactive)
REMARK    1  A    between atoms: O1_2  and  C2_3 
REMARK    2  A    between atoms: C4_5  and  C5_6 
REMARK    3  A    between atoms: C5_6  and  C6_7 
REMARK    4  A    between atoms: C6_7  and  C7_8 
REMARK    5  A    between atoms: C8_10  and  O3_11 
REMARK    6  A    between atoms: N1_23  and  O4_25 
ROOT
HETATM    1  C2  UNL     1      -2.080   0.908  -0.266  1.00  0.00     0.079 A 
HETATM    2  C3  UNL     1      -0.925   1.621  -0.072  1.00  0.00     0.044 A 
HETATM    3  C4  UNL     1       0.137   1.059   0.643  1.00  0.00    -0.052 A 
HETATM    4  C12 UNL     1       0.019  -0.193   1.143  1.00  0.00     0.045 A 
HETATM    5  C13 UNL     1      -1.139  -0.949   0.967  1.00  0.00     0.088 A 
HETATM    6  C14 UNL     1      -2.168  -0.386   0.266  1.00  0.00     0.032 A 
HETATM    7  C15 UNL     1      -3.265  -1.379   0.220  1.00  0.00     0.173 A 
HETATM    8  S1  UNL     1      -4.761  -0.687   0.990  1.00  0.00    -0.078 SA
HETATM    9  C16 UNL     1      -2.750  -2.534   0.957  1.00  0.00     0.163 A 
HETATM   10  N1  UNL     1      -3.443  -3.616   1.129  1.00  0.00    -0.249 N 
ATOM     11  H1  UNL     1      -3.015  -4.379   1.654  1.00  0.00     0.196 HD
HETATM   12  O5  UNL     1      -1.479  -2.243   1.387  1.00  0.00    -0.294 OA
ENDROOT
BRANCH   3  13
HETATM   13  C5  UNL     1       1.338   1.914   0.797  1.00  0.00     0.045 C 
BRANCH  13  14
HETATM   14  C6  UNL     1       2.315   1.736  -0.335  1.00  0.00     0.070 C 
BRANCH  14  15
HETATM   15  C7  UNL     1       2.768   0.330  -0.385  1.00  0.00     0.064 A 
HETATM   16  O2  UNL     1       2.373  -0.581  -1.240  1.00  0.00    -0.291 OA
HETATM   17  C8  UNL     1       2.980  -1.712  -0.989  1.00  0.00     0.206 A 
HETATM   18  C9  UNL     1       3.818  -1.533   0.088  1.00  0.00     0.100 A 
HETATM   19 CL1  UNL     1       4.863  -2.730   0.835  1.00  0.00    -0.079 Cl
HETATM   20  C10 UNL     1       3.701  -0.220   0.500  1.00  0.00    -0.006 A 
HETATM   21  C11 UNL     1       4.387   0.460   1.606  1.00  0.00     0.052 C 
BRANCH  17  22
HETATM   22  O3  UNL     1       2.780  -2.870  -1.716  1.00  0.00    -0.339 OA
ATOM     23  H3  UNL     1       3.221  -3.692  -1.534  1.00  0.00     0.220 HD
ENDBRANCH  17  22
ENDBRANCH  14  15
ENDBRANCH  13  14
ENDBRANCH   3  13
BRANCH   1  24
HETATM   24  O1  UNL     1      -3.167   1.408  -0.965  1.00  0.00    -0.355 OA
HETATM   25  C1  UNL     1      -3.118   2.710  -1.517  1.00  0.00     0.210 C 
ENDBRANCH   1  24
BRANCH  10  26
HETATM   26  O4  UNL     1      -4.696  -3.797   0.657  1.00  0.00    -0.288 OA
ATOM     27  H4  UNL     1      -5.204  -4.590   0.783  1.00  0.00     0.244 HD
ENDBRANCH  10  26
TORSDOF 6
