REMARK  5 active torsions:
REMARK  status: ('A' for Active; 'I' for Inactive)
REMARK    1  A    between atoms: C3_5  and  C4_6 
REMARK    2  A    between atoms: C7_15  and  N5_16 
REMARK    3  A    between atoms: N5_16  and  C8_18 
REMARK    4  A    between atoms: C8_18  and  C9_19 
REMARK    5  A    between atoms: C9_19  and  O1_20 
ROOT
HETATM    1  C4  UNL     1       1.357   0.277   0.324  1.00  0.00     0.069 A 
HETATM    2  N2  UNL     1       1.153   1.596   0.601  1.00  0.00    -0.339 N 
ATOM      3  H2  UNL     1       1.906   2.281   0.666  1.00  0.00     0.167 HD
HETATM    4  C5  UNL     1      -0.126   1.895   0.777  1.00  0.00     0.121 A 
HETATM    5  N3  UNL     1      -0.778   3.047   1.080  1.00  0.00    -0.338 N 
ATOM      6  H3  UNL     1      -0.253   3.913   1.202  1.00  0.00     0.168 HD
HETATM    7  C6  UNL     1      -2.110   3.048   1.219  1.00  0.00     0.183 A 
HETATM    8  N4  UNL     1      -2.793   1.908   1.058  1.00  0.00    -0.338 N 
ATOM      9  H4  UNL     1      -3.807   1.927   1.168  1.00  0.00     0.168 HD
HETATM   10  C7  UNL     1      -2.194   0.724   0.754  1.00  0.00     0.116 A 
HETATM   11  C10 UNL     1      -0.817   0.733   0.610  1.00  0.00     0.060 A 
HETATM   12  C11 UNL     1       0.126  -0.265   0.321  1.00  0.00    -0.015 A 
HETATM   13  C12 UNL     1      -0.336  -1.594  -0.097  1.00  0.00     0.052 C 
ENDROOT
BRANCH   1  14
HETATM   14  C3  UNL     1       2.696  -0.273  -0.041  1.00  0.00     0.073 A 
HETATM   15  N1  UNL     1       3.668   0.614  -0.233  1.00  0.00    -0.352 N 
HETATM   16  C2  UNL     1       4.886   0.293  -0.426  1.00  0.00     0.047 A 
ATOM     17  H1  UNL     1       3.426   1.605  -0.225  1.00  0.00     0.166 HD
HETATM   18  C1  UNL     1       6.096   1.185  -0.664  1.00  0.00     0.076 C 
HETATM   19  S1  UNL     1       4.824  -1.402  -0.356  1.00  0.00    -0.080 SA
HETATM   20  C13 UNL     1       3.099  -1.560  -0.059  1.00  0.00     0.009 A 
HETATM   21  C14 UNL     1       2.510  -2.887   0.216  1.00  0.00     0.059 C 
ENDBRANCH   1  14
BRANCH  10  22
HETATM   22  N5  UNL     1      -2.885  -0.345   0.638  1.00  0.00    -0.373 N 
ATOM     23  H5  UNL     1      -2.387  -1.205   0.409  1.00  0.00     0.161 HD
BRANCH  22  24
HETATM   24  C8  UNL     1      -4.294  -0.426   0.804  1.00  0.00     0.147 C 
BRANCH  24  25
HETATM   25  C9  UNL     1      -4.942  -0.054  -0.525  1.00  0.00     0.183 C 
BRANCH  25  26
HETATM   26  O1  UNL     1      -4.481  -0.983  -1.484  1.00  0.00    -0.399 OA
ATOM     27  H1  UNL     1      -4.885  -0.751  -2.312  1.00  0.00     0.209 HD
ENDBRANCH  25  26
ENDBRANCH  24  25
ENDBRANCH  22  24
ENDBRANCH  10  22
TORSDOF 5
