REMARK  14 active torsions:
REMARK  status: ('A' for Active; 'I' for Inactive)
REMARK    1  A    between atoms: C2_2  and  O1_3 
REMARK    2  A    between atoms: O1_3  and  C3_4 
REMARK    3  A    between atoms: C5_6  and  N1_7 
REMARK    4  A    between atoms: N1_7  and  C6_8 
REMARK    5  A    between atoms: C7_11  and  C8_12 
REMARK    6  A    between atoms: C12_16  and  O2_17 
REMARK    7  A    between atoms: C14_19  and  O3_20 
REMARK    8  A    between atoms: C17_25  and  N4_26 
REMARK    9  A    between atoms: N4_26  and  C18_28 
REMARK   10  A    between atoms: C18_28  and  C19_29 
REMARK   11  A    between atoms: C19_29  and  N5_30 
REMARK   12  A    between atoms: N5_30  and  C20_31 
REMARK   13  A    between atoms: N5_30  and  C22_33 
REMARK   14  A    between atoms: C26_39  and  N7_40 
ROOT
HETATM    1  C6  UNL     1       0.157  -0.015   0.328  1.00  0.00     0.275 A 
HETATM    2  N2  UNL     1      -0.336   1.266   0.225  1.00  0.00    -0.301 N 
ATOM      3  H2  UNL     1       0.322   2.044   0.271  1.00  0.00     0.171 HD
HETATM    4  C7  UNL     1      -1.636   1.540   0.068  1.00  0.00     0.135 A 
HETATM    5  N3  UNL     1      -2.458   0.496   0.013  1.00  0.00    -0.176 N 
ATOM      6  H3  UNL     1      -3.455   0.680  -0.103  1.00  0.00     0.186 HD
HETATM    7  C17 UNL     1      -2.059  -0.795   0.101  1.00  0.00     0.683 A 
HETATM    8  N6  UNL     1      -0.765  -1.043   0.256  1.00  0.00    -0.149 N 
ATOM      9  H6  UNL     1      -0.445  -2.009   0.323  1.00  0.00     0.188 HD
ENDROOT
BRANCH   1  10
HETATM   10  N1  UNL     1       1.296  -0.235   0.513  1.00  0.00    -0.371 NA
BRANCH  10  11
HETATM   11  C5  UNL     1       2.587  -0.463   0.722  1.00  0.00     0.114 A 
HETATM   12  C4  UNL     1       3.543  -0.403  -0.299  1.00  0.00     0.084 A 
HETATM   13  C3  UNL     1       4.869  -0.644  -0.074  1.00  0.00     0.099 A 
HETATM   14  C26 UNL     1       5.345  -0.958   1.184  1.00  0.00     0.072 A 
HETATM   15  C25 UNL     1       4.425  -1.024   2.208  1.00  0.00     0.036 A 
HETATM   16  C24 UNL     1       3.103  -0.790   2.000  1.00  0.00     0.047 A 
BRANCH  13  17
HETATM   17  O1  UNL     1       5.816  -0.588  -1.087  1.00  0.00    -0.349 OA
BRANCH  17  18
HETATM   18  C2  UNL     1       5.409  -0.271  -2.400  1.00  0.00     0.171 C 
HETATM   19  C1  UNL     1       6.604  -0.285  -3.351  1.00  0.00     0.034 C 
ENDBRANCH  17  18
ENDBRANCH  13  17
BRANCH  14  20
HETATM   20  N7  UNL     1       6.723  -1.183   1.426  1.00  0.00    -0.296 N 
HETATM   21  C27 UNL     1       7.849  -0.347   1.141  1.00  0.00     0.154 C 
HETATM   22  C28 UNL     1       9.064  -1.099   1.562  1.00  0.00     0.144 C 
HETATM   23  N8  UNL     1       8.629  -2.434   1.855  1.00  0.00    -0.341 N 
HETATM   24  C29 UNL     1       7.228  -2.357   2.070  1.00  0.00     0.323 C 
ATOM     25  H8  UNL     1       9.210  -3.271   1.900  1.00  0.00     0.164 HD
HETATM   26  O4  UNL     1       6.542  -3.186   2.721  1.00  0.00    -0.247 OA
ENDBRANCH  14  20
ENDBRANCH  10  11
ENDBRANCH   1  10
BRANCH   4  27
HETATM   27  C8  UNL     1      -2.046   2.917  -0.139  1.00  0.00     0.012 A 
HETATM   28  C9  UNL     1      -1.153   3.818  -0.755  1.00  0.00     0.025 A 
HETATM   29  C10 UNL     1      -1.423   5.131  -0.912  1.00  0.00    -0.025 A 
HETATM   30  C11 UNL     1      -0.459   6.073  -1.593  1.00  0.00     0.051 C 
HETATM   31  C12 UNL     1      -2.608   5.629  -0.459  1.00  0.00     0.107 A 
HETATM   32  C14 UNL     1      -3.567   4.791   0.173  1.00  0.00     0.102 A 
HETATM   33  C16 UNL     1      -3.223   3.443   0.300  1.00  0.00     0.055 A 
BRANCH  31  34
HETATM   34  O2  UNL     1      -2.921   6.945  -0.586  1.00  0.00    -0.353 OA
HETATM   35  C13 UNL     1      -3.580   7.620  -1.592  1.00  0.00     0.210 C 
ENDBRANCH  31  34
BRANCH  32  36
HETATM   36  O3  UNL     1      -4.704   5.349   0.599  1.00  0.00    -0.353 OA
HETATM   37  C15 UNL     1      -5.812   4.991   1.249  1.00  0.00     0.210 C 
ENDBRANCH  32  36
ENDBRANCH   4  27
BRANCH   7  38
HETATM   38  N4  UNL     1      -2.921  -1.785   0.008  1.00  0.00    -0.224 N 
ATOM     39  H4  UNL     1      -3.915  -1.600  -0.127  1.00  0.00     0.177 HD
BRANCH  38  40
HETATM   40  C18 UNL     1      -2.432  -3.128   0.100  1.00  0.00     0.168 C 
BRANCH  40  41
HETATM   41  C19 UNL     1      -3.326  -4.177  -0.487  1.00  0.00     0.292 C 
BRANCH  41  42
HETATM   42  N5  UNL     1      -4.575  -4.279   0.177  1.00  0.00     0.089 N 
BRANCH  42  43
HETATM   43  C20 UNL     1      -4.365  -4.846   1.505  1.00  0.00     0.268 C 
HETATM   44  C21 UNL     1      -5.700  -5.071   2.162  1.00  0.00     0.037 C 
ENDBRANCH  42  43
BRANCH  42  45
HETATM   45  C22 UNL     1      -5.553  -5.026  -0.564  1.00  0.00     0.268 C 
HETATM   46  C23 UNL     1      -5.982  -4.286  -1.823  1.00  0.00     0.037 C 
ENDBRANCH  42  45
ENDBRANCH  41  42
ENDBRANCH  40  41
ENDBRANCH  38  40
ENDBRANCH   7  38
TORSDOF 14
