REMARK  13 active torsions:
REMARK  status: ('A' for Active; 'I' for Inactive)
REMARK    1  A    between atoms: C4_4  and  C5_5 
REMARK    2  A    between atoms: C5_5  and  C6_6 
REMARK    3  A    between atoms: C6_6  and  C7_7 
REMARK    4  A    between atoms: C7_7  and  C8_8 
REMARK    5  A    between atoms: C8_8  and  C9_9 
REMARK       I    between atoms: C9_9  and  N1_11 
REMARK    6  A    between atoms: N1_11  and  C10_13 
REMARK    7  A    between atoms: C10_13  and  C11_14 
REMARK    8  A    between atoms: C11_14  and  C12_15 
REMARK    9  A    between atoms: C12_15  and  N2_16 
REMARK   10  A    between atoms: C19_26  and  C20_27 
REMARK   11  A    between atoms: N4_31  and  N5_33 
REMARK       I    between atoms: N5_33  and  C24_35 
REMARK   12  A    between atoms: C24_35  and  C25_37 
REMARK   13  A    between atoms: C25_37  and  C26_38 
ROOT
HETATM    1  C7  UNL     1      -2.061  -2.058  -0.683  1.00  0.00     0.013 C 
HETATM    2  N4  UNL     1      -2.308  -0.812  -0.615  1.00  0.00    -0.306 N 
ATOM      3  H4  UNL     1      -1.549  -0.195  -0.326  1.00  0.00     0.186 HD
ENDROOT
BRANCH   1   4
HETATM    4  C6  UNL     1      -3.158  -2.978  -1.105  1.00  0.00     0.058 C 
BRANCH   4   5
HETATM    5  C5  UNL     1      -2.763  -3.734  -2.369  1.00  0.00     0.033 C 
BRANCH   5   6
HETATM    6  C4  UNL     1      -3.903  -4.625  -2.718  1.00  0.00    -0.024 C 
HETATM    7  C2  UNL     1      -3.702  -5.939  -2.772  1.00  0.00    -0.091 C 
HETATM    8  C1  UNL     1      -2.356  -6.513  -2.485  1.00  0.00     0.042 C 
HETATM    9  C3  UNL     1      -4.809  -6.853  -3.116  1.00  0.00     0.042 C 
ENDBRANCH   5   6
ENDBRANCH   4   5
ENDBRANCH   1   4
BRANCH   1  10
HETATM   10  C8  UNL     1      -0.718  -2.570  -0.346  1.00  0.00     0.156 C 
BRANCH  10  11
HETATM   11  C9  UNL     1       0.234  -1.516   0.029  1.00  0.00     0.223 C 
HETATM   12  O1  UNL     1      -0.103  -0.318   0.021  1.00  0.00    -0.273 OA
HETATM   13  N1  UNL     1       1.557  -1.850   0.407  1.00  0.00    -0.360 N 
ATOM     14  H1  UNL     1       1.814  -2.837   0.416  1.00  0.00     0.162 HD
BRANCH  13  15
HETATM   15  C10 UNL     1       2.578  -0.878   0.784  1.00  0.00     0.128 C 
BRANCH  15  16
HETATM   16  C11 UNL     1       2.942   0.047  -0.325  1.00  0.00     0.064 C 
BRANCH  16  17
HETATM   17  C12 UNL     1       3.878   1.155  -0.102  1.00  0.00     0.061 C 
BRANCH  17  18
HETATM   18  N2  UNL     1       5.168   0.931   0.366  1.00  0.00    -0.374 N 
HETATM   19  C13 UNL     1       5.345   0.596   1.747  1.00  0.00     0.149 C 
HETATM   20  C14 UNL     1       5.438   1.861   2.616  1.00  0.00     0.187 C 
HETATM   21  O2  UNL     1       5.537   3.015   1.896  1.00  0.00    -0.387 OA
HETATM   22  C15 UNL     1       6.415   2.973   0.847  1.00  0.00     0.205 C 
HETATM   23  C16 UNL     1       6.236   1.769  -0.059  1.00  0.00     0.097 C 
HETATM   24  C17 UNL     1       6.139   2.231  -1.518  1.00  0.00     0.059 C 
HETATM   25  C19 UNL     1       7.487   0.984  -0.176  1.00  0.00     0.036 C 
HETATM   26  C18 UNL     1       6.380   0.853  -2.154  1.00  0.00     0.122 C 
HETATM   27  N3  UNL     1       7.571   0.456  -1.372  1.00  0.00    -0.391 N 
ATOM     28  H3  UNL     1       8.333  -0.133  -1.709  1.00  0.00     0.159 HD
BRANCH  25  29
HETATM   29  C20 UNL     1       8.521   0.843   0.859  1.00  0.00     0.029 C 
HETATM   30  C21 UNL     1       9.633   0.168   0.664  1.00  0.00    -0.086 C 
HETATM   31  C22 UNL     1      10.606   0.104   1.814  1.00  0.00     0.043 C 
HETATM   32  C23 UNL     1       9.983  -0.520  -0.603  1.00  0.00     0.043 C 
ENDBRANCH  25  29
ENDBRANCH  17  18
ENDBRANCH  16  17
ENDBRANCH  15  16
ENDBRANCH  13  15
ENDBRANCH  10  11
ENDBRANCH   1  10
BRANCH   2  33
HETATM   33  N5  UNL     1      -3.537  -0.228  -0.906  1.00  0.00    -0.270 N 
HETATM   34  C24 UNL     1      -4.320   0.429   0.066  1.00  0.00     0.236 C 
HETATM   35  O3  UNL     1      -3.869   0.477   1.256  1.00  0.00    -0.272 OA
ATOM     36  H5  UNL     1      -3.887  -0.277  -1.863  1.00  0.00     0.190 HD
BRANCH  34  37
HETATM   37  C25 UNL     1      -5.614   1.037  -0.290  1.00  0.00     0.114 C 
BRANCH  37  38
HETATM   38  C26 UNL     1      -6.253   1.692   0.921  1.00  0.00     0.052 C 
HETATM   39  C27 UNL     1      -5.325   2.746   1.417  1.00  0.00     0.178 C 
HETATM   40  O4  UNL     1      -6.009   3.950   1.502  1.00  0.00    -0.358 OA
HETATM   41  C28 UNL     1      -7.029   3.887   0.565  1.00  0.00     0.292 C 
HETATM   42  O5  UNL     1      -8.170   4.543   0.965  1.00  0.00    -0.324 OA
HETATM   43  C32 UNL     1      -7.455   2.464   0.454  1.00  0.00     0.187 C 
HETATM   44  C29 UNL     1      -8.878   3.644   1.738  1.00  0.00     0.160 C 
HETATM   45  C30 UNL     1      -8.621   3.941   3.187  1.00  0.00     0.078 C 
HETATM   46  C31 UNL     1     -10.384   3.793   1.495  1.00  0.00     0.078 C 
HETATM   47  O6  UNL     1      -8.518   2.379   1.354  1.00  0.00    -0.345 OA
ENDBRANCH  37  38
ENDBRANCH  34  37
ENDBRANCH   2  33
TORSDOF 13
