REMARK  9 active torsions:
REMARK  status: ('A' for Active; 'I' for Inactive)
REMARK    1  A    between atoms: O1_2  and  C2_3 
REMARK       I    between atoms: C2_3  and  N1_5 
REMARK    2  A    between atoms: N1_5  and  C3_7 
REMARK    3  A    between atoms: C4_8  and  C5_9 
REMARK    4  A    between atoms: C8_16  and  O4_18 
REMARK    5  A    between atoms: O4_18  and  C10_19 
REMARK    6  A    between atoms: C10_19  and  C11_20 
REMARK    7  A    between atoms: C12_23  and  O6_24 
REMARK    8  A    between atoms: C12_23  and  O7_26 
REMARK    9  A    between atoms: O7_26  and  S3_27 
ROOT
HETATM    1  C3  UNL     1       1.629   0.151   1.216  1.00  0.00     0.077 A 
HETATM    2  C4  UNL     1       2.156  -0.928   1.865  1.00  0.00     0.098 A 
HETATM    3  S1  UNL     1       0.969  -2.124   1.616  1.00  0.00    -0.080 SA
HETATM    4  C6  UNL     1      -0.169  -1.219   0.690  1.00  0.00     0.069 A 
HETATM    5  C7  UNL     1       0.415  -0.026   0.611  1.00  0.00     0.050 A 
HETATM    6  S2  UNL     1      -0.761   1.000  -0.370  1.00  0.00    -0.082 SA
HETATM    7  C8  UNL     1      -2.140  -0.126  -0.177  1.00  0.00     0.178 C 
HETATM    8  C9  UNL     1      -2.956   0.213   1.079  1.00  0.00     0.066 C 
HETATM    9  C12 UNL     1      -1.457  -1.452   0.054  1.00  0.00     0.260 C 
ENDROOT
BRANCH   9  10
HETATM   10  O6  UNL     1      -2.285  -2.199   0.884  1.00  0.00    -0.357 OA
ATOM     11  H6  UNL     1      -3.126  -2.351   0.469  1.00  0.00     0.213 HD
ENDBRANCH   9  10
BRANCH   9  12
HETATM   12  O7  UNL     1      -1.389  -2.109  -1.173  1.00  0.00    -0.208 OA
BRANCH  12  13
HETATM   13  S3  UNL     1      -0.677  -3.617  -1.006  1.00  0.00     0.254 S 
HETATM   14  O8  UNL     1       0.818  -3.557  -1.179  1.00  0.00    -0.572 OA
HETATM   15  O9  UNL     1      -0.961  -4.247   0.311  1.00  0.00    -0.572 OA
HETATM   16  O10 UNL     1      -1.309  -4.622  -2.199  1.00  0.00    -0.572 OA
ENDBRANCH  12  13
ENDBRANCH   9  12
BRANCH   7  17
HETATM   17  O4  UNL     1      -2.981  -0.130  -1.227  1.00  0.00    -0.330 OA
BRANCH  17  18
HETATM   18  C10 UNL     1      -3.666   0.940  -1.615  1.00  0.00     0.208 C 
BRANCH  18  19
HETATM   19  C11 UNL     1      -3.058   2.097  -2.255  1.00  0.00     0.276 C 
HETATM   20  N3  UNL     1      -3.892   3.277  -2.430  1.00  0.00    -0.056 NA
HETATM   21  O5  UNL     1      -1.896   2.226  -2.686  1.00  0.00    -0.270 OA
ENDBRANCH  18  19
ENDBRANCH  17  18
ENDBRANCH   7  17
BRANCH   2  22
HETATM   22  C5  UNL     1       3.443  -1.004   2.594  1.00  0.00     0.274 C 
HETATM   23  N2  UNL     1       3.740  -2.259   3.177  1.00  0.00    -0.057 NA
HETATM   24  O3  UNL     1       4.154   0.009   2.645  1.00  0.00    -0.270 OA
ENDBRANCH   2  22
BRANCH   1  25
HETATM   25  N1  UNL     1       2.339   1.428   1.177  1.00  0.00    -0.300 N 
HETATM   26  C2  UNL     1       3.244   1.683   0.117  1.00  0.00     0.364 C 
HETATM   27  O2  UNL     1       3.437   0.826  -0.779  1.00  0.00    -0.238 OA
ATOM     28  H1  UNL     1       2.185   2.127   1.904  1.00  0.00     0.171 HD
BRANCH  26  29
HETATM   29  O1  UNL     1       3.942   2.872   0.029  1.00  0.00    -0.309 OA
HETATM   30  C1  UNL     1       4.856   3.132  -1.040  1.00  0.00     0.215 C 
ENDBRANCH  26  29
ENDBRANCH   1  25
TORSDOF 9
