REMARK  10 active torsions:
REMARK  status: ('A' for Active; 'I' for Inactive)
REMARK    1  A    between atoms: C2_2  and  C3_3 
REMARK    2  A    between atoms: C3_3  and  C4_4 
REMARK    3  A    between atoms: C4_4  and  O1_5 
REMARK    4  A    between atoms: O1_5  and  C5_6 
REMARK    5  A    between atoms: C6_9  and  N2_10 
REMARK    6  A    between atoms: N2_10  and  C7_12 
REMARK    7  A    between atoms: C8_14  and  C9_15 
REMARK    8  A    between atoms: C14_25  and  N6_26 
REMARK    9  A    between atoms: C17_35  and  C18_36 
REMARK   10  A    between atoms: C18_36  and  O2_37 
ROOT
HETATM    1  C7  UNL     1      -0.876  -0.720   1.009  1.00  0.00     0.107 A 
HETATM    2  S1  UNL     1      -2.086  -0.339   2.170  1.00  0.00    -0.048 SA
HETATM    3  C8  UNL     1      -3.443   0.482   1.482  1.00  0.00     0.121 A 
HETATM    4  N5  UNL     1      -3.342   0.687   0.188  1.00  0.00    -0.343 N 
ATOM      5  H5  UNL     1      -4.128   1.170  -0.247  1.00  0.00     0.167 HD
HETATM    6  C13 UNL     1      -2.342   0.345  -0.633  1.00  0.00     0.107 A 
HETATM    7  C14 UNL     1      -2.486   0.682  -1.971  1.00  0.00     0.129 A 
HETATM    8  N7  UNL     1      -1.531   0.382  -2.886  1.00  0.00    -0.337 N 
ATOM      9  H7  UNL     1      -1.666   0.645  -3.862  1.00  0.00     0.168 HD
HETATM   10  C15 UNL     1      -0.410  -0.257  -2.519  1.00  0.00     0.182 A 
HETATM   11  N8  UNL     1      -0.264  -0.586  -1.228  1.00  0.00    -0.348 N 
ATOM     12  H8  UNL     1       0.589  -1.072  -0.950  1.00  0.00     0.167 HD
HETATM   13  C16 UNL     1      -1.187  -0.310  -0.267  1.00  0.00     0.098 A 
ENDROOT
BRANCH   1  14
HETATM   14  N2  UNL     1       0.193  -1.325   1.339  1.00  0.00    -0.334 N 
ATOM     15  H2  UNL     1       0.249  -1.550   2.332  1.00  0.00     0.168 HD
BRANCH  14  16
HETATM   16  C6  UNL     1       1.293  -1.736   0.611  1.00  0.00     0.123 A 
HETATM   17  N1  UNL     1       2.367  -0.932   0.347  1.00  0.00    -0.307 N 
HETATM   18  C5  UNL     1       3.438  -1.334  -0.352  1.00  0.00     0.227 A 
ATOM     19  H1  UNL     1       2.353   0.025   0.701  1.00  0.00     0.171 HD
HETATM   20  N9  UNL     1       3.438  -2.605  -0.812  1.00  0.00    -0.288 N 
HETATM   21  C19 UNL     1       2.413  -3.446  -0.586  1.00  0.00     0.260 A 
ATOM     22  H9  UNL     1       4.240  -2.937  -1.347  1.00  0.00     0.172 HD
HETATM   23  C17 UNL     1       1.313  -3.030   0.132  1.00  0.00     0.077 A 
HETATM   24  O3  UNL     1       2.412  -4.635  -1.016  1.00  0.00    -0.267 OA
BRANCH  18  25
HETATM   25  O1  UNL     1       4.518  -0.483  -0.602  1.00  0.00    -0.322 OA
BRANCH  25  26
HETATM   26  C4  UNL     1       4.456   0.823  -0.097  1.00  0.00     0.178 C 
BRANCH  26  27
HETATM   27  C3  UNL     1       5.673   1.641  -0.431  1.00  0.00     0.026 C 
BRANCH  27  28
HETATM   28  C2  UNL     1       5.883   1.777  -1.919  1.00  0.00    -0.002 C 
HETATM   29  C1  UNL     1       4.699   2.452  -2.572  1.00  0.00     0.005 C 
ENDBRANCH  27  28
ENDBRANCH  26  27
ENDBRANCH  25  26
ENDBRANCH  18  25
BRANCH  23  30
HETATM   30  C18 UNL     1       0.164  -3.972   0.392  1.00  0.00     0.212 C 
BRANCH  30  31
HETATM   31  O2  UNL     1       0.386  -5.202  -0.168  1.00  0.00    -0.396 OA
ATOM     32  H2  UNL     1      -0.338  -5.795  -0.004  1.00  0.00     0.209 HD
ENDBRANCH  30  31
ENDBRANCH  23  30
ENDBRANCH  14  16
ENDBRANCH   1  14
BRANCH   3  33
HETATM   33  C9  UNL     1      -4.555   0.871   2.347  1.00  0.00     0.141 A 
HETATM   34  N3  UNL     1      -4.622   0.639   3.694  1.00  0.00    -0.349 N 
HETATM   35  C10 UNL     1      -5.778   1.129   4.164  1.00  0.00     0.107 A 
ATOM     36  H3  UNL     1      -3.908   0.169   4.250  1.00  0.00     0.167 HD
HETATM   37  C11 UNL     1      -6.457   1.681   3.100  1.00  0.00     0.109 A 
HETATM   38  N4  UNL     1      -5.653   1.494   2.001  1.00  0.00    -0.344 N 
HETATM   39  C12 UNL     1      -6.070   1.965   0.687  1.00  0.00     0.157 C 
ENDBRANCH   3  33
BRANCH   7  40
HETATM   40  N6  UNL     1      -3.530   1.301  -2.438  1.00  0.00    -0.384 N 
ATOM     41  H62 UNL     1      -4.248   1.527  -1.750  1.00  0.00     0.157 HD
ATOM     42  H61 UNL     1      -3.636   1.549  -3.422  1.00  0.00     0.157 HD
ENDBRANCH   7  40
TORSDOF 10
