REMARK  6 active torsions:
REMARK  status: ('A' for Active; 'I' for Inactive)
REMARK    1  A    between atoms: C4_5  and  C5_6 
REMARK    2  A    between atoms: C5_6  and  O1_7 
REMARK    3  A    between atoms: C5_6  and  N2_9 
REMARK    4  A    between atoms: C7_12  and  N3_13 
REMARK    5  A    between atoms: N3_13  and  N4_15 
REMARK       I    between atoms: N4_15  and  C8_16 
REMARK    6  A    between atoms: C8_16  and  C9_18 
ROOT
HETATM    1  N2  UNL     1      -1.233   0.284   0.758  1.00  0.00    -0.255 N 
HETATM    2  C6  UNL     1       0.179  -0.097   0.862  1.00  0.00     0.284 A 
HETATM    3  O2  UNL     1       0.645  -1.184   1.299  1.00  0.00    -0.265 OA
HETATM    4  C7  UNL     1       1.032   0.964   0.383  1.00  0.00     0.141 A 
HETATM    5  C15 UNL     1       0.105   2.023  -0.023  1.00  0.00     0.026 A 
HETATM    6  C16 UNL     1       0.381   3.281  -0.523  1.00  0.00     0.016 A 
HETATM    7  C17 UNL     1      -0.625   4.168  -0.808  1.00  0.00     0.001 A 
HETATM    8  C18 UNL     1      -1.922   3.732  -0.565  1.00  0.00     0.002 A 
HETATM    9  C19 UNL     1      -2.188   2.483  -0.071  1.00  0.00     0.031 A 
HETATM   10  C20 UNL     1      -1.182   1.580   0.215  1.00  0.00     0.057 A 
ENDROOT
BRANCH   4  11
HETATM   11  N3  UNL     1       2.303   1.052   0.289  1.00  0.00    -0.226 N 
ATOM     12  H3  UNL     1       2.652   1.933  -0.089  1.00  0.00     0.202 HD
BRANCH  11  13
HETATM   13  N4  UNL     1       3.242   0.159   0.614  1.00  0.00    -0.281 NA
HETATM   14  C8  UNL     1       4.182  -0.735   0.939  1.00  0.00     0.345 C 
HETATM   15  O3  UNL     1       4.305  -1.438   2.008  1.00  0.00    -0.249 OA
BRANCH  14  16
HETATM   16  C9  UNL     1       5.276  -0.972  -0.071  1.00  0.00     0.048 A 
HETATM   17  C10 UNL     1       5.654   0.076  -0.859  1.00  0.00     0.018 A 
HETATM   18  C11 UNL     1       6.680  -0.159  -1.769  1.00  0.00     0.001 A 
HETATM   19  C12 UNL     1       7.287  -1.401  -1.867  1.00  0.00     0.000 A 
HETATM   20  C13 UNL     1       6.862  -2.410  -1.049  1.00  0.00     0.001 A 
HETATM   21  C14 UNL     1       5.841  -2.195  -0.136  1.00  0.00     0.018 A 
ENDBRANCH  14  16
ENDBRANCH  11  13
ENDBRANCH   4  11
BRANCH   1  22
HETATM   22  C5  UNL     1      -2.227  -0.652   1.037  1.00  0.00     0.160 C 
BRANCH  22  23
HETATM   23  C4  UNL     1      -3.603  -0.800   0.661  1.00  0.00     0.015 A 
HETATM   24  C3  UNL     1      -4.477  -1.565   1.481  1.00  0.00     0.017 A 
HETATM   25  C2  UNL     1      -5.752  -1.820   1.102  1.00  0.00     0.027 A 
HETATM   26  C1  UNL     1      -6.310  -1.378  -0.080  1.00  0.00     0.046 A 
HETATM   27  N1  UNL     1      -7.652  -1.675  -0.416  1.00  0.00    -0.102 NA
HETATM   28  C22 UNL     1      -5.486  -0.636  -0.894  1.00  0.00     0.027 A 
HETATM   29  C21 UNL     1      -4.179  -0.373  -0.509  1.00  0.00     0.017 A 
ENDBRANCH  22  23
BRANCH  22  30
HETATM   30  O1  UNL     1      -1.828  -1.636   1.822  1.00  0.00    -0.345 OA
ATOM     31  H1  UNL     1      -0.916  -1.538   2.071  1.00  0.00     0.219 HD
ENDBRANCH  22  30
ENDBRANCH   1  22
TORSDOF 6
