REMARK  4 active torsions:
REMARK  status: ('A' for Active; 'I' for Inactive)
REMARK    1  A    between atoms: C2_2  and  C3_3 
REMARK    2  A    between atoms: C2_2  and  C5_5 
REMARK    3  A    between atoms: C8_8  and  O1_9 
REMARK    4  A    between atoms: O1_9  and  S1_10 
ROOT
HETATM    1  C5  UNL     1      -1.625  -0.866  -0.170  1.00  0.00     0.018 C 
HETATM    2  C6  UNL     1      -2.561   0.313   0.001  1.00  0.00     0.012 C 
HETATM    3  C7  UNL     1      -2.670   1.156  -1.260  1.00  0.00     0.034 C 
HETATM    4  C8  UNL     1      -1.534   2.154  -1.172  1.00  0.00     0.145 C 
HETATM    5  C9  UNL     1      -0.259   1.311  -1.320  1.00  0.00     0.039 C 
HETATM    6  C10 UNL     1       0.215   0.828   0.031  1.00  0.00    -0.003 C 
HETATM    7  C11 UNL     1      -0.263  -0.600   0.334  1.00  0.00    -0.002 C 
HETATM    8  C12 UNL     1       0.686  -1.582  -0.319  1.00  0.00     0.006 C 
HETATM    9  C13 UNL     1       1.967  -1.536   0.476  1.00  0.00     0.013 C 
HETATM   10  C14 UNL     1       2.416  -0.166   0.771  1.00  0.00    -0.007 C 
HETATM   11  C15 UNL     1       2.493   0.012   2.278  1.00  0.00     0.019 C 
HETATM   12  C16 UNL     1       1.689   0.964   0.110  1.00  0.00     0.001 C 
HETATM   13  C17 UNL     1       2.412   1.192  -1.184  1.00  0.00     0.009 C 
HETATM   14  C18 UNL     1       3.802   0.663  -1.038  1.00  0.00     0.041 C 
HETATM   15  C19 UNL     1       3.862  -0.034   0.273  1.00  0.00     0.090 A 
HETATM   16  C20 UNL     1       4.836  -0.992   0.627  1.00  0.00     0.207 A 
HETATM   17  O5  UNL     1       4.847   0.347   1.146  1.00  0.00    -0.374 OA
ENDROOT
BRANCH   4  18
HETATM   18  O1  UNL     1      -1.622   3.139  -2.118  1.00  0.00    -0.252 OA
BRANCH  18  19
HETATM   19  S1  UNL     1      -1.735   4.678  -1.447  1.00  0.00     0.251 S 
HETATM   20  O2  UNL     1      -1.738   5.690  -2.551  1.00  0.00    -0.572 OA
HETATM   21  O3  UNL     1      -3.024   4.852  -0.680  1.00  0.00    -0.572 OA
HETATM   22  O4  UNL     1      -0.441   4.968  -0.431  1.00  0.00    -0.572 OA
ENDBRANCH  18  19
ENDBRANCH   4  18
BRANCH   1  23
HETATM   23  C2  UNL     1      -2.248  -2.019   0.517  1.00  0.00    -0.085 C 
HETATM   24  C1  UNL     1      -1.605  -2.653   1.480  1.00  0.00     0.014 C 
BRANCH  23  25
HETATM   25  C3  UNL     1      -3.608  -2.510   0.095  1.00  0.00     0.029 C 
HETATM   26  C4  UNL     1      -3.936  -3.764   0.860  1.00  0.00     0.010 C 
ENDBRANCH  23  25
ENDBRANCH   1  23
TORSDOF 4
