REMARK  5 active torsions:
REMARK  status: ('A' for Active; 'I' for Inactive)
REMARK    1  A    between atoms: C3_3  and  C4_4 
REMARK    2  A    between atoms: C4_4  and  C5_5 
REMARK    3  A    between atoms: C7_7  and  C8_8 
REMARK    4  A    between atoms: C13_15  and  O1_16 
REMARK    5  A    between atoms: N2_20  and  C16_21 
ROOT
HETATM    1  C1  UNL     1      -0.279  -0.261   0.406  1.00  0.00     0.044 C 
HETATM    2  C2  UNL     1      -0.709  -0.666  -0.761  1.00  0.00     0.040 A 
HETATM    3  C3  UNL     1       0.042  -1.131  -1.809  1.00  0.00    -0.007 A 
HETATM    4  C14 UNL     1      -0.886  -1.432  -2.822  1.00  0.00     0.031 A 
HETATM    5  C15 UNL     1      -2.115  -1.140  -2.342  1.00  0.00     0.098 A 
HETATM    6  N2  UNL     1      -2.011  -0.680  -1.105  1.00  0.00    -0.321 N 
ENDROOT
BRANCH   3   7
HETATM    7  C4  UNL     1       1.317  -1.308  -1.977  1.00  0.00     0.029 C 
BRANCH   7   8
HETATM    8  C5  UNL     1       2.428  -1.067  -1.080  1.00  0.00     0.018 A 
HETATM    9  C6  UNL     1       3.212   0.081  -0.920  1.00  0.00     0.046 A 
HETATM   10  C7  UNL     1       4.187  -0.141   0.024  1.00  0.00     0.054 A 
HETATM   11  N1  UNL     1       4.015  -1.403   0.446  1.00  0.00    -0.330 N 
HETATM   12  C12 UNL     1       4.835  -2.052   1.449  1.00  0.00     0.158 C 
HETATM   13  C13 UNL     1       2.989  -1.982  -0.180  1.00  0.00     0.152 A 
BRANCH  10  14
HETATM   14  C8  UNL     1       5.218   0.795   0.492  1.00  0.00     0.031 A 
HETATM   15  C9  UNL     1       5.440   2.085   0.100  1.00  0.00     0.021 A 
HETATM   16  C10 UNL     1       6.453   2.739   0.681  1.00  0.00     0.008 A 
HETATM   17  C11 UNL     1       7.185   2.065   1.620  1.00  0.00     0.050 A 
HETATM   18  S1  UNL     1       6.429   0.535   1.658  1.00  0.00    -0.100 SA
ENDBRANCH  10  14
BRANCH  13  19
HETATM   19  O1  UNL     1       2.504  -3.269  -0.017  1.00  0.00    -0.345 OA
ATOM     20  H1  UNL     1       2.884  -3.890   0.593  1.00  0.00     0.219 HD
ENDBRANCH  13  19
ENDBRANCH   7   8
ENDBRANCH   3   7
BRANCH   6  21
HETATM   21  C16 UNL     1      -3.148  -0.277  -0.310  1.00  0.00     0.054 A 
HETATM   22  C17 UNL     1      -3.497  -0.983   0.820  1.00  0.00     0.033 A 
HETATM   23  C18 UNL     1      -4.600  -0.570   1.568  1.00  0.00     0.027 A 
HETATM   24  C19 UNL     1      -5.356   0.528   1.212  1.00  0.00     0.007 A 
HETATM   25  C20 UNL     1      -6.542   0.967   2.022  1.00  0.00     0.068 C 
HETATM   26  N3  UNL     1      -4.988   1.195   0.103  1.00  0.00    -0.363 N 
HETATM   27  C21 UNL     1      -5.742   2.361  -0.328  1.00  0.00     0.155 C 
HETATM   28  C22 UNL     1      -3.918   0.815  -0.645  1.00  0.00     0.120 A 
ENDBRANCH   6  21
TORSDOF 5
