REMARK  7 active torsions:
REMARK  status: ('A' for Active; 'I' for Inactive)
REMARK    1  A    between atoms: O1_1  and  C1_3 
REMARK    2  A    between atoms: C1_3  and  C2_4 
REMARK    3  A    between atoms: C1_3  and  N1_10 
REMARK    4  A    between atoms: N2_13  and  C10_14 
REMARK    5  A    between atoms: C10_14  and  C11_19 
REMARK    6  A    between atoms: N3_15  and  O2_17 
REMARK    7  A    between atoms: N4_22  and  C14_23 
ROOT
HETATM    1  C10 UNL     1       1.020  -1.445   1.585  1.00  0.00     0.135 C 
HETATM    2  N3  UNL     1       1.586  -1.940   2.644  1.00  0.00    -0.252 N 
ATOM      3  H3  UNL     1       1.035  -2.553   3.245  1.00  0.00     0.196 HD
ENDROOT
BRANCH   1   4
HETATM    4  N2  UNL     1      -0.350  -1.815   1.360  1.00  0.00    -0.362 N 
HETATM    5  C9  UNL     1      -0.751  -2.476   0.135  1.00  0.00     0.144 C 
HETATM    6  C8  UNL     1      -2.252  -2.644   0.157  1.00  0.00     0.145 C 
HETATM    7  N1  UNL     1      -2.880  -1.309   0.421  1.00  0.00    -0.358 N 
HETATM    8  C22 UNL     1      -2.430  -0.660   1.614  1.00  0.00     0.145 C 
HETATM    9  C21 UNL     1      -1.379  -1.542   2.343  1.00  0.00     0.144 C 
BRANCH   7  10
HETATM   10  C1  UNL     1      -3.813  -0.839  -0.486  1.00  0.00     0.148 C 
BRANCH  10  11
HETATM   11  O1  UNL     1      -4.018  -1.671  -1.486  1.00  0.00    -0.346 OA
ATOM     12  H1  UNL     1      -3.516  -2.477  -1.471  1.00  0.00     0.219 HD
ENDBRANCH  10  11
BRANCH  10  13
HETATM   13  C2  UNL     1      -4.571   0.379  -0.508  1.00  0.00     0.015 A 
HETATM   14  C3  UNL     1      -4.533   1.383   0.390  1.00  0.00     0.016 A 
HETATM   15  C4  UNL     1      -5.309   2.557   0.311  1.00  0.00     0.001 A 
HETATM   16  C5  UNL     1      -6.162   2.691  -0.751  1.00  0.00     0.000 A 
HETATM   17  C6  UNL     1      -6.226   1.686  -1.686  1.00  0.00     0.001 A 
HETATM   18  C7  UNL     1      -5.470   0.553  -1.600  1.00  0.00     0.016 A 
ENDBRANCH  10  13
ENDBRANCH   7  10
ENDBRANCH   1   4
BRANCH   1  19
HETATM   19  C11 UNL     1       1.733  -0.561   0.670  1.00  0.00     0.027 A 
HETATM   20  C12 UNL     1       1.152   0.437  -0.094  1.00  0.00     0.034 A 
HETATM   21  C13 UNL     1       2.158   1.055  -0.831  1.00  0.00     0.097 A 
HETATM   22  N4  UNL     1       3.323   0.453  -0.528  1.00  0.00    -0.332 N 
HETATM   23  C20 UNL     1       3.078  -0.520   0.374  1.00  0.00     0.112 A 
BRANCH  22  24
HETATM   24  C14 UNL     1       4.564   0.847  -1.114  1.00  0.00     0.038 A 
HETATM   25  C15 UNL     1       4.715   0.998  -2.478  1.00  0.00     0.030 A 
HETATM   26  C16 UNL     1       5.929   1.380  -3.011  1.00  0.00     0.002 A 
HETATM   27  C17 UNL     1       7.025   1.623  -2.206  1.00  0.00     0.000 A 
HETATM   28  C18 UNL     1       6.895   1.479  -0.852  1.00  0.00     0.002 A 
HETATM   29  C19 UNL     1       5.683   1.098  -0.333  1.00  0.00     0.030 A 
ENDBRANCH  22  24
ENDBRANCH   1  19
BRANCH   2  30
HETATM   30  O2  UNL     1       2.870  -1.685   2.992  1.00  0.00    -0.288 OA
ATOM     31  H2  UNL     1       3.284  -2.047   3.767  1.00  0.00     0.244 HD
ENDBRANCH   2  30
TORSDOF 7
