REMARK  7 active torsions:
REMARK  status: ('A' for Active; 'I' for Inactive)
REMARK    1  A    between atoms: C2_2  and  C3_3 
REMARK    2  A    between atoms: C3_3  and  N1_4 
REMARK    3  A    between atoms: N1_4  and  C4_6 
REMARK    4  A    between atoms: C8_12  and  N3_13 
REMARK    5  A    between atoms: N3_13  and  C9_15 
REMARK    6  A    between atoms: C9_15  and  C10_16 
REMARK    7  A    between atoms: C10_16  and  C11_17 
ROOT
HETATM    1  C4  UNL     1       3.426   0.573  -0.359  1.00  0.00     0.129 A 
HETATM    2  N2  UNL     1       3.035   1.598   0.402  1.00  0.00    -0.351 N 
ATOM      3  H2  UNL     1       3.684   2.365   0.579  1.00  0.00     0.166 HD
HETATM    4  C5  UNL     1       1.790   1.640   0.946  1.00  0.00     0.091 A 
HETATM    5  C6  UNL     1       0.879   0.628   0.735  1.00  0.00     0.034 A 
HETATM    6  C7  UNL     1       1.250  -0.450  -0.049  1.00  0.00     0.040 A 
HETATM    7  C8  UNL     1       0.395  -1.500  -0.305  1.00  0.00     0.114 A 
HETATM    8  N4  UNL     1       0.832  -2.510  -1.076  1.00  0.00    -0.338 N 
ATOM      9  H4  UNL     1       0.201  -3.289  -1.266  1.00  0.00     0.168 HD
HETATM   10  C17 UNL     1       2.061  -2.536  -1.604  1.00  0.00     0.182 A 
HETATM   11  N5  UNL     1       2.878  -1.501  -1.341  1.00  0.00    -0.348 N 
ATOM     12  H5  UNL     1       3.817  -1.512  -1.740  1.00  0.00     0.167 HD
HETATM   13  C18 UNL     1       2.520  -0.454  -0.580  1.00  0.00     0.091 A 
ENDROOT
BRANCH   7  14
HETATM   14  N3  UNL     1      -0.779  -1.446   0.216  1.00  0.00    -0.375 N 
ATOM     15  H3  UNL     1      -1.020  -0.637   0.789  1.00  0.00     0.161 HD
BRANCH  14  16
HETATM   16  C9  UNL     1      -1.776  -2.480   0.028  1.00  0.00     0.125 C 
BRANCH  16  17
HETATM   17  C10 UNL     1      -3.063  -2.105   0.655  1.00  0.00     0.053 C 
BRANCH  17  18
HETATM   18  C11 UNL     1      -3.719  -0.909   0.153  1.00  0.00    -0.082 C 
HETATM   19  C12 UNL     1      -3.309  -0.109  -0.824  1.00  0.00    -0.024 C 
HETATM   20  C13 UNL     1      -4.195   1.057  -1.126  1.00  0.00     0.027 C 
HETATM   21  C14 UNL     1      -4.394   1.851   0.136  1.00  0.00     0.004 C 
HETATM   22  C15 UNL     1      -4.974   0.951   1.208  1.00  0.00     0.005 C 
HETATM   23  C16 UNL     1      -5.026  -0.485   0.788  1.00  0.00     0.034 C 
ENDBRANCH  17  18
ENDBRANCH  16  17
ENDBRANCH  14  16
ENDBRANCH   7  14
BRANCH   1  24
HETATM   24  N1  UNL     1       4.583   0.469  -0.902  1.00  0.00    -0.371 N 
ATOM     25  H1  UNL     1       4.754  -0.367  -1.461  1.00  0.00     0.161 HD
BRANCH  24  26
HETATM   26  C3  UNL     1       5.658   1.407  -0.803  1.00  0.00     0.148 C 
BRANCH  26  27
HETATM   27  C2  UNL     1       6.505   0.998   0.361  1.00  0.00    -0.018 C 
HETATM   28  C1  UNL     1       6.694   1.809   1.387  1.00  0.00     0.008 C 
ENDBRANCH  26  27
ENDBRANCH  24  26
ENDBRANCH   1  24
TORSDOF 7
