REMARK  6 active torsions:
REMARK  status: ('A' for Active; 'I' for Inactive)
REMARK    1  A    between atoms: C2_2  and  N1_3 
REMARK    2  A    between atoms: N2_6  and  C5_7 
REMARK    3  A    between atoms: C6_10  and  O1_11 
REMARK    4  A    between atoms: C7_13  and  C8_14 
REMARK    5  A    between atoms: C9_23  and  N8_24 
REMARK    6  A    between atoms: N8_24  and  C10_26 
ROOT
HETATM    1  C5  UNL     1       0.398   0.049  -0.216  1.00  0.00     0.133 A 
HETATM    2  N3  UNL     1       0.342   0.145  -1.554  1.00  0.00    -0.321 N 
ATOM      3  H3  UNL     1       1.201   0.168  -2.104  1.00  0.00     0.169 HD
HETATM    4  C6  UNL     1      -0.835   0.210  -2.153  1.00  0.00     0.158 A 
HETATM    5  C7  UNL     1      -2.002   0.177  -1.391  1.00  0.00     0.090 A 
HETATM    6  C9  UNL     1      -1.994   0.078  -0.018  1.00  0.00     0.075 A 
HETATM    7  C13 UNL     1      -0.698   0.012   0.589  1.00  0.00     0.117 A 
HETATM    8  N10 UNL     1      -0.615  -0.084   2.009  1.00  0.00    -0.096 NA
ENDROOT
BRANCH   5   9
HETATM    9  C8  UNL     1      -3.270   0.269  -2.132  1.00  0.00     0.154 A 
HETATM   10  N4  UNL     1      -4.058  -0.701  -2.593  1.00  0.00    -0.268 N 
HETATM   11  N5  UNL     1      -5.060  -0.155  -3.214  1.00  0.00    -0.227 N 
ATOM     12  H4  UNL     1      -3.901  -1.702  -2.478  1.00  0.00     0.190 HD
HETATM   13  N6  UNL     1      -4.952   1.157  -3.171  1.00  0.00    -0.227 N 
ATOM     14  H5  UNL     1      -5.817  -0.666  -3.667  1.00  0.00     0.210 HD
HETATM   15  N7  UNL     1      -3.859   1.434  -2.511  1.00  0.00    -0.268 N 
ATOM     16  H6  UNL     1      -5.601   1.831  -3.577  1.00  0.00     0.210 HD
ATOM     17  H7  UNL     1      -3.506   2.370  -2.313  1.00  0.00     0.190 HD
ENDBRANCH   5   9
BRANCH   4  18
HETATM   18  O1  UNL     1      -0.968   0.310  -3.527  1.00  0.00    -0.345 OA
ATOM     19  H1  UNL     1      -1.814   0.357  -3.957  1.00  0.00     0.219 HD
ENDBRANCH   4  18
BRANCH   6  20
HETATM   20  N8  UNL     1      -2.955   0.020   0.776  1.00  0.00    -0.380 N 
ATOM     21  H8  UNL     1      -2.593  -0.045   1.728  1.00  0.00     0.160 HD
BRANCH  20  22
HETATM   22  C10 UNL     1      -4.336   0.013   0.821  1.00  0.00     0.133 C 
HETATM   23  C11 UNL     1      -4.945   0.281   2.204  1.00  0.00     0.259 C 
HETATM   24  N9  UNL     1      -5.620  -0.993   2.174  1.00  0.00    -0.071 N 
HETATM   25  C12 UNL     1      -4.952  -1.369   0.968  1.00  0.00     0.259 C 
ATOM     26  H92 UNL     1      -5.563  -1.606   2.987  1.00  0.00     0.277 HD
ATOM     27  H91 UNL     1      -6.639  -1.018   2.207  1.00  0.00     0.277 HD
ENDBRANCH  20  22
ENDBRANCH   6  20
BRANCH   1  28
HETATM   28  N2  UNL     1       1.720  -0.019   0.355  1.00  0.00    -0.356 N 
HETATM   29  C4  UNL     1       2.475   1.169   0.644  1.00  0.00     0.169 C 
HETATM   30  C3  UNL     1       3.749   1.095  -0.131  1.00  0.00     0.083 C 
HETATM   31  N1  UNL     1       4.296  -0.162  -0.395  1.00  0.00    -0.371 N 
HETATM   32  C15 UNL     1       3.789  -1.319   0.217  1.00  0.00     0.083 C 
HETATM   33  C14 UNL     1       2.367  -1.269   0.674  1.00  0.00     0.169 C 
BRANCH  31  34
HETATM   34  C2  UNL     1       5.749  -0.143  -0.373  1.00  0.00     0.122 C 
HETATM   35  C1  UNL     1       6.297   0.094   0.997  1.00  0.00     0.027 C 
ENDBRANCH  31  34
ENDBRANCH   1  28
TORSDOF 6
