REMARK  10 active torsions:
REMARK  status: ('A' for Active; 'I' for Inactive)
REMARK    1  A    between atoms: O1_2  and  N1_3 
REMARK    2  A    between atoms: N1_3  and  C2_4 
REMARK    3  A    between atoms: C2_4  and  C3_5 
REMARK    4  A    between atoms: C4_6  and  N2_7 
REMARK    5  A    between atoms: N3_10  and  C7_11 
REMARK    6  A    between atoms: C10_18  and  N6_19 
REMARK    7  A    between atoms: N8_25  and  C12_26 
REMARK    8  A    between atoms: C12_26  and  C13_27 
REMARK    9  A    between atoms: C13_27  and  C14_28 
REMARK   10  A    between atoms: C19_39  and  N11_40 
ROOT
HETATM    1  N2  UNL     1       2.150  -0.292   0.037  1.00  0.00    -0.363 N 
HETATM    2  C5  UNL     1       1.211   0.803  -0.349  1.00  0.00     0.145 C 
HETATM    3  C6  UNL     1      -0.042   0.043  -0.769  1.00  0.00     0.161 C 
HETATM    4  N3  UNL     1      -0.576  -0.589   0.445  1.00  0.00    -0.214 N 
HETATM    5  C16 UNL     1       0.320  -0.685   1.560  1.00  0.00     0.161 C 
HETATM    6  C17 UNL     1       1.720  -1.111   1.090  1.00  0.00     0.145 C 
ENDROOT
BRANCH   4   7
HETATM    7  C7  UNL     1      -1.907  -1.049   0.348  1.00  0.00     0.684 A 
HETATM    8  N4  UNL     1      -2.125  -2.380   0.097  1.00  0.00    -0.186 N 
HETATM    9  C8  UNL     1      -3.437  -2.644   0.022  1.00  0.00     0.110 A 
ATOM     10  H4  UNL     1      -1.388  -3.075  -0.017  1.00  0.00     0.184 HD
HETATM   11  C9  UNL     1      -4.180  -3.803  -0.218  1.00  0.00     0.140 A 
HETATM   12  C11 UNL     1      -4.060  -1.464   0.230  1.00  0.00     0.167 A 
HETATM   13  N5  UNL     1      -5.521  -3.698  -0.235  1.00  0.00    -0.200 N 
HETATM   14  C10 UNL     1      -6.115  -2.518  -0.030  1.00  0.00     0.677 A 
ATOM     15  H5  UNL     1      -6.090  -4.527  -0.406  1.00  0.00     0.183 HD
HETATM   16  N7  UNL     1      -5.407  -1.393   0.204  1.00  0.00    -0.174 N 
ATOM     17  H7  UNL     1      -5.882  -0.504   0.359  1.00  0.00     0.186 HD
HETATM   18  N8  UNL     1      -3.095  -0.509   0.425  1.00  0.00    -0.165 N 
BRANCH  14  19
HETATM   19  N6  UNL     1      -7.398  -2.470  -0.119  1.00  0.00    -0.234 N 
ATOM     20  H62 UNL     1      -7.933  -3.320  -0.296  1.00  0.00     0.174 HD
ATOM     21  H61 UNL     1      -7.851  -1.570   0.037  1.00  0.00     0.174 HD
ENDBRANCH  14  19
BRANCH  18  22
HETATM   22  C12 UNL     1      -3.431   0.866   0.681  1.00  0.00     0.155 C 
BRANCH  22  23
HETATM   23  C13 UNL     1      -3.526   1.720  -0.522  1.00  0.00     0.099 C 
BRANCH  23  24
HETATM   24  C14 UNL     1      -3.897   3.168  -0.227  1.00  0.00     0.241 C 
HETATM   25  C15 UNL     1      -3.891   3.866  -1.616  1.00  0.00     0.090 C 
HETATM   26  F1  UNL     1      -3.020   3.793   0.585  1.00  0.00    -0.207 F 
HETATM   27  F2  UNL     1      -5.193   3.160   0.250  1.00  0.00    -0.207 F 
ENDBRANCH  23  24
ENDBRANCH  22  23
ENDBRANCH  18  22
ENDBRANCH   4   7
BRANCH   1  28
HETATM   28  C4  UNL     1       3.250  -0.363  -0.817  1.00  0.00     0.120 A 
HETATM   29  C3  UNL     1       4.476   0.164  -0.478  1.00  0.00     0.083 A 
HETATM   30  C19 UNL     1       5.551   0.147  -1.377  1.00  0.00     0.116 A 
HETATM   31  N10 UNL     1       5.304  -0.434  -2.607  1.00  0.00    -0.338 N 
HETATM   32  C18 UNL     1       4.125  -0.953  -2.952  1.00  0.00     0.183 A 
ATOM     33  H10 UNL     1       6.064  -0.467  -3.287  1.00  0.00     0.168 HD
HETATM   34  N9  UNL     1       3.119  -0.915  -2.072  1.00  0.00    -0.338 N 
ATOM     35  H9  UNL     1       2.218  -1.311  -2.341  1.00  0.00     0.168 HD
BRANCH  29  36
HETATM   36  C2  UNL     1       4.639   0.737   0.833  1.00  0.00     0.237 C 
BRANCH  36  37
HETATM   37  N1  UNL     1       5.573   1.228   1.376  1.00  0.00    -0.294 NA
BRANCH  37  38
HETATM   38  O1  UNL     1       6.630   1.746   1.896  1.00  0.00    -0.215 OA
HETATM   39  C1  UNL     1       7.736   0.945   2.429  1.00  0.00     0.255 C 
ENDBRANCH  37  38
ENDBRANCH  36  37
ENDBRANCH  29  36
BRANCH  30  40
HETATM   40  N11 UNL     1       6.676   0.622  -1.198  1.00  0.00    -0.385 N 
ATOM     41 2H11 UNL     1       6.858   1.051  -0.291  1.00  0.00     0.157 HD
ATOM     42 1H11 UNL     1       7.458   0.610  -1.852  1.00  0.00     0.157 HD
ENDBRANCH  30  40
ENDBRANCH   1  28
TORSDOF 10
