REMARK  7 active torsions:
REMARK  status: ('A' for Active; 'I' for Inactive)
REMARK    1  A    between atoms: C2_2  and  C3_3 
REMARK    2  A    between atoms: C3_3  and  C4_4 
REMARK    3  A    between atoms: C8_8  and  C9_9 
REMARK    4  A    between atoms: C9_9  and  C10_11 
REMARK    5  A    between atoms: C10_11  and  C11_12 
REMARK    6  A    between atoms: C11_12  and  C14_15 
REMARK    7  A    between atoms: C16_17  and  C17_18 
ROOT
HETATM    1  C9  UNL     1      -0.277   1.416  -0.736  1.00  0.00     0.142 C 
HETATM    2  O1  UNL     1      -0.248   2.170  -1.664  1.00  0.00    -0.297 OA
ENDROOT
BRANCH   1   3
HETATM    3  C8  UNL     1       1.040   0.965  -0.141  1.00  0.00     0.147 C 
HETATM    4  C7  UNL     1       0.916  -0.397   0.470  1.00  0.00    -0.010 C 
HETATM    5  C6  UNL     1       2.023  -1.103   0.660  1.00  0.00    -0.020 C 
HETATM    6  C3  UNL     1       3.360  -0.555   0.273  1.00  0.00    -0.017 C 
HETATM    7  C20 UNL     1       3.199  -0.058  -1.127  1.00  0.00     0.093 C 
HETATM    8  C19 UNL     1       2.065   0.892  -1.188  1.00  0.00     0.142 C 
HETATM    9  O2  UNL     1       2.042   1.612  -2.178  1.00  0.00    -0.297 OA
BRANCH   6  10
HETATM   10  C2  UNL     1       4.309  -1.743   0.398  1.00  0.00     0.009 C 
HETATM   11  C1  UNL     1       3.929  -2.905  -0.472  1.00  0.00     0.006 C 
ENDBRANCH   6  10
BRANCH   6  12
HETATM   12  C4  UNL     1       3.885   0.477   1.231  1.00  0.00     0.009 C 
HETATM   13  C5  UNL     1       5.334   0.798   0.824  1.00  0.00     0.006 C 
ENDBRANCH   6  12
ENDBRANCH   1   3
BRANCH   1  14
HETATM   14  C10 UNL     1      -1.460   0.896  -0.119  1.00  0.00     0.093 C 
BRANCH  14  15
HETATM   15  C11 UNL     1      -2.753   1.634  -0.266  1.00  0.00    -0.007 C 
HETATM   16  C12 UNL     1      -2.760   2.976   0.369  1.00  0.00     0.021 C 
HETATM   17  C13 UNL     1      -3.145   1.812  -1.726  1.00  0.00     0.021 C 
BRANCH  15  18
HETATM   18  C14 UNL     1      -3.802   0.734   0.337  1.00  0.00    -0.009 A 
HETATM   19  C15 UNL     1      -4.165  -0.503  -0.181  1.00  0.00     0.032 A 
HETATM   20  C16 UNL     1      -5.091  -1.197   0.488  1.00  0.00     0.055 A 
HETATM   21  C18 UNL     1      -5.608  -0.645   1.626  1.00  0.00     0.066 A 
HETATM   22  S1  UNL     1      -4.766   0.849   1.707  1.00  0.00    -0.105 SA
BRANCH  20  23
HETATM   23  C17 UNL     1      -5.570  -2.572   0.019  1.00  0.00     0.418 C 
HETATM   24  F1  UNL     1      -6.404  -2.377  -1.026  1.00  0.00    -0.166 F 
HETATM   25  F2  UNL     1      -4.440  -3.265  -0.478  1.00  0.00    -0.166 F 
HETATM   26  F3  UNL     1      -6.090  -3.287   1.037  1.00  0.00    -0.166 F 
ENDBRANCH  20  23
ENDBRANCH  15  18
ENDBRANCH  14  15
ENDBRANCH   1  14
TORSDOF 7
