REMARK  8 active torsions:
REMARK  status: ('A' for Active; 'I' for Inactive)
REMARK    1  A    between atoms: O1_2  and  C2_3 
REMARK    2  A    between atoms: C5_6  and  C6_7 
REMARK    3  A    between atoms: C6_7  and  N1_8 
REMARK    4  A    between atoms: C9_17  and  S1_18 
REMARK    5  A    between atoms: S1_18  and  N5_21 
REMARK    6  A    between atoms: N5_21  and  N6_23 
REMARK    7  A    between atoms: C10_28  and  O4_29 
REMARK    8  A    between atoms: C12_31  and  O5_32 
ROOT
HETATM    1  N1  UNL     1       0.739  -0.099   0.408  1.00  0.00    -0.222 N 
ATOM      2  H1  UNL     1       0.588   0.719   0.999  1.00  0.00     0.178 HD
HETATM    3  C7  UNL     1       1.965  -0.484   0.168  1.00  0.00     0.682 A 
HETATM    4  N2  UNL     1       2.222  -1.554  -0.605  1.00  0.00    -0.163 N 
ATOM      5  H2  UNL     1       1.448  -2.078  -1.014  1.00  0.00     0.187 HD
HETATM    6  C8  UNL     1       3.505  -1.946  -0.848  1.00  0.00     0.208 A 
HETATM    7  N3  UNL     1       3.747  -3.082  -1.668  1.00  0.00    -0.063 NA
HETATM    8  N4  UNL     1       4.526  -1.254  -0.309  1.00  0.00    -0.305 N 
ATOM      9  H4  UNL     1       5.486  -1.547  -0.491  1.00  0.00     0.170 HD
HETATM   10  C9  UNL     1       4.293  -0.180   0.467  1.00  0.00     0.242 A 
HETATM   11  N7  UNL     1       3.025   0.166   0.677  1.00  0.00    -0.164 N 
ATOM     12  H7  UNL     1       2.846   0.980   1.265  1.00  0.00     0.186 HD
ENDROOT
BRANCH   1  13
HETATM   13  C6  UNL     1      -0.397  -0.780  -0.126  1.00  0.00     0.179 C 
BRANCH  13  14
HETATM   14  C5  UNL     1      -1.553   0.147  -0.123  1.00  0.00    -0.004 A 
HETATM   15  C4  UNL     1      -1.501   1.450   0.330  1.00  0.00     0.014 A 
HETATM   16  C3  UNL     1      -2.602   2.279   0.315  1.00  0.00     0.040 A 
HETATM   17  C2  UNL     1      -3.805   1.813  -0.165  1.00  0.00     0.104 A 
HETATM   18  C12 UNL     1      -3.869   0.523  -0.617  1.00  0.00     0.135 A 
HETATM   19  C10 UNL     1      -2.763  -0.297  -0.598  1.00  0.00     0.112 A 
BRANCH  17  20
HETATM   20  O1  UNL     1      -4.934   2.655  -0.183  1.00  0.00    -0.353 OA
HETATM   21  C1  UNL     1      -4.871   3.976   0.279  1.00  0.00     0.210 C 
ENDBRANCH  17  20
BRANCH  18  22
HETATM   22  O5  UNL     1      -5.075   0.037  -1.105  1.00  0.00    -0.351 OA
HETATM   23  C13 UNL     1      -5.970  -0.581  -0.224  1.00  0.00     0.210 C 
ENDBRANCH  18  22
BRANCH  19  24
HETATM   24  O4  UNL     1      -2.829  -1.614  -1.060  1.00  0.00    -0.352 OA
HETATM   25  C11 UNL     1      -3.165  -2.621  -0.142  1.00  0.00     0.210 C 
ENDBRANCH  19  24
ENDBRANCH  13  14
ENDBRANCH   1  13
BRANCH  10  26
HETATM   26  S1  UNL     1       5.599   0.747   1.187  1.00  0.00     0.308 S 
HETATM   27  O2  UNL     1       5.414   0.708   2.695  1.00  0.00    -0.196 OA
HETATM   28  O3  UNL     1       5.528   2.178   0.748  1.00  0.00    -0.196 OA
BRANCH  26  29
HETATM   29  N5  UNL     1       7.120   0.111   0.773  1.00  0.00    -0.227 N 
ATOM     30  H5  UNL     1       7.607  -0.600   1.318  1.00  0.00     0.199 HD
BRANCH  29  31
HETATM   31  N6  UNL     1       7.625   0.677  -0.402  1.00  0.00    -0.336 N 
ATOM     32  H62 UNL     1       7.126   1.388  -0.937  1.00  0.00     0.177 HD
ATOM     33  H61 UNL     1       8.538   0.295  -0.650  1.00  0.00     0.177 HD
ENDBRANCH  29  31
ENDBRANCH  26  29
ENDBRANCH  10  26
TORSDOF 8
