REMARK  4 active torsions:
REMARK  status: ('A' for Active; 'I' for Inactive)
REMARK       I    between atoms: C1_2  and  N1_3 
REMARK    1  A    between atoms: C1_2  and  C8_11 
REMARK    2  A    between atoms: N1_3  and  C2_5 
REMARK    3  A    between atoms: C2_5  and  C3_6 
REMARK    4  A    between atoms: N2_16  and  C13_17 
ROOT
HETATM    1  C8  UNL     1       1.198   0.219  -0.515  1.00  0.00     0.172 C 
HETATM    2  C9  UNL     1       0.307   0.674   0.621  1.00  0.00     0.054 C 
HETATM    3  C10 UNL     1      -1.025   0.071   0.311  1.00  0.00     0.037 C 
HETATM    4  C11 UNL     1      -1.681   0.894  -0.786  1.00  0.00     0.061 C 
HETATM    5  C12 UNL     1      -3.146   0.419  -0.792  1.00  0.00     0.275 C 
HETATM    6  N2  UNL     1      -3.759   1.063   0.334  1.00  0.00     0.093 N 
HETATM    7  C18 UNL     1      -3.043   0.880   1.564  1.00  0.00     0.275 C 
HETATM    8  C19 UNL     1      -1.924  -0.119   1.489  1.00  0.00     0.061 C 
HETATM    9  N3  UNL     1      -0.648  -1.182  -0.315  1.00  0.00    -0.351 N 
ATOM     10  H3  UNL     1      -1.084  -2.093  -0.174  1.00  0.00     0.163 HD
HETATM   11  C20 UNL     1       0.450  -0.885  -1.164  1.00  0.00     0.231 C 
HETATM   12  O3  UNL     1       0.723  -1.449  -2.243  1.00  0.00    -0.273 OA
ENDROOT
BRANCH   1  13
HETATM   13  C1  UNL     1       2.444  -0.370   0.018  1.00  0.00     0.231 C 
HETATM   14  O1  UNL     1       2.616  -0.422   1.252  1.00  0.00    -0.273 OA
HETATM   15  N1  UNL     1       3.437  -0.870  -0.849  1.00  0.00    -0.360 N 
ATOM     16  H1  UNL     1       3.272  -0.815  -1.854  1.00  0.00     0.162 HD
BRANCH  15  17
HETATM   17  C2  UNL     1       4.673  -1.455  -0.391  1.00  0.00     0.127 C 
BRANCH  17  18
HETATM   18  C3  UNL     1       5.488  -0.481   0.416  1.00  0.00     0.003 C 
HETATM   19  C4  UNL     1       5.864   0.761  -0.359  1.00  0.00     0.006 C 
HETATM   20  C5  UNL     1       7.036   1.271   0.485  1.00  0.00     0.000 C 
HETATM   21  C6  UNL     1       7.738   0.027   0.975  1.00  0.00     0.000 C 
HETATM   22  C7  UNL     1       6.858  -1.142   0.606  1.00  0.00     0.006 C 
ENDBRANCH  17  18
ENDBRANCH  15  17
ENDBRANCH   1  13
BRANCH   6  23
HETATM   23  C13 UNL     1      -5.177   0.816   0.458  1.00  0.00     0.227 C 
HETATM   24  C14 UNL     1      -5.913   1.354  -0.738  1.00  0.00     0.062 C 
HETATM   25  C15 UNL     1      -6.465   0.275  -1.632  1.00  0.00     0.169 C 
HETATM   26  O2  UNL     1      -7.040  -0.776  -0.928  1.00  0.00    -0.391 OA
HETATM   27  C16 UNL     1      -5.996  -1.449  -0.291  1.00  0.00     0.169 C 
HETATM   28  C17 UNL     1      -5.543  -0.574   0.850  1.00  0.00     0.062 C 
ENDBRANCH   6  23
TORSDOF 4
