REMARK  3 active torsions:
REMARK  status: ('A' for Active; 'I' for Inactive)
REMARK    1  A    between atoms: C3_5  and  N2_6 
REMARK       I    between atoms: N2_6  and  C4_8 
REMARK    2  A    between atoms: C4_8  and  C5_10 
REMARK    3  A    between atoms: C9_15  and  C10_16 
ROOT
HETATM    1  C1  UNL     1      -2.156   2.292   1.385  1.00  0.00     0.069 C 
HETATM    2  C2  UNL     1      -1.271   1.357   0.569  1.00  0.00     0.021 A 
HETATM    3  N1  UNL     1       0.015   1.554   0.408  1.00  0.00    -0.339 N 
ATOM      4  H1  UNL     1       0.481   2.357   0.832  1.00  0.00     0.168 HD
HETATM    5  C3  UNL     1       0.699   0.669  -0.330  1.00  0.00     0.151 A 
HETATM    6  S1  UNL     1      -0.501  -0.450  -0.795  1.00  0.00    -0.056 SA
HETATM    7  C9  UNL     1      -1.835   0.268  -0.021  1.00  0.00     0.016 A 
ENDROOT
BRANCH   5   8
HETATM    8  N2  UNL     1       1.988   0.696  -0.604  1.00  0.00    -0.307 N 
HETATM    9  C4  UNL     1       2.569  -0.301  -1.392  1.00  0.00     0.228 C 
HETATM   10  O1  UNL     1       1.955  -0.890  -2.312  1.00  0.00    -0.273 OA
ATOM     11  H2  UNL     1       2.567   1.452  -0.237  1.00  0.00     0.171 HD
BRANCH   9  12
HETATM   12  C5  UNL     1       3.977  -0.684  -1.133  1.00  0.00     0.082 A 
HETATM   13  C6  UNL     1       4.955   0.363  -0.720  1.00  0.00     0.019 A 
HETATM   14  C7  UNL     1       4.485  -0.613   0.275  1.00  0.00    -0.005 A 
HETATM   15  C8  UNL     1       5.340  -1.755   0.729  1.00  0.00     0.011 C 
ENDBRANCH   9  12
ENDBRANCH   5   8
BRANCH   7  16
HETATM   16  C10 UNL     1      -3.221  -0.239  -0.041  1.00  0.00    -0.016 C 
HETATM   17  C11 UNL     1      -3.240  -1.502  -0.869  1.00  0.00     0.020 C 
HETATM   18  C12 UNL     1      -3.705  -0.604   1.355  1.00  0.00     0.020 C 
HETATM   19  C13 UNL     1      -4.206   0.715  -0.618  1.00  0.00     0.020 C 
ENDBRANCH   7  16
TORSDOF 3
