REMARK  3 active torsions:
REMARK  status: ('A' for Active; 'I' for Inactive)
REMARK    1  A    between atoms: C4_4  and  N1_5 
REMARK       I    between atoms: N1_5  and  C5_7 
REMARK    2  A    between atoms: C5_7  and  C6_9 
REMARK    3  A    between atoms: C7_10  and  C8_11 
ROOT
HETATM    1  N1  UNL     1       1.719  -1.209  -0.443  1.00  0.00    -0.312 N 
ATOM      2  H1  UNL     1       1.838  -1.773  -1.284  1.00  0.00     0.170 HD
HETATM    3  C5  UNL     1       0.479  -1.343   0.185  1.00  0.00     0.228 C 
HETATM    4  O1  UNL     1       0.427  -1.940   1.293  1.00  0.00    -0.273 OA
ENDROOT
BRANCH   3   5
HETATM    5  C6  UNL     1      -0.727  -0.788  -0.463  1.00  0.00     0.092 A 
HETATM    6  C7  UNL     1      -1.886  -0.275   0.324  1.00  0.00     0.015 A 
HETATM    7  C12 UNL     1      -2.012  -1.591  -0.269  1.00  0.00    -0.030 A 
HETATM    8  C13 UNL     1      -2.690  -1.904  -1.565  1.00  0.00     0.016 C 
HETATM    9  C14 UNL     1      -1.972  -2.795   0.672  1.00  0.00     0.016 C 
BRANCH   6  10
HETATM   10  C8  UNL     1      -2.558   0.976  -0.079  1.00  0.00    -0.046 C 
HETATM   11  C9  UNL     1      -3.709   1.291   0.875  1.00  0.00     0.015 C 
HETATM   12  C10 UNL     1      -3.058   1.094  -1.463  1.00  0.00     0.015 C 
HETATM   13  C11 UNL     1      -1.557   2.125   0.133  1.00  0.00     0.015 C 
ENDBRANCH   6  10
ENDBRANCH   3   5
BRANCH   1  14
HETATM   14  C4  UNL     1       2.721  -0.495  -0.131  1.00  0.00     0.126 A 
HETATM   15  C3  UNL     1       3.904  -0.488  -0.894  1.00  0.00     0.076 A 
HETATM   16  C2  UNL     1       4.788   0.376  -0.302  1.00  0.00     0.025 A 
HETATM   17  C1  UNL     1       6.178   0.731  -0.730  1.00  0.00     0.070 C 
HETATM   18  N3  UNL     1       4.164   0.872   0.775  1.00  0.00    -0.302 N 
HETATM   19  N2  UNL     1       2.924   0.350   0.879  1.00  0.00    -0.281 N 
ATOM     20  H3  UNL     1       4.568   1.548   1.423  1.00  0.00     0.186 HD
HETATM   21  C15 UNL     1       1.973   0.666   1.926  1.00  0.00     0.179 C 
ENDBRANCH   1  14
TORSDOF 3
