REMARK  5 active torsions:
REMARK  status: ('A' for Active; 'I' for Inactive)
REMARK    1  A    between atoms: C2_2  and  C4_4 
REMARK    2  A    between atoms: C4_4  and  C5_5 
REMARK    3  A    between atoms: C5_5  and  C7_10 
REMARK    4  A    between atoms: C10_16  and  S2_17 
REMARK    5  A    between atoms: S2_17  and  N4_20 
ROOT
HETATM    1  C5  UNL     1       2.494   0.919  -0.210  1.00  0.00     0.033 C 
HETATM    2  N1  UNL     1       1.722   1.623   0.540  1.00  0.00    -0.297 N 
ATOM      3  H1  UNL     1       0.715   1.592   0.380  1.00  0.00     0.178 HD
HETATM    4  C6  UNL     1       2.211   2.417   1.552  1.00  0.00     0.182 C 
HETATM    5  N2  UNL     1       2.612   3.116   2.411  1.00  0.00    -0.172 NA
ENDROOT
BRANCH   1   6
HETATM    6  C4  UNL     1       3.935   1.034   0.110  1.00  0.00     0.062 C 
BRANCH   6   7
HETATM    7  C2  UNL     1       4.424   0.127   1.181  1.00  0.00    -0.017 C 
HETATM    8  C1  UNL     1       4.286  -1.332   1.060  1.00  0.00     0.010 C 
HETATM    9  C3  UNL     1       5.936   0.403   1.380  1.00  0.00     0.010 C 
ENDBRANCH   6   7
ENDBRANCH   1   6
BRANCH   1  10
HETATM   10  C7  UNL     1       1.953  -0.074  -1.190  1.00  0.00     0.043 A 
HETATM   11  C8  UNL     1       2.755  -0.769  -2.042  1.00  0.00     0.102 A 
HETATM   12  N3  UNL     1       4.161  -0.641  -2.386  1.00  0.00    -0.093 NA
HETATM   13  S1  UNL     1       1.714  -1.876  -2.833  1.00  0.00    -0.061 SA
HETATM   14  C9  UNL     1       0.270  -1.432  -2.070  1.00  0.00     0.100 A 
HETATM   15 CL1  UNL     1      -1.346  -2.147  -2.371  1.00  0.00    -0.074 Cl
HETATM   16  C10 UNL     1       0.611  -0.428  -1.207  1.00  0.00     0.117 A 
BRANCH  16  17
HETATM   17  S2  UNL     1      -0.684   0.336  -0.242  1.00  0.00     0.246 S 
HETATM   18  O1  UNL     1      -0.799   1.804  -0.522  1.00  0.00    -0.206 OA
HETATM   19  O2  UNL     1      -0.523   0.066   1.217  1.00  0.00    -0.206 OA
BRANCH  17  20
HETATM   20  N4  UNL     1      -2.221  -0.310  -0.686  1.00  0.00    -0.206 NA
HETATM   21  C11 UNL     1      -2.859  -1.015   0.382  1.00  0.00     0.112 C 
HETATM   22  C12 UNL     1      -4.296  -1.297   0.029  1.00  0.00    -0.004 C 
HETATM   23  C13 UNL     1      -4.941  -2.244   1.000  1.00  0.00     0.011 C 
HETATM   24  C14 UNL     1      -5.033   0.015   0.079  1.00  0.00     0.011 C 
HETATM   25  C15 UNL     1      -4.244   1.095  -0.577  1.00  0.00    -0.004 C 
HETATM   26  C16 UNL     1      -3.890   2.200   0.399  1.00  0.00     0.011 C 
HETATM   27  C17 UNL     1      -3.064   0.619  -1.375  1.00  0.00     0.112 C 
ENDBRANCH  17  20
ENDBRANCH  16  17
ENDBRANCH   1  10
TORSDOF 5
