REMARK  5 active torsions:
REMARK  status: ('A' for Active; 'I' for Inactive)
REMARK    1  A    between atoms: C4_5  and  C5_6 
REMARK    2  A    between atoms: N2_7  and  O1_9 
REMARK    3  A    between atoms: C6_11  and  N3_12 
REMARK    4  A    between atoms: N3_12  and  N4_13 
REMARK    5  A    between atoms: N3_12  and  O2_16 
ROOT
HETATM    1  C1  UNL     1      -3.476  -0.784  -0.014  1.00  0.00     0.154 C 
HETATM    2  N1  UNL     1      -2.020  -0.731  -0.068  1.00  0.00    -0.369 N 
HETATM    3  C2  UNL     1      -1.331  -1.868  -0.141  1.00  0.00     0.091 A 
HETATM    4  C3  UNL     1       0.058  -1.825  -0.193  1.00  0.00     0.032 A 
HETATM    5  C4  UNL     1       0.685  -0.598  -0.167  1.00  0.00     0.009 A 
HETATM    6  C6  UNL     1      -0.037   0.577  -0.091  1.00  0.00     0.086 A 
HETATM    7  C7  UNL     1      -1.412   0.461  -0.043  1.00  0.00     0.118 A 
ENDROOT
BRANCH   6   8
HETATM    8  N3  UNL     1       0.667   1.790  -0.069  1.00  0.00    -0.075 NA
BRANCH   8   9
HETATM    9  N4  UNL     1       1.175   2.115   1.191  1.00  0.00    -0.336 NA
ATOM     10  H42 UNL     1       1.847   1.381   1.414  1.00  0.00     0.173 HD
ATOM     11  H41 UNL     1       1.687   2.997   1.207  1.00  0.00     0.173 HD
ENDBRANCH   8   9
BRANCH   8  12
HETATM   12  O2  UNL     1      -0.239   2.779  -0.369  1.00  0.00    -0.289 OA
ATOM     13  H2  UNL     1       0.238   3.601  -0.354  1.00  0.00     0.239 HD
ENDBRANCH   8  12
ENDBRANCH   6   8
BRANCH   5  14
HETATM   14  C5  UNL     1       2.137  -0.541  -0.221  1.00  0.00     0.127 C 
HETATM   15  N2  UNL     1       2.838  -1.622  -0.292  1.00  0.00    -0.280 N 
ATOM     16  H2  UNL     1       2.344  -2.514  -0.309  1.00  0.00     0.193 HD
BRANCH  15  17
HETATM   17  O1  UNL     1       4.198  -1.642  -0.345  1.00  0.00    -0.290 OA
ATOM     18  H1  UNL     1       4.714  -2.438  -0.397  1.00  0.00     0.244 HD
ENDBRANCH  15  17
ENDBRANCH   5  14
TORSDOF 5
