REMARK  3 active torsions:
REMARK  status: ('A' for Active; 'I' for Inactive)
REMARK    1  A    between atoms: O1_2  and  N1_3 
REMARK    2  A    between atoms: C2_5  and  C3_7 
REMARK       I    between atoms: C3_7  and  N3_9 
REMARK    3  A    between atoms: N3_9  and  C4_11 
ROOT
HETATM    1  C3  UNL     1       0.793  -0.435   0.452  1.00  0.00     0.290 C 
HETATM    2  O2  UNL     1       1.423  -1.042   1.354  1.00  0.00    -0.264 OA
HETATM    3  N3  UNL     1       1.565   0.288  -0.496  1.00  0.00    -0.300 N 
ATOM      4  H3  UNL     1       1.083   0.790  -1.242  1.00  0.00     0.171 HD
ENDROOT
BRANCH   1   5
HETATM    5  C2  UNL     1      -0.638  -0.497   0.417  1.00  0.00     0.204 C 
HETATM    6  N1  UNL     1      -1.386   0.079  -0.452  1.00  0.00    -0.249 N 
ATOM      7  H1  UNL     1      -0.937   0.629  -1.184  1.00  0.00     0.196 HD
HETATM    8  N2  UNL     1      -1.327  -1.258   1.425  1.00  0.00    -0.075 NA
BRANCH   6   9
HETATM    9  O1  UNL     1      -2.744  -0.003  -0.452  1.00  0.00    -0.284 OA
HETATM   10  C1  UNL     1      -3.586   0.775   0.371  1.00  0.00     0.237 C 
ENDBRANCH   6   9
ENDBRANCH   1   5
BRANCH   3  11
HETATM   11  C4  UNL     1       2.977   0.337  -0.444  1.00  0.00     0.188 C 
HETATM   12  N4  UNL     1       3.747  -0.324   0.546  1.00  0.00    -0.070 NA
HETATM   13  S1  UNL     1       3.790   1.189  -1.569  1.00  0.00    -0.044 SA
ENDBRANCH   3  11
TORSDOF 3
