REMARK  1 active torsions:
REMARK  status: ('A' for Active; 'I' for Inactive)
REMARK       I    between atoms: C1_4  and  N2_5 
REMARK       I    between atoms: C1_4  and  N3_10 
REMARK       I    between atoms: N2_5  and  C2_7 
REMARK    1  A    between atoms: N3_10  and  N4_12 
ROOT
HETATM    1  N1  UNL     1       1.597  -2.264  -0.517  1.00  0.00    -0.233 N 
ATOM      2  H11 UNL     1       0.992  -2.872   0.036  1.00  0.00     0.174 HD
ATOM      3  H12 UNL     1       2.150  -2.597  -1.307  1.00  0.00     0.174 HD
HETATM    4  C1  UNL     1       1.682  -1.017  -0.225  1.00  0.00     0.695 C 
HETATM    5  N2  UNL     1       2.520  -0.175  -0.991  1.00  0.00    -0.132 N 
ATOM      6  H2  UNL     1       3.038  -0.593  -1.763  1.00  0.00     0.190 HD
HETATM    7  C2  UNL     1       2.685   1.198  -0.758  1.00  0.00     0.302 C 
HETATM    8  O1  UNL     1       2.062   1.732   0.182  1.00  0.00    -0.629 OA
HETATM    9  O2  UNL     1       3.516   1.962  -1.542  1.00  0.00    -0.629 OA
HETATM   10  N3  UNL     1       0.912  -0.553   0.876  1.00  0.00    -0.126 N 
ATOM     11  H3  UNL     1       1.361  -0.493   1.790  1.00  0.00     0.206 HD
ENDROOT
BRANCH  10  12
HETATM   12  N4  UNL     1      -0.420  -0.177   0.770  1.00  0.00    -0.265 N 
HETATM   13  C3  UNL     1      -1.071   0.250   1.861  1.00  0.00     0.116 A 
HETATM   14  C4  UNL     1      -2.403   0.637   1.804  1.00  0.00     0.019 A 
HETATM   15  C5  UNL     1      -3.066   0.577   0.589  1.00  0.00     0.003 A 
HETATM   16  C6  UNL     1      -2.401   0.139  -0.533  1.00  0.00     0.019 A 
HETATM   17  C7  UNL     1      -1.072  -0.231  -0.404  1.00  0.00     0.116 A 
ENDBRANCH  10  12
TORSDOF 1
