REMARK  5 active torsions:
REMARK  status: ('A' for Active; 'I' for Inactive)
REMARK    1  A    between atoms: C2_2  and  O1_3 
REMARK    2  A    between atoms: O1_3  and  C3_4 
REMARK       I    between atoms: C3_4  and  N1_6 
REMARK    3  A    between atoms: N1_6  and  C4_8 
REMARK    4  A    between atoms: C9_14  and  O4_15 
REMARK    5  A    between atoms: C10_17  and  C11_18 
ROOT
HETATM    1  C4  UNL     1       1.641   0.561   0.427  1.00  0.00     0.260 C 
HETATM    2  O3  UNL     1       1.772   1.928   0.159  1.00  0.00    -0.362 OA
HETATM    3  C5  UNL     1       1.340   2.262  -1.129  1.00  0.00     0.179 C 
HETATM    4  C6  UNL     1      -0.170   2.130  -1.218  1.00  0.00     0.042 C 
HETATM    5  C7  UNL     1      -0.775   3.346  -0.520  1.00  0.00     0.017 C 
HETATM    6  C8  UNL     1      -0.612   0.871  -0.568  1.00  0.00    -0.007 A 
HETATM    7  C9  UNL     1      -1.918   0.488  -0.785  1.00  0.00     0.085 A 
HETATM    8  C10 UNL     1      -2.428  -0.649  -0.214  1.00  0.00     0.020 A 
HETATM    9  C15 UNL     1      -1.551  -1.377   0.583  1.00  0.00     0.053 A 
HETATM   10 CL1  UNL     1      -2.126  -2.846   1.348  1.00  0.00    -0.083 Cl
HETATM   11  C16 UNL     1      -0.246  -1.022   0.816  1.00  0.00    -0.028 A 
HETATM   12  C17 UNL     1       0.656  -1.828   1.672  1.00  0.00     0.050 C 
HETATM   13  C18 UNL     1       0.251   0.144   0.223  1.00  0.00     0.007 A 
ENDROOT
BRANCH   1  14
HETATM   14  N1  UNL     1       2.599  -0.200  -0.362  1.00  0.00    -0.306 N 
HETATM   15  C3  UNL     1       3.764  -0.800   0.155  1.00  0.00     0.362 C 
HETATM   16  O2  UNL     1       4.097  -0.732   1.378  1.00  0.00    -0.238 OA
ATOM     17  H1  UNL     1       2.414  -0.306  -1.359  1.00  0.00     0.167 HD
BRANCH  15  18
HETATM   18  O1  UNL     1       4.614  -1.511  -0.695  1.00  0.00    -0.304 OA
BRANCH  18  19
HETATM   19  C2  UNL     1       5.784  -2.117  -0.189  1.00  0.00     0.176 C 
HETATM   20  C1  UNL     1       6.717  -1.114   0.423  1.00  0.00     0.034 C 
ENDBRANCH  18  19
ENDBRANCH  15  18
ENDBRANCH   1  14
BRANCH   7  21
HETATM   21  O4  UNL     1      -2.771   1.249  -1.608  1.00  0.00    -0.359 OA
ATOM     22  H4  UNL     1      -3.671   0.985  -1.758  1.00  0.00     0.217 HD
ENDBRANCH   7  21
BRANCH   8  23
HETATM   23  C11 UNL     1      -3.796  -1.116  -0.337  1.00  0.00     0.018 C 
HETATM   24  C12 UNL     1      -4.895  -0.497  -0.035  1.00  0.00    -0.087 C 
HETATM   25  C13 UNL     1      -6.213  -1.153  -0.243  1.00  0.00     0.043 C 
HETATM   26  C14 UNL     1      -4.896   0.846   0.570  1.00  0.00     0.043 C 
ENDBRANCH   8  23
TORSDOF 5
