REMARK  13 active torsions:
REMARK  status: ('A' for Active; 'I' for Inactive)
REMARK    1  A    between atoms: C2_2  and  N1_3 
REMARK    2  A    between atoms: C2_2  and  C3_7 
REMARK    3  A    between atoms: C3_7  and  C4_8 
REMARK    4  A    between atoms: C5_11  and  C6_12 
REMARK    5  A    between atoms: C6_12  and  N3_13 
REMARK    6  A    between atoms: N3_13  and  C7_15 
REMARK    7  A    between atoms: C7_15  and  O1_16 
REMARK    8  A    between atoms: C7_15  and  C8_18 
REMARK    9  A    between atoms: C8_18  and  N4_20 
REMARK   10  A    between atoms: N4_20  and  C10_23 
REMARK   11  A    between atoms: C10_23  and  O2_24 
REMARK   12  A    between atoms: C10_23  and  N5_26 
REMARK   13  A    between atoms: N5_26  and  C11_28 
ROOT
HETATM    1  N3  UNL     1       0.473   0.604  -0.432  1.00  0.00    -0.367 N 
ATOM      2  H3  UNL     1       0.846  -0.091  -1.078  1.00  0.00     0.161 HD
ENDROOT
BRANCH   1   3
HETATM    3  C6  UNL     1       1.141   0.856   0.807  1.00  0.00     0.182 C 
BRANCH   3   4
HETATM    4  C5  UNL     1       2.482   0.198   0.792  1.00  0.00     0.077 A 
HETATM    5  N2  UNL     1       3.655   0.801   1.145  1.00  0.00    -0.339 N 
HETATM    6  C4  UNL     1       4.651  -0.147   1.165  1.00  0.00     0.128 A 
ATOM      7  H2  UNL     1       3.773   1.791   1.359  1.00  0.00     0.167 HD
HETATM    8  O3  UNL     1       4.121  -1.271   0.841  1.00  0.00    -0.281 OA
HETATM    9  C14 UNL     1       2.812  -1.114   0.603  1.00  0.00     0.183 A 
HETATM   10  N6  UNL     1       1.960  -2.206   0.207  1.00  0.00    -0.072 NA
BRANCH   6  11
HETATM   11  C3  UNL     1       6.053   0.147   1.492  1.00  0.00     0.116 C 
BRANCH  11  12
HETATM   12  C2  UNL     1       7.010   0.274   0.362  1.00  0.00     0.187 C 
HETATM   13  C1  UNL     1       7.164  -0.982  -0.479  1.00  0.00     0.040 C 
BRANCH  12  14
HETATM   14  N1  UNL     1       6.711   1.383  -0.523  1.00  0.00    -0.075 N 
ATOM     15  H13 UNL     1       7.403   1.490  -1.265  1.00  0.00     0.274 HD
ATOM     16  H12 UNL     1       5.899   1.205  -1.114  1.00  0.00     0.274 HD
ATOM     17  H11 UNL     1       6.608   2.226   0.042  1.00  0.00     0.274 HD
ENDBRANCH  12  14
ENDBRANCH  11  12
ENDBRANCH   6  11
ENDBRANCH   3   4
ENDBRANCH   1   3
BRANCH   1  18
HETATM   18  C7  UNL     1      -0.691   1.308  -0.761  1.00  0.00     0.142 C 
BRANCH  18  19
HETATM   19  O1  UNL     1      -0.842   2.590  -0.272  1.00  0.00    -0.348 OA
ATOM     20  H1  UNL     1      -1.632   3.068  -0.495  1.00  0.00     0.219 HD
ENDBRANCH  18  19
BRANCH  18  21
HETATM   21  C8  UNL     1      -1.969   0.571  -0.879  1.00  0.00     0.260 C 
HETATM   22  C9  UNL     1      -2.615   0.995  -2.214  1.00  0.00     0.049 C 
BRANCH  21  23
HETATM   23  N4  UNL     1      -2.866   0.497   0.202  1.00  0.00    -0.020 N 
ATOM     24  H42 UNL     1      -2.380   0.687   1.078  1.00  0.00     0.283 HD
ATOM     25  H41 UNL     1      -3.510   1.288   0.182  1.00  0.00     0.283 HD
BRANCH  23  26
HETATM   26  C10 UNL     1      -3.607  -0.755   0.296  1.00  0.00     0.423 C 
BRANCH  26  27
HETATM   27  O2  UNL     1      -2.715  -1.797   0.495  1.00  0.00    -0.355 OA
ATOM     28  H2  UNL     1      -3.198  -2.613   0.556  1.00  0.00     0.213 HD
ENDBRANCH  26  27
BRANCH  26  29
HETATM   29  N5  UNL     1      -4.562  -0.987  -0.721  1.00  0.00    -0.371 N 
ATOM     30  H5  UNL     1      -4.288  -1.503  -1.557  1.00  0.00     0.157 HD
BRANCH  29  31
HETATM   31  C11 UNL     1      -5.883  -0.519  -0.601  1.00  0.00     0.072 C 
HETATM   32  C12 UNL     1      -6.706  -1.178   0.492  1.00  0.00     0.031 C 
HETATM   33  C13 UNL     1      -5.985   0.958  -0.351  1.00  0.00     0.031 C 
ENDBRANCH  29  31
ENDBRANCH  26  29
ENDBRANCH  23  26
ENDBRANCH  21  23
ENDBRANCH  18  21
ENDBRANCH   1  18
TORSDOF 13
