REMARK  6 active torsions:
REMARK  status: ('A' for Active; 'I' for Inactive)
REMARK    1  A    between atoms: C2_2  and  C3_3 
REMARK    2  A    between atoms: C3_3  and  C4_4 
REMARK    3  A    between atoms: N1_8  and  C8_9 
REMARK    4  A    between atoms: C8_9  and  C9_10 
REMARK    5  A    between atoms: C9_10  and  N2_11 
REMARK    6  A    between atoms: N2_11  and  C10_14 
ROOT
HETATM    1  C4  UNL     1      -1.265   0.169  -0.246  1.00  0.00     0.079 C 
HETATM    2  C5  UNL     1      -2.339   0.946  -0.953  1.00  0.00     0.026 C 
HETATM    3  C6  UNL     1      -1.782   1.261  -2.357  1.00  0.00     0.021 C 
HETATM    4  C7  UNL     1      -0.309   0.961  -2.193  1.00  0.00     0.117 C 
HETATM    5  N1  UNL     1      -0.335  -0.095  -1.241  1.00  0.00    -0.407 N 
ENDROOT
BRANCH   5   6
HETATM    6  C8  UNL     1       0.841  -0.796  -1.007  1.00  0.00     0.144 C 
BRANCH   6   7
HETATM    7  C9  UNL     1       1.753   0.060  -0.115  1.00  0.00     0.251 C 
BRANCH   7   8
HETATM    8  N2  UNL     1       2.960  -0.661   0.129  1.00  0.00    -0.074 N 
ATOM      9  H22 UNL     1       2.763  -1.583   0.517  1.00  0.00     0.277 HD
ATOM     10  H21 UNL     1       3.402  -0.941  -0.746  1.00  0.00     0.277 HD
BRANCH   8  11
HETATM   11  C10 UNL     1       3.874   0.059   0.957  1.00  0.00     0.228 C 
HETATM   12  C11 UNL     1       5.140  -0.748   1.191  1.00  0.00     0.034 C 
ENDBRANCH   8  11
ENDBRANCH   7   8
ENDBRANCH   6   7
ENDBRANCH   5   6
BRANCH   1  13
HETATM   13  C3  UNL     1      -1.801  -0.918   0.563  1.00  0.00     0.024 C 
BRANCH  13  14
HETATM   14  C2  UNL     1      -2.732  -0.587   1.687  1.00  0.00    -0.002 C 
HETATM   15  C1  UNL     1      -4.003   0.088   1.362  1.00  0.00     0.005 C 
ENDBRANCH  13  14
ENDBRANCH   1  13
TORSDOF 6
