REMARK  4 active torsions:
REMARK  status: ('A' for Active; 'I' for Inactive)
REMARK    1  A    between atoms: C2_2  and  N1_3 
REMARK    2  A    between atoms: C4_5  and  O1_6 
REMARK    3  A    between atoms: N2_13  and  C10_14 
REMARK    4  A    between atoms: C10_14  and  C11_15 
ROOT
HETATM    1  N1  UNL     1      -3.400   0.600   0.047  1.00  0.00    -0.365 N 
HETATM    2  C3  UNL     1      -4.036  -0.442   0.702  1.00  0.00     0.156 C 
HETATM    3  C4  UNL     1      -3.785  -1.620  -0.256  1.00  0.00     0.144 C 
HETATM    4  C5  UNL     1      -2.426  -1.280  -0.823  1.00  0.00     0.068 C 
HETATM    5  C6  UNL     1      -1.383  -1.920   0.067  1.00  0.00     0.050 C 
HETATM    6  C7  UNL     1      -0.337  -0.822   0.129  1.00  0.00     0.070 C 
HETATM    7  C8  UNL     1       0.448  -0.902  -1.166  1.00  0.00     0.058 C 
HETATM    8  C9  UNL     1       1.642   0.048  -0.972  1.00  0.00     0.130 C 
HETATM    9  N2  UNL     1       2.511  -0.577  -0.058  1.00  0.00    -0.373 N 
HETATM   10  C14 UNL     1       1.969  -1.258   1.045  1.00  0.00     0.066 C 
HETATM   11  C15 UNL     1       0.530  -0.944   1.349  1.00  0.00     0.083 C 
HETATM   12  O2  UNL     1      -1.099   0.317   0.222  1.00  0.00    -0.355 OA
HETATM   13  C16 UNL     1      -2.207   0.211  -0.578  1.00  0.00     0.230 C 
ENDROOT
BRANCH   3  14
HETATM   14  O1  UNL     1      -3.817  -2.831   0.390  1.00  0.00    -0.393 OA
ATOM     15  H1  UNL     1      -3.662  -3.558  -0.201  1.00  0.00     0.210 HD
ENDBRANCH   3  14
BRANCH   9  16
HETATM   16  C10 UNL     1       3.889  -0.329  -0.118  1.00  0.00     0.067 C 
BRANCH  16  17
HETATM   17  C11 UNL     1       4.339   1.057   0.252  1.00  0.00     0.024 A 
HETATM   18  C12 UNL     1       5.812   1.287   0.178  1.00  0.00     0.010 A 
HETATM   19  C13 UNL     1       4.912   1.948  -0.853  1.00  0.00     0.010 A 
ENDBRANCH  16  17
ENDBRANCH   9  16
BRANCH   1  20
HETATM   20  C2  UNL     1      -3.670   1.922   0.326  1.00  0.00     0.056 C 
HETATM   21  C1  UNL     1      -2.898   2.940  -0.475  1.00  0.00     0.054 C 
ENDBRANCH   1  20
TORSDOF 4
