REMARK  4 active torsions:
REMARK  status: ('A' for Active; 'I' for Inactive)
REMARK    1  A    between atoms: C2_2  and  N1_3 
REMARK    2  A    between atoms: C2_2  and  C13_17 
REMARK    3  A    between atoms: N1_3  and  C3_5 
REMARK    4  A    between atoms: C3_5  and  C4_6 
REMARK       I    between atoms: C13_17  and  N2_19 
ROOT
HETATM    1  C4  UNL     1      -0.980   0.391   0.393  1.00  0.00     0.074 C 
HETATM    2  C5  UNL     1      -0.852   1.869   0.657  1.00  0.00     0.047 C 
HETATM    3  C6  UNL     1      -1.200   0.198  -1.088  1.00  0.00     0.042 C 
HETATM    4  C7  UNL     1      -2.424  -0.688  -1.160  1.00  0.00     0.041 C 
HETATM    5  C8  UNL     1      -3.071  -0.393   0.182  1.00  0.00     0.066 C 
HETATM    6  C9  UNL     1      -3.892  -1.611   0.553  1.00  0.00     0.064 C 
HETATM    7  C10 UNL     1      -5.109  -1.619  -0.343  1.00  0.00     0.170 C 
HETATM    8  O1  UNL     1      -5.963  -0.623   0.053  1.00  0.00    -0.391 OA
HETATM    9  C11 UNL     1      -5.385   0.485   0.607  1.00  0.00     0.170 C 
HETATM   10  C12 UNL     1      -3.997   0.780   0.127  1.00  0.00     0.064 C 
HETATM   11  O2  UNL     1      -2.003  -0.229   1.054  1.00  0.00    -0.368 OA
ENDROOT
BRANCH   1  12
HETATM   12  C3  UNL     1       0.344  -0.251   0.827  1.00  0.00     0.152 C 
BRANCH  12  13
HETATM   13  N1  UNL     1       1.392   0.413   0.141  1.00  0.00    -0.407 N 
ATOM     14  H1  UNL     1       1.211   1.181  -0.505  1.00  0.00     0.154 HD
BRANCH  13  15
HETATM   15  C2  UNL     1       2.718  -0.056   0.407  1.00  0.00     0.165 C 
HETATM   16  C1  UNL     1       2.947  -1.473  -0.012  1.00  0.00     0.042 C 
BRANCH  15  17
HETATM   17  C13 UNL     1       3.672   0.808  -0.340  1.00  0.00     0.241 C 
HETATM   18  O3  UNL     1       3.245   1.758  -1.069  1.00  0.00    -0.271 OA
HETATM   19  N2  UNL     1       5.074   0.591  -0.256  1.00  0.00    -0.359 N 
HETATM   20  C14 UNL     1       5.977   1.459  -1.009  1.00  0.00     0.152 C 
HETATM   21  C15 UNL     1       5.643  -0.453   0.547  1.00  0.00     0.152 C 
ENDBRANCH  15  17
ENDBRANCH  13  15
ENDBRANCH  12  13
ENDBRANCH   1  12
TORSDOF 4
