REMARK  2 active torsions:
REMARK  status: ('A' for Active; 'I' for Inactive)
REMARK    1  A    between atoms: C1_2  and  C2_4 
REMARK    2  A    between atoms: C4_6  and  C5_7 
ROOT
HETATM    1  C2  UNL     1       0.094   1.048  -0.118  1.00  0.00     0.086 A 
HETATM    2  C3  UNL     1      -0.290   0.688   1.262  1.00  0.00     0.026 A 
HETATM    3  C4  UNL     1      -1.194   0.366   0.048  1.00  0.00     0.060 A 
ENDROOT
BRANCH   1   4
HETATM    4  C1  UNL     1       1.285   0.450  -0.736  1.00  0.00     0.236 C 
HETATM    5  N1  UNL     1       1.657  -0.923  -0.633  1.00  0.00    -0.062 NA
HETATM    6  O1  UNL     1       2.109   1.136  -1.439  1.00  0.00    -0.276 OA
ENDBRANCH   1   4
BRANCH   3   7
HETATM    7  C5  UNL     1      -1.423  -1.066  -0.112  1.00  0.00     0.236 C 
HETATM    8  O2  UNL     1      -2.553  -1.469  -0.334  1.00  0.00    -0.306 OA
ENDBRANCH   3   7
TORSDOF 2
