REMARK  3 active torsions:
REMARK  status: ('A' for Active; 'I' for Inactive)
REMARK    1  A    between atoms: C2_2  and  O1_5 
REMARK    2  A    between atoms: O1_5  and  C5_6 
REMARK       I    between atoms: C5_6  and  N1_8 
REMARK    3  A    between atoms: N1_8  and  C6_10 
ROOT
HETATM    1  C6  UNL     1      -0.599  -0.786   0.056  1.00  0.00     0.153 A 
HETATM    2  N2  UNL     1      -1.781  -1.367   0.164  1.00  0.00    -0.339 N 
ATOM      3  H2  UNL     1      -1.852  -2.317   0.528  1.00  0.00     0.168 HD
HETATM    4  C7  UNL     1      -2.843  -0.731  -0.192  1.00  0.00     0.026 A 
HETATM    5  C8  UNL     1      -2.702   0.543  -0.678  1.00  0.00     0.011 A 
HETATM    6  S1  UNL     1      -1.009   0.751  -0.588  1.00  0.00    -0.056 SA
HETATM    7  C9  UNL     1      -3.720   1.536  -1.170  1.00  0.00     0.074 C 
HETATM    8  C10 UNL     1      -4.976   1.396  -0.324  1.00  0.00     0.172 C 
HETATM    9  O3  UNL     1      -4.678   0.727   0.870  1.00  0.00    -0.390 OA
HETATM   10  C11 UNL     1      -5.123  -0.575   0.801  1.00  0.00     0.173 C 
HETATM   11  C12 UNL     1      -4.206  -1.387  -0.073  1.00  0.00     0.084 C 
ENDROOT
BRANCH   1  12
HETATM   12  N1  UNL     1       0.704  -1.310   0.394  1.00  0.00    -0.282 N 
HETATM   13  C5  UNL     1       1.868  -0.520   0.202  1.00  0.00     0.367 C 
HETATM   14  O2  UNL     1       1.719   0.636  -0.267  1.00  0.00    -0.238 OA
ATOM     15  H1  UNL     1       0.788  -2.253   0.773  1.00  0.00     0.173 HD
BRANCH  13  16
HETATM   16  O1  UNL     1       3.129  -0.943   0.496  1.00  0.00    -0.294 OA
BRANCH  16  17
HETATM   17  C2  UNL     1       4.294  -0.162   0.309  1.00  0.00     0.061 C 
HETATM   18  C1  UNL     1       4.102   1.087   1.178  1.00  0.00     0.046 C 
HETATM   19  C3  UNL     1       4.512   0.250  -1.114  1.00  0.00     0.046 C 
HETATM   20  C4  UNL     1       5.519  -0.860   0.850  1.00  0.00     0.046 C 
ENDBRANCH  16  17
ENDBRANCH  13  16
ENDBRANCH   1  12
TORSDOF 3
