REMARK  12 active torsions:
REMARK  status: ('A' for Active; 'I' for Inactive)
REMARK    1  A    between atoms: C3_5  and  C4_6 
REMARK    2  A    between atoms: C6_10  and  N3_11 
REMARK    3  A    between atoms: N3_11  and  C7_13 
REMARK    4  A    between atoms: C7_13  and  C8_14 
REMARK    5  A    between atoms: C15_25  and  C16_26 
REMARK    6  A    between atoms: C16_26  and  N6_27 
REMARK    7  A    between atoms: N6_27  and  C17_30 
REMARK    8  A    between atoms: C20_33  and  C21_34 
REMARK       I    between atoms: C21_34  and  N7_36 
REMARK    9  A    between atoms: N7_36  and  C22_38 
REMARK   10  A    between atoms: C22_38  and  C23_39 
REMARK   11  A    between atoms: C23_39  and  C24_40 
REMARK   12  A    between atoms: C24_40  and  N8_41 
ROOT
HETATM    1  C1  UNL     1       1.909   2.078  -0.788  1.00  0.00     0.070 C 
HETATM    2  C2  UNL     1       2.530   0.772  -0.397  1.00  0.00     0.030 A 
HETATM    3  N1  UNL     1       3.813   0.794  -0.003  1.00  0.00    -0.355 N 
ATOM      4  H1  UNL     1       4.318   1.680   0.015  1.00  0.00     0.166 HD
HETATM    5  C3  UNL     1       4.453  -0.356   0.375  1.00  0.00     0.076 A 
HETATM    6  C14 UNL     1       3.700  -1.501   0.321  1.00  0.00     0.120 A 
HETATM    7  N5  UNL     1       2.401  -1.519  -0.079  1.00  0.00    -0.364 N 
ATOM      8  H5  UNL     1       1.885  -2.399  -0.102  1.00  0.00     0.165 HD
HETATM    9  C15 UNL     1       1.800  -0.379  -0.443  1.00  0.00     0.057 A 
ENDROOT
BRANCH   9  10
HETATM   10  C16 UNL     1       0.393  -0.352  -0.890  1.00  0.00     0.291 C 
BRANCH  10  11
HETATM   11  N6  UNL     1      -0.225  -1.677  -0.861  1.00  0.00    -0.066 N 
ATOM     12  H62 UNL     1       0.297  -2.378  -1.387  1.00  0.00     0.278 HD
ATOM     13  H61 UNL     1      -0.164  -2.131   0.050  1.00  0.00     0.278 HD
BRANCH  11  14
HETATM   14  C17 UNL     1      -1.605  -1.503  -1.334  1.00  0.00     0.186 C 
HETATM   15  C18 UNL     1      -2.317  -0.601  -0.396  1.00  0.00     0.034 C 
HETATM   16  C19 UNL     1      -3.790  -0.764  -0.322  1.00  0.00     0.016 C 
HETATM   17  C20 UNL     1      -4.207  -1.468  -1.624  1.00  0.00     0.078 C 
HETATM   18  C29 UNL     1      -3.720  -2.869  -1.486  1.00  0.00     0.016 C 
HETATM   19  C30 UNL     1      -2.222  -2.835  -1.590  1.00  0.00     0.034 C 
BRANCH  17  20
HETATM   20  C21 UNL     1      -5.620  -1.284  -1.917  1.00  0.00     0.221 C 
HETATM   21  O1  UNL     1      -5.945  -0.799  -3.035  1.00  0.00    -0.273 OA
HETATM   22  N7  UNL     1      -6.679  -1.614  -1.027  1.00  0.00    -0.361 N 
ATOM     23  H7  UNL     1      -6.425  -2.009  -0.122  1.00  0.00     0.162 HD
BRANCH  22  24
HETATM   24  C22 UNL     1      -8.067  -1.437  -1.299  1.00  0.00     0.124 C 
BRANCH  24  25
HETATM   25  C23 UNL     1      -8.493  -0.025  -1.577  1.00  0.00     0.050 C 
BRANCH  25  26
HETATM   26  C24 UNL     1      -8.228   0.942  -0.474  1.00  0.00     0.274 C 
BRANCH  26  27
HETATM   27  N8  UNL     1      -8.874   0.661   0.771  1.00  0.00     0.092 N 
HETATM   28  C25 UNL     1     -10.314   0.819   0.702  1.00  0.00     0.298 C 
HETATM   29  C26 UNL     1     -10.932   0.895   2.075  1.00  0.00     0.198 C 
HETATM   30  O2  UNL     1      -9.993   0.651   3.076  1.00  0.00    -0.388 OA
HETATM   31  C27 UNL     1      -9.079   1.714   2.994  1.00  0.00     0.198 C 
HETATM   32  C28 UNL     1      -8.276   1.588   1.746  1.00  0.00     0.298 C 
ENDBRANCH  26  27
ENDBRANCH  25  26
ENDBRANCH  24  25
ENDBRANCH  22  24
ENDBRANCH  17  20
ENDBRANCH  11  14
ENDBRANCH  10  11
ENDBRANCH   9  10
BRANCH   5  33
HETATM   33  C4  UNL     1       5.835  -0.278   0.799  1.00  0.00     0.076 A 
HETATM   34  C5  UNL     1       6.517  -1.398   1.188  1.00  0.00     0.121 A 
HETATM   35  N2  UNL     1       7.809  -1.331   1.588  1.00  0.00    -0.349 N 
HETATM   36  C6  UNL     1       8.457  -0.137   1.611  1.00  0.00     0.116 A 
ATOM     37  H2  UNL     1       8.297  -2.180   1.873  1.00  0.00     0.167 HD
HETATM   38  C13 UNL     1       7.800   0.981   1.230  1.00  0.00     0.136 A 
HETATM   39  N4  UNL     1       6.500   0.883   0.832  1.00  0.00    -0.359 N 
ATOM     40  H4  UNL     1       6.012   1.732   0.547  1.00  0.00     0.165 HD
BRANCH  36  41
HETATM   41  N3  UNL     1       9.675  -0.128   2.000  1.00  0.00    -0.371 N 
ATOM     42  H3  UNL     1      10.098  -1.015   2.273  1.00  0.00     0.161 HD
BRANCH  41  43
HETATM   43  C7  UNL     1      10.482   1.057   2.075  1.00  0.00     0.155 C 
BRANCH  43  44
HETATM   44  C8  UNL     1      11.238   1.204   0.784  1.00  0.00    -0.066 C 
HETATM   45  C9  UNL     1      11.149   2.238  -0.050  1.00  0.00    -0.022 C 
HETATM   46  C10 UNL     1      12.029   2.042  -1.208  1.00  0.00     0.028 C 
HETATM   47  C11 UNL     1      12.841   0.820  -0.905  1.00  0.00     0.008 C 
HETATM   48  C12 UNL     1      12.189   0.189   0.284  1.00  0.00     0.036 C 
ENDBRANCH  43  44
ENDBRANCH  41  43
ENDBRANCH  36  41
ENDBRANCH   5  33
TORSDOF 12
