REMARK  5 active torsions:
REMARK  status: ('A' for Active; 'I' for Inactive)
REMARK    1  A    between atoms: C1_2  and  C2_3 
REMARK       I    between atoms: C1_2  and  N1_6 
REMARK    2  A    between atoms: C2_3  and  C3_4 
REMARK    3  A    between atoms: C5_8  and  O2_9 
REMARK    4  A    between atoms: C7_12  and  C8_13 
REMARK    5  A    between atoms: C8_13  and  C9_14 
ROOT
HETATM    1  O1  UNL     1      -3.359  -0.734   1.130  1.00  0.00    -0.273 OA
HETATM    2  C1  UNL     1      -2.364  -0.077   0.667  1.00  0.00     0.221 C 
HETATM    3  N1  UNL     1      -1.311  -0.782   0.017  1.00  0.00    -0.345 N 
HETATM    4  C4  UNL     1      -1.389  -2.265  -0.096  1.00  0.00     0.158 C 
HETATM    5  C5  UNL     1      -0.485  -2.524  -1.311  1.00  0.00     0.138 C 
HETATM    6  C6  UNL     1       0.648  -1.594  -0.935  1.00  0.00     0.058 C 
HETATM    7  C7  UNL     1      -0.105  -0.328  -0.620  1.00  0.00     0.090 C 
ENDROOT
BRANCH   7   8
HETATM    8  C8  UNL     1       0.725   0.627   0.196  1.00  0.00     0.033 C 
BRANCH   8   9
HETATM    9  C9  UNL     1       1.983   1.042  -0.542  1.00  0.00     0.039 C 
HETATM   10  C10 UNL     1       2.832   2.022   0.280  1.00  0.00     0.238 C 
HETATM   11  N2  UNL     1       3.991   1.393  -0.322  1.00  0.00    -0.074 N 
HETATM   12  C11 UNL     1       3.182   0.161  -0.364  1.00  0.00     0.238 C 
ATOM     13  H22 UNL     1       4.431   1.773  -1.160  1.00  0.00     0.277 HD
ATOM     14  H21 UNL     1       4.906   1.417   0.128  1.00  0.00     0.277 HD
ENDBRANCH   8   9
ENDBRANCH   7   8
BRANCH   2  15
HETATM   15  C2  UNL     1      -2.416   1.384   0.864  1.00  0.00     0.114 C 
BRANCH  15  16
HETATM   16  C3  UNL     1      -3.832   1.784   1.285  1.00  0.00     0.094 C 
HETATM   17 BR1  UNL     1      -3.964   3.677   1.557  1.00  0.00    -0.096 Br
ENDBRANCH  15  16
ENDBRANCH   2  15
BRANCH   5  18
HETATM   18  O2  UNL     1      -0.106  -3.837  -1.392  1.00  0.00    -0.394 OA
ATOM     19  H2  UNL     1       0.453  -3.997  -2.143  1.00  0.00     0.210 HD
ENDBRANCH   5  18
TORSDOF 5
