REMARK  14 active torsions:
REMARK  status: ('A' for Active; 'I' for Inactive)
REMARK    1  A    between atoms: C2_2  and  C4_4 
REMARK    2  A    between atoms: C5_5  and  C6_6 
REMARK    3  A    between atoms: C6_6  and  C7_7 
REMARK    4  A    between atoms: C7_7  and  C8_8 
REMARK    5  A    between atoms: C8_8  and  C9_9 
REMARK    6  A    between atoms: C11_14  and  C12_15 
REMARK    7  A    between atoms: C12_15  and  C13_16 
REMARK    8  A    between atoms: C13_16  and  C14_17 
REMARK    9  A    between atoms: C14_17  and  C15_18 
REMARK   10  A    between atoms: C15_18  and  N2_19 
REMARK   11  A    between atoms: C16_25  and  O2_26 
REMARK   12  A    between atoms: C17_28  and  C18_29 
REMARK   13  A    between atoms: N4_31  and  C20_32 
REMARK   14  A    between atoms: C20_32  and  C21_33 
ROOT
HETATM    1  C9  UNL     1      -0.712  -0.106   0.790  1.00  0.00     0.176 C 
HETATM    2  N1  UNL     1       0.057   1.138   1.012  1.00  0.00    -0.346 N 
ATOM      3  H1  UNL     1      -0.386   1.948   1.446  1.00  0.00     0.163 HD
HETATM    4  C10 UNL     1       1.426   1.193   0.612  1.00  0.00     0.241 C 
HETATM    5  O1  UNL     1       1.800   2.250   0.047  1.00  0.00    -0.271 OA
HETATM    6  C11 UNL     1       2.370   0.079   0.838  1.00  0.00     0.175 C 
HETATM    7  N3  UNL     1       2.795  -0.564  -0.396  1.00  0.00    -0.359 N 
ATOM      8  H3  UNL     1       3.795  -0.752  -0.470  1.00  0.00     0.162 HD
HETATM    9  C16 UNL     1       2.034  -0.957  -1.485  1.00  0.00     0.135 C 
HETATM   10  C17 UNL     1       0.862  -1.871  -1.524  1.00  0.00     0.161 C 
HETATM   11  N4  UNL     1      -0.416  -1.203  -1.555  1.00  0.00    -0.338 N 
HETATM   12  C23 UNL     1      -0.958  -0.296  -0.654  1.00  0.00     0.243 C 
HETATM   13  O3  UNL     1      -1.826   0.534  -1.126  1.00  0.00    -0.271 OA
ENDROOT
BRANCH   1  14
HETATM   14  C8  UNL     1      -1.995   0.100   1.568  1.00  0.00     0.035 C 
BRANCH  14  15
HETATM   15  C7  UNL     1      -2.943  -1.043   1.486  1.00  0.00     0.014 C 
BRANCH  15  16
HETATM   16  C6  UNL     1      -4.175  -0.675   2.325  1.00  0.00     0.094 C 
BRANCH  16  17
HETATM   17  C5  UNL     1      -4.711   0.548   1.721  1.00  0.00    -0.101 C 
HETATM   18  C4  UNL     1      -5.141   1.575   1.233  1.00  0.00    -0.073 C 
BRANCH  18  19
HETATM   19  C2  UNL     1      -5.638   2.810   0.673  1.00  0.00    -0.018 C 
HETATM   20  C1  UNL     1      -4.811   3.799   0.430  1.00  0.00     0.028 C 
HETATM   21  C3  UNL     1      -7.083   2.974   0.371  1.00  0.00     0.057 C 
ENDBRANCH  18  19
ENDBRANCH  16  17
ENDBRANCH  15  16
ENDBRANCH  14  15
ENDBRANCH   1  14
BRANCH  11  22
HETATM   22  C20 UNL     1      -1.265  -1.509  -2.741  1.00  0.00     0.126 C 
BRANCH  22  23
HETATM   23  C21 UNL     1      -2.184  -2.671  -2.461  1.00  0.00     0.015 C 
HETATM   24  C22 UNL     1      -3.065  -2.982  -3.655  1.00  0.00     0.006 C 
ENDBRANCH  22  23
ENDBRANCH  11  22
BRANCH   6  25
HETATM   25  C12 UNL     1       3.522   0.540   1.656  1.00  0.00     0.035 C 
BRANCH  25  26
HETATM   26  C13 UNL     1       4.374   1.628   1.116  1.00  0.00     0.004 C 
BRANCH  26  27
HETATM   27  C14 UNL     1       5.531   1.937   2.102  1.00  0.00     0.027 C 
BRANCH  27  28
HETATM   28  C15 UNL     1       6.370   3.044   1.521  1.00  0.00     0.229 C 
BRANCH  28  29
HETATM   29  N2  UNL     1       6.915   2.645   0.248  1.00  0.00    -0.079 N 
ATOM     30  H23 UNL     1       7.434   1.770   0.314  1.00  0.00     0.274 HD
ATOM     31  H22 UNL     1       6.187   2.340  -0.398  1.00  0.00     0.274 HD
ATOM     32  H21 UNL     1       7.483   3.395  -0.146  1.00  0.00     0.274 HD
ENDBRANCH  28  29
ENDBRANCH  27  28
ENDBRANCH  26  27
ENDBRANCH  25  26
ENDBRANCH   6  25
BRANCH  10  33
HETATM   33  C18 UNL     1       0.959  -3.020  -0.555  1.00  0.00     0.029 C 
HETATM   34  C19 UNL     1       2.202  -3.877  -0.874  1.00  0.00     0.007 C 
ENDBRANCH  10  33
BRANCH   9  35
HETATM   35  O2  UNL     1       2.396  -0.458  -2.630  1.00  0.00    -0.348 OA
ATOM     36  H2  UNL     1       1.874  -0.727  -3.377  1.00  0.00     0.219 HD
ENDBRANCH   9  35
TORSDOF 14
