REMARK  16 active torsions:
REMARK  status: ('A' for Active; 'I' for Inactive)
REMARK    1  A    between atoms: O1_2  and  C2_3 
REMARK    2  A    between atoms: C2_3  and  C3_5 
REMARK    3  A    between atoms: C4_6  and  C5_7 
REMARK    4  A    between atoms: C5_7  and  O3_9 
REMARK    5  A    between atoms: N3_14  and  C7_15 
REMARK    6  A    between atoms: C7_15  and  C8_16 
REMARK    7  A    between atoms: N7_23  and  C9_24 
REMARK    8  A    between atoms: C10_25  and  N8_26 
REMARK    9  A    between atoms: N8_26  and  N9_28 
REMARK   10  A    between atoms: N9_28  and  C11_30 
REMARK   11  A    between atoms: C15_42  and  C16_43 
REMARK   12  A    between atoms: C16_43  and  O6_44 
REMARK   13  A    between atoms: C16_43  and  O7_46 
REMARK   14  A    between atoms: C17_48  and  O8_49 
REMARK   15  A    between atoms: C18_51  and  N13_52 
REMARK   16  A    between atoms: N13_52  and  O9_54 
ROOT
HETATM    1  C9  UNL     1      -0.792  -0.838   1.001  1.00  0.00     0.136 A 
HETATM    2  C10 UNL     1      -1.831  -0.378   0.240  1.00  0.00     0.152 A 
HETATM    3  N12 UNL     1      -2.681  -1.212  -0.360  1.00  0.00    -0.336 N 
ATOM      4  H12 UNL     1      -3.441  -0.823  -0.918  1.00  0.00     0.167 HD
HETATM    5  C15 UNL     1      -2.574  -2.516  -0.258  1.00  0.00     0.102 A 
HETATM    6  C17 UNL     1      -1.546  -3.087   0.498  1.00  0.00     0.124 A 
HETATM    7  C18 UNL     1      -0.657  -2.234   1.126  1.00  0.00     0.122 A 
ENDROOT
BRANCH   1   8
HETATM    8  N7  UNL     1       0.158  -0.041   1.683  1.00  0.00    -0.219 N 
HETATM    9  C8  UNL     1       1.219   0.658   1.215  1.00  0.00     0.139 A 
HETATM   10  N4  UNL     1       1.775   1.240   2.272  1.00  0.00    -0.270 N 
HETATM   11  N5  UNL     1       1.103   0.927   3.359  1.00  0.00    -0.226 N 
ATOM     12  H4  UNL     1       2.600   1.840   2.245  1.00  0.00     0.190 HD
HETATM   13  N6  UNL     1       0.119   0.149   3.016  1.00  0.00    -0.219 N 
ATOM     14  H5  UNL     1       1.317   1.240   4.306  1.00  0.00     0.210 HD
ATOM     15  H6  UNL     1      -0.570  -0.252   3.652  1.00  0.00     0.210 HD
BRANCH   9  16
HETATM   16  C7  UNL     1       1.653   0.763  -0.189  1.00  0.00     0.210 C 
BRANCH  16  17
HETATM   17  N3  UNL     1       2.776  -0.073  -0.542  1.00  0.00    -0.329 N 
HETATM   18  C3  UNL     1       4.110   0.195  -0.580  1.00  0.00     0.142 A 
HETATM   19  C4  UNL     1       4.803  -0.937  -0.925  1.00  0.00     0.115 A 
HETATM   20  N2  UNL     1       3.824  -1.898  -1.094  1.00  0.00    -0.347 N 
HETATM   21  C6  UNL     1       2.631  -1.395  -0.871  1.00  0.00     0.184 A 
ATOM     22  H2  UNL     1       4.004  -2.867  -1.356  1.00  0.00     0.167 HD
BRANCH  18  23
HETATM   23  C2  UNL     1       4.649   1.491  -0.287  1.00  0.00     0.312 C 
HETATM   24  O2  UNL     1       3.886   2.477  -0.041  1.00  0.00    -0.258 OA
BRANCH  23  25
HETATM   25  O1  UNL     1       5.983   1.822  -0.233  1.00  0.00    -0.321 OA
HETATM   26  C1  UNL     1       6.464   3.117   0.063  1.00  0.00     0.213 C 
ENDBRANCH  23  25
ENDBRANCH  18  23
BRANCH  19  27
HETATM   27  C5  UNL     1       6.195  -1.211  -1.133  1.00  0.00     0.179 C 
HETATM   28  N1  UNL     1       7.297  -0.366  -1.158  1.00  0.00    -0.073 NA
BRANCH  27  29
HETATM   29  O3  UNL     1       6.507  -2.466  -1.340  1.00  0.00    -0.347 OA
ATOM     30  H3  UNL     1       7.429  -2.648  -1.478  1.00  0.00     0.219 HD
ENDBRANCH  27  29
ENDBRANCH  19  27
ENDBRANCH  16  17
ENDBRANCH   9  16
ENDBRANCH   1   8
BRANCH   2  31
HETATM   31  N8  UNL     1      -2.015   1.047   0.094  1.00  0.00    -0.282 N 
ATOM     32  H8  UNL     1      -1.545   1.527  -0.673  1.00  0.00     0.188 HD
BRANCH  31  33
HETATM   33  N9  UNL     1      -2.804   1.782   0.956  1.00  0.00    -0.284 N 
ATOM     34  H9  UNL     1      -2.518   1.891   1.929  1.00  0.00     0.188 HD
BRANCH  33  35
HETATM   35  C11 UNL     1      -4.003   2.387   0.511  1.00  0.00     0.129 A 
HETATM   36  C12 UNL     1      -4.408   2.252  -0.798  1.00  0.00     0.124 A 
HETATM   37  C13 UNL     1      -5.568   2.836  -1.231  1.00  0.00     0.252 A 
HETATM   38  O4  UNL     1      -5.934   2.710  -2.430  1.00  0.00    -0.268 OA
HETATM   39  N10 UNL     1      -6.322   3.554  -0.349  1.00  0.00    -0.275 N 
HETATM   40  C14 UNL     1      -5.927   3.685   0.928  1.00  0.00     0.328 A 
ATOM     41  H10 UNL     1      -7.189   3.993  -0.661  1.00  0.00     0.173 HD
HETATM   42  O5  UNL     1      -6.620   4.343   1.734  1.00  0.00    -0.247 OA
HETATM   43  N11 UNL     1      -4.798   3.112   1.331  1.00  0.00    -0.293 N 
ATOM     44  H11 UNL     1      -4.517   3.224   2.305  1.00  0.00     0.172 HD
ENDBRANCH  33  35
ENDBRANCH  31  33
ENDBRANCH   2  31
BRANCH   7  45
HETATM   45  N13 UNL     1       0.308  -2.676   1.838  1.00  0.00    -0.264 N 
ATOM     46  H13 UNL     1       0.923  -1.989   2.274  1.00  0.00     0.194 HD
BRANCH  45  47
HETATM   47  O9  UNL     1       0.574  -3.963   2.055  1.00  0.00    -0.289 OA
ATOM     48  H9  UNL     1       1.291  -4.292   2.584  1.00  0.00     0.244 HD
ENDBRANCH  45  47
ENDBRANCH   7  45
BRANCH   6  49
HETATM   49  O8  UNL     1      -1.522  -4.445   0.541  1.00  0.00    -0.356 OA
ATOM     50  H8  UNL     1      -0.823  -4.833   1.055  1.00  0.00     0.218 HD
ENDBRANCH   6  49
BRANCH   5  51
HETATM   51  C16 UNL     1      -3.568  -3.392  -0.962  1.00  0.00     0.308 C 
BRANCH  51  52
HETATM   52  O6  UNL     1      -3.747  -2.903  -2.259  1.00  0.00    -0.366 OA
ATOM     53  H6  UNL     1      -4.376  -3.458  -2.705  1.00  0.00     0.213 HD
ENDBRANCH  51  52
BRANCH  51  54
HETATM   54  O7  UNL     1      -3.132  -4.707  -0.978  1.00  0.00    -0.366 OA
ATOM     55  H7  UNL     1      -3.761  -5.262  -1.424  1.00  0.00     0.213 HD
ENDBRANCH  51  54
ENDBRANCH   5  51
TORSDOF 16
