REMARK  16 active torsions:
REMARK  status: ('A' for Active; 'I' for Inactive)
REMARK    1  A    between atoms: N1_1  and  C1_4 
REMARK    2  A    between atoms: N3_8  and  C3_9 
REMARK    3  A    between atoms: C3_9  and  C4_10 
REMARK    4  A    between atoms: C4_10  and  O1_11 
REMARK    5  A    between atoms: C4_10  and  C5_13 
REMARK    6  A    between atoms: C5_13  and  C6_14 
REMARK    7  A    between atoms: C5_13  and  C7_17 
REMARK    8  A    between atoms: C6_14  and  O2_15 
REMARK    9  A    between atoms: C7_17  and  O3_18 
REMARK   10  A    between atoms: C7_17  and  N4_20 
REMARK   11  A    between atoms: N4_20  and  C8_21 
REMARK   12  A    between atoms: C8_21  and  C9_22 
REMARK   13  A    between atoms: C12_31  and  N8_32 
REMARK   14  A    between atoms: N10_38  and  N11_40 
REMARK   15  A    between atoms: C17_48  and  O4_49 
REMARK   16  A    between atoms: C19_55  and  N15_56 
ROOT
HETATM    1  N4  UNL     1      -0.131  -1.436   0.533  1.00  0.00    -0.395 NA
ENDROOT
BRANCH   1   2
HETATM    2  C7  UNL     1      -0.711  -1.662  -0.685  1.00  0.00     0.198 C 
BRANCH   2   3
HETATM    3  C5  UNL     1      -1.584  -0.823  -1.526  1.00  0.00     0.129 C 
BRANCH   3   4
HETATM    4  C4  UNL     1      -2.818  -0.300  -0.954  1.00  0.00     0.152 C 
BRANCH   4   5
HETATM    5  C3  UNL     1      -3.869  -1.191  -0.411  1.00  0.00     0.181 C 
BRANCH   5   6
HETATM    6  N3  UNL     1      -5.204  -0.663  -0.738  1.00  0.00    -0.173 N 
HETATM    7  C2  UNL     1      -5.975   0.242  -0.138  1.00  0.00     0.736 A 
HETATM    8  N2  UNL     1      -5.749   1.007   0.955  1.00  0.00    -0.019 N 
HETATM    9  N14 UNL     1      -7.150   0.384  -0.792  1.00  0.00     0.092 N 
HETATM   10  C1  UNL     1      -6.693   1.877   1.359  1.00  0.00     0.705 A 
ATOM     11  H2  UNL     1      -4.871   0.925   1.468  1.00  0.00     0.203 HD
HETATM   12  N16 UNL     1      -7.850   1.979   0.672  1.00  0.00    -0.020 N 
HETATM   13  C19 UNL     1      -8.115   1.242  -0.416  1.00  0.00     0.727 A 
ATOM     14  H16 UNL     1      -8.552   2.645   0.994  1.00  0.00     0.203 HD
HETATM   15  N13 UNL     1      -7.102  -0.446  -1.816  1.00  0.00    -0.260 N 
HETATM   16  C18 UNL     1      -5.936  -1.098  -1.812  1.00  0.00     0.219 A 
ATOM     17  H13 UNL     1      -7.843  -0.571  -2.506  1.00  0.00     0.189 HD
BRANCH  10  18
HETATM   18  N1  UNL     1      -6.499   2.616   2.398  1.00  0.00    -0.234 N 
ATOM     19  H12 UNL     1      -5.624   2.539   2.917  1.00  0.00     0.174 HD
ATOM     20  H11 UNL     1      -7.214   3.275   2.704  1.00  0.00     0.174 HD
ENDBRANCH  10  18
BRANCH  13  21
HETATM   21  N15 UNL     1      -9.224   1.345  -1.049  1.00  0.00    -0.232 N 
ATOM     22 2H15 UNL     1      -9.426   0.784  -1.877  1.00  0.00     0.174 HD
ATOM     23 1H15 UNL     1      -9.956   1.996  -0.764  1.00  0.00     0.174 HD
ENDBRANCH  13  21
ENDBRANCH   5   6
ENDBRANCH   4   5
BRANCH   4  24
HETATM   24  O1  UNL     1      -2.802   0.956  -0.385  1.00  0.00    -0.393 OA
ATOM     25  H1  UNL     1      -2.128   1.528  -0.733  1.00  0.00     0.210 HD
ENDBRANCH   4  24
ENDBRANCH   3   4
BRANCH   3  26
HETATM   26  C6  UNL     1      -1.869  -1.665  -2.799  1.00  0.00     0.180 C 
BRANCH  26  27
HETATM   27  O2  UNL     1      -2.661  -2.744  -2.589  1.00  0.00    -0.400 OA
ATOM     28  H2  UNL     1      -2.835  -3.259  -3.368  1.00  0.00     0.209 HD
ENDBRANCH  26  27
ENDBRANCH   3  26
ENDBRANCH   2   3
BRANCH   2  29
HETATM   29  O3  UNL     1      -0.466  -2.834  -1.250  1.00  0.00    -0.339 OA
ATOM     30  H3  UNL     1       0.097  -3.375  -0.708  1.00  0.00     0.220 HD
ENDBRANCH   2  29
ENDBRANCH   1   2
BRANCH   1  31
HETATM   31  C8  UNL     1       0.450  -1.216   1.747  1.00  0.00     0.217 C 
BRANCH  31  32
HETATM   32  C9  UNL     1       1.938  -0.924   1.635  1.00  0.00     0.096 A 
HETATM   33  N5  UNL     1       2.422  -0.558   0.423  1.00  0.00    -0.336 N 
HETATM   34  C10 UNL     1       3.723  -0.160   0.330  1.00  0.00     0.134 A 
ATOM     35  H5  UNL     1       1.825  -0.580  -0.404  1.00  0.00     0.168 HD
HETATM   36  N6  UNL     1       4.177   0.265  -0.895  1.00  0.00    -0.324 N 
HETATM   37  C15 UNL     1       4.525  -0.135   1.430  1.00  0.00     0.080 A 
HETATM   38  C11 UNL     1       5.432   0.706  -0.985  1.00  0.00     0.153 A 
ATOM     39  H6  UNL     1       3.570   0.244  -1.714  1.00  0.00     0.169 HD
HETATM   40  N7  UNL     1       5.933   1.194  -2.159  1.00  0.00    -0.174 N 
HETATM   41  C14 UNL     1       6.252   0.720   0.139  1.00  0.00     0.124 A 
HETATM   42  C12 UNL     1       7.207   1.673  -2.201  1.00  0.00     0.679 A 
ATOM     43  H7  UNL     1       5.355   1.199  -3.000  1.00  0.00     0.186 HD
HETATM   44  N9  UNL     1       7.982   1.671  -1.092  1.00  0.00    -0.173 N 
HETATM   45  C13 UNL     1       7.544   1.207   0.081  1.00  0.00     0.166 A 
ATOM     46  H9  UNL     1       8.932   2.036  -1.154  1.00  0.00     0.186 HD
HETATM   47  N10 UNL     1       8.307   1.183   1.092  1.00  0.00    -0.290 N 
ATOM     48  H10 UNL     1       9.252   1.536   0.939  1.00  0.00     0.188 HD
HETATM   49  N12 UNL     1       5.821   0.309   1.332  1.00  0.00    -0.347 N 
ATOM     50  H12 UNL     1       6.435   0.324   2.147  1.00  0.00     0.166 HD
HETATM   51  C16 UNL     1       4.058  -0.510   2.694  1.00  0.00     0.072 A 
HETATM   52  C17 UNL     1       2.714  -0.908   2.753  1.00  0.00     0.097 A 
BRANCH  42  53
HETATM   53  N8  UNL     1       7.671   2.149  -3.309  1.00  0.00    -0.234 N 
ATOM     54  H82 UNL     1       7.087   2.151  -4.145  1.00  0.00     0.174 HD
ATOM     55  H81 UNL     1       8.625   2.508  -3.340  1.00  0.00     0.174 HD
ENDBRANCH  42  53
BRANCH  47  56
HETATM   56  N11 UNL     1       8.037   0.748   2.360  1.00  0.00    -0.344 N 
ATOM     57 2H11 UNL     1       7.088   0.399   2.492  1.00  0.00     0.176 HD
ATOM     58 1H11 UNL     1       8.651   0.729   3.174  1.00  0.00     0.176 HD
ENDBRANCH  47  56
BRANCH  52  59
HETATM   59  O4  UNL     1       2.242  -1.275   3.984  1.00  0.00    -0.358 OA
ATOM     60  H4  UNL     1       2.784  -1.264   4.764  1.00  0.00     0.217 HD
ENDBRANCH  52  59
ENDBRANCH  31  32
ENDBRANCH   1  31
TORSDOF 16
