REMARK  13 active torsions:
REMARK  status: ('A' for Active; 'I' for Inactive)
REMARK    1  A    between atoms: C1_2  and  C2_4 
REMARK    2  A    between atoms: C2_4  and  N1_5 
REMARK       I    between atoms: N1_5  and  C3_6 
REMARK    3  A    between atoms: N1_5  and  C14_19 
REMARK    4  A    between atoms: C3_6  and  C4_8 
REMARK    5  A    between atoms: C4_8  and  C5_9 
REMARK    6  A    between atoms: C5_9  and  C6_10 
REMARK    7  A    between atoms: C6_10  and  C7_11 
REMARK    8  A    between atoms: C7_11  and  C8_12 
REMARK    9  A    between atoms: C8_12  and  N2_13 
REMARK   10  A    between atoms: C16_21  and  C17_22 
REMARK   11  A    between atoms: C19_26  and  C20_27 
REMARK   12  A    between atoms: C23_33  and  C24_34 
REMARK   13  A    between atoms: C24_34  and  N4_35 
ROOT
HETATM    1  C14 UNL     1      -2.601   0.035   1.211  1.00  0.00     0.051 A 
HETATM    2  C15 UNL     1      -2.698   1.459   1.390  1.00  0.00     0.046 A 
HETATM    3  C16 UNL     1      -3.789   2.147   0.999  1.00  0.00     0.018 A 
HETATM    4  C21 UNL     1      -4.822   1.445   0.416  1.00  0.00     0.016 A 
HETATM    5  C22 UNL     1      -4.744   0.076   0.238  1.00  0.00     0.012 A 
HETATM    6  C23 UNL     1      -3.616  -0.659   0.639  1.00  0.00    -0.003 A 
ENDROOT
BRANCH   1   7
HETATM    7  N1  UNL     1      -1.366  -0.526   1.612  1.00  0.00    -0.286 N 
HETATM    8  C3  UNL     1      -0.237  -0.112   0.806  1.00  0.00     0.228 C 
HETATM    9  O3  UNL     1      -0.386   0.587  -0.239  1.00  0.00    -0.273 OA
BRANCH   7  10
HETATM   10  C2  UNL     1      -1.141  -1.280   2.769  1.00  0.00     0.184 C 
BRANCH  10  11
HETATM   11  C1  UNL     1      -1.014  -2.732   2.711  1.00  0.00     0.215 C 
HETATM   12  O1  UNL     1      -1.200  -3.408   3.789  1.00  0.00    -0.643 OA
HETATM   13  O2  UNL     1      -0.700  -3.455   1.576  1.00  0.00    -0.643 OA
ENDBRANCH  10  11
ENDBRANCH   7  10
BRANCH   8  14
HETATM   14  C4  UNL     1       1.159  -0.468   1.144  1.00  0.00     0.103 C 
BRANCH  14  15
HETATM   15  C5  UNL     1       2.122   0.018   0.070  1.00  0.00     0.009 C 
BRANCH  15  16
HETATM   16  C6  UNL     1       3.547  -0.346   0.386  1.00  0.00     0.002 C 
BRANCH  16  17
HETATM   17  C7  UNL     1       4.393   0.200  -0.769  1.00  0.00     0.020 C 
BRANCH  17  18
HETATM   18  C8  UNL     1       5.841  -0.199  -0.460  1.00  0.00     0.127 C 
BRANCH  18  19
HETATM   19  N2  UNL     1       6.748   0.239  -1.450  1.00  0.00    -0.374 N 
HETATM   20  C9  UNL     1       7.004   1.611  -1.592  1.00  0.00     0.063 C 
HETATM   21  C10 UNL     1       8.458   1.799  -1.986  1.00  0.00     0.045 C 
HETATM   22  C11 UNL     1       9.371   0.926  -1.135  1.00  0.00     0.010 C 
HETATM   23  C12 UNL     1       9.003  -0.532  -1.282  1.00  0.00     0.045 C 
HETATM   24  C13 UNL     1       7.657  -0.686  -1.992  1.00  0.00     0.063 C 
ENDBRANCH  18  19
ENDBRANCH  17  18
ENDBRANCH  16  17
ENDBRANCH  15  16
ENDBRANCH  14  15
ENDBRANCH   8  14
ENDBRANCH   1   7
BRANCH   6  25
HETATM   25  C24 UNL     1      -3.691  -2.097   0.492  1.00  0.00     0.313 C 
BRANCH  25  26
HETATM   26  N4  UNL     1      -4.830  -2.516  -0.306  1.00  0.00     0.094 N 
HETATM   27  C25 UNL     1      -4.645  -2.265  -1.722  1.00  0.00     0.287 C 
HETATM   28  C26 UNL     1      -5.964  -2.337  -2.434  1.00  0.00     0.170 C 
HETATM   29  S1  UNL     1      -7.080  -3.474  -1.732  1.00  0.00     0.147 S 
HETATM   30  O7  UNL     1      -7.206  -4.661  -2.657  1.00  0.00    -0.228 OA
HETATM   31  O8  UNL     1      -8.455  -2.837  -1.578  1.00  0.00    -0.228 OA
HETATM   32  C27 UNL     1      -6.582  -4.125  -0.158  1.00  0.00     0.170 C 
HETATM   33  C28 UNL     1      -5.083  -3.944  -0.083  1.00  0.00     0.287 C 
ENDBRANCH  25  26
ENDBRANCH   6  25
BRANCH   3  34
HETATM   34  C17 UNL     1      -3.877   3.596   1.167  1.00  0.00     0.158 A 
HETATM   35  N3  UNL     1      -4.915   4.386   0.800  1.00  0.00    -0.343 N 
HETATM   36  C18 UNL     1      -4.656   5.663   1.102  1.00  0.00     0.134 A 
ATOM     37  H3  UNL     1      -5.772   4.054   0.357  1.00  0.00     0.167 HD
HETATM   38  C19 UNL     1      -3.408   5.653   1.678  1.00  0.00     0.169 A 
HETATM   39  O6  UNL     1      -2.993   4.399   1.691  1.00  0.00    -0.285 OA
BRANCH  38  40
HETATM   40  C20 UNL     1      -2.680   6.814   2.181  1.00  0.00     0.235 C 
HETATM   41  O4  UNL     1      -1.547   6.685   2.701  1.00  0.00    -0.642 OA
HETATM   42  O5  UNL     1      -3.224   8.078   2.093  1.00  0.00    -0.642 OA
ENDBRANCH  38  40
ENDBRANCH   3  34
TORSDOF 13
