REMARK  4 active torsions:
REMARK  status: ('A' for Active; 'I' for Inactive)
REMARK    1  A    between atoms: O1_1  and  C1_3 
REMARK    2  A    between atoms: C7_9  and  O2_10 
REMARK    3  A    between atoms: C8_12  and  O3_13 
REMARK    4  A    between atoms: C9_15  and  O4_16 
ROOT
HETATM    1  C1  UNL     1       1.730   0.419   0.483  1.00  0.00     0.123 C 
HETATM    2  C2  UNL     1       1.670  -1.045   0.815  1.00  0.00     0.040 C 
HETATM    3  C3  UNL     1       0.702  -1.661  -0.151  1.00  0.00     0.033 A 
HETATM    4  C4  UNL     1       0.319  -0.667  -1.164  1.00  0.00     0.037 A 
HETATM    5  C5  UNL     1       0.894   0.642  -0.744  1.00  0.00     0.024 C 
HETATM    6  C6  UNL     1      -0.134   1.692  -0.426  1.00  0.00     0.042 C 
HETATM    7  C7  UNL     1      -1.453   1.057  -0.134  1.00  0.00     0.150 C 
HETATM    8  C8  UNL     1      -1.322  -0.233   0.665  1.00  0.00     0.181 C 
HETATM    9  C9  UNL     1      -0.693  -1.246  -0.265  1.00  0.00     0.095 A 
ENDROOT
BRANCH   1  10
HETATM   10  O1  UNL     1       3.035   0.831   0.192  1.00  0.00    -0.395 OA
ATOM     11  H1  UNL     1       3.073   1.757  -0.018  1.00  0.00     0.210 HD
ENDBRANCH   1  10
BRANCH   9  12
HETATM   12  O4  UNL     1      -1.598  -2.165  -0.815  1.00  0.00    -0.386 OA
ATOM     13  H4  UNL     1      -2.506  -1.895  -0.889  1.00  0.00     0.210 HD
ENDBRANCH   9  12
BRANCH   7  14
HETATM   14  O2  UNL     1      -2.270   1.983   0.527  1.00  0.00    -0.393 OA
ATOM     15  H2  UNL     1      -3.109   1.579   0.713  1.00  0.00     0.210 HD
ENDBRANCH   7  14
BRANCH   8  16
HETATM   16  O3  UNL     1      -2.619  -0.615   0.995  1.00  0.00    -0.390 OA
ATOM     17  H3  UNL     1      -2.537  -1.420   1.493  1.00  0.00     0.210 HD
ENDBRANCH   8  16
TORSDOF 4
