REMARK  5 active torsions:
REMARK  status: ('A' for Active; 'I' for Inactive)
REMARK    1  A    between atoms: C2_5  and  N3_6 
REMARK    2  A    between atoms: C2_5  and  C10_18 
REMARK    3  A    between atoms: N3_6  and  O1_8 
REMARK    4  A    between atoms: O1_8  and  C3_9 
REMARK    5  A    between atoms: C3_9  and  C4_11 
ROOT
HETATM    1  N1  UNL     1       2.909  -4.332  -0.099  1.00  0.00    -0.172 NA
HETATM    2  C1  UNL     1       2.242  -3.453  -0.481  1.00  0.00     0.183 C 
HETATM    3  N2  UNL     1       1.413  -2.406  -0.949  1.00  0.00    -0.276 N 
ATOM      4  H2  UNL     1       0.508  -2.625  -1.366  1.00  0.00     0.179 HD
HETATM    5  C2  UNL     1       1.788  -1.193  -0.854  1.00  0.00     0.164 C 
ENDROOT
BRANCH   5   6
HETATM    6  N3  UNL     1       0.913  -0.186  -1.341  1.00  0.00    -0.238 N 
ATOM      7  H3  UNL     1       1.335   0.578  -1.869  1.00  0.00     0.196 HD
BRANCH   6   8
HETATM    8  O1  UNL     1      -0.425  -0.146  -1.170  1.00  0.00    -0.193 OA
BRANCH   8   9
HETATM    9  C3  UNL     1      -1.058   0.465  -0.120  1.00  0.00     0.316 C 
HETATM   10  O2  UNL     1      -0.321   1.034   0.752  1.00  0.00    -0.257 OA
BRANCH   9  11
HETATM   11  C4  UNL     1      -2.510   0.491   0.039  1.00  0.00     0.063 A 
HETATM   12  C5  UNL     1      -3.126   1.721  -0.088  1.00  0.00     0.019 A 
HETATM   13  C6  UNL     1      -4.507   1.850   0.039  1.00  0.00     0.001 A 
HETATM   14  C7  UNL     1      -5.299   0.747   0.297  1.00  0.00     0.002 A 
HETATM   15  C8  UNL     1      -4.662  -0.478   0.420  1.00  0.00     0.025 A 
HETATM   16  C9  UNL     1      -3.286  -0.609   0.293  1.00  0.00     0.050 A 
HETATM   17 CL1  UNL     1      -2.464  -2.144   0.449  1.00  0.00    -0.083 Cl
ENDBRANCH   9  11
ENDBRANCH   8   9
ENDBRANCH   6   8
ENDBRANCH   5   6
BRANCH   5  18
HETATM   18  C10 UNL     1       3.063  -0.799  -0.273  1.00  0.00     0.104 A 
HETATM   19  C11 UNL     1       3.707   0.415  -0.527  1.00  0.00     0.086 A 
HETATM   20  C12 UNL     1       4.876   0.473   0.170  1.00  0.00     0.180 A 
HETATM   21  C13 UNL     1       5.842   1.526   0.200  1.00  0.00     0.127 C 
HETATM   22  O3  UNL     1       4.930  -0.676   0.819  1.00  0.00    -0.226 OA
HETATM   23  N4  UNL     1       6.601   2.385   0.230  1.00  0.00    -0.189 NA
HETATM   24  N5  UNL     1       3.895  -1.424   0.578  1.00  0.00    -0.256 N 
ATOM     25  H5  UNL     1       3.737  -2.350   0.976  1.00  0.00     0.195 HD
ENDBRANCH   5  18
TORSDOF 5
