REMARK  4 active torsions:
REMARK  status: ('A' for Active; 'I' for Inactive)
REMARK    1  A    between atoms: C2_2  and  C3_3 
REMARK    2  A    between atoms: C3_3  and  C4_4 
REMARK    3  A    between atoms: C4_4  and  O1_5 
REMARK    4  A    between atoms: N2_17  and  O3_18 
ROOT
HETATM    1  C4  UNL     1       1.385  -0.056   0.282  1.00  0.00     0.181 C 
HETATM    2  O2  UNL     1       1.373  -1.440   0.053  1.00  0.00    -0.338 OA
HETATM    3  C5  UNL     1       0.051  -1.864   0.025  1.00  0.00     0.097 C 
HETATM    4  C6  UNL     1      -0.187  -2.660   1.268  1.00  0.00     0.052 C 
HETATM    5  C7  UNL     1      -0.125  -2.675  -1.242  1.00  0.00     0.052 C 
HETATM    6  C8  UNL     1      -0.795  -0.634  -0.067  1.00  0.00     0.040 C 
HETATM    7  N1  UNL     1      -2.016  -0.453   0.137  1.00  0.00    -0.360 N 
HETATM    8  C9  UNL     1      -2.927  -1.485   0.532  1.00  0.00     0.152 C 
HETATM    9  C10 UNL     1      -2.559   0.863  -0.009  1.00  0.00     0.124 C 
HETATM   10  C11 UNL     1      -3.577   1.140   1.111  1.00  0.00     0.065 C 
HETATM   11  C12 UNL     1      -3.309   0.988  -1.313  1.00  0.00     0.065 C 
HETATM   12  N2  UNL     1      -1.575   1.896   0.070  1.00  0.00    -0.239 N 
HETATM   13  C13 UNL     1      -0.320   1.738  -0.137  1.00  0.00     0.031 C 
HETATM   14  C14 UNL     1       0.549   2.938  -0.005  1.00  0.00     0.067 C 
HETATM   15  C15 UNL     1       0.177   0.417  -0.493  1.00  0.00     0.094 C 
HETATM   16  C16 UNL     1       0.427   0.389  -1.984  1.00  0.00     0.034 C 
ENDROOT
BRANCH   1  17
HETATM   17  C3  UNL     1       2.699   0.430  -0.285  1.00  0.00     0.069 C 
BRANCH  17  18
HETATM   18  C2  UNL     1       3.818  -0.280   0.453  1.00  0.00     0.001 C 
HETATM   19  C1  UNL     1       5.132   0.230  -0.139  1.00  0.00     0.005 C 
ENDBRANCH  17  18
ENDBRANCH   1  17
BRANCH   1  20
HETATM   20  O1  UNL     1       1.251   0.199   1.624  1.00  0.00    -0.364 OA
ATOM     21  H1  UNL     1       0.425  -0.106   1.980  1.00  0.00     0.213 HD
ENDBRANCH   1  20
BRANCH  12  22
HETATM   22  O3  UNL     1      -2.073   3.165   0.400  1.00  0.00    -0.285 OA
ATOM     23  H3  UNL     1      -1.419   3.852   0.453  1.00  0.00     0.245 HD
ENDBRANCH  12  22
TORSDOF 4
