REMARK  4 active torsions:
REMARK  status: ('A' for Active; 'I' for Inactive)
REMARK    1  A    between atoms: C6_9  and  C8_11 
REMARK    2  A    between atoms: C8_11  and  N2_12 
REMARK       I    between atoms: N2_12  and  C9_14 
REMARK    3  A    between atoms: C9_14  and  C10_16 
REMARK    4  A    between atoms: C10_16  and  C12_18 
ROOT
HETATM    1  C1  UNL     1      -3.267   0.768   2.332  1.00  0.00     0.032 C 
HETATM    2  C2  UNL     1      -3.218   0.691   0.822  1.00  0.00     0.078 C 
HETATM    3  C3  UNL     1      -4.040  -0.507   0.398  1.00  0.00     0.076 C 
HETATM    4  C4  UNL     1      -3.907  -0.650  -1.072  1.00  0.00    -0.016 C 
HETATM    5  N1  UNL     1      -4.706  -1.405  -1.694  1.00  0.00    -0.405 N 
ATOM      6  H11 UNL     1      -4.615  -1.503  -2.705  1.00  0.00     0.155 HD
ATOM      7  H12 UNL     1      -5.436  -1.914  -1.196  1.00  0.00     0.155 HD
HETATM    8  C5  UNL     1      -2.862   0.079  -1.785  1.00  0.00     0.083 C 
HETATM    9  C6  UNL     1      -1.622   0.320  -0.965  1.00  0.00     0.043 C 
HETATM   10  C7  UNL     1      -0.950   1.565  -1.566  1.00  0.00     0.040 C 
HETATM   11  N3  UNL     1      -1.859   0.504   0.430  1.00  0.00    -0.407 N 
ATOM     12  H3  UNL     1      -1.098   0.502   1.110  1.00  0.00     0.154 HD
ENDROOT
BRANCH   9  13
HETATM   13  C8  UNL     1      -0.608  -0.791  -1.127  1.00  0.00     0.153 C 
BRANCH  13  14
HETATM   14  N2  UNL     1       0.531  -0.457  -0.304  1.00  0.00    -0.358 N 
HETATM   15  C9  UNL     1       1.681  -1.283  -0.210  1.00  0.00     0.221 C 
HETATM   16  O1  UNL     1       1.685  -2.369  -0.890  1.00  0.00    -0.273 OA
ATOM     17  H2  UNL     1       0.508   0.410   0.233  1.00  0.00     0.162 HD
BRANCH  15  18
HETATM   18  C10 UNL     1       2.842  -0.960   0.609  1.00  0.00     0.077 C 
HETATM   19  C11 UNL     1       3.768  -2.176   0.681  1.00  0.00     0.020 C 
BRANCH  18  20
HETATM   20  C12 UNL     1       3.684   0.195   0.088  1.00  0.00    -0.010 C 
HETATM   21  C13 UNL     1       4.833   0.338   1.094  1.00  0.00     0.010 C 
HETATM   22  C14 UNL     1       2.948   1.494   0.102  1.00  0.00     0.010 C 
ENDBRANCH  18  20
ENDBRANCH  15  18
ENDBRANCH  13  14
ENDBRANCH   9  13
TORSDOF 4
