REMARK  9 active torsions:
REMARK  status: ('A' for Active; 'I' for Inactive)
REMARK    1  A    between atoms: C2_2  and  N1_3 
REMARK    2  A    between atoms: C2_2  and  C3_7 
REMARK    3  A    between atoms: C3_7  and  C4_8 
REMARK    4  A    between atoms: C3_7  and  N2_11 
REMARK    5  A    between atoms: C4_8  and  O1_9 
REMARK    6  A    between atoms: N2_11  and  C5_13 
REMARK    7  A    between atoms: C5_13  and  C6_14 
REMARK    8  A    between atoms: C9_18  and  N3_19 
REMARK    9  A    between atoms: C12_24  and  N5_25 
ROOT
HETATM    1  C6  UNL     1      -0.429   0.683  -0.967  1.00  0.00     0.302 C 
HETATM    2  O2  UNL     1       0.044   1.975  -1.293  1.00  0.00    -0.347 OA
HETATM    3  C7  UNL     1       1.179   2.194  -0.549  1.00  0.00     0.170 C 
HETATM    4  C8  UNL     1       1.071   3.216   0.528  1.00  0.00     0.044 C 
HETATM    5  C9  UNL     1       1.510   0.860   0.127  1.00  0.00     0.262 C 
HETATM    6  O3  UNL     1       0.723   0.001  -0.590  1.00  0.00    -0.329 OA
ENDROOT
BRANCH   5   7
HETATM    7  N3  UNL     1       2.921   0.661   0.017  1.00  0.00    -0.297 N 
HETATM    8  C10 UNL     1       3.830   1.663  -0.081  1.00  0.00     0.188 A 
HETATM    9  N4  UNL     1       5.051   1.127  -0.169  1.00  0.00    -0.346 N 
HETATM   10  C11 UNL     1       4.970  -0.204  -0.131  1.00  0.00     0.122 A 
ATOM     11  H4  UNL     1       5.918   1.658  -0.253  1.00  0.00     0.167 HD
HETATM   12  C12 UNL     1       5.910  -1.212  -0.186  1.00  0.00     0.131 A 
HETATM   13  C14 UNL     1       3.604  -0.485  -0.012  1.00  0.00     0.142 A 
HETATM   14  N6  UNL     1       5.515  -2.497  -0.123  1.00  0.00    -0.337 N 
HETATM   15  C13 UNL     1       4.204  -2.737  -0.010  1.00  0.00     0.183 A 
ATOM     16  H6  UNL     1       6.191  -3.260  -0.160  1.00  0.00     0.168 HD
HETATM   17  N7  UNL     1       3.260  -1.761   0.046  1.00  0.00    -0.336 N 
ATOM     18  H7  UNL     1       2.276  -2.015   0.134  1.00  0.00     0.168 HD
BRANCH  12  19
HETATM   19  N5  UNL     1       7.160  -0.921  -0.296  1.00  0.00    -0.383 N 
ATOM     20  H52 UNL     1       7.459   0.053  -0.344  1.00  0.00     0.157 HD
ATOM     21  H51 UNL     1       7.855  -1.666  -0.337  1.00  0.00     0.157 HD
ENDBRANCH  12  19
ENDBRANCH   5   7
BRANCH   1  22
HETATM   22  C5  UNL     1      -1.388   0.886   0.170  1.00  0.00     0.116 C 
BRANCH  22  23
HETATM   23  N2  UNL     1      -2.009  -0.265   0.690  1.00  0.00    -0.389 N 
ATOM     24  H2  UNL     1      -1.789  -0.602   1.627  1.00  0.00     0.159 HD
BRANCH  23  25
HETATM   25  C3  UNL     1      -2.952  -0.944  -0.130  1.00  0.00     0.134 C 
BRANCH  25  26
HETATM   26  C2  UNL     1      -4.162  -0.122  -0.487  1.00  0.00     0.204 C 
HETATM   27  C1  UNL     1      -5.156  -0.861  -1.327  1.00  0.00     0.042 C 
BRANCH  26  28
HETATM   28  N1  UNL     1      -4.846   0.404   0.658  1.00  0.00    -0.073 N 
ATOM     29  H13 UNL     1      -5.651   0.977   0.406  1.00  0.00     0.274 HD
ATOM     30  H12 UNL     1      -5.346  -0.314   1.181  1.00  0.00     0.274 HD
ATOM     31  H11 UNL     1      -4.169   0.908   1.231  1.00  0.00     0.274 HD
ENDBRANCH  26  28
ENDBRANCH  25  26
BRANCH  25  32
HETATM   32  C4  UNL     1      -3.374  -2.184   0.658  1.00  0.00     0.191 C 
BRANCH  32  33
HETATM   33  O1  UNL     1      -3.943  -1.802   1.869  1.00  0.00    -0.399 OA
ATOM     34  H1  UNL     1      -4.205  -2.573   2.359  1.00  0.00     0.209 HD
ENDBRANCH  32  33
ENDBRANCH  25  32
ENDBRANCH  23  25
ENDBRANCH  22  23
ENDBRANCH   1  22
TORSDOF 9
