REMARK  8 active torsions:
REMARK  status: ('A' for Active; 'I' for Inactive)
REMARK    1  A    between atoms: N1_2  and  C2_3 
REMARK    2  A    between atoms: C2_3  and  C3_4 
REMARK    3  A    between atoms: C3_4  and  C4_5 
REMARK    4  A    between atoms: C4_5  and  N2_6 
REMARK    5  A    between atoms: N2_6  and  C5_7 
REMARK    6  A    between atoms: C5_7  and  C6_8 
REMARK    7  A    between atoms: C6_8  and  O1_9 
REMARK    8  A    between atoms: N3_20  and  C16_21 
ROOT
HETATM    1  C3  UNL     1       0.261  -1.087   0.829  1.00  0.00     0.051 C 
ENDROOT
BRANCH   1   2
HETATM    2  C2  UNL     1       1.090  -1.058  -0.347  1.00  0.00     0.213 C 
BRANCH   2   3
HETATM    3  N1  UNL     1       2.189  -0.185  -0.534  1.00  0.00     0.014 N 
HETATM    4  C1  UNL     1       1.900   1.056  -1.224  1.00  0.00     0.289 C 
HETATM    5  C14 UNL     1       3.094  -0.890  -1.487  1.00  0.00     0.272 C 
HETATM    6  C15 UNL     1       4.185  -1.626  -0.740  1.00  0.00     0.154 C 
HETATM    7  N3  UNL     1       5.092  -0.591  -0.232  1.00  0.00    -0.350 N 
HETATM    8  C17 UNL     1       4.397   0.609   0.266  1.00  0.00     0.236 C 
HETATM    9  C18 UNL     1       3.004   0.095   0.575  1.00  0.00     0.340 C 
HETATM   10  O2  UNL     1       2.757  -0.013   1.740  1.00  0.00    -0.263 OA
BRANCH   7  11
HETATM   11  C16 UNL     1       6.486  -0.724  -0.218  1.00  0.00     0.183 C 
HETATM   12  N4  UNL     1       7.274   0.325   0.290  1.00  0.00    -0.070 NA
HETATM   13  S1  UNL     1       7.145  -2.093  -0.793  1.00  0.00    -0.044 SA
ENDBRANCH   7  11
ENDBRANCH   2   3
ENDBRANCH   1   2
BRANCH   1  14
HETATM   14  C4  UNL     1      -0.577  -0.054   1.385  1.00  0.00     0.204 C 
BRANCH  14  15
HETATM   15  N2  UNL     1      -1.727   0.472   0.712  1.00  0.00    -0.045 N 
HETATM   16  C7  UNL     1      -1.889  -0.047  -0.611  1.00  0.00     0.243 C 
HETATM   17  C8  UNL     1      -3.253   0.198  -1.208  1.00  0.00     0.028 C 
HETATM   18  C9  UNL     1      -4.098  -1.043  -1.062  1.00  0.00     0.002 C 
HETATM   19  C10 UNL     1      -5.244  -0.805  -0.070  1.00  0.00     0.000 C 
HETATM   20  C11 UNL     1      -4.861  -1.291   1.271  1.00  0.00     0.002 C 
HETATM   21  C12 UNL     1      -3.461  -1.015   1.709  1.00  0.00     0.028 C 
HETATM   22  C13 UNL     1      -2.935   0.334   1.520  1.00  0.00     0.243 C 
BRANCH  15  23
HETATM   23  C5  UNL     1      -1.541   1.907   0.591  1.00  0.00     0.268 C 
BRANCH  23  24
HETATM   24  C6  UNL     1      -1.936   2.680   1.833  1.00  0.00     0.192 C 
BRANCH  24  25
HETATM   25  O1  UNL     1      -1.677   4.042   1.527  1.00  0.00    -0.399 OA
ATOM     26  H1  UNL     1      -1.925   4.527   2.306  1.00  0.00     0.209 HD
ENDBRANCH  24  25
ENDBRANCH  23  24
ENDBRANCH  15  23
ENDBRANCH  14  15
ENDBRANCH   1  14
TORSDOF 8
