REMARK  9 active torsions:
REMARK  status: ('A' for Active; 'I' for Inactive)
REMARK    1  A    between atoms: C3_3  and  O1_4 
REMARK    2  A    between atoms: C5_7  and  O2_8 
REMARK    3  A    between atoms: N2_15  and  C10_16 
REMARK    4  A    between atoms: C10_16  and  C11_17 
REMARK    5  A    between atoms: C11_17  and  C12_18 
REMARK    6  A    between atoms: C12_18  and  N3_19 
REMARK    7  A    between atoms: N3_19  and  C15_22 
REMARK    8  A    between atoms: C15_22  and  C16_23 
REMARK    9  A    between atoms: N4_26  and  C19_27 
ROOT
HETATM    1  C1  UNL     1      -5.673   2.522  -2.093  1.00  0.00     0.015 C 
HETATM    2  C2  UNL     1      -5.245   1.911  -1.145  1.00  0.00    -0.077 C 
HETATM    3  C3  UNL     1      -4.705   1.163   0.018  1.00  0.00     0.148 C 
HETATM    4  C4  UNL     1      -4.210  -0.154  -0.460  1.00  0.00     0.113 C 
HETATM    5  C5  UNL     1      -2.766  -0.120  -0.882  1.00  0.00     0.199 A 
HETATM    6  C6  UNL     1      -1.895   0.790  -0.134  1.00  0.00     0.461 A 
HETATM    7  N1  UNL     1      -2.418   1.576   0.903  1.00  0.00    -0.030 N 
HETATM    8  C7  UNL     1      -1.597   2.798   1.009  1.00  0.00     0.275 C 
HETATM    9  C8  UNL     1      -2.240   0.891   2.168  1.00  0.00     0.269 C 
HETATM   10  C9  UNL     1      -1.737  -0.470   1.814  1.00  0.00     0.289 C 
HETATM   11  N2  UNL     1      -1.232  -0.401   0.442  1.00  0.00     0.035 N 
HETATM   12  N4  UNL     1      -1.980  -1.195  -0.348  1.00  0.00    -0.103 NA
HETATM   13  C21 UNL     1      -3.772   2.002   0.787  1.00  0.00     0.291 C 
ENDROOT
BRANCH   3  14
HETATM   14  O1  UNL     1      -5.845   0.896   0.815  1.00  0.00    -0.376 OA
ATOM     15  H1  UNL     1      -5.499   0.417   1.559  1.00  0.00     0.211 HD
ENDBRANCH   3  14
BRANCH   5  16
HETATM   16  O2  UNL     1      -2.606  -0.034  -2.277  1.00  0.00    -0.370 OA
ATOM     17  H2  UNL     1      -1.694  -0.013  -2.543  1.00  0.00     0.212 HD
ENDBRANCH   5  16
BRANCH  12  18
HETATM   18  C19 UNL     1      -1.529  -2.191  -1.203  1.00  0.00     0.120 C 
HETATM   19  C20 UNL     1      -0.844  -3.342  -0.505  1.00  0.00     0.022 C 
ENDBRANCH  12  18
BRANCH  11  20
HETATM   20  C10 UNL     1       0.169  -0.225   0.301  1.00  0.00     0.263 C 
BRANCH  20  21
HETATM   21  C11 UNL     1       1.004  -0.474   1.516  1.00  0.00     0.057 C 
BRANCH  21  22
HETATM   22  C12 UNL     1       2.465  -0.206   1.372  1.00  0.00     0.238 C 
BRANCH  22  23
HETATM   23  N3  UNL     1       3.203  -0.966   0.401  1.00  0.00    -0.074 N 
HETATM   24  C13 UNL     1       4.575  -1.060   0.962  1.00  0.00     0.272 C 
HETATM   25  C14 UNL     1       2.773  -2.347   0.281  1.00  0.00     0.272 C 
BRANCH  23  26
HETATM   26  C15 UNL     1       3.203  -0.273  -0.838  1.00  0.00     0.240 C 
BRANCH  26  27
HETATM   27  C16 UNL     1       4.508   0.183  -1.398  1.00  0.00     0.003 C 
HETATM   28  C17 UNL     1       4.135   0.873  -2.729  1.00  0.00     0.011 C 
HETATM   29  C18 UNL     1       5.226   1.223  -0.589  1.00  0.00     0.011 C 
ENDBRANCH  26  27
ENDBRANCH  23  26
ENDBRANCH  22  23
ENDBRANCH  21  22
ENDBRANCH  20  21
ENDBRANCH  11  20
TORSDOF 9
