REMARK  0 active torsions:
REMARK  status: ('A' for Active; 'I' for Inactive)
ROOT
HETATM    1  C1  UNL     1       2.667  -0.118   0.024  1.00  0.00     0.037 C 
HETATM    2  C2  UNL     1       1.530  -0.748   0.764  1.00  0.00     0.173 C 
HETATM    3  O1  UNL     1       0.420  -1.006  -0.025  1.00  0.00    -0.338 OA
HETATM    4  C3  UNL     1      -0.381   0.093  -0.037  1.00  0.00     0.328 C 
HETATM    5  N1  UNL     1      -1.255   0.240   1.084  1.00  0.00    -0.022 N 
ATOM      6  H11 UNL     1      -1.395   1.217   1.343  1.00  0.00     0.282 HD
ATOM      7  H12 UNL     1      -0.829  -0.078   1.954  1.00  0.00     0.282 HD
HETATM    8  C4  UNL     1      -2.494  -0.437   0.800  1.00  0.00     0.248 C 
HETATM    9  C5  UNL     1      -3.055   0.160  -0.470  1.00  0.00     0.107 C 
HETATM   10  S1  UNL     1      -1.518   0.116  -1.480  1.00  0.00    -0.089 SA
HETATM   11  S2  UNL     1       0.624   1.596  -0.188  1.00  0.00    -0.090 SA
HETATM   12  C6  UNL     1       2.255   1.052  -0.827  1.00  0.00     0.082 C 
ENDROOT
TORSDOF 0
