REMARK  2 active torsions:
REMARK  status: ('A' for Active; 'I' for Inactive)
REMARK    1  A    between atoms: O1_1  and  C1_3 
REMARK    2  A    between atoms: C5_12  and  O2_13 
ROOT
HETATM    1  C1  UNL     1       4.664   1.368  -0.564  1.00  0.00     0.171 A 
HETATM    2  C2  UNL     1       4.199   0.193  -0.095  1.00  0.00     0.165 A 
HETATM    3  N1  UNL     1       2.870   0.257   0.010  1.00  0.00    -0.189 N 
HETATM    4  C3  UNL     1       2.485   1.482  -0.395  1.00  0.00     0.682 A 
HETATM    5  N2  UNL     1       3.620   2.153  -0.746  1.00  0.00    -0.169 N 
ATOM      6  H2  UNL     1       3.655   3.111  -1.094  1.00  0.00     0.186 HD
HETATM    7  N3  UNL     1       1.130   1.821  -0.387  1.00  0.00    -0.223 N 
ATOM      8  H3  UNL     1       1.031   2.593   0.272  1.00  0.00     0.177 HD
HETATM    9  C4  UNL     1       0.021   1.598  -0.821  1.00  0.00     0.169 C 
HETATM   10  C5  UNL     1      -1.069   2.509  -0.252  1.00  0.00     0.136 C 
HETATM   11  C6  UNL     1      -2.401   1.811  -0.208  1.00  0.00     0.033 C 
HETATM   12  C7  UNL     1      -2.739   1.152   1.081  1.00  0.00     0.002 C 
HETATM   13  C8  UNL     1      -3.320  -0.236   0.915  1.00  0.00     0.000 C 
HETATM   14  C9  UNL     1      -2.236  -1.261   0.953  1.00  0.00     0.000 C 
HETATM   15  C10 UNL     1      -2.262  -2.236  -0.201  1.00  0.00     0.000 C 
HETATM   16  C11 UNL     1      -0.964  -2.311  -0.957  1.00  0.00     0.000 C 
HETATM   17  C12 UNL     1       0.255  -2.473  -0.080  1.00  0.00     0.002 C 
HETATM   18  C13 UNL     1       1.445  -1.692  -0.583  1.00  0.00     0.021 C 
HETATM   19  C14 UNL     1       1.937  -0.760   0.473  1.00  0.00     0.147 C 
ENDROOT
BRANCH   1  20
HETATM   20  O1  UNL     1       6.017   1.675  -0.805  1.00  0.00    -0.345 OA
ATOM     21  H1  UNL     1       6.345   2.503  -1.136  1.00  0.00     0.219 HD
ENDBRANCH   1  20
BRANCH  10  22
HETATM   22  O2  UNL     1      -0.754   2.945   1.005  1.00  0.00    -0.394 OA
ATOM     23  H2  UNL     1      -1.431   3.511   1.358  1.00  0.00     0.210 HD
ENDBRANCH  10  22
TORSDOF 2
