REMARK  6 active torsions:
REMARK  status: ('A' for Active; 'I' for Inactive)
REMARK    1  A    between atoms: C2_2  and  C3_4 
REMARK    2  A    between atoms: C3_4  and  N1_5 
REMARK    3  A    between atoms: C6_8  and  C7_9 
REMARK    4  A    between atoms: C6_8  and  C8_12 
REMARK    5  A    between atoms: C7_9  and  O2_10 
REMARK    6  A    between atoms: C8_12  and  O3_13 
ROOT
HETATM    1  N1  UNL     1       1.899   0.114   0.055  1.00  0.00    -0.401 N 
HETATM    2  C4  UNL     1       1.221   1.345   0.232  1.00  0.00     0.118 C 
HETATM    3  C5  UNL     1      -0.278   1.298   0.185  1.00  0.00     0.034 C 
HETATM    4  C6  UNL     1      -0.853   0.016  -0.287  1.00  0.00     0.017 C 
HETATM    5  C13 UNL     1      -0.320  -1.196   0.412  1.00  0.00     0.001 C 
HETATM    6  C14 UNL     1       0.643  -2.027  -0.369  1.00  0.00     0.007 C 
HETATM    7  C15 UNL     1       1.865  -2.209   0.548  1.00  0.00     0.025 C 
HETATM    8  C16 UNL     1       1.865  -0.799   1.144  1.00  0.00     0.080 C 
HETATM    9  C17 UNL     1       0.429  -0.844   1.706  1.00  0.00     0.030 C 
ENDROOT
BRANCH   4  10
HETATM   10  C7  UNL     1      -0.627  -0.041  -1.800  1.00  0.00     0.177 C 
BRANCH  10  11
HETATM   11  O2  UNL     1      -1.122  -1.191  -2.365  1.00  0.00    -0.400 OA
ATOM     12  H2  UNL     1      -0.982  -1.226  -3.304  1.00  0.00     0.209 HD
ENDBRANCH  10  11
ENDBRANCH   4  10
BRANCH   4  13
HETATM   13  C8  UNL     1      -2.347   0.017  -0.097  1.00  0.00     0.068 C 
HETATM   14  C9  UNL     1      -2.796   0.099   1.341  1.00  0.00     0.038 C 
HETATM   15  C10 UNL     1      -4.278   0.414   1.181  1.00  0.00     0.003 C 
HETATM   16  C11 UNL     1      -4.470   0.969  -0.187  1.00  0.00     0.003 C 
HETATM   17  C12 UNL     1      -3.063   1.173  -0.716  1.00  0.00     0.038 C 
BRANCH  13  18
HETATM   18  O3  UNL     1      -2.922  -1.166  -0.590  1.00  0.00    -0.389 OA
ATOM     19  H3  UNL     1      -3.864  -1.165  -0.470  1.00  0.00     0.210 HD
ENDBRANCH  13  18
ENDBRANCH   4  13
BRANCH   1  20
HETATM   20  C3  UNL     1       3.185   0.210  -0.550  1.00  0.00     0.195 C 
BRANCH  20  21
HETATM   21  C2  UNL     1       4.221   0.869   0.269  1.00  0.00     0.140 C 
HETATM   22  C1  UNL     1       5.596   1.006  -0.250  1.00  0.00     0.092 C 
HETATM   23  O1  UNL     1       3.937   1.291   1.359  1.00  0.00    -0.297 OA
ENDBRANCH  20  21
ENDBRANCH   1  20
TORSDOF 6
