REMARK  5 active torsions:
REMARK  status: ('A' for Active; 'I' for Inactive)
REMARK       I    between atoms: N1_2  and  C2_4 
REMARK    1  A    between atoms: C2_4  and  C3_6 
REMARK    2  A    between atoms: C3_6  and  S1_7 
REMARK    3  A    between atoms: S1_7  and  C4_8 
REMARK    4  A    between atoms: C4_8  and  C5_9 
REMARK    5  A    between atoms: C7_12  and  O3_13 
ROOT
HETATM    1  C3  UNL     1      -1.158   0.032  -0.075  1.00  0.00     0.090 C 
HETATM    2  C10 UNL     1      -0.870  -0.757   1.199  1.00  0.00     0.030 C 
HETATM    3  C11 UNL     1      -1.124  -2.210   1.108  1.00  0.00     0.002 C 
HETATM    4  C12 UNL     1      -2.466  -2.569   0.476  1.00  0.00     0.000 C 
HETATM    5  C13 UNL     1      -2.275  -2.062  -0.963  1.00  0.00     0.002 C 
HETATM    6  C14 UNL     1      -2.302  -0.577  -0.885  1.00  0.00     0.030 C 
ENDROOT
BRANCH   1   7
HETATM    7  C2  UNL     1      -1.762   1.314   0.459  1.00  0.00     0.236 C 
HETATM    8  N1  UNL     1      -2.272   2.245  -0.511  1.00  0.00    -0.364 N 
HETATM    9  C1  UNL     1      -2.899   3.490  -0.130  1.00  0.00     0.149 C 
ATOM     10  H1  UNL     1      -2.188   2.019  -1.502  1.00  0.00     0.161 HD
HETATM   11  O1  UNL     1      -1.847   1.610   1.653  1.00  0.00    -0.272 OA
ENDBRANCH   1   7
BRANCH   1  12
HETATM   12  S1  UNL     1       0.204   0.372  -1.050  1.00  0.00    -0.126 SA
BRANCH  12  13
HETATM   13  C4  UNL     1       1.884   0.362  -0.704  1.00  0.00     0.120 A 
HETATM   14  C7  UNL     1       2.818   1.503  -1.053  1.00  0.00     0.171 A 
HETATM   15  C8  UNL     1       2.458   1.269   0.358  1.00  0.00     0.087 A 
HETATM   16  C9  UNL     1       3.498   0.695   1.294  1.00  0.00     0.037 C 
HETATM   17 CL1  UNL     1       1.485   2.545   1.072  1.00  0.00    -0.115 Cl
BRANCH  13  18
HETATM   18  C5  UNL     1       2.591  -0.967  -0.759  1.00  0.00     0.146 C 
HETATM   19  C6  UNL     1       2.613  -2.130   0.058  1.00  0.00     0.093 C 
HETATM   20  O2  UNL     1       3.349  -1.008  -1.792  1.00  0.00    -0.296 OA
ENDBRANCH  13  18
BRANCH  14  21
HETATM   21  O3  UNL     1       2.359   2.641  -1.691  1.00  0.00    -0.391 OA
ATOM     22  H3  UNL     1       2.945   3.356  -1.910  1.00  0.00     0.210 HD
ENDBRANCH  14  21
ENDBRANCH  12  13
ENDBRANCH   1  12
TORSDOF 5
