REMARK  7 active torsions:
REMARK  status: ('A' for Active; 'I' for Inactive)
REMARK    1  A    between atoms: C2_2  and  O1_3 
REMARK    2  A    between atoms: O1_3  and  C3_4 
REMARK    3  A    between atoms: C4_5  and  C5_6 
REMARK    4  A    between atoms: C4_5  and  C12_17 
REMARK       I    between atoms: C5_6  and  N1_8 
REMARK    5  A    between atoms: N1_8  and  C6_10 
REMARK    6  A    between atoms: C6_10  and  C7_11 
REMARK    7  A    between atoms: C18_26  and  C19_27 
ROOT
HETATM    1  C12 UNL     1      -0.323   2.076  -0.419  1.00  0.00     0.116 C 
HETATM    2  C13 UNL     1      -0.575   0.722  -1.139  1.00  0.00     0.141 C 
HETATM    3  N2  UNL     1      -1.831   0.128  -0.887  1.00  0.00    -0.387 N 
ATOM      4  H2  UNL     1      -2.314  -0.085  -1.760  1.00  0.00     0.159 HD
HETATM    5  C14 UNL     1      -2.641  -0.271   0.267  1.00  0.00     0.063 A 
HETATM    6  C15 UNL     1      -2.819   0.562   1.363  1.00  0.00     0.095 A 
HETATM    7  S2  UNL     1      -3.800  -0.293   2.423  1.00  0.00    -0.065 SA
HETATM    8  C16 UNL     1      -3.997  -1.713   1.498  1.00  0.00     0.106 A 
HETATM    9  C17 UNL     1      -3.278  -1.485   0.354  1.00  0.00     0.056 A 
HETATM   10  C18 UNL     1      -3.453  -2.674  -0.369  1.00  0.00     0.105 A 
HETATM   11  N3  UNL     1      -4.250  -3.515   0.376  1.00  0.00    -0.296 N 
ATOM     12  H3  UNL     1      -4.538  -4.450   0.087  1.00  0.00     0.187 HD
HETATM   13  N4  UNL     1      -4.584  -2.952   1.497  1.00  0.00    -0.288 N 
HETATM   14  C20 UNL     1      -5.403  -3.487   2.551  1.00  0.00     0.178 C 
HETATM   15  C21 UNL     1      -2.255   1.967   1.633  1.00  0.00     0.332 C 
HETATM   16  F3  UNL     1      -3.285   2.894   1.648  1.00  0.00    -0.186 F 
HETATM   17  F4  UNL     1      -1.836   1.930   2.975  1.00  0.00    -0.186 F 
HETATM   18  C22 UNL     1      -1.250   2.143   0.638  1.00  0.00    -0.090 C 
ENDROOT
BRANCH   1  19
HETATM   19  C4  UNL     1       1.140   2.123  -0.107  1.00  0.00     0.048 C 
HETATM   20  C3  UNL     1       1.842   3.156  -0.633  1.00  0.00     0.148 C 
BRANCH  20  21
HETATM   21  O1  UNL     1       1.294   4.069  -1.364  1.00  0.00    -0.363 OA
BRANCH  21  22
HETATM   22  C2  UNL     1       0.743   4.987  -2.099  1.00  0.00     0.170 C 
HETATM   23  C1  UNL     1       1.792   5.792  -2.901  1.00  0.00     0.034 C 
ENDBRANCH  21  22
ENDBRANCH  20  21
BRANCH  19  24
HETATM   24  C5  UNL     1       1.849   1.169   0.688  1.00  0.00     0.251 C 
HETATM   25  O2  UNL     1       1.255   0.182   1.205  1.00  0.00    -0.268 OA
HETATM   26  N1  UNL     1       3.226   1.220   0.969  1.00  0.00    -0.352 N 
ATOM     27  H1  UNL     1       3.767   1.994   0.584  1.00  0.00     0.163 HD
BRANCH  26  28
HETATM   28  C6  UNL     1       3.921   0.235   1.775  1.00  0.00     0.169 C 
BRANCH  28  29
HETATM   29  C7  UNL     1       3.845  -1.136   1.144  1.00  0.00     0.001 A 
HETATM   30  C8  UNL     1       3.485  -1.440  -0.143  1.00  0.00     0.017 A 
HETATM   31  C9  UNL     1       3.488  -2.736  -0.488  1.00  0.00     0.015 A 
HETATM   32  C10 UNL     1       3.848  -3.643   0.469  1.00  0.00    -0.021 A 
HETATM   33  C11 UNL     1       3.931  -5.144   0.336  1.00  0.00     0.056 C 
HETATM   34  S1  UNL     1       4.173  -2.662   1.823  1.00  0.00    -0.098 SA
ENDBRANCH  28  29
ENDBRANCH  26  28
ENDBRANCH  19  24
ENDBRANCH   1  19
BRANCH  10  35
HETATM   35  C19 UNL     1      -2.929  -3.041  -1.705  1.00  0.00     0.405 C 
HETATM   36  F1  UNL     1      -1.591  -2.817  -1.744  1.00  0.00    -0.207 F 
HETATM   37  F2  UNL     1      -3.543  -2.281  -2.709  1.00  0.00    -0.207 F 
ENDBRANCH  10  35
TORSDOF 7
