REMARK  9 active torsions:
REMARK  status: ('A' for Active; 'I' for Inactive)
REMARK    1  A    between atoms: C2_2  and  O2_4 
REMARK    2  A    between atoms: O2_4  and  C3_5 
REMARK       I    between atoms: N1_15  and  C11_16 
REMARK    3  A    between atoms: C11_16  and  C12_18 
REMARK    4  A    between atoms: C12_18  and  N2_19 
REMARK    5  A    between atoms: N2_19  and  C13_22 
REMARK    6  A    between atoms: C13_22  and  C16_25 
REMARK    7  A    between atoms: C21_32  and  C22_33 
REMARK    8  A    between atoms: N4_36  and  C23_37 
REMARK    9  A    between atoms: C23_37  and  C25_39 
ROOT
HETATM    1  C3  UNL     1      -5.051   2.694  -1.098  1.00  0.00     0.156 C 
HETATM    2  C4  UNL     1      -4.056   1.954  -0.647  1.00  0.00     0.013 C 
HETATM    3  C5  UNL     1      -3.486   2.278   0.726  1.00  0.00     0.162 C 
HETATM    4  S1  UNL     1      -2.700   0.683   1.450  1.00  0.00     0.046 S 
HETATM    5  O3  UNL     1      -2.761   0.236   3.182  1.00  0.00    -0.248 OA
HETATM    6  C6  UNL     1      -0.966   1.266   1.559  1.00  0.00     0.130 C 
HETATM    7  C7  UNL     1      -0.261   2.029   0.498  1.00  0.00     0.059 C 
HETATM    8  C8  UNL     1       1.113   2.347   0.945  1.00  0.00     0.011 C 
HETATM    9  C9  UNL     1       1.386   2.402   2.387  1.00  0.00     0.012 C 
HETATM   10  C10 UNL     1       1.967   1.188   0.376  1.00  0.00     0.137 C 
HETATM   11  N1  UNL     1       1.234   0.759  -0.794  1.00  0.00    -0.314 N 
HETATM   12  C11 UNL     1       1.733  -0.186  -1.731  1.00  0.00     0.250 C 
HETATM   13  O4  UNL     1       0.994  -0.525  -2.743  1.00  0.00    -0.271 OA
HETATM   14  C19 UNL     1       0.035   1.461  -0.830  1.00  0.00     0.090 C 
HETATM   15  C20 UNL     1      -1.164   0.921  -1.529  1.00  0.00     0.291 C 
HETATM   16  O5  UNL     1      -1.213   0.995  -2.780  1.00  0.00    -0.264 OA
HETATM   17  N3  UNL     1      -2.322   0.312  -0.971  1.00  0.00    -0.202 N 
HETATM   18  C21 UNL     1      -3.529   0.879  -1.543  1.00  0.00     0.146 C 
HETATM   19  N4  UNL     1      -2.245  -0.567   0.086  1.00  0.00    -0.235 N 
ENDROOT
BRANCH  12  20
HETATM   20  C12 UNL     1       3.028  -0.880  -1.743  1.00  0.00     0.336 C 
BRANCH  20  21
HETATM   21  N2  UNL     1       3.875  -0.586  -0.647  1.00  0.00    -0.058 N 
ATOM     22  H22 UNL     1       3.917   0.418  -0.471  1.00  0.00     0.278 HD
ATOM     23  H21 UNL     1       3.458  -0.887   0.234  1.00  0.00     0.278 HD
BRANCH  21  24
HETATM   24  C13 UNL     1       5.217  -1.151  -0.820  1.00  0.00     0.122 C 
HETATM   25  C14 UNL     1       5.901  -0.564  -2.029  1.00  0.00     0.046 C 
HETATM   26  C15 UNL     1       5.084  -2.640  -1.017  1.00  0.00     0.046 C 
BRANCH  24  27
HETATM   27  C16 UNL     1       6.048  -0.901   0.417  1.00  0.00     0.013 C 
HETATM   28  C17 UNL     1       5.448  -1.525   1.645  1.00  0.00     0.012 C 
HETATM   29  C18 UNL     1       7.495  -1.220   0.218  1.00  0.00     0.012 C 
ENDBRANCH  24  27
ENDBRANCH  21  24
ENDBRANCH  20  21
ENDBRANCH  12  20
BRANCH  18  30
HETATM   30  C22 UNL     1      -4.453  -0.007  -2.177  1.00  0.00     0.229 C 
HETATM   31  O6  UNL     1      -5.667   0.236  -2.290  1.00  0.00    -0.643 OA
HETATM   32  O7  UNL     1      -4.044  -1.217  -2.722  1.00  0.00    -0.643 OA
ENDBRANCH  18  30
BRANCH  19  33
HETATM   33  C23 UNL     1      -2.496  -1.865   0.165  1.00  0.00     0.117 C 
HETATM   34  C24 UNL     1      -3.902  -2.298   0.639  1.00  0.00     0.035 C 
BRANCH  33  35
HETATM   35  C25 UNL     1      -1.565  -2.603   1.146  1.00  0.00     0.003 C 
HETATM   36  C26 UNL     1      -0.134  -2.484   0.718  1.00  0.00     0.011 C 
HETATM   37  C27 UNL     1      -1.941  -4.073   1.191  1.00  0.00     0.011 C 
ENDBRANCH  33  35
ENDBRANCH  19  33
BRANCH   1  38
HETATM   38  O2  UNL     1      -5.600   3.752  -0.370  1.00  0.00    -0.291 OA
BRANCH  38  39
HETATM   39  C2  UNL     1      -6.694   3.464   0.432  1.00  0.00     0.259 C 
HETATM   40  C1  UNL     1      -7.262   4.623   1.197  1.00  0.00     0.126 C 
HETATM   41  O1  UNL     1      -7.185   2.321   0.519  1.00  0.00    -0.265 OA
ENDBRANCH  38  39
ENDBRANCH   1  38
TORSDOF 9
