REMARK  10 active torsions:
REMARK  status: ('A' for Active; 'I' for Inactive)
REMARK    1  A    between atoms: C3_5  and  N2_6 
REMARK    2  A    between atoms: C4_11  and  C5_12 
REMARK    3  A    between atoms: C5_12  and  C6_13 
REMARK    4  A    between atoms: C6_13  and  C7_14 
REMARK    5  A    between atoms: C7_14  and  C8_15 
REMARK    6  A    between atoms: C8_15  and  C9_16 
REMARK    7  A    between atoms: C9_16  and  C10_17 
REMARK    8  A    between atoms: C10_17  and  N4_18 
REMARK    9  A    between atoms: N5_22  and  N6_23 
REMARK   10  A    between atoms: N6_23  and  N7_25 
ROOT
HETATM    1  C1  UNL     1      -4.521  -1.306  -0.869  1.00  0.00     0.092 C 
HETATM    2  C2  UNL     1      -3.697  -0.688   0.222  1.00  0.00     0.118 A 
HETATM    3  N1  UNL     1      -4.079  -0.865   1.499  1.00  0.00    -0.179 N 
ATOM      4  H1  UNL     1      -4.907  -1.412   1.734  1.00  0.00     0.185 HD
HETATM    5  C3  UNL     1      -3.328  -0.294   2.449  1.00  0.00     0.678 A 
HETATM    6  N3  UNL     1      -2.237   0.429   2.155  1.00  0.00    -0.179 N 
ATOM      7  H3  UNL     1      -1.694   0.848   2.910  1.00  0.00     0.185 HD
HETATM    8  C4  UNL     1      -1.843   0.612   0.860  1.00  0.00     0.122 A 
HETATM    9  N5  UNL     1      -2.589   0.045  -0.096  1.00  0.00    -0.217 N 
ENDROOT
BRANCH   8  10
HETATM   10  C5  UNL     1      -0.670   1.427   0.556  1.00  0.00     0.079 C 
BRANCH  10  11
HETATM   11  C6  UNL     1       0.649   0.693   0.612  1.00  0.00     0.007 C 
BRANCH  11  12
HETATM   12  C7  UNL     1       1.769   1.643   0.256  1.00  0.00     0.000 C 
BRANCH  12  13
HETATM   13  C8  UNL     1       3.129   1.049   0.289  1.00  0.00     0.002 C 
BRANCH  13  14
HETATM   14  C9  UNL     1       3.252  -0.105  -0.677  1.00  0.00     0.027 C 
BRANCH  14  15
HETATM   15  C10 UNL     1       4.667  -0.694  -0.633  1.00  0.00     0.229 C 
BRANCH  15  16
HETATM   16  N4  UNL     1       4.811  -1.798  -1.536  1.00  0.00    -0.079 N 
ATOM     17  H43 UNL     1       4.105  -2.514  -1.364  1.00  0.00     0.274 HD
ATOM     18  H42 UNL     1       4.546  -1.538  -2.486  1.00  0.00     0.274 HD
ATOM     19  H41 UNL     1       5.752  -2.190  -1.507  1.00  0.00     0.274 HD
ENDBRANCH  15  16
ENDBRANCH  14  15
ENDBRANCH  13  14
ENDBRANCH  12  13
ENDBRANCH  11  12
ENDBRANCH  10  11
ENDBRANCH   8  10
BRANCH   9  20
HETATM   20  N6  UNL     1      -2.225   0.249  -1.429  1.00  0.00    -0.240 N 
ATOM     21  H6  UNL     1      -2.481   1.113  -1.907  1.00  0.00     0.208 HD
BRANCH  20  22
HETATM   22  N7  UNL     1      -1.510  -0.738  -2.097  1.00  0.00    -0.330 N 
ATOM     23  H72 UNL     1      -1.262  -1.596  -1.605  1.00  0.00     0.178 HD
ATOM     24  H71 UNL     1      -1.244  -0.589  -3.070  1.00  0.00     0.178 HD
ENDBRANCH  20  22
ENDBRANCH   9  20
BRANCH   5  25
HETATM   25  N2  UNL     1      -3.646  -0.430   3.705  1.00  0.00    -0.234 N 
ATOM     26  H22 UNL     1      -4.476  -0.980   3.929  1.00  0.00     0.174 HD
ATOM     27  H21 UNL     1      -3.074   0.005   4.429  1.00  0.00     0.174 HD
ENDBRANCH   5  25
TORSDOF 10
