REMARK  6 active torsions:
REMARK  status: ('A' for Active; 'I' for Inactive)
REMARK    1  A    between atoms: C2_2  and  C3_3 
REMARK    2  A    between atoms: C3_3  and  C4_4 
REMARK    3  A    between atoms: C4_4  and  C5_5 
REMARK    4  A    between atoms: C5_5  and  C6_6 
REMARK    5  A    between atoms: C5_5  and  N1_12 
REMARK    6  A    between atoms: C6_6  and  C7_7 
REMARK       I    between atoms: N1_12  and  C11_14 
ROOT
HETATM    1  C5  UNL     1      -0.090   0.597  -0.573  1.00  0.00     0.090 C 
ENDROOT
BRANCH   1   2
HETATM    2  C4  UNL     1       1.199  -0.151  -0.542  1.00  0.00     0.029 C 
BRANCH   2   3
HETATM    3  C3  UNL     1       1.924  -0.006   0.783  1.00  0.00     0.028 C 
BRANCH   3   4
HETATM    4  C2  UNL     1       3.196  -0.775   0.744  1.00  0.00    -0.037 C 
HETATM    5  C1  UNL     1       3.570  -1.463  -0.334  1.00  0.00     0.007 C 
ENDBRANCH   3   4
ENDBRANCH   2   3
ENDBRANCH   1   2
BRANCH   1   6
HETATM    6  C6  UNL     1      -1.068   0.149   0.477  1.00  0.00     0.090 C 
BRANCH   6   7
HETATM    7  C7  UNL     1      -1.415  -1.303   0.313  1.00  0.00     0.054 A 
HETATM    8  C8  UNL     1      -2.451  -1.810  -0.446  1.00  0.00     0.034 A 
HETATM    9  C9  UNL     1      -2.419  -3.176  -0.325  1.00  0.00     0.027 A 
HETATM   10  C10 UNL     1      -1.360  -3.456   0.508  1.00  0.00     0.142 A 
HETATM   11  O1  UNL     1      -0.814  -2.328   0.848  1.00  0.00    -0.327 OA
ENDBRANCH   6   7
ENDBRANCH   1   6
BRANCH   1  12
HETATM   12  N1  UNL     1       0.108   2.020  -0.410  1.00  0.00    -0.360 N 
HETATM   13  C11 UNL     1      -0.963   2.952  -0.404  1.00  0.00     0.182 C 
HETATM   14  N2  UNL     1      -1.931   2.859  -1.232  1.00  0.00    -0.374 N 
HETATM   15  N3  UNL     1      -0.959   4.006   0.537  1.00  0.00    -0.064 NA
ATOM     16  H22 UNL     1      -1.934   2.098  -1.911  1.00  0.00     0.158 HD
ATOM     17  H21 UNL     1      -2.700   3.529  -1.228  1.00  0.00     0.158 HD
ATOM     18  H1  UNL     1       1.059   2.370  -0.294  1.00  0.00     0.162 HD
ENDBRANCH   1  12
TORSDOF 6
