REMARK  6 active torsions:
REMARK  status: ('A' for Active; 'I' for Inactive)
REMARK    1  A    between atoms: C2_2  and  N2_7 
REMARK    2  A    between atoms: N1_3  and  O1_5 
REMARK    3  A    between atoms: N2_7  and  N3_9 
REMARK    4  A    between atoms: N3_9  and  N4_11 
REMARK    5  A    between atoms: N4_11  and  C3_13 
REMARK    6  A    between atoms: C5_17  and  N7_20 
ROOT
HETATM    1  C3  UNL     1       1.570  -0.009  -0.132  1.00  0.00     0.689 C 
HETATM    2  N5  UNL     1       1.013   0.890  -0.882  1.00  0.00    -0.222 N 
ATOM      3  H5  UNL     1       1.621   1.373  -1.543  1.00  0.00     0.177 HD
HETATM    4  C4  UNL     1      -0.357   1.273  -0.880  1.00  0.00     0.186 C 
HETATM    5  C5  UNL     1      -1.249   0.540   0.085  1.00  0.00     0.151 C 
HETATM    6  C6  UNL     1      -1.117   1.281   1.367  1.00  0.00     0.094 C 
HETATM    7  N6  UNL     1      -0.994   1.870   2.379  1.00  0.00    -0.194 NA
HETATM    8  C11 UNL     1      -0.714  -0.824   0.335  1.00  0.00     0.186 C 
HETATM    9  N9  UNL     1       0.658  -0.651   0.774  1.00  0.00    -0.222 N 
ATOM     10  H9  UNL     1       0.964  -0.973   1.692  1.00  0.00     0.177 HD
ENDROOT
BRANCH   5  11
HETATM   11  N7  UNL     1      -2.620   0.575  -0.311  1.00  0.00    -0.386 N 
HETATM   12  C7  UNL     1      -3.537   0.878   0.748  1.00  0.00     0.146 C 
HETATM   13  C8  UNL     1      -4.955   0.960   0.318  1.00  0.00     0.251 C 
HETATM   14  N8  UNL     1      -5.415  -0.059  -0.560  1.00  0.00    -0.072 N 
HETATM   15  C9  UNL     1      -4.404  -1.069  -0.714  1.00  0.00     0.251 C 
ATOM     16  H82 UNL     1      -6.305  -0.453  -0.255  1.00  0.00     0.277 HD
ATOM     17  H81 UNL     1      -5.718   0.318  -1.458  1.00  0.00     0.277 HD
HETATM   18  C10 UNL     1      -3.077  -0.429  -1.175  1.00  0.00     0.146 C 
ENDBRANCH   5  11
BRANCH   1  19
HETATM   19  N4  UNL     1       2.943  -0.362  -0.170  1.00  0.00    -0.118 N 
ATOM     20  H4  UNL     1       3.492  -0.414   0.688  1.00  0.00     0.207 HD
BRANCH  19  21
HETATM   21  N3  UNL     1       3.488  -0.619  -1.326  1.00  0.00    -0.227 N 
ATOM     22  H3  UNL     1       2.959  -0.567  -2.197  1.00  0.00     0.209 HD
BRANCH  21  23
HETATM   23  N2  UNL     1       4.864  -0.976  -1.299  1.00  0.00    -0.273 N 
ATOM     24  H2  UNL     1       5.227  -1.642  -1.981  1.00  0.00     0.190 HD
BRANCH  23  25
HETATM   25  C2  UNL     1       5.733  -0.415  -0.335  1.00  0.00     0.113 C 
HETATM   26  C1  UNL     1       6.020   1.047  -0.367  1.00  0.00     0.092 C 
HETATM   27  N1  UNL     1       6.295  -1.119   0.604  1.00  0.00    -0.256 N 
ATOM     28  H1  UNL     1       6.901  -0.658   1.283  1.00  0.00     0.195 HD
BRANCH  27  29
HETATM   29  O1  UNL     1       6.085  -2.476   0.695  1.00  0.00    -0.288 OA
ATOM     30  H1  UNL     1       6.495  -2.990   1.381  1.00  0.00     0.244 HD
ENDBRANCH  27  29
ENDBRANCH  23  25
ENDBRANCH  21  23
ENDBRANCH  19  21
ENDBRANCH   1  19
TORSDOF 6
