REMARK  4 active torsions:
REMARK  status: ('A' for Active; 'I' for Inactive)
REMARK    1  A    between atoms: C2_2  and  C3_3 
REMARK    2  A    between atoms: C3_3  and  S1_6 
REMARK    3  A    between atoms: S1_6  and  C6_7 
REMARK    4  A    between atoms: C6_7  and  C7_8 
ROOT
HETATM    1  C7  UNL     1       1.703  -0.127  -1.181  1.00  0.00     0.107 A 
HETATM    2  N1  UNL     1       2.113   0.709  -0.203  1.00  0.00    -0.286 N 
ATOM      3  H1  UNL     1       2.104   0.483   0.792  1.00  0.00     0.188 HD
HETATM    4  N2  UNL     1       2.522   1.843  -0.699  1.00  0.00    -0.275 N 
ATOM      5  H2  UNL     1       2.881   2.643  -0.178  1.00  0.00     0.189 HD
HETATM    6  C8  UNL     1       2.378   1.752  -2.028  1.00  0.00     0.192 A 
HETATM    7  S2  UNL     1       2.769   2.951  -3.095  1.00  0.00    -0.039 SA
HETATM    8  N3  UNL     1       1.878   0.553  -2.346  1.00  0.00    -0.320 N 
ATOM      9  H3  UNL     1       1.668   0.213  -3.284  1.00  0.00     0.169 HD
ENDROOT
BRANCH   1  10
HETATM   10  C6  UNL     1       1.162  -1.507  -1.060  1.00  0.00     0.152 C 
BRANCH  10  11
HETATM   11  S1  UNL     1      -0.609  -1.469  -0.962  1.00  0.00    -0.148 SA
BRANCH  11  12
HETATM   12  C3  UNL     1      -1.317  -0.743   0.493  1.00  0.00     0.018 C 
HETATM   13  C4  UNL     1      -2.834  -0.909   0.551  1.00  0.00     0.031 C 
HETATM   14  C5  UNL     1      -0.747  -1.320   1.783  1.00  0.00     0.031 C 
BRANCH  12  15
HETATM   15  C2  UNL     1      -1.051   0.715   0.519  1.00  0.00    -0.017 C 
HETATM   16  C1  UNL     1      -1.075   1.360   1.710  1.00  0.00     0.008 C 
ENDBRANCH  12  15
ENDBRANCH  11  12
ENDBRANCH  10  11
ENDBRANCH   1  10
TORSDOF 4
