REMARK  3 active torsions:
REMARK  status: ('A' for Active; 'I' for Inactive)
REMARK    1  A    between atoms: C2_2  and  C4_4 
REMARK    2  A    between atoms: C4_4  and  C5_5 
REMARK    3  A    between atoms: C13_14  and  O2_15 
ROOT
HETATM    1  C4  UNL     1      -1.729   0.263   0.031  1.00  0.00    -0.018 C 
HETATM    2  C7  UNL     1      -1.072   0.893  -1.161  1.00  0.00     0.019 C 
HETATM    3  C8  UNL     1       0.244   1.541  -0.939  1.00  0.00     0.070 C 
HETATM    4  C9  UNL     1       1.399   0.798  -0.490  1.00  0.00     0.177 C 
HETATM    5  O1  UNL     1       2.492   0.793  -1.392  1.00  0.00    -0.319 OA
HETATM    6  C10 UNL     1       3.326   1.085  -0.344  1.00  0.00     0.170 C 
HETATM    7  C11 UNL     1       4.437   2.066  -0.613  1.00  0.00     0.079 C 
HETATM    8  C12 UNL     1       3.728  -0.194   0.320  1.00  0.00     0.100 C 
HETATM    9  C13 UNL     1       2.612  -1.225   0.094  1.00  0.00     0.133 C 
HETATM   10  C14 UNL     1       1.272  -0.512   0.148  1.00  0.00     0.081 C 
HETATM   11  C15 UNL     1       0.161  -1.382  -0.344  1.00  0.00    -0.006 C 
HETATM   12  C16 UNL     1       0.406  -2.859  -0.110  1.00  0.00     0.010 C 
HETATM   13  C17 UNL     1      -1.074  -1.036   0.453  1.00  0.00     0.019 C 
HETATM   14  O3  UNL     1       2.231   1.598   0.337  1.00  0.00    -0.319 OA
ENDROOT
BRANCH   1  15
HETATM   15  C2  UNL     1      -3.103  -0.118  -0.384  1.00  0.00    -0.084 C 
HETATM   16  C1  UNL     1      -3.620   0.089  -1.591  1.00  0.00     0.015 C 
HETATM   17  C3  UNL     1      -4.055  -0.800   0.573  1.00  0.00     0.043 C 
ENDBRANCH   1  15
BRANCH   1  18
HETATM   18  C5  UNL     1      -1.786   1.262   1.128  1.00  0.00     0.009 C 
HETATM   19  C6  UNL     1      -2.440   0.905   2.398  1.00  0.00     0.006 C 
ENDBRANCH   1  18
BRANCH   9  20
HETATM   20  O2  UNL     1       2.748  -1.889  -1.097  1.00  0.00    -0.395 OA
ATOM     21  H2  UNL     1       2.058  -2.527  -1.237  1.00  0.00     0.210 HD
ENDBRANCH   9  20
TORSDOF 3
