REMARK  4 active torsions:
REMARK  status: ('A' for Active; 'I' for Inactive)
REMARK    1  A    between atoms: C2_2  and  N1_4 
REMARK    2  A    between atoms: C2_2  and  C4_8 
REMARK    3  A    between atoms: N3_12  and  C6_13 
REMARK    4  A    between atoms: C13_20  and  C14_21 
ROOT
HETATM    1  C4  UNL     1       2.218  -0.367   0.310  1.00  0.00     0.077 A 
HETATM    2  N2  UNL     1       1.717  -1.294   1.190  1.00  0.00    -0.352 N 
ATOM      3  H2  UNL     1       2.296  -1.887   1.784  1.00  0.00     0.166 HD
HETATM    4  C5  UNL     1       0.404  -1.328   1.177  1.00  0.00     0.184 A 
HETATM    5  N3  UNL     1      -0.012  -0.398   0.263  1.00  0.00    -0.333 N 
HETATM    6  C13 UNL     1       1.085   0.179  -0.257  1.00  0.00     0.145 A 
ENDROOT
BRANCH   1   7
HETATM    7  C2  UNL     1       3.642  -0.137   0.140  1.00  0.00     0.160 C 
HETATM    8  C1  UNL     1       4.137   1.228   0.572  1.00  0.00     0.052 C 
HETATM    9  C3  UNL     1       4.208  -0.486  -1.222  1.00  0.00     0.052 C 
BRANCH   7  10
HETATM   10  N1  UNL     1       4.382  -1.060   1.051  1.00  0.00    -0.065 N 
ATOM     11  H13 UNL     1       5.396  -0.950   1.039  1.00  0.00     0.275 HD
ATOM     12  H12 UNL     1       4.270  -0.860   2.045  1.00  0.00     0.275 HD
ATOM     13  H11 UNL     1       4.049  -1.979   0.760  1.00  0.00     0.275 HD
ENDBRANCH   7  10
ENDBRANCH   1   7
BRANCH   6  14
HETATM   14  C14 UNL     1       1.106   1.223  -1.268  1.00  0.00     0.434 C 
HETATM   15  F1  UNL     1      -0.164   1.629  -1.707  1.00  0.00    -0.165 F 
HETATM   16  F2  UNL     1       1.689   0.834  -2.485  1.00  0.00    -0.165 F 
HETATM   17  F3  UNL     1       1.635   2.445  -0.832  1.00  0.00    -0.165 F 
ENDBRANCH   6  14
BRANCH   5  18
HETATM   18  C6  UNL     1      -1.399  -0.164  -0.010  1.00  0.00     0.091 C 
HETATM   19  C7  UNL     1      -1.859   0.976   0.868  1.00  0.00     0.026 C 
HETATM   20  C8  UNL     1      -3.148   1.599   0.428  1.00  0.00     0.002 C 
HETATM   21  C9  UNL     1      -4.271   0.596   0.592  1.00  0.00     0.000 C 
HETATM   22  C10 UNL     1      -4.224  -0.312  -0.617  1.00  0.00     0.000 C 
HETATM   23  C11 UNL     1      -3.472  -1.571  -0.356  1.00  0.00     0.002 C 
HETATM   24  C12 UNL     1      -2.226  -1.380   0.475  1.00  0.00     0.026 C 
ENDBRANCH   5  18
TORSDOF 4
