REMARK  3 active torsions:
REMARK  status: ('A' for Active; 'I' for Inactive)
REMARK    1  A    between atoms: C2_2  and  C3_3 
REMARK    2  A    between atoms: N1_12  and  C9_13 
REMARK    3  A    between atoms: C9_13  and  C10_17 
ROOT
HETATM    1  C1  UNL     1      -1.974  -1.581  -1.355  1.00  0.00     0.062 C 
HETATM    2  C2  UNL     1      -1.296  -0.823  -0.250  1.00  0.00     0.164 C 
HETATM    3  O1  UNL     1      -0.151  -0.191  -0.665  1.00  0.00    -0.248 OA
HETATM    4  N1  UNL     1       0.897  -0.914  -0.268  1.00  0.00    -0.200 N 
HETATM    5  C15 UNL     1       0.480  -1.719   0.856  1.00  0.00     0.100 A 
HETATM    6  C16 UNL     1       0.861  -2.512   1.914  1.00  0.00     0.059 A 
HETATM    7  C17 UNL     1      -0.315  -2.912   2.537  1.00  0.00     0.144 A 
HETATM    8  O2  UNL     1      -1.330  -2.388   1.887  1.00  0.00    -0.321 OA
HETATM    9  C18 UNL     1      -0.904  -1.672   0.884  1.00  0.00     0.123 A 
ENDROOT
BRANCH   4  10
HETATM   10  C9  UNL     1       2.222  -0.977  -0.766  1.00  0.00     0.154 C 
HETATM   11  N2  UNL     1       2.796  -2.133  -0.995  1.00  0.00    -0.382 N 
ATOM     12  H22 UNL     1       2.234  -2.961  -0.795  1.00  0.00     0.157 HD
ATOM     13  H21 UNL     1       3.750  -2.178  -1.354  1.00  0.00     0.157 HD
BRANCH  10  14
HETATM   14  C10 UNL     1       3.022   0.202  -1.051  1.00  0.00     0.078 A 
HETATM   15  C11 UNL     1       2.503   1.460  -0.841  1.00  0.00     0.033 A 
HETATM   16  C12 UNL     1       3.222   2.625  -1.097  1.00  0.00     0.004 A 
HETATM   17  C13 UNL     1       4.511   2.475  -1.582  1.00  0.00     0.017 A 
HETATM   18  C14 UNL     1       5.018   1.214  -1.787  1.00  0.00     0.088 A 
HETATM   19  N3  UNL     1       4.277   0.138  -1.522  1.00  0.00    -0.363 N 
ATOM     20  H3  UNL     1       4.685  -0.782  -1.686  1.00  0.00     0.165 HD
ENDBRANCH  10  14
ENDBRANCH   4  10
BRANCH   2  21
HETATM   21  C3  UNL     1      -2.276   0.183   0.284  1.00  0.00    -0.012 A 
HETATM   22  C4  UNL     1      -3.487  -0.195   0.809  1.00  0.00     0.014 A 
HETATM   23  C5  UNL     1      -4.390   0.733   1.301  1.00  0.00     0.046 A 
HETATM   24  C6  UNL     1      -4.087   2.076   1.274  1.00  0.00     0.154 A 
HETATM   25  F1  UNL     1      -4.978   2.980   1.758  1.00  0.00    -0.203 F 
HETATM   26  C7  UNL     1      -2.861   2.495   0.745  1.00  0.00     0.155 A 
HETATM   27  F2  UNL     1      -2.588   3.821   0.731  1.00  0.00    -0.203 F 
HETATM   28  C8  UNL     1      -1.992   1.535   0.267  1.00  0.00     0.056 A 
ENDBRANCH   2  21
TORSDOF 3
