REMARK  7 active torsions:
REMARK  status: ('A' for Active; 'I' for Inactive)
REMARK    1  A    between atoms: C2_2  and  C3_3 
REMARK    2  A    between atoms: C3_3  and  N1_4 
REMARK    3  A    between atoms: N1_4  and  C4_6 
REMARK    4  A    between atoms: C4_6  and  N2_8 
REMARK       I    between atoms: N2_8  and  C5_10 
REMARK       I    between atoms: C5_10  and  N3_12 
REMARK    5  A    between atoms: N3_12  and  C6_14 
REMARK    6  A    between atoms: C7_16  and  C8_17 
REMARK    7  A    between atoms: C8_17  and  C9_18 
ROOT
HETATM    1  N2  UNL     1       1.992  -1.394   0.804  1.00  0.00    -0.285 N 
ATOM      2  H2  UNL     1       1.829  -2.230   1.365  1.00  0.00     0.173 HD
HETATM    3  C5  UNL     1       0.865  -0.847   0.184  1.00  0.00     0.324 C 
HETATM    4  O1  UNL     1       0.994   0.172  -0.547  1.00  0.00    -0.247 OA
HETATM    5  N3  UNL     1      -0.453  -1.432   0.355  1.00  0.00    -0.309 N 
ATOM      6  H3  UNL     1      -0.601  -2.235   0.966  1.00  0.00     0.167 HD
ENDROOT
BRANCH   5   7
HETATM    7  C6  UNL     1      -1.538  -0.837  -0.369  1.00  0.00     0.305 C 
HETATM    8  O2  UNL     1      -2.403  -0.207   0.475  1.00  0.00    -0.346 OA
HETATM    9  C7  UNL     1      -3.632  -0.773   0.457  1.00  0.00     0.203 C 
HETATM   10  C10 UNL     1      -3.701  -1.522  -0.850  1.00  0.00     0.228 C 
HETATM   11  O3  UNL     1      -4.734  -1.837  -1.517  1.00  0.00    -0.286 OA
HETATM   12  C11 UNL     1      -2.308  -1.798  -1.171  1.00  0.00     0.245 C 
HETATM   13  O4  UNL     1      -1.874  -2.671  -1.960  1.00  0.00    -0.284 OA
BRANCH   9  14
HETATM   14  C8  UNL     1      -4.818   0.103   0.624  1.00  0.00     0.051 C 
BRANCH  14  15
HETATM   15  C9  UNL     1      -5.062   1.164  -0.353  1.00  0.00     0.088 C 
HETATM   16 BR1  UNL     1      -3.728   2.487  -0.563  1.00  0.00    -0.096 Br
ENDBRANCH  14  15
ENDBRANCH   9  14
ENDBRANCH   5   7
BRANCH   1  17
HETATM   17  C4  UNL     1       3.303  -0.945   0.754  1.00  0.00     0.175 C 
HETATM   18  S1  UNL     1       4.465  -1.801   1.560  1.00  0.00    -0.041 SA
BRANCH  17  19
HETATM   19  N1  UNL     1       3.701   0.260   0.133  1.00  0.00    -0.363 N 
ATOM     20  H1  UNL     1       3.008   0.879  -0.288  1.00  0.00     0.162 HD
BRANCH  19  21
HETATM   21  C3  UNL     1       5.123   0.608   0.103  1.00  0.00     0.148 C 
BRANCH  21  22
HETATM   22  C2  UNL     1       5.392   1.976  -0.243  1.00  0.00    -0.018 C 
HETATM   23  C1  UNL     1       4.556   2.961  -0.465  1.00  0.00     0.008 C 
ENDBRANCH  21  22
ENDBRANCH  19  21
ENDBRANCH  17  19
ENDBRANCH   1  17
TORSDOF 7
