REMARK  3 active torsions:
REMARK  status: ('A' for Active; 'I' for Inactive)
REMARK    1  A    between atoms: C2_2  and  S1_4 
REMARK    2  A    between atoms: S1_4  and  C4_5 
REMARK    3  A    between atoms: N2_15  and  O1_16 
ROOT
HETATM    1  C4  UNL     1       0.429  -0.679   0.343  1.00  0.00     0.164 C 
HETATM    2  N1  UNL     1      -0.432  -1.680   0.444  1.00  0.00    -0.361 N 
ATOM      3  H1  UNL     1      -0.135  -2.563   0.859  1.00  0.00     0.162 HD
HETATM    4  C5  UNL     1      -1.766  -1.533  -0.021  1.00  0.00     0.027 C 
HETATM    5  C6  UNL     1      -2.626  -2.549   0.735  1.00  0.00     0.038 C 
HETATM    6  C7  UNL     1      -1.913  -1.912  -1.502  1.00  0.00     0.038 C 
HETATM    7  C8  UNL     1      -2.357  -0.173   0.158  1.00  0.00     0.063 C 
HETATM    8  C9  UNL     1      -1.401   0.952   0.033  1.00  0.00     0.057 C 
HETATM    9  C10 UNL     1      -1.781   1.914  -1.080  1.00  0.00     0.041 C 
HETATM   10  C11 UNL     1      -1.440   1.763   1.320  1.00  0.00     0.041 C 
HETATM   11  N2  UNL     1      -0.031   0.525  -0.243  1.00  0.00    -0.229 N 
ENDROOT
BRANCH   1  12
HETATM   12  S1  UNL     1       2.075  -0.872   0.919  1.00  0.00    -0.088 SA
BRANCH  12  13
HETATM   13  C2  UNL     1       3.254   0.374   0.495  1.00  0.00     0.047 C 
HETATM   14  C1  UNL     1       3.619   0.275  -0.964  1.00  0.00     0.021 C 
HETATM   15  C3  UNL     1       4.514   0.114   1.341  1.00  0.00     0.021 C 
ENDBRANCH  12  13
ENDBRANCH   1  12
BRANCH  11  16
HETATM   16  O1  UNL     1       0.784   1.251  -1.028  1.00  0.00    -0.285 OA
ATOM     17  H1  UNL     1       0.475   2.059  -1.421  1.00  0.00     0.245 HD
ENDBRANCH  11  16
TORSDOF 3
