REMARK  3 active torsions:
REMARK  status: ('A' for Active; 'I' for Inactive)
REMARK       I    between atoms: N1_2  and  C2_4 
REMARK       I    between atoms: C2_4  and  N6_18 
REMARK       I    between atoms: N2_5  and  C3_7 
REMARK       I    between atoms: C3_7  and  N5_12 
REMARK    1  A    between atoms: N5_12  and  C5_14 
REMARK    2  A    between atoms: C5_14  and  C6_15 
REMARK    3  A    between atoms: N6_18  and  N7_20 
ROOT
HETATM    1  C1  UNL     1      -2.994   2.325   0.370  1.00  0.00     0.165 C 
HETATM    2  N1  UNL     1      -2.151   1.541  -0.525  1.00  0.00    -0.229 N 
ATOM      3  H1  UNL     1      -2.143   1.731  -1.527  1.00  0.00     0.177 HD
HETATM    4  C2  UNL     1      -1.345   0.515   0.016  1.00  0.00     0.711 C 
HETATM    5  N2  UNL     1      -0.098   0.502  -0.243  1.00  0.00    -0.021 N 
ATOM      6  H2  UNL     1       0.248   1.252  -0.841  1.00  0.00     0.203 HD
HETATM    7  C3  UNL     1       0.853  -0.430   0.203  1.00  0.00     0.702 C 
HETATM    8  N3  UNL     1       1.069  -0.592   1.462  1.00  0.00    -0.126 N 
ATOM      9  H3  UNL     1       0.536  -0.028   2.124  1.00  0.00     0.197 HD
HETATM   10  C4  UNL     1       1.997  -1.501   1.960  1.00  0.00     0.196 C 
HETATM   11  N4  UNL     1       2.776  -2.257   2.396  1.00  0.00    -0.171 NA
HETATM   12  N5  UNL     1       1.624  -1.239  -0.693  1.00  0.00    -0.214 N 
ATOM     13  H5  UNL     1       1.661  -2.252  -0.579  1.00  0.00     0.178 HD
HETATM   14  N6  UNL     1      -1.937  -0.467   0.826  1.00  0.00    -0.071 N 
ATOM     15  H6  UNL     1      -2.017  -0.320   1.832  1.00  0.00     0.212 HD
ENDROOT
BRANCH  12  16
HETATM   16  C5  UNL     1       2.346  -0.590  -1.759  1.00  0.00     0.235 C 
BRANCH  16  17
HETATM   17  C6  UNL     1       3.433   0.203  -1.143  1.00  0.00    -0.051 C 
HETATM   18  C7  UNL     1       4.323   0.833  -0.629  1.00  0.00     0.107 C 
HETATM   19  F1  UNL     1       5.303   1.544  -0.040  1.00  0.00    -0.144 F 
ENDBRANCH  16  17
ENDBRANCH  12  16
BRANCH  14  20
HETATM   20  N7  UNL     1      -2.413  -1.636   0.254  1.00  0.00    -0.024 N 
HETATM   21  O1  UNL     1      -3.381  -2.257   0.743  1.00  0.00    -0.516 OA
HETATM   22  O2  UNL     1      -1.811  -2.127  -0.873  1.00  0.00    -0.516 OA
ENDBRANCH  14  20
TORSDOF 3
