REMARK  7 active torsions:
REMARK  status: ('A' for Active; 'I' for Inactive)
REMARK    1  A    between atoms: C2_2  and  C3_3 
REMARK    2  A    between atoms: C3_3  and  O1_5 
REMARK    3  A    between atoms: C3_3  and  C5_7 
REMARK    4  A    between atoms: C5_7  and  N1_9 
REMARK    5  A    between atoms: N1_9  and  C7_11 
REMARK    6  A    between atoms: C7_11  and  C8_13 
REMARK    7  A    between atoms: C8_13  and  N2_14 
ROOT
HETATM    1  N1  UNL     1      -0.937  -0.844   0.527  1.00  0.00    -0.376 N 
ATOM      2  H1  UNL     1      -1.664  -1.174   1.162  1.00  0.00     0.160 HD
ENDROOT
BRANCH   1   3
HETATM    3  C5  UNL     1      -1.338  -0.132  -0.672  1.00  0.00     0.112 C 
HETATM    4  C6  UNL     1      -0.953  -0.868  -1.944  1.00  0.00     0.035 C 
BRANCH   3   5
HETATM    5  C3  UNL     1      -2.843   0.037  -0.730  1.00  0.00     0.074 C 
HETATM    6  C4  UNL     1      -3.171   0.744  -2.028  1.00  0.00     0.048 C 
BRANCH   5   7
HETATM    7  C2  UNL     1      -3.375   0.786   0.461  1.00  0.00     0.035 C 
HETATM    8  C1  UNL     1      -4.876   0.888   0.323  1.00  0.00     0.008 C 
ENDBRANCH   5   7
BRANCH   5   9
HETATM    9  O1  UNL     1      -3.411  -1.235  -0.731  1.00  0.00    -0.388 OA
ATOM     10  H1  UNL     1      -3.075  -1.708  -1.483  1.00  0.00     0.210 HD
ENDBRANCH   5   9
ENDBRANCH   3   5
ENDBRANCH   1   3
BRANCH   1  11
HETATM   11  C7  UNL     1       0.415  -1.103   0.858  1.00  0.00     0.102 C 
HETATM   12  S1  UNL     1       0.785  -1.929   2.216  1.00  0.00    -0.064 SA
BRANCH  11  13
HETATM   13  C8  UNL     1       1.527  -0.655  -0.011  1.00  0.00     0.341 C 
BRANCH  13  14
HETATM   14  N2  UNL     1       2.838  -0.839   0.629  1.00  0.00     0.099 N 
HETATM   15  C9  UNL     1       3.821  -0.452  -0.355  1.00  0.00     0.299 C 
HETATM   16  C10 UNL     1       5.099   0.079   0.167  1.00  0.00     0.198 C 
HETATM   17  O2  UNL     1       5.098   0.518   1.463  1.00  0.00    -0.388 OA
HETATM   18  C11 UNL     1       3.856   1.147   1.671  1.00  0.00     0.198 C 
HETATM   19  C12 UNL     1       2.844   0.026   1.787  1.00  0.00     0.299 C 
ENDBRANCH  13  14
ENDBRANCH  11  13
ENDBRANCH   1  11
TORSDOF 7
