REMARK  4 active torsions:
REMARK  status: ('A' for Active; 'I' for Inactive)
REMARK    1  A    between atoms: C2_2  and  N1_3 
REMARK    2  A    between atoms: C2_2  and  C11_18 
REMARK       I    between atoms: N1_3  and  C3_5 
REMARK    3  A    between atoms: C3_5  and  C4_7 
REMARK    4  A    between atoms: C7_10  and  C8_11 
ROOT
HETATM    1  C4  UNL     1       0.799   0.046   0.342  1.00  0.00     0.277 C 
HETATM    2  C5  UNL     1       1.278  -0.292  -1.051  1.00  0.00     0.043 C 
HETATM    3  C6  UNL     1       2.630  -0.944  -0.964  1.00  0.00     0.011 C 
HETATM    4  C7  UNL     1       3.563  -0.341   0.012  1.00  0.00     0.042 C 
HETATM    5  C10 UNL     1       2.942   0.416   1.139  1.00  0.00     0.240 C 
HETATM    6  N2  UNL     1       1.711   1.069   0.818  1.00  0.00    -0.062 N 
ATOM      7  H21 UNL     1       1.333   1.614   1.593  1.00  0.00     0.278 HD
ATOM      8  H22 UNL     1       1.826   1.840   0.161  1.00  0.00     0.278 HD
ENDROOT
BRANCH   1   9
HETATM    9  C3  UNL     1      -0.601   0.510   0.368  1.00  0.00     0.248 C 
HETATM   10  N1  UNL     1      -1.679  -0.307  -0.048  1.00  0.00    -0.355 N 
ATOM     11  H1  UNL     1      -1.500  -1.254  -0.381  1.00  0.00     0.162 HD
HETATM   12  O1  UNL     1      -0.816   1.689   0.784  1.00  0.00    -0.271 OA
BRANCH  10  13
HETATM   13  C2  UNL     1      -3.030   0.196  -0.003  1.00  0.00     0.084 C 
HETATM   14  C1  UNL     1      -3.642   0.243  -1.409  1.00  0.00     0.032 C 
BRANCH  13  15
HETATM   15  C11 UNL     1      -3.909  -0.634   0.910  1.00  0.00     0.008 A 
HETATM   16  C12 UNL     1      -5.329  -0.136   1.085  1.00  0.00     0.007 A 
HETATM   17  C13 UNL     1      -5.074  -1.354   0.266  1.00  0.00     0.007 A 
ENDBRANCH  13  15
ENDBRANCH  10  13
ENDBRANCH   1   9
BRANCH   4  18
HETATM   18  C8  UNL     1       4.623   0.475  -0.719  1.00  0.00     0.151 A 
HETATM   19  C9  UNL     1       5.673   1.185  -0.059  1.00  0.00     0.200 A 
HETATM   20  O2  UNL     1       4.558   1.846  -0.704  1.00  0.00    -0.381 OA
ENDBRANCH   4  18
TORSDOF 4
