REMARK  6 active torsions:
REMARK  status: ('A' for Active; 'I' for Inactive)
REMARK    1  A    between atoms: N1_1  and  C1_5 
REMARK    2  A    between atoms: N2_7  and  C3_8 
REMARK    3  A    between atoms: C3_8  and  C4_9 
REMARK    4  A    between atoms: C4_9  and  C5_10 
REMARK    5  A    between atoms: C5_10  and  N3_11 
REMARK    6  A    between atoms: C11_18  and  C12_19 
ROOT
HETATM    1  C1  UNL     1      -2.449  -1.102   0.741  1.00  0.00     0.226 C 
HETATM    2  C2  UNL     1      -1.105  -0.414   0.770  1.00  0.00     0.096 C 
HETATM    3  N2  UNL     1      -0.554  -0.093  -0.445  1.00  0.00    -0.372 N 
HETATM    4  C9  UNL     1      -1.399   0.261  -1.535  1.00  0.00     0.127 C 
HETATM    5  C10 UNL     1      -2.636  -0.583  -1.630  1.00  0.00     0.027 C 
HETATM    6  C11 UNL     1      -3.367  -0.582  -0.332  1.00  0.00     0.027 C 
ENDROOT
BRANCH   3   7
HETATM    7  C3  UNL     1       0.806  -0.233  -0.747  1.00  0.00     0.064 C 
BRANCH   7   8
HETATM    8  C4  UNL     1       1.743   0.712  -0.027  1.00  0.00     0.061 C 
BRANCH   8   9
HETATM    9  C5  UNL     1       3.136   0.380  -0.576  1.00  0.00     0.126 C 
BRANCH   9  10
HETATM   10  N3  UNL     1       4.162   1.180  -0.008  1.00  0.00    -0.197 NA
HETATM   11  C6  UNL     1       4.443   0.909   1.381  1.00  0.00     0.123 C 
HETATM   12  C7  UNL     1       5.500  -0.170   1.296  1.00  0.00     0.045 C 
HETATM   13  C8  UNL     1       5.957  -0.069  -0.140  1.00  0.00     0.195 C 
HETATM   14  O1  UNL     1       5.306   1.059  -0.666  1.00  0.00    -0.303 OA
ENDBRANCH   9  10
ENDBRANCH   8   9
ENDBRANCH   7   8
ENDBRANCH   3   7
BRANCH   1  15
HETATM   15  N1  UNL     1      -2.255  -2.534   0.613  1.00  0.00    -0.070 N 
ATOM     16  H13 UNL     1      -1.681  -2.775  -0.195  1.00  0.00     0.275 HD
ATOM     17  H12 UNL     1      -1.646  -2.907   1.341  1.00  0.00     0.275 HD
ATOM     18  H11 UNL     1      -3.163  -2.999   0.593  1.00  0.00     0.275 HD
ENDBRANCH   1  15
BRANCH   6  19
HETATM   19  C12 UNL     1      -3.973   0.724   0.043  1.00  0.00    -0.008 A 
HETATM   20  C13 UNL     1      -4.833   1.529  -0.832  1.00  0.00     0.005 A 
HETATM   21  C14 UNL     1      -5.520   0.678   0.180  1.00  0.00     0.005 A 
ENDBRANCH   6  19
TORSDOF 6
