REMARK  9 active torsions:
REMARK  status: ('A' for Active; 'I' for Inactive)
REMARK    1  A    between atoms: C1_2  and  C2_3 
REMARK    2  A    between atoms: N1_6  and  C4_7 
REMARK    3  A    between atoms: C4_7  and  C5_8 
REMARK    4  A    between atoms: C5_8  and  C6_9 
REMARK    5  A    between atoms: C6_9  and  N2_10 
REMARK    6  A    between atoms: N2_10  and  C7_12 
REMARK    7  A    between atoms: C9_14  and  C10_15 
REMARK    8  A    between atoms: C11_20  and  N4_21 
REMARK    9  A    between atoms: C12_23  and  C13_24 
ROOT
HETATM    1  C7  UNL     1       1.512  -0.499   0.291  1.00  0.00     0.118 A 
HETATM    2  C8  UNL     1       1.924   0.123   1.449  1.00  0.00     0.080 A 
HETATM    3  C9  UNL     1       3.255   0.472   1.548  1.00  0.00     0.094 A 
HETATM    4  N3  UNL     1       4.069   0.201   0.544  1.00  0.00    -0.190 N 
ATOM      5  H3  UNL     1       5.047   0.471   0.647  1.00  0.00     0.184 HD
HETATM    6  C11 UNL     1       3.708  -0.410  -0.618  1.00  0.00     0.684 A 
HETATM    7  N5  UNL     1       2.374  -0.754  -0.702  1.00  0.00    -0.177 N 
ATOM      8  H5  UNL     1       2.034  -1.216  -1.545  1.00  0.00     0.186 HD
ENDROOT
BRANCH   1   9
HETATM    9  N2  UNL     1       0.260  -0.836   0.178  1.00  0.00    -0.376 N 
ATOM     10  H2  UNL     1      -0.034  -1.295  -0.684  1.00  0.00     0.161 HD
BRANCH   9  11
HETATM   11  C6  UNL     1      -0.731  -0.605   1.183  1.00  0.00     0.123 C 
BRANCH  11  12
HETATM   12  C5  UNL     1      -1.322   0.789   1.133  1.00  0.00     0.050 C 
BRANCH  12  13
HETATM   13  C4  UNL     1      -1.997   1.049  -0.207  1.00  0.00     0.274 C 
BRANCH  13  14
HETATM   14  N1  UNL     1      -3.041   0.111  -0.409  1.00  0.00     0.098 N 
HETATM   15  C3  UNL     1      -4.173   0.243   0.459  1.00  0.00     0.325 C 
HETATM   16  C2  UNL     1      -5.170  -0.733  -0.170  1.00  0.00     0.222 C 
HETATM   17  F2  UNL     1      -5.075  -1.896   0.584  1.00  0.00    -0.232 F 
HETATM   18  C15 UNL     1      -4.705  -0.923  -1.575  1.00  0.00     0.309 C 
HETATM   19  C14 UNL     1      -3.654   0.160  -1.714  1.00  0.00     0.355 C 
HETATM   20  F8  UNL     1      -5.701  -0.817  -2.515  1.00  0.00    -0.201 F 
HETATM   21  F9  UNL     1      -4.047  -2.135  -1.641  1.00  0.00    -0.201 F 
BRANCH  16  22
HETATM   22  C1  UNL     1      -6.551  -0.191  -0.028  1.00  0.00     0.274 C 
HETATM   23  F1  UNL     1      -7.521  -1.047  -0.453  1.00  0.00    -0.252 F 
ENDBRANCH  16  22
ENDBRANCH  13  14
ENDBRANCH  12  13
ENDBRANCH  11  12
ENDBRANCH   9  11
ENDBRANCH   1   9
BRANCH   3  24
HETATM   24  C10 UNL     1       3.677   1.141   2.808  1.00  0.00     0.403 C 
HETATM   25  F3  UNL     1       2.874   2.259   2.951  1.00  0.00    -0.207 F 
HETATM   26  F4  UNL     1       3.343   0.265   3.842  1.00  0.00    -0.207 F 
ENDBRANCH   3  24
BRANCH   6  27
HETATM   27  N4  UNL     1       4.479  -0.646  -1.531  1.00  0.00    -0.197 N 
HETATM   28  C12 UNL     1       5.633  -0.687  -2.209  1.00  0.00     0.194 C 
ATOM     29  H4  UNL     1       3.851  -1.094  -2.198  1.00  0.00     0.183 HD
BRANCH  28  30
HETATM   30  C13 UNL     1       6.911  -0.121  -1.599  1.00  0.00     0.422 C 
HETATM   31  F5  UNL     1       7.920  -0.324  -2.571  1.00  0.00    -0.166 F 
HETATM   32  F6  UNL     1       7.326  -0.823  -0.495  1.00  0.00    -0.166 F 
HETATM   33  F7  UNL     1       6.869   1.231  -1.424  1.00  0.00    -0.166 F 
ENDBRANCH  28  30
ENDBRANCH   6  27
TORSDOF 9
