REMARK  11 active torsions:
REMARK  status: ('A' for Active; 'I' for Inactive)
REMARK    1  A    between atoms: C6_8  and  O1_9 
REMARK    2  A    between atoms: C7_11  and  C8_12 
REMARK    3  A    between atoms: C9_13  and  C10_14 
REMARK    4  A    between atoms: C10_14  and  O2_15 
REMARK    5  A    between atoms: C10_14  and  C11_17 
REMARK    6  A    between atoms: C12_18  and  C13_19 
REMARK    7  A    between atoms: C17_24  and  C18_25 
REMARK    8  A    between atoms: C18_25  and  C19_26 
REMARK    9  A    between atoms: C18_25  and  C21_29 
REMARK   10  A    between atoms: C19_26  and  C20_27 
REMARK   11  A    between atoms: C21_29  and  O5_33 
ROOT
HETATM    1  C13 UNL     1       1.251   0.805  -0.383  1.00  0.00     0.152 C 
HETATM    2  O3  UNL     1       1.861   1.405  -1.492  1.00  0.00    -0.372 OA
HETATM    3  C14 UNL     1       3.227   0.960  -1.397  1.00  0.00     0.147 C 
HETATM    4  C15 UNL     1       3.996   1.890  -2.301  1.00  0.00     0.044 C 
HETATM    5  C16 UNL     1       3.535   1.170   0.032  1.00  0.00    -0.048 C 
HETATM    6  C17 UNL     1       4.811   0.944   0.644  1.00  0.00    -0.008 C 
HETATM    7  C22 UNL     1       2.293   0.612   0.688  1.00  0.00     0.045 C 
HETATM    8  C23 UNL     1       2.359  -0.808   1.100  1.00  0.00     0.017 C 
ENDROOT
BRANCH   1   9
HETATM    9  C12 UNL     1       0.607  -0.457  -0.820  1.00  0.00     0.004 C 
HETATM   10  C11 UNL     1      -0.612  -0.843  -0.564  1.00  0.00     0.007 C 
BRANCH  10  11
HETATM   11  C10 UNL     1      -1.630  -0.103   0.226  1.00  0.00     0.163 C 
BRANCH  11  12
HETATM   12  C9  UNL     1      -2.915  -0.130  -0.533  1.00  0.00     0.005 C 
HETATM   13  C8  UNL     1      -4.076  -0.070   0.111  1.00  0.00    -0.016 C 
BRANCH  13  14
HETATM   14  C7  UNL     1      -5.358  -0.097  -0.641  1.00  0.00     0.071 C 
HETATM   15  C2  UNL     1      -6.199  -1.232  -0.110  1.00  0.00    -0.079 C 
HETATM   16  C1  UNL     1      -6.159  -2.408  -0.703  1.00  0.00     0.015 C 
HETATM   17  C3  UNL     1      -7.047  -0.964   1.079  1.00  0.00     0.040 C 
HETATM   18  C4  UNL     1      -8.097   0.037   0.673  1.00  0.00     0.086 C 
HETATM   19  C5  UNL     1      -7.614   0.900  -0.475  1.00  0.00     0.270 C 
HETATM   20  F1  UNL     1      -8.246   2.113  -0.520  1.00  0.00    -0.203 F 
HETATM   21  F2  UNL     1      -7.801   0.199  -1.664  1.00  0.00    -0.203 F 
HETATM   22  C6  UNL     1      -6.123   1.172  -0.352  1.00  0.00     0.202 C 
BRANCH  22  23
HETATM   23  O1  UNL     1      -5.823   2.171  -1.277  1.00  0.00    -0.389 OA
ATOM     24  H1  UNL     1      -4.891   2.341  -1.200  1.00  0.00     0.210 HD
ENDBRANCH  22  23
ENDBRANCH  13  14
ENDBRANCH  11  12
BRANCH  11  25
HETATM   25  O2  UNL     1      -1.776  -0.762   1.460  1.00  0.00    -0.388 OA
ATOM     26  H2  UNL     1      -0.958  -0.745   1.943  1.00  0.00     0.210 HD
ENDBRANCH  11  25
ENDBRANCH  10  11
ENDBRANCH   1   9
BRANCH   6  27
HETATM   27  C18 UNL     1       5.522  -0.349   0.686  1.00  0.00     0.089 C 
BRANCH  27  28
HETATM   28  C19 UNL     1       5.928  -0.928  -0.636  1.00  0.00     0.086 C 
BRANCH  28  29
HETATM   29  C20 UNL     1       6.547  -2.256  -0.544  1.00  0.00     0.232 C 
HETATM   30  O4  UNL     1       6.587  -3.000   0.387  1.00  0.00    -0.307 OA
ENDBRANCH  28  29
ENDBRANCH  27  28
BRANCH  27  31
HETATM   31  C21 UNL     1       6.810  -0.076   1.443  1.00  0.00     0.117 C 
HETATM   32  N1  UNL     1       7.139   1.098   1.806  1.00  0.00    -0.383 N 
ATOM     33  H12 UNL     1       6.482   1.837   1.555  1.00  0.00     0.158 HD
ATOM     34  H11 UNL     1       8.004   1.281   2.314  1.00  0.00     0.158 HD
BRANCH  31  35
HETATM   35  O5  UNL     1       7.708  -1.087   1.786  1.00  0.00    -0.349 OA
ATOM     36  H5  UNL     1       8.514  -0.916   2.260  1.00  0.00     0.219 HD
ENDBRANCH  31  35
ENDBRANCH  27  31
ENDBRANCH   6  27
TORSDOF 11
