REMARK  7 active torsions:
REMARK  status: ('A' for Active; 'I' for Inactive)
REMARK    1  A    between atoms: C3_3  and  O1_4 
REMARK    2  A    between atoms: O1_4  and  C4_5 
REMARK    3  A    between atoms: C4_5  and  C5_6 
REMARK    4  A    between atoms: C5_6  and  O2_7 
REMARK    5  A    between atoms: C8_11  and  C9_12 
REMARK    6  A    between atoms: C9_12  and  C10_13 
REMARK       I    between atoms: C10_13  and  N1_15 
REMARK    7  A    between atoms: N1_15  and  C11_17 
ROOT
HETATM    1  C1  UNL     1       7.108  -1.941  -1.378  1.00  0.00     0.014 C 
HETATM    2  C2  UNL     1       6.110  -1.274  -1.426  1.00  0.00    -0.091 C 
HETATM    3  C3  UNL     1       4.843  -0.457  -1.494  1.00  0.00     0.260 C 
ENDROOT
BRANCH   3   4
HETATM    4  O1  UNL     1       4.787   0.275  -0.357  1.00  0.00    -0.377 OA
BRANCH   4   5
HETATM    5  C4  UNL     1       3.821   1.187  -0.204  1.00  0.00     0.206 C 
BRANCH   5   6
HETATM    6  C5  UNL     1       2.405   0.807  -0.281  1.00  0.00     0.079 C 
HETATM    7  C6  UNL     1       1.847   0.504  -1.657  1.00  0.00     0.040 C 
HETATM    8  C7  UNL     1       0.366   0.287  -1.250  1.00  0.00     0.008 C 
HETATM    9  C8  UNL     1       0.516  -0.598  -0.033  1.00  0.00    -0.003 C 
HETATM   10  C15 UNL     1       1.925  -0.334   0.521  1.00  0.00     0.045 C 
BRANCH   6  11
HETATM   11  O2  UNL     1       1.586   1.952   0.091  1.00  0.00    -0.388 OA
ATOM     12  H2  UNL     1       0.670   1.706   0.041  1.00  0.00     0.210 HD
ENDBRANCH   6  11
BRANCH   9  13
HETATM   13  C9  UNL     1      -0.475  -0.224   1.018  1.00  0.00     0.107 C 
BRANCH  13  14
HETATM   14  C10 UNL     1      -1.863  -0.369   0.514  1.00  0.00     0.218 C 
HETATM   15  O3  UNL     1      -2.035  -0.769  -0.663  1.00  0.00    -0.274 OA
HETATM   16  N1  UNL     1      -2.967  -0.061   1.347  1.00  0.00    -0.356 N 
ATOM     17  H1  UNL     1      -2.824   0.264   2.303  1.00  0.00     0.162 HD
BRANCH  16  18
HETATM   18  C11 UNL     1      -4.289  -0.216   0.817  1.00  0.00     0.084 C 
HETATM   19  C12 UNL     1      -5.238   0.945   1.076  1.00  0.00     0.025 C 
HETATM   20  C13 UNL     1      -6.333  -0.102   1.234  1.00  0.00     0.004 C 
HETATM   21  C14 UNL     1      -5.228  -1.051   1.700  1.00  0.00     0.025 C 
ENDBRANCH  16  18
ENDBRANCH  13  14
ENDBRANCH   9  13
ENDBRANCH   5   6
ENDBRANCH   4   5
ENDBRANCH   3   4
TORSDOF 7
