REMARK  2 active torsions:
REMARK  status: ('A' for Active; 'I' for Inactive)
REMARK    1  A    between atoms: C4_5  and  O1_6 
REMARK    2  A    between atoms: C6_9  and  N2_10 
ROOT
HETATM    1  N1  UNL     1       3.076   3.131  -1.278  1.00  0.00    -0.197 NA
HETATM    2  C1  UNL     1       2.630   2.177  -0.771  1.00  0.00     0.064 C 
HETATM    3  C2  UNL     1       2.085   1.015  -0.128  1.00  0.00     0.097 C 
HETATM    4  C3  UNL     1       2.851  -0.252  -0.492  1.00  0.00     0.051 C 
HETATM    5  C4  UNL     1       2.266  -1.428   0.244  1.00  0.00     0.121 C 
HETATM    6  C5  UNL     1       0.785  -1.548  -0.065  1.00  0.00     0.067 C 
HETATM    7  C6  UNL     1       0.129  -0.297   0.397  1.00  0.00     0.226 C 
HETATM    8  C11 UNL     1       0.608   0.813  -0.494  1.00  0.00     0.055 C 
ENDROOT
BRANCH   5   9
HETATM    9  O1  UNL     1       2.463  -1.206   1.616  1.00  0.00    -0.395 OA
ATOM     10  H1  UNL     1       2.094  -1.948   2.080  1.00  0.00     0.210 HD
ENDBRANCH   5   9
BRANCH   7  11
HETATM   11  N2  UNL     1      -1.286  -0.409   0.501  1.00  0.00     0.093 N 
HETATM   12  C7  UNL     1      -1.970  -0.676  -0.719  1.00  0.00     0.273 C 
HETATM   13  C8  UNL     1      -3.385  -0.148  -0.445  1.00  0.00     0.032 C 
HETATM   14  C9  UNL     1      -3.021   1.165   0.266  1.00  0.00     0.032 C 
HETATM   15  C10 UNL     1      -1.924   0.669   1.187  1.00  0.00     0.273 C 
ENDBRANCH   7  11
TORSDOF 2
