REMARK  1 active torsions:
REMARK  status: ('A' for Active; 'I' for Inactive)
REMARK    1  A    between atoms: C3_4  and  N2_5 
ROOT
HETATM    1  N1  UNL     1       5.871   0.649  -0.058  1.00  0.00    -0.192 NA
HETATM    2  C1  UNL     1       4.715   0.596  -0.110  1.00  0.00     0.089 C 
HETATM    3  C2  UNL     1       3.288   0.552  -0.184  1.00  0.00     0.110 C 
HETATM    4  C3  UNL     1       2.640  -0.458  -0.765  1.00  0.00     0.096 C 
ENDROOT
BRANCH   4   5
HETATM    5  N2  UNL     1       1.235  -0.504  -0.839  1.00  0.00    -0.386 N 
HETATM    6  C4  UNL     1       0.542  -1.758  -0.746  1.00  0.00     0.142 C 
HETATM    7  C5  UNL     1      -0.277  -1.699   0.540  1.00  0.00     0.144 C 
HETATM    8  N3  UNL     1      -1.006  -0.459   0.623  1.00  0.00    -0.363 N 
HETATM    9  C6  UNL     1      -2.250  -0.205   1.272  1.00  0.00     0.073 C 
HETATM   10  C9  UNL     1      -0.586   0.778   0.045  1.00  0.00     0.104 C 
HETATM   11  N4  UNL     1      -2.762  -0.862   2.278  1.00  0.00    -0.389 N 
HETATM   12  C7  UNL     1      -2.883   0.962   0.597  1.00  0.00     0.078 C 
ATOM     13  H42 UNL     1      -2.328  -1.661   2.740  1.00  0.00     0.157 HD
ATOM     14  H41 UNL     1      -3.652  -0.680   2.742  1.00  0.00     0.157 HD
HETATM   15  C8  UNL     1      -1.884   1.383  -0.444  1.00  0.00     0.034 C 
HETATM   16  C10 UNL     1       0.455   0.688  -1.009  1.00  0.00     0.147 C 
ENDBRANCH   4   5
TORSDOF 1
