REMARK  3 active torsions:
REMARK  status: ('A' for Active; 'I' for Inactive)
REMARK    1  A    between atoms: O1_1  and  C1_3 
REMARK    2  A    between atoms: C4_6  and  N1_7 
REMARK    3  A    between atoms: C10_13  and  O2_14 
ROOT
HETATM    1  N1  UNL     1      -0.300  -0.644   0.171  1.00  0.00    -0.407 N 
HETATM    2  C5  UNL     1      -1.236  -0.973   1.179  1.00  0.00     0.124 C 
HETATM    3  C6  UNL     1      -2.497  -0.154   1.073  1.00  0.00     0.033 C 
HETATM    4  C7  UNL     1      -2.232   1.261   0.584  1.00  0.00     0.017 C 
HETATM    5  C8  UNL     1      -2.112   0.665  -0.786  1.00  0.00     0.033 C 
HETATM    6  C9  UNL     1      -0.791  -0.047  -1.009  1.00  0.00     0.124 C 
HETATM    7  C10 UNL     1      -3.130  -0.362  -0.299  1.00  0.00     0.129 C 
ENDROOT
BRANCH   1   8
HETATM    8  C4  UNL     1       1.037  -0.419   0.543  1.00  0.00     0.081 C 
HETATM    9  C3  UNL     1       2.047  -1.277  -0.208  1.00  0.00     0.027 C 
HETATM   10  C2  UNL     1       3.335  -0.476  -0.058  1.00  0.00     0.034 C 
HETATM   11  C1  UNL     1       2.820   0.909  -0.440  1.00  0.00     0.120 C 
HETATM   12  C11 UNL     1       1.558   0.973   0.376  1.00  0.00     0.056 C 
BRANCH  11  13
HETATM   13  O1  UNL     1       3.709   1.908  -0.101  1.00  0.00    -0.396 OA
ATOM     14  H1  UNL     1       3.388   2.770  -0.339  1.00  0.00     0.210 HD
ENDBRANCH  11  13
ENDBRANCH   1   8
BRANCH   7  15
HETATM   15  O2  UNL     1      -3.000  -1.625  -0.826  1.00  0.00    -0.395 OA
ATOM     16  H2  UNL     1      -3.394  -1.755  -1.681  1.00  0.00     0.210 HD
ENDBRANCH   7  15
TORSDOF 3
