REMARK  4 active torsions:
REMARK  status: ('A' for Active; 'I' for Inactive)
REMARK    1  A    between atoms: N1_2  and  O1_3 
REMARK    2  A    between atoms: C2_5  and  C3_6 
REMARK    3  A    between atoms: C3_6  and  O2_7 
REMARK    4  A    between atoms: C6_11  and  O3_12 
ROOT
HETATM    1  C3  UNL     1       0.439  -0.442   0.569  1.00  0.00     0.117 C 
HETATM    2  C4  UNL     1       1.691  -1.168   0.238  1.00  0.00     0.049 C 
HETATM    3  C5  UNL     1       2.189   0.031  -0.505  1.00  0.00     0.038 C 
HETATM    4  C6  UNL     1       1.108   0.852   0.164  1.00  0.00     0.158 C 
ENDROOT
BRANCH   1   5
HETATM    5  C2  UNL     1      -0.736  -0.697  -0.270  1.00  0.00     0.129 C 
HETATM    6  N1  UNL     1      -1.725   0.117  -0.236  1.00  0.00    -0.277 N 
HETATM    7  C1  UNL     1      -2.908  -0.095  -1.047  1.00  0.00     0.184 C 
BRANCH   6   8
HETATM    8  O1  UNL     1      -1.743   1.238   0.559  1.00  0.00    -0.289 OA
ATOM      9  H1  UNL     1      -0.968   1.377   1.090  1.00  0.00     0.244 HD
ENDBRANCH   6   8
ENDBRANCH   1   5
BRANCH   1  10
HETATM   10  O2  UNL     1       0.118  -0.532   1.921  1.00  0.00    -0.382 OA
ATOM     11  H2  UNL     1       0.879  -0.367   2.465  1.00  0.00     0.211 HD
ENDBRANCH   1  10
BRANCH   4  12
HETATM   12  O3  UNL     1       1.485   1.590   1.251  1.00  0.00    -0.392 OA
ATOM     13  H3  UNL     1       1.905   2.403   0.997  1.00  0.00     0.210 HD
ENDBRANCH   4  12
TORSDOF 4
