REMARK  3 active torsions:
REMARK  status: ('A' for Active; 'I' for Inactive)
REMARK    1  A    between atoms: O1_1  and  N1_3 
REMARK    2  A    between atoms: C2_5  and  O2_6 
REMARK    3  A    between atoms: C3_9  and  C4_10 
ROOT
HETATM    1  N1  UNL     1      -1.367  -1.172  -0.112  1.00  0.00    -0.165 NA
HETATM    2  C1  UNL     1      -2.629  -0.935   0.606  1.00  0.00     0.184 C 
HETATM    3  C2  UNL     1      -2.824   0.553   0.283  1.00  0.00     0.274 C 
HETATM    4  O3  UNL     1      -1.512   1.017   0.501  1.00  0.00    -0.338 OA
HETATM    5  C3  UNL     1      -0.708   0.119  -0.180  1.00  0.00     0.228 C 
ENDROOT
BRANCH   5   6
HETATM    6  C4  UNL     1       0.643   0.012   0.474  1.00  0.00     0.031 C 
HETATM    7  C5  UNL     1       1.532  -1.011  -0.198  1.00  0.00     0.009 C 
HETATM    8  C6  UNL     1       2.856  -0.715   0.481  1.00  0.00     0.001 C 
HETATM    9  C7  UNL     1       2.858   0.769   0.643  1.00  0.00     0.001 C 
HETATM   10  C8  UNL     1       1.466   1.264   0.309  1.00  0.00     0.009 C 
ENDBRANCH   5   6
BRANCH   1  11
HETATM   11  O1  UNL     1      -1.749  -1.500  -1.388  1.00  0.00    -0.310 OA
ATOM     12  H1  UNL     1      -0.934  -1.653  -1.852  1.00  0.00     0.237 HD
ENDBRANCH   1  11
BRANCH   3  13
HETATM   13  O2  UNL     1      -3.746   1.147   1.102  1.00  0.00    -0.370 OA
ATOM     14  H2  UNL     1      -3.867   2.068   0.902  1.00  0.00     0.212 HD
ENDBRANCH   3  13
TORSDOF 3
