REMARK  1 active torsions:
REMARK  status: ('A' for Active; 'I' for Inactive)
REMARK    1  A    between atoms: C4_5  and  C5_6 
ROOT
HETATM    1  C1  UNL     1      -2.315  -0.483   0.758  1.00  0.00     0.259 C 
HETATM    2  C2  UNL     1      -2.838   0.633  -0.123  1.00  0.00     0.195 C 
HETATM    3  O1  UNL     1      -2.042   0.703  -1.267  1.00  0.00    -0.387 OA
HETATM    4  C3  UNL     1      -0.720   0.409  -1.000  1.00  0.00     0.205 C 
HETATM    5  C4  UNL     1      -0.325   0.746   0.425  1.00  0.00     0.264 C 
HETATM    6  N1  UNL     1      -1.097  -0.014   1.384  1.00  0.00    -0.062 N 
ATOM      7  H11 UNL     1      -0.558  -0.775   1.797  1.00  0.00     0.277 HD
ATOM      8  H12 UNL     1      -1.280   0.514   2.237  1.00  0.00     0.277 HD
ENDROOT
BRANCH   5   9
HETATM    9  C5  UNL     1       1.123   0.334   0.592  1.00  0.00     0.292 C 
HETATM   10  O2  UNL     1       1.213  -1.010   0.349  1.00  0.00    -0.357 OA
HETATM   11  C6  UNL     1       2.246  -1.196  -0.594  1.00  0.00     0.197 C 
HETATM   12  C7  UNL     1       3.051   0.087  -0.351  1.00  0.00     0.197 C 
HETATM   13  O3  UNL     1       1.984   1.006  -0.237  1.00  0.00    -0.357 OA
ENDBRANCH   5   9
TORSDOF 1
