REMARK  2 active torsions:
REMARK  status: ('A' for Active; 'I' for Inactive)
REMARK    1  A    between atoms: C4_5  and  N2_6 
REMARK    2  A    between atoms: C7_9  and  O1_10 
ROOT
HETATM    1  C1  UNL     1      -3.489  -0.237  -0.229  1.00  0.00     0.310 C 
HETATM    2  N1  UNL     1      -2.159   0.038   0.338  1.00  0.00     0.086 N 
HETATM    3  C2  UNL     1      -1.587   1.191  -0.238  1.00  0.00     0.274 C 
HETATM    4  C3  UNL     1      -0.197   1.033  -0.790  1.00  0.00     0.068 C 
HETATM    5  C4  UNL     1       0.622   0.288   0.255  1.00  0.00     0.254 C 
HETATM    6  C7  UNL     1       0.041  -1.084   0.441  1.00  0.00     0.179 C 
HETATM    7  C8  UNL     1      -1.432  -1.161   0.374  1.00  0.00     0.305 C 
ENDROOT
BRANCH   5   8
HETATM    8  N2  UNL     1       1.965   0.175  -0.272  1.00  0.00     0.087 N 
HETATM    9  C5  UNL     1       2.584   1.466  -0.471  1.00  0.00     0.310 C 
HETATM   10  C6  UNL     1       2.827  -0.617   0.574  1.00  0.00     0.310 C 
ENDBRANCH   5   8
BRANCH   6  11
HETATM   11  O1  UNL     1       0.565  -1.886  -0.599  1.00  0.00    -0.392 OA
ATOM     12  H1  UNL     1       0.197  -2.754  -0.481  1.00  0.00     0.210 HD
ENDBRANCH   6  11
TORSDOF 2
