REMARK  2 active torsions:
REMARK  status: ('A' for Active; 'I' for Inactive)
REMARK    1  A    between atoms: N1_2  and  C1_3 
REMARK    2  A    between atoms: C8_10  and  O2_11 
ROOT
HETATM    1  O1  UNL     1       0.975   0.114  -1.828  1.00  0.00    -0.061 OA
HETATM    2  N1  UNL     1       1.290  -0.197  -0.555  1.00  0.00     0.052 N 
HETATM    3  C7  UNL     1       2.041  -1.409  -0.348  1.00  0.00     0.386 A 
HETATM    4  C8  UNL     1       2.681  -0.030  -0.232  1.00  0.00     0.424 A 
ENDROOT
BRANCH   2   5
HETATM    5  C1  UNL     1       0.292   0.066   0.488  1.00  0.00     0.258 C 
HETATM    6  C2  UNL     1      -0.345   1.397   0.363  1.00  0.00     0.042 C 
HETATM    7  C3  UNL     1      -1.831   1.406   0.367  1.00  0.00     0.003 C 
HETATM    8  C4  UNL     1      -2.496   0.306  -0.366  1.00  0.00     0.000 C 
HETATM    9  C5  UNL     1      -1.692  -0.911  -0.598  1.00  0.00     0.003 C 
HETATM   10  C6  UNL     1      -0.664  -1.093   0.480  1.00  0.00     0.042 C 
ENDBRANCH   2   5
BRANCH   4  11
HETATM   11  O2  UNL     1       3.043   0.372   1.064  1.00  0.00    -0.362 OA
ATOM     12  H2  UNL     1       3.962   0.482   1.277  1.00  0.00     0.212 HD
ENDBRANCH   4  11
TORSDOF 2
