REMARK  4 active torsions:
REMARK  status: ('A' for Active; 'I' for Inactive)
REMARK    1  A    between atoms: C3_3  and  O1_4 
REMARK    2  A    between atoms: C6_9  and  C7_10 
REMARK       I    between atoms: C7_10  and  N2_12 
REMARK    3  A    between atoms: N2_12  and  C8_14 
REMARK    4  A    between atoms: C9_23  and  C10_24 
ROOT
HETATM    1  C7  UNL     1       1.349   0.668  -0.749  1.00  0.00     0.271 C 
HETATM    2  O2  UNL     1       1.714   1.829  -1.108  1.00  0.00    -0.267 OA
HETATM    3  N2  UNL     1       2.272  -0.378  -0.544  1.00  0.00    -0.153 N 
ATOM      4  H2  UNL     1       2.027  -1.325  -0.833  1.00  0.00     0.187 HD
ENDROOT
BRANCH   1   5
HETATM    5  C6  UNL     1      -0.093   0.460  -0.558  1.00  0.00     0.048 A 
HETATM    6  C5  UNL     1      -0.946   1.539  -0.814  1.00  0.00     0.047 A 
HETATM    7  C4  UNL     1      -2.298   1.343  -0.659  1.00  0.00     0.081 A 
HETATM    8  C3  UNL     1      -2.798   0.121  -0.263  1.00  0.00     0.096 A 
HETATM    9  N1  UNL     1      -3.202   2.424  -0.912  1.00  0.00    -0.099 NA
HETATM   10  C2  UNL     1      -1.981  -0.951  -0.006  1.00  0.00    -0.013 A 
HETATM   11  C1  UNL     1      -2.489  -2.276   0.420  1.00  0.00     0.052 C 
HETATM   12  C9  UNL     1      -0.606  -0.757  -0.162  1.00  0.00     0.026 A 
BRANCH   8  13
HETATM   13  O1  UNL     1      -4.165  -0.057  -0.113  1.00  0.00    -0.358 OA
ATOM     14  H1  UNL     1      -4.731   0.685  -0.291  1.00  0.00     0.217 HD
ENDBRANCH   8  13
BRANCH  12  15
HETATM   15  C10 UNL     1       0.269  -1.906   0.112  1.00  0.00     0.271 C 
HETATM   16  O3  UNL     1       0.642  -2.004   1.334  1.00  0.00    -0.301 OA
ENDBRANCH  12  15
ENDBRANCH   1   5
BRANCH   3  17
HETATM   17  C8  UNL     1       3.440  -0.158   0.011  1.00  0.00     0.716 A 
HETATM   18  N3  UNL     1       4.372  -1.115   0.236  1.00  0.00    -0.115 N 
HETATM   19  N4  UNL     1       5.405  -0.543   0.806  1.00  0.00    -0.213 N 
ATOM     20  H3  UNL     1       4.286  -2.104   0.003  1.00  0.00     0.207 HD
HETATM   21  N5  UNL     1       5.174   0.742   0.955  1.00  0.00    -0.213 N 
ATOM     22  H4  UNL     1       6.259  -1.023   1.091  1.00  0.00     0.210 HD
HETATM   23  N6  UNL     1       3.970   0.982   0.469  1.00  0.00    -0.115 N 
ATOM     24  H5  UNL     1       5.807   1.426   1.369  1.00  0.00     0.210 HD
ATOM     25  H6  UNL     1       3.515   1.894   0.446  1.00  0.00     0.207 HD
ENDBRANCH   3  17
TORSDOF 4
