REMARK  4 active torsions:
REMARK  status: ('A' for Active; 'I' for Inactive)
REMARK    1  A    between atoms: O1_2  and  C2_3 
REMARK    2  A    between atoms: C4_5  and  C5_6 
REMARK    3  A    between atoms: N1_15  and  C11_16 
REMARK    4  A    between atoms: C14_19  and  O2_20 
ROOT
HETATM    1  C11 UNL     1       0.420  -0.471  -0.187  1.00  0.00     0.059 A 
HETATM    2  C12 UNL     1       0.951   0.085  -1.341  1.00  0.00     0.034 A 
HETATM    3  C13 UNL     1       2.192   0.672  -1.361  1.00  0.00     0.042 A 
HETATM    4  C14 UNL     1       2.941   0.720  -0.223  1.00  0.00     0.101 A 
HETATM    5  C16 UNL     1       2.467   0.174   0.996  1.00  0.00     0.103 A 
HETATM    6  O3  UNL     1       3.155   0.214   2.067  1.00  0.00    -0.353 OA
HETATM    7  C17 UNL     1       3.755   0.197   3.203  1.00  0.00     0.210 C 
HETATM    8  C18 UNL     1       1.196  -0.407   0.938  1.00  0.00     0.071 A 
ENDROOT
BRANCH   4   9
HETATM    9  O2  UNL     1       4.210   1.294  -0.147  1.00  0.00    -0.353 OA
HETATM   10  C15 UNL     1       4.712   1.861  -1.358  1.00  0.00     0.210 C 
ENDBRANCH   4   9
BRANCH   1  11
HETATM   11  N1  UNL     1      -0.847  -1.128  -0.140  1.00  0.00    -0.254 N 
HETATM   12  C4  UNL     1      -2.067  -0.635  -0.240  1.00  0.00     0.074 A 
HETATM   13  C3  UNL     1      -2.958  -1.722  -0.183  1.00  0.00     0.089 A 
HETATM   14  C2  UNL     1      -2.183  -2.876  -0.043  1.00  0.00     0.159 A 
HETATM   15  N2  UNL     1      -0.926  -2.484  -0.020  1.00  0.00    -0.273 N 
ATOM     16  H2  UNL     1      -0.124  -3.107   0.074  1.00  0.00     0.189 HD
BRANCH  12  17
HETATM   17  C5  UNL     1      -2.504   0.757  -0.461  1.00  0.00     0.037 A 
HETATM   18  C6  UNL     1      -1.737   1.854  -0.132  1.00  0.00     0.059 A 
HETATM   19  C7  UNL     1      -2.121   3.171  -0.420  1.00  0.00     0.120 A 
HETATM   20  F1  UNL     1      -1.335   4.202  -0.079  1.00  0.00    -0.206 F 
HETATM   21  C8  UNL     1      -3.312   3.401  -1.055  1.00  0.00     0.087 A 
HETATM   22  C9  UNL     1      -4.113   2.355  -1.404  1.00  0.00     0.158 A 
HETATM   23  F2  UNL     1      -5.295   2.580  -2.036  1.00  0.00    -0.203 F 
HETATM   24  C10 UNL     1      -3.700   1.064  -1.105  1.00  0.00     0.167 A 
HETATM   25  F3  UNL     1      -4.504   0.059  -1.494  1.00  0.00    -0.202 F 
ENDBRANCH  12  17
BRANCH  14  26
HETATM   26  O1  UNL     1      -2.747  -4.140   0.042  1.00  0.00    -0.340 OA
HETATM   27  C1  UNL     1      -1.980  -5.314   0.182  1.00  0.00     0.211 C 
ENDBRANCH  14  26
ENDBRANCH   1  11
TORSDOF 4
