REMARK  8 active torsions:
REMARK  status: ('A' for Active; 'I' for Inactive)
REMARK    1  A    between atoms: C1_2  and  C2_3 
REMARK       I    between atoms: C1_2  and  N2_19 
REMARK    2  A    between atoms: C2_3  and  O2_4 
REMARK    3  A    between atoms: O2_4  and  C3_5 
REMARK    4  A    between atoms: C3_5  and  C4_7 
REMARK    5  A    between atoms: C4_7  and  S1_8 
REMARK    6  A    between atoms: S1_8  and  C5_9 
REMARK    7  A    between atoms: C9_14  and  N1_15 
REMARK    8  A    between atoms: N2_19  and  C11_21 
ROOT
HETATM    1  O2  UNL     1       0.623   0.142  -0.468  1.00  0.00    -0.311 OA
ENDROOT
BRANCH   1   2
HETATM    2  C2  UNL     1      -0.276   0.298   0.592  1.00  0.00     0.281 C 
BRANCH   2   3
HETATM    3  C1  UNL     1      -1.698  -0.025   0.216  1.00  0.00     0.246 C 
HETATM    4  O1  UNL     1      -1.903  -0.326  -0.971  1.00  0.00    -0.271 OA
HETATM    5  N2  UNL     1      -2.733   0.012   1.150  1.00  0.00    -0.322 N 
ATOM      6  H2  UNL     1      -2.446   0.278   2.092  1.00  0.00     0.169 HD
BRANCH   5   7
HETATM    7  C11 UNL     1      -4.093  -0.254   1.012  1.00  0.00     0.085 C 
HETATM    8  C12 UNL     1      -4.526  -0.738  -0.200  1.00  0.00     0.034 C 
HETATM    9  C13 UNL     1      -5.718  -0.419  -0.819  1.00  0.00     0.002 C 
HETATM   10  C14 UNL     1      -6.860   0.158  -0.282  1.00  0.00     0.000 C 
HETATM   11  C15 UNL     1      -7.121   0.318   1.077  1.00  0.00     0.004 C 
HETATM   12  C16 UNL     1      -6.253   0.178   2.143  1.00  0.00     0.057 C 
HETATM   13  C17 UNL     1      -4.890  -0.016   2.140  1.00  0.00     0.198 C 
HETATM   14  O6  UNL     1      -4.305   0.021   3.225  1.00  0.00    -0.286 OA
ENDBRANCH   5   7
ENDBRANCH   2   3
ENDBRANCH   1   2
BRANCH   1  15
HETATM   15  C3  UNL     1       0.937  -0.984  -1.151  1.00  0.00     0.268 C 
HETATM   16  O3  UNL     1       0.331  -2.056  -0.778  1.00  0.00    -0.264 OA
BRANCH  15  17
HETATM   17  C4  UNL     1       1.888  -1.142  -2.278  1.00  0.00     0.190 C 
BRANCH  17  18
HETATM   18  S1  UNL     1       3.520  -1.659  -1.801  1.00  0.00    -0.120 SA
BRANCH  18  19
HETATM   19  C5  UNL     1       4.386  -0.367  -0.973  1.00  0.00     0.003 A 
HETATM   20  C6  UNL     1       3.901   0.909  -0.919  1.00  0.00     0.020 A 
HETATM   21  C7  UNL     1       4.640   1.861  -0.214  1.00  0.00     0.023 A 
HETATM   22  C8  UNL     1       5.824   1.532   0.411  1.00  0.00     0.044 A 
HETATM   23 BR1  UNL     1       6.851   2.802   1.375  1.00  0.00    -0.048 Br
HETATM   24  C9  UNL     1       6.314   0.229   0.351  1.00  0.00     0.121 A 
HETATM   25  C10 UNL     1       5.588  -0.709  -0.343  1.00  0.00     0.056 A 
BRANCH  24  26
HETATM   26  N1  UNL     1       7.536  -0.126   0.993  1.00  0.00    -0.114 N 
HETATM   27  O4  UNL     1       8.250  -1.063   0.588  1.00  0.00    -0.532 OA
HETATM   28  O5  UNL     1       7.952   0.576   2.088  1.00  0.00    -0.532 OA
ENDBRANCH  24  26
ENDBRANCH  18  19
ENDBRANCH  17  18
ENDBRANCH  15  17
ENDBRANCH   1  15
TORSDOF 8
