REMARK  14 active torsions:
REMARK  status: ('A' for Active; 'I' for Inactive)
REMARK    1  A    between atoms: O1_2  and  C2_3 
REMARK    2  A    between atoms: C5_6  and  C6_7 
REMARK    3  A    between atoms: C6_7  and  C7_8 
REMARK    4  A    between atoms: C7_8  and  C8_9 
REMARK    5  A    between atoms: C7_8  and  C11_15 
REMARK    6  A    between atoms: C8_9  and  O3_11 
REMARK    7  A    between atoms: O3_11  and  C9_12 
REMARK    8  A    between atoms: C11_15  and  O5_16 
REMARK    9  A    between atoms: C11_15  and  N1_18 
REMARK   10  A    between atoms: N1_18  and  C12_19 
REMARK   11  A    between atoms: N1_18  and  C14_23 
REMARK   12  A    between atoms: C12_19  and  C13_20 
REMARK   13  A    between atoms: C14_23  and  O7_24 
REMARK   14  A    between atoms: C14_23  and  C15_26 
ROOT
HETATM    1  C11 UNL     1      -0.971   0.715  -0.289  1.00  0.00     0.161 C 
ENDROOT
BRANCH   1   2
HETATM    2  C7  UNL     1      -0.025   1.702  -0.578  1.00  0.00     0.091 C 
BRANCH   2   3
HETATM    3  C6  UNL     1       1.289   1.349  -0.575  1.00  0.00     0.033 C 
BRANCH   3   4
HETATM    4  C5  UNL     1       1.893   0.128  -0.217  1.00  0.00    -0.035 A 
HETATM    5  C4  UNL     1       2.481  -0.707  -1.177  1.00  0.00     0.014 A 
HETATM    6  C3  UNL     1       3.151  -1.824  -0.775  1.00  0.00     0.037 A 
HETATM    7  C2  UNL     1       3.297  -2.207   0.557  1.00  0.00     0.068 A 
HETATM    8  C22 UNL     1       2.725  -1.398   1.499  1.00  0.00     0.037 A 
HETATM    9  C21 UNL     1       2.043  -0.264   1.134  1.00  0.00     0.014 A 
BRANCH   7  10
HETATM   10  O1  UNL     1       3.996  -3.364   0.916  1.00  0.00    -0.356 OA
HETATM   11  C1  UNL     1       4.588  -4.198  -0.032  1.00  0.00     0.210 C 
ENDBRANCH   7  10
ENDBRANCH   3   4
ENDBRANCH   2   3
BRANCH   2  12
HETATM   12  C8  UNL     1      -0.173   3.085  -1.016  1.00  0.00     0.305 C 
HETATM   13  O2  UNL     1      -1.155   3.788  -1.163  1.00  0.00    -0.259 OA
BRANCH  12  14
HETATM   14  O3  UNL     1       1.053   3.809  -1.352  1.00  0.00    -0.241 OA
BRANCH  14  15
HETATM   15  C9  UNL     1       0.989   5.125  -1.773  1.00  0.00     0.262 C 
HETATM   16  C10 UNL     1       2.249   5.879  -2.120  1.00  0.00     0.126 C 
HETATM   17  O4  UNL     1      -0.131   5.675  -1.860  1.00  0.00    -0.265 OA
ENDBRANCH  14  15
ENDBRANCH  12  14
ENDBRANCH   2  12
ENDBRANCH   1   2
BRANCH   1  18
HETATM   18  O5  UNL     1      -0.399  -0.491  -0.143  1.00  0.00    -0.345 OA
ATOM     19  H5  UNL     1      -1.042  -1.162   0.053  1.00  0.00     0.219 HD
ENDBRANCH   1  18
BRANCH   1  20
HETATM   20  N1  UNL     1      -2.363   0.639  -0.102  1.00  0.00    -0.298 N 
BRANCH  20  21
HETATM   21  C12 UNL     1      -3.253   1.756  -0.342  1.00  0.00     0.232 C 
BRANCH  21  22
HETATM   22  C13 UNL     1      -3.449   2.585   0.901  1.00  0.00     0.249 C 
HETATM   23  N2  UNL     1      -2.831   2.289   2.122  1.00  0.00    -0.061 NA
HETATM   24  O6  UNL     1      -4.207   3.571   0.794  1.00  0.00    -0.275 OA
ENDBRANCH  21  22
ENDBRANCH  20  21
BRANCH  20  25
HETATM   25  C14 UNL     1      -3.046  -0.561   0.265  1.00  0.00     0.155 C 
BRANCH  25  26
HETATM   26  O7  UNL     1      -4.344  -0.498   0.020  1.00  0.00    -0.345 OA
ATOM     27  H7  UNL     1      -4.798  -1.296   0.264  1.00  0.00     0.219 HD
ENDBRANCH  25  26
BRANCH  25  28
HETATM   28  C15 UNL     1      -2.686  -1.820   0.835  1.00  0.00     0.015 A 
HETATM   29  C16 UNL     1      -1.692  -2.061   1.745  1.00  0.00     0.017 A 
HETATM   30  C17 UNL     1      -1.378  -3.323   2.145  1.00  0.00     0.025 A 
HETATM   31  C18 UNL     1      -2.019  -4.449   1.684  1.00  0.00     0.034 A 
HETATM   32 CL1  UNL     1      -1.606  -6.067   2.205  1.00  0.00    -0.084 Cl
HETATM   33  C19 UNL     1      -3.024  -4.221   0.770  1.00  0.00     0.025 A 
HETATM   34  C20 UNL     1      -3.360  -2.978   0.351  1.00  0.00     0.017 A 
ENDBRANCH  25  28
ENDBRANCH  20  25
ENDBRANCH   1  20
TORSDOF 14
