REMARK  7 active torsions:
REMARK  status: ('A' for Active; 'I' for Inactive)
REMARK    1  A    between atoms: C6_8  and  C8_10 
REMARK    2  A    between atoms: C9_14  and  C10_15 
REMARK    3  A    between atoms: C10_15  and  C11_16 
REMARK    4  A    between atoms: C11_16  and  C12_17 
REMARK    5  A    between atoms: C12_17  and  C13_18 
REMARK    6  A    between atoms: C13_18  and  C14_19 
REMARK    7  A    between atoms: C14_19  and  C15_20 
ROOT
HETATM    1  C1  UNL     1      -0.788  -2.297  -1.147  1.00  0.00     0.019 C 
HETATM    2  C2  UNL     1      -1.347  -0.918  -1.131  1.00  0.00     0.066 C 
HETATM    3  C3  UNL     1      -2.742  -1.010  -0.617  1.00  0.00     0.151 C 
HETATM    4  O1  UNL     1      -3.158  -2.042  -0.177  1.00  0.00    -0.296 OA
HETATM    5  C4  UNL     1      -3.610   0.180  -0.655  1.00  0.00     0.191 C 
HETATM    6  C5  UNL     1      -5.031  -0.170  -0.530  1.00  0.00     0.073 C 
HETATM    7  N1  UNL     1      -6.153  -0.458  -0.449  1.00  0.00    -0.196 NA
HETATM    8  C6  UNL     1      -3.194   1.050   0.532  1.00  0.00     0.116 C 
HETATM    9  C7  UNL     1      -4.216   0.964   1.645  1.00  0.00     0.040 C 
HETATM   10  S1  UNL     1      -1.555   0.513   1.107  1.00  0.00    -0.141 SA
HETATM   11  C9  UNL     1      -0.616   0.150  -0.447  1.00  0.00     0.059 C 
ENDROOT
BRANCH   8  12
HETATM   12  C8  UNL     1      -3.141   2.459   0.087  1.00  0.00     0.194 C 
HETATM   13  O2  UNL     1      -3.390   2.784  -1.088  1.00  0.00    -0.647 OA
HETATM   14  O3  UNL     1      -2.807   3.429   1.010  1.00  0.00    -0.647 OA
ENDBRANCH   8  12
BRANCH  11  15
HETATM   15  C10 UNL     1       0.823   0.113  -0.214  1.00  0.00     0.016 C 
BRANCH  15  16
HETATM   16  C11 UNL     1       1.443  -0.934   0.607  1.00  0.00     0.001 C 
BRANCH  16  17
HETATM   17  C12 UNL     1       2.965  -0.756   0.765  1.00  0.00     0.001 C 
BRANCH  17  18
HETATM   18  C13 UNL     1       3.598  -0.811  -0.592  1.00  0.00     0.010 C 
BRANCH  18  19
HETATM   19  C14 UNL     1       5.113  -0.674  -0.513  1.00  0.00     0.113 C 
BRANCH  19  20
HETATM   20  C15 UNL     1       5.511   0.600   0.097  1.00  0.00     0.172 C 
HETATM   21  O4  UNL     1       5.566   0.767   1.343  1.00  0.00    -0.648 OA
HETATM   22  O5  UNL     1       5.840   1.662  -0.736  1.00  0.00    -0.648 OA
ENDBRANCH  19  20
ENDBRANCH  18  19
ENDBRANCH  17  18
ENDBRANCH  16  17
ENDBRANCH  15  16
ENDBRANCH  11  15
TORSDOF 7
