REMARK  9 active torsions:
REMARK  status: ('A' for Active; 'I' for Inactive)
REMARK    1  A    between atoms: C5_8  and  C6_9 
REMARK    2  A    between atoms: C6_9  and  C7_10 
REMARK    3  A    between atoms: C7_10  and  N2_11 
REMARK    4  A    between atoms: N2_11  and  C8_12 
REMARK    5  A    between atoms: N2_11  and  C10_18 
REMARK    6  A    between atoms: C8_12  and  C9_13 
REMARK    7  A    between atoms: C9_13  and  N3_14 
REMARK    8  A    between atoms: C10_18  and  C11_19 
REMARK    9  A    between atoms: N4_24  and  O1_25 
ROOT
HETATM    1  C7  UNL     1      -0.043  -0.290  -0.182  1.00  0.00     0.070 C 
ENDROOT
BRANCH   1   2
HETATM    2  C6  UNL     1       1.040  -0.470   0.862  1.00  0.00     0.123 C 
BRANCH   2   3
HETATM    3  C5  UNL     1       2.347   0.055   0.335  1.00  0.00     0.116 A 
HETATM    4  N1  UNL     1       2.426   1.196  -0.372  1.00  0.00    -0.336 N 
HETATM    5  C4  UNL     1       3.754   1.365  -0.669  1.00  0.00     0.105 A 
ATOM      6  H1  UNL     1       1.655   1.811  -0.634  1.00  0.00     0.168 HD
HETATM    7  S1  UNL     1       4.904   2.357  -1.442  1.00  0.00    -0.081 SA
HETATM    8  C16 UNL     1       4.505   0.351  -0.160  1.00  0.00     0.104 A 
HETATM    9  C3  UNL     1       6.313   1.465  -1.105  1.00  0.00     0.061 A 
HETATM   10  C2  UNL     1       5.842   0.399  -0.385  1.00  0.00    -0.023 A 
HETATM   11  C1  UNL     1       6.824  -0.660   0.127  1.00  0.00     0.051 C 
HETATM   12  N4  UNL     1       3.580  -0.451   0.464  1.00  0.00    -0.209 N 
BRANCH  12  13
HETATM   13  O1  UNL     1       3.825  -1.631   1.149  1.00  0.00    -0.281 OA
ATOM     14  H1  UNL     1       4.700  -1.990   1.241  1.00  0.00     0.245 HD
ENDBRANCH  12  13
ENDBRANCH   2   3
ENDBRANCH   1   2
BRANCH   1  15
HETATM   15  N2  UNL     1      -1.325  -0.720   0.167  1.00  0.00    -0.371 N 
BRANCH  15  16
HETATM   16  C8  UNL     1      -1.610  -2.091   0.307  1.00  0.00     0.090 C 
BRANCH  16  17
HETATM   17  C9  UNL     1      -1.541  -2.764  -1.065  1.00  0.00     0.274 C 
BRANCH  17  18
HETATM   18  N3  UNL     1      -1.842  -4.173  -1.007  1.00  0.00    -0.075 N 
ATOM     19  H33 UNL     1      -1.240  -4.649  -0.335  1.00  0.00     0.274 HD
ATOM     20  H32 UNL     1      -2.746  -4.337  -0.564  1.00  0.00     0.274 HD
ATOM     21  H31 UNL     1      -1.796  -4.622  -1.922  1.00  0.00     0.274 HD
ENDBRANCH  17  18
ENDBRANCH  16  17
ENDBRANCH  15  16
BRANCH  15  22
HETATM   22  C10 UNL     1      -2.109   0.167   0.978  1.00  0.00     0.131 C 
BRANCH  22  23
HETATM   23  C11 UNL     1      -2.508   1.396   0.187  1.00  0.00     0.004 C 
HETATM   24  C12 UNL     1      -3.336   0.994  -1.016  1.00  0.00     0.006 C 
HETATM   25  C13 UNL     1      -4.638   1.721  -0.906  1.00  0.00     0.000 C 
HETATM   26  C14 UNL     1      -4.782   2.113   0.541  1.00  0.00     0.000 C 
HETATM   27  C15 UNL     1      -3.363   2.352   0.985  1.00  0.00     0.006 C 
ENDBRANCH  22  23
ENDBRANCH  15  22
ENDBRANCH   1  15
TORSDOF 9
