REMARK  9 active torsions:
REMARK  status: ('A' for Active; 'I' for Inactive)
REMARK    1  A    between atoms: N1_2  and  C3_4 
REMARK    2  A    between atoms: C3_4  and  N2_6 
REMARK    3  A    between atoms: N2_6  and  C4_8 
REMARK    4  A    between atoms: C4_8  and  C5_9 
REMARK    5  A    between atoms: C5_9  and  C6_10 
REMARK    6  A    between atoms: C6_10  and  C7_11 
REMARK    7  A    between atoms: C7_11  and  C8_12 
REMARK    8  A    between atoms: C8_12  and  C9_13 
REMARK    9  A    between atoms: C9_13  and  N4_17 
ROOT
HETATM    1  C9  UNL     1      -0.726   0.368  -0.512  1.00  0.00     0.074 C 
HETATM    2  N3  UNL     1      -0.398   1.118   0.509  1.00  0.00    -0.389 N 
ATOM      3  H31 UNL     1      -0.985   1.113   1.343  1.00  0.00     0.157 HD
ATOM      4  H32 UNL     1       0.459   1.664   0.419  1.00  0.00     0.157 HD
ENDROOT
BRANCH   1   5
HETATM    5  C8  UNL     1       0.117   0.375  -1.710  1.00  0.00     0.076 C 
BRANCH   5   6
HETATM    6  C7  UNL     1       0.588  -0.935  -2.190  1.00  0.00     0.007 C 
BRANCH   6   7
HETATM    7  C6  UNL     1       1.404  -1.797  -1.334  1.00  0.00     0.002 C 
BRANCH   7   8
HETATM    8  C5  UNL     1       2.746  -1.415  -0.916  1.00  0.00     0.020 C 
BRANCH   8   9
HETATM    9  C4  UNL     1       2.972  -0.213  -0.102  1.00  0.00     0.122 C 
BRANCH   9  10
HETATM   10  N2  UNL     1       4.431  -0.141   0.178  1.00  0.00    -0.367 N 
ATOM     11  H2  UNL     1       5.087  -0.840  -0.170  1.00  0.00     0.161 HD
BRANCH  10  12
HETATM   12  C3  UNL     1       4.848   0.967   0.962  1.00  0.00     0.169 C 
HETATM   13  S1  UNL     1       3.788   2.077   1.510  1.00  0.00    -0.041 SA
BRANCH  12  14
HETATM   14  N1  UNL     1       6.249   1.070   1.252  1.00  0.00    -0.367 N 
HETATM   15  C1  UNL     1       6.676   2.207   2.056  1.00  0.00     0.151 C 
HETATM   16  C2  UNL     1       7.190   0.082   0.764  1.00  0.00     0.151 C 
ENDBRANCH  12  14
ENDBRANCH  10  12
ENDBRANCH   9  10
ENDBRANCH   8   9
ENDBRANCH   7   8
ENDBRANCH   6   7
ENDBRANCH   5   6
ENDBRANCH   1   5
BRANCH   1  17
HETATM   17  N4  UNL     1      -1.905  -0.384  -0.388  1.00  0.00    -0.346 N 
HETATM   18  C10 UNL     1      -2.647  -1.093  -1.413  1.00  0.00     0.154 C 
HETATM   19  C11 UNL     1      -4.077  -1.079  -0.881  1.00  0.00     0.259 C 
HETATM   20  N5  UNL     1      -4.015  -0.293   0.299  1.00  0.00    -0.046 N 
HETATM   21  C12 UNL     1      -5.040  -0.583   1.271  1.00  0.00     0.265 C 
HETATM   22  C15 UNL     1      -4.011   1.133   0.038  1.00  0.00     0.265 C 
HETATM   23  C16 UNL     1      -2.692  -0.620   0.847  1.00  0.00     0.363 C 
HETATM   24  C13 UNL     1      -6.357  -0.081   0.735  1.00  0.00     0.195 C 
HETATM   25  O1  UNL     1      -6.284   1.320   0.685  1.00  0.00    -0.388 OA
HETATM   26  C14 UNL     1      -5.387   1.638  -0.334  1.00  0.00     0.195 C 
ENDBRANCH   1  17
TORSDOF 9
