REMARK  6 active torsions:
REMARK  status: ('A' for Active; 'I' for Inactive)
REMARK       I    between atoms: N1_4  and  C4_5 
REMARK       I    between atoms: C4_5  and  N2_7 
REMARK    1  A    between atoms: N2_7  and  N3_9 
REMARK    2  A    between atoms: C10_16  and  C11_17 
REMARK    3  A    between atoms: C11_17  and  C12_18 
REMARK    4  A    between atoms: C12_18  and  N4_19 
REMARK    5  A    between atoms: N4_19  and  C15_22 
REMARK    6  A    between atoms: C15_22  and  N5_23 
ROOT
HETATM    1  C1  UNL     1       0.498   1.534  -0.261  1.00  0.00     0.015 C 
HETATM    2  C2  UNL     1       0.601   0.451   0.803  1.00  0.00     0.037 C 
HETATM    3  C3  UNL     1       1.901   0.560   1.499  1.00  0.00     0.135 C 
HETATM    4  N1  UNL     1       2.952  -0.195   0.855  1.00  0.00    -0.330 N 
HETATM    5  C4  UNL     1       4.253   0.394   0.623  1.00  0.00     0.342 C 
HETATM    6  O1  UNL     1       4.363   1.578   1.002  1.00  0.00    -0.245 OA
HETATM    7  N2  UNL     1       5.320  -0.303   0.018  1.00  0.00    -0.168 N 
ATOM      8  H2  UNL     1       5.140  -1.266  -0.265  1.00  0.00     0.198 HD
HETATM    9  C8  UNL     1       2.673  -1.537   0.465  1.00  0.00     0.162 C 
HETATM   10  C9  UNL     1       1.299  -1.778  -0.084  1.00  0.00     0.175 A 
HETATM   11  O2  UNL     1       0.861  -1.005  -1.150  1.00  0.00    -0.367 OA
HETATM   12  C10 UNL     1       0.264  -0.862   0.195  1.00  0.00     0.095 A 
ENDROOT
BRANCH  12  13
HETATM   13  C11 UNL     1      -1.164  -1.366   0.211  1.00  0.00     0.069 C 
BRANCH  13  14
HETATM   14  C12 UNL     1      -2.087  -0.456  -0.503  1.00  0.00     0.241 C 
BRANCH  14  15
HETATM   15  N4  UNL     1      -3.483  -0.934  -0.519  1.00  0.00    -0.051 N 
HETATM   16  C13 UNL     1      -3.882  -0.898  -1.892  1.00  0.00     0.274 C 
HETATM   17  C14 UNL     1      -3.474  -2.383  -0.196  1.00  0.00     0.274 C 
BRANCH  15  18
HETATM   18  C15 UNL     1      -4.233  -0.283   0.454  1.00  0.00     0.471 C 
BRANCH  18  19
HETATM   19  N5  UNL     1      -5.318   0.582   0.134  1.00  0.00    -0.047 N 
HETATM   20  C16 UNL     1      -6.548  -0.131  -0.176  1.00  0.00     0.274 C 
HETATM   21  C17 UNL     1      -5.087   1.765  -0.602  1.00  0.00     0.240 C 
HETATM   22  C18 UNL     1      -5.074   2.657   0.613  1.00  0.00     0.056 C 
HETATM   23  C19 UNL     1      -5.606   1.433   1.309  1.00  0.00     0.240 C 
ENDBRANCH  18  19
ENDBRANCH  15  18
ENDBRANCH  14  15
ENDBRANCH  13  14
ENDBRANCH  12  13
BRANCH   7  24
HETATM   24  N3  UNL     1       6.574   0.191  -0.225  1.00  0.00     0.004 N 
HETATM   25  C5  UNL     1       7.560  -0.822   0.170  1.00  0.00     0.301 C 
HETATM   26  C6  UNL     1       6.900   1.407   0.432  1.00  0.00     0.301 C 
HETATM   27  C7  UNL     1       6.745   0.418  -1.663  1.00  0.00     0.301 C 
ENDBRANCH   7  24
TORSDOF 6
