REMARK  10 active torsions:
REMARK  status: ('A' for Active; 'I' for Inactive)
REMARK    1  A    between atoms: C2_2  and  C4_4 
REMARK    2  A    between atoms: C4_4  and  N1_5 
REMARK    3  A    between atoms: N1_5  and  C5_6 
REMARK    4  A    between atoms: N1_5  and  S2_41 
REMARK    5  A    between atoms: C5_6  and  C6_7 
REMARK    6  A    between atoms: C6_7  and  O1_8 
REMARK    7  A    between atoms: C6_7  and  C7_10 
REMARK    8  A    between atoms: N3_25  and  S1_26 
REMARK    9  A    between atoms: S1_26  and  N4_29 
REMARK   10  A    between atoms: S2_41  and  C26_44 
ROOT
HETATM    1  C7  UNL     1       2.146  -0.358  -1.277  1.00  0.00     0.123 C 
HETATM    2  C8  UNL     1       1.680  -1.691  -0.673  1.00  0.00     0.130 C 
HETATM    3  C9  UNL     1       1.475  -2.690  -1.764  1.00  0.00     0.219 C 
HETATM    4  O2  UNL     1       2.123  -2.538  -2.833  1.00  0.00    -0.274 OA
HETATM    5  N2  UNL     1       0.585  -3.789  -1.633  1.00  0.00    -0.361 N 
ATOM      6  H2  UNL     1       0.073  -4.095  -2.460  1.00  0.00     0.162 HD
HETATM    7  C10 UNL     1       0.364  -4.500  -0.391  1.00  0.00     0.122 C 
HETATM    8  C11 UNL     1      -0.966  -5.224  -0.390  1.00  0.00     0.020 C 
HETATM    9  C12 UNL     1      -2.038  -4.219  -0.128  1.00  0.00     0.002 C 
HETATM   10  C13 UNL     1      -3.407  -4.640  -0.547  1.00  0.00     0.000 C 
HETATM   11  C14 UNL     1      -3.969  -3.599  -1.491  1.00  0.00     0.000 C 
HETATM   12  C15 UNL     1      -5.180  -2.914  -0.942  1.00  0.00     0.000 C 
HETATM   13  C16 UNL     1      -4.919  -2.044   0.241  1.00  0.00     0.001 C 
HETATM   14  C17 UNL     1      -3.837  -1.049   0.085  1.00  0.00     0.015 C 
HETATM   15  C18 UNL     1      -4.352   0.360  -0.229  1.00  0.00     0.108 C 
HETATM   16  N3  UNL     1      -3.242   1.236  -0.007  1.00  0.00    -0.197 NA
HETATM   17  C23 UNL     1      -2.355   1.356  -1.118  1.00  0.00     0.117 C 
HETATM   18  C24 UNL     1      -0.927   1.068  -0.632  1.00  0.00     0.118 C 
HETATM   19  C25 UNL     1       0.020   1.018  -1.769  1.00  0.00     0.219 C 
HETATM   20  O6  UNL     1      -0.127   2.004  -2.593  1.00  0.00    -0.274 OA
HETATM   21  N5  UNL     1       1.001   0.103  -2.064  1.00  0.00    -0.353 N 
ATOM     22  H5  UNL     1       0.918  -0.327  -2.985  1.00  0.00     0.163 HD
ENDROOT
BRANCH   1  23
HETATM   23  C6  UNL     1       2.526   0.629  -0.271  1.00  0.00     0.155 C 
BRANCH  23  24
HETATM   24  C5  UNL     1       3.412   0.345   0.857  1.00  0.00     0.141 C 
BRANCH  24  25
HETATM   25  N1  UNL     1       4.835   0.424   0.723  1.00  0.00    -0.203 NA
BRANCH  25  26
HETATM   26  C4  UNL     1       5.338   1.047   1.946  1.00  0.00     0.111 C 
BRANCH  26  27
HETATM   27  C2  UNL     1       5.865   2.424   1.783  1.00  0.00    -0.009 C 
HETATM   28  C1  UNL     1       6.990   2.612   0.811  1.00  0.00     0.011 C 
HETATM   29  C3  UNL     1       4.820   3.502   1.617  1.00  0.00     0.011 C 
ENDBRANCH  26  27
ENDBRANCH  25  26
BRANCH  25  30
HETATM   30  S2  UNL     1       5.533  -1.108   0.576  1.00  0.00     0.251 S 
HETATM   31  O7  UNL     1       5.142  -2.027   1.712  1.00  0.00    -0.205 OA
HETATM   32  O8  UNL     1       5.115  -1.865  -0.680  1.00  0.00    -0.205 OA
BRANCH  30  33
HETATM   33  C26 UNL     1       7.299  -1.127   0.483  1.00  0.00     0.131 A 
HETATM   34  C27 UNL     1       8.109  -1.453  -0.580  1.00  0.00     0.120 A 
HETATM   35  N6  UNL     1       9.389  -1.388  -0.407  1.00  0.00    -0.367 N 
HETATM   36  C28 UNL     1       9.880  -1.017   0.765  1.00  0.00     0.139 A 
ATOM     37  H6  UNL     1      10.020  -1.623  -1.173  1.00  0.00     0.165 HD
HETATM   38  S3  UNL     1       8.466  -0.743   1.679  1.00  0.00    -0.070 SA
ENDBRANCH  30  33
ENDBRANCH  25  30
ENDBRANCH  24  25
ENDBRANCH  23  24
BRANCH  23  39
HETATM   39  O1  UNL     1       2.779   1.873  -0.878  1.00  0.00    -0.392 OA
ATOM     40  H1  UNL     1       2.203   2.058  -1.611  1.00  0.00     0.210 HD
ENDBRANCH  23  39
ENDBRANCH   1  23
BRANCH  16  41
HETATM   41  S1  UNL     1      -3.688   2.678   0.740  1.00  0.00     0.283 S 
HETATM   42  O3  UNL     1      -2.415   3.478   0.993  1.00  0.00    -0.194 OA
HETATM   43  O4  UNL     1      -4.192   2.338   2.146  1.00  0.00    -0.194 OA
BRANCH  41  44
HETATM   44  N4  UNL     1      -4.764   3.684  -0.084  1.00  0.00    -0.194 NA
HETATM   45  C19 UNL     1      -6.058   3.189  -0.375  1.00  0.00     0.134 C 
HETATM   46  C20 UNL     1      -6.954   3.096   0.846  1.00  0.00     0.183 C 
HETATM   47  O5  UNL     1      -6.573   3.942   1.857  1.00  0.00    -0.389 OA
HETATM   48  C21 UNL     1      -6.004   5.127   1.465  1.00  0.00     0.183 C 
HETATM   49  C22 UNL     1      -4.864   5.005   0.502  1.00  0.00     0.134 C 
ENDBRANCH  41  44
ENDBRANCH  16  41
TORSDOF 10
