REMARK  11 active torsions:
REMARK  status: ('A' for Active; 'I' for Inactive)
REMARK    1  A    between atoms: N1_2  and  C2_4 
REMARK    2  A    between atoms: C2_4  and  C4_6 
REMARK       I    between atoms: C4_6  and  N2_8 
REMARK    3  A    between atoms: N2_8  and  C5_10 
REMARK    4  A    between atoms: C5_10  and  C6_11 
REMARK    5  A    between atoms: C5_10  and  C13_18 
REMARK       I    between atoms: C13_18  and  N3_20 
REMARK    6  A    between atoms: C19_27  and  C20_28 
REMARK    7  A    between atoms: C20_28  and  N4_29 
REMARK    8  A    between atoms: C20_28  and  C30_42 
REMARK    9  A    between atoms: N4_29  and  C21_32 
REMARK   10  A    between atoms: C21_32  and  C23_35 
REMARK   11  A    between atoms: C23_35  and  C24_36 
ROOT
HETATM    1  C21 UNL     1       4.730   0.146   0.278  1.00  0.00     0.296 C 
HETATM    2  C22 UNL     1       4.277  -1.257   0.309  1.00  0.00     0.092 C 
HETATM    3  N5  UNL     1       3.903  -2.331   0.309  1.00  0.00    -0.195 NA
ENDROOT
BRANCH   1   4
HETATM    4  N4  UNL     1       4.262   0.781  -0.959  1.00  0.00    -0.045 N 
ATOM      5  H42 UNL     1       4.697   0.362  -1.781  1.00  0.00     0.279 HD
ATOM      6  H41 UNL     1       4.627   1.729  -1.053  1.00  0.00     0.279 HD
BRANCH   4   7
HETATM    7  C20 UNL     1       2.789   0.757  -1.056  1.00  0.00     0.285 C 
BRANCH   7   8
HETATM    8  C19 UNL     1       2.175   1.837  -0.350  1.00  0.00     0.071 C 
HETATM    9  C14 UNL     1       0.753   1.840   0.006  1.00  0.00    -0.004 C 
HETATM   10  N3  UNL     1      -0.329   1.069  -0.266  1.00  0.00    -0.332 N 
HETATM   11  C15 UNL     1       0.275   3.333   0.227  1.00  0.00     0.053 C 
HETATM   12  C13 UNL     1      -0.728  -0.233  -0.515  1.00  0.00     0.248 C 
ATOM     13  H3  UNL     1      -1.152   1.670  -0.299  1.00  0.00     0.168 HD
HETATM   14  O2  UNL     1      -0.080  -1.257  -0.656  1.00  0.00    -0.271 OA
HETATM   15  C16 UNL     1      -0.069   3.825  -1.132  1.00  0.00     0.006 C 
HETATM   16  C17 UNL     1       1.144   3.525  -2.019  1.00  0.00     0.001 C 
HETATM   17  C18 UNL     1       2.360   3.180  -1.221  1.00  0.00     0.013 C 
BRANCH  12  18
HETATM   18  C5  UNL     1      -2.255  -0.443  -0.602  1.00  0.00     0.200 C 
BRANCH  18  19
HETATM   19  N2  UNL     1      -2.646  -1.631  -1.173  1.00  0.00    -0.339 N 
HETATM   20  C4  UNL     1      -3.922  -2.075  -1.612  1.00  0.00     0.264 C 
HETATM   21  O1  UNL     1      -4.896  -1.247  -1.416  1.00  0.00    -0.266 OA
ATOM     22  H2  UNL     1      -1.893  -2.307  -1.303  1.00  0.00     0.164 HD
BRANCH  20  23
HETATM   23  C2  UNL     1      -4.228  -3.343  -2.251  1.00  0.00     0.069 C 
HETATM   24  C3  UNL     1      -3.152  -4.046  -2.956  1.00  0.00     0.074 C 
BRANCH  23  25
HETATM   25  N1  UNL     1      -5.337  -4.127  -1.789  1.00  0.00    -0.393 N 
HETATM   26  C1  UNL     1      -4.936  -5.179  -0.872  1.00  0.00     0.146 C 
ATOM     27  H1  UNL     1      -6.303  -3.963  -2.074  1.00  0.00     0.159 HD
ENDBRANCH  23  25
ENDBRANCH  20  23
ENDBRANCH  18  19
BRANCH  18  28
HETATM   28  C6  UNL     1      -2.670   0.064   0.706  1.00  0.00     0.010 C 
HETATM   29  C7  UNL     1      -3.904   0.534   1.219  1.00  0.00    -0.081 C 
HETATM   30  C8  UNL     1      -4.513   1.738   0.520  1.00  0.00     0.034 C 
HETATM   31  C12 UNL     1      -4.969  -0.268   1.854  1.00  0.00     0.034 C 
HETATM   32  C9  UNL     1      -5.609   2.285   1.399  1.00  0.00     0.004 C 
HETATM   33  C10 UNL     1      -5.422   1.941   2.849  1.00  0.00     0.001 C 
HETATM   34  C11 UNL     1      -5.469   0.465   3.111  1.00  0.00     0.004 C 
ENDBRANCH  18  28
ENDBRANCH  12  18
ENDBRANCH   7   8
BRANCH   7  35
HETATM   35  C30 UNL     1       2.619   0.329  -2.430  1.00  0.00     0.262 C 
HETATM   36  N6  UNL     1       2.616   1.151  -3.590  1.00  0.00    -0.060 NA
HETATM   37  O3  UNL     1       2.464  -0.911  -2.731  1.00  0.00    -0.275 OA
ENDBRANCH   7  35
ENDBRANCH   4   7
ENDBRANCH   1   4
BRANCH   1  38
HETATM   38  C23 UNL     1       6.229   0.083   0.281  1.00  0.00     0.086 C 
BRANCH  38  39
HETATM   39  C24 UNL     1       6.879  -0.669   1.372  1.00  0.00    -0.055 A 
HETATM   40  C25 UNL     1       7.280  -0.180   2.565  1.00  0.00     0.007 A 
HETATM   41  C26 UNL     1       7.978  -1.002   3.467  1.00  0.00     0.001 A 
HETATM   42  C27 UNL     1       8.286  -2.313   3.213  1.00  0.00     0.000 A 
HETATM   43  C28 UNL     1       7.877  -2.805   2.000  1.00  0.00     0.001 A 
HETATM   44  C29 UNL     1       7.195  -2.021   1.106  1.00  0.00     0.007 A 
ENDBRANCH  38  39
ENDBRANCH   1  38
TORSDOF 11
