REMARK  16 active torsions:
REMARK  status: ('A' for Active; 'I' for Inactive)
REMARK    1  A    between atoms: C2_2  and  C3_3 
REMARK    2  A    between atoms: C3_3  and  C4_4 
REMARK    3  A    between atoms: C4_4  and  C5_5 
REMARK    4  A    between atoms: C5_5  and  O1_6 
REMARK    5  A    between atoms: O1_6  and  C6_7 
REMARK       I    between atoms: C6_7  and  N1_9 
REMARK    6  A    between atoms: N2_12  and  C9_13 
REMARK    7  A    between atoms: C9_13  and  O3_14 
REMARK    8  A    between atoms: C9_13  and  C10_16 
REMARK    9  A    between atoms: C10_16  and  C11_17 
REMARK   10  A    between atoms: C10_16  and  N4_27 
REMARK   11  A    between atoms: C11_17  and  C12_18 
REMARK   12  A    between atoms: C12_18  and  C13_19 
REMARK   13  A    between atoms: C13_19  and  N3_20 
REMARK       I    between atoms: N3_20  and  C14_22 
REMARK   14  A    between atoms: C14_22  and  C15_24 
REMARK       I    between atoms: N4_27  and  C16_29 
REMARK   15  A    between atoms: C16_29  and  C17_31 
REMARK   16  A    between atoms: C22_39  and  C23_40 
ROOT
HETATM    1  C10 UNL     1      -1.478   1.670  -0.081  1.00  0.00     0.063 C 
ENDROOT
BRANCH   1   2
HETATM    2  C9  UNL     1      -0.314   1.658  -0.949  1.00  0.00     0.161 C 
BRANCH   2   3
HETATM    3  N2  UNL     1       1.027   1.942  -0.658  1.00  0.00    -0.357 N 
HETATM    4  C8  UNL     1       1.662   2.207   0.592  1.00  0.00     0.145 C 
HETATM    5  C7  UNL     1       3.132   1.759   0.567  1.00  0.00     0.148 C 
HETATM    6  N1  UNL     1       3.378   0.712  -0.391  1.00  0.00    -0.325 N 
HETATM    7  C6  UNL     1       4.322  -0.357  -0.167  1.00  0.00     0.362 C 
HETATM    8  C27 UNL     1       2.699   0.653  -1.696  1.00  0.00     0.148 C 
HETATM    9  O2  UNL     1       4.478  -1.263  -1.044  1.00  0.00    -0.238 OA
HETATM   10  C26 UNL     1       1.976   1.989  -1.803  1.00  0.00     0.145 C 
BRANCH   7  11
HETATM   11  O1  UNL     1       5.074  -0.441   0.966  1.00  0.00    -0.304 OA
BRANCH  11  12
HETATM   12  C5  UNL     1       6.029  -1.413   1.297  1.00  0.00     0.180 C 
BRANCH  12  13
HETATM   13  C4  UNL     1       7.158  -1.354   0.300  1.00  0.00     0.027 C 
BRANCH  13  14
HETATM   14  C3  UNL     1       8.227  -2.394   0.605  1.00  0.00     0.002 C 
BRANCH  14  15
HETATM   15  C2  UNL     1       8.821  -2.180   1.970  1.00  0.00    -0.004 C 
HETATM   16  C1  UNL     1       9.462  -0.817   2.082  1.00  0.00     0.005 C 
ENDBRANCH  14  15
ENDBRANCH  13  14
ENDBRANCH  12  13
ENDBRANCH  11  12
ENDBRANCH   7  11
ENDBRANCH   2   3
BRANCH   2  17
HETATM   17  O3  UNL     1      -0.544   1.326  -2.189  1.00  0.00    -0.345 OA
ATOM     18  H3  UNL     1      -1.453   1.133  -2.386  1.00  0.00     0.219 HD
ENDBRANCH   2  17
ENDBRANCH   1   2
BRANCH   1  19
HETATM   19  C11 UNL     1      -1.692   2.755   0.896  1.00  0.00     0.063 C 
BRANCH  19  20
HETATM   20  C12 UNL     1      -1.928   4.134   0.357  1.00  0.00     0.026 C 
BRANCH  20  21
HETATM   21  C13 UNL     1      -0.910   4.740  -0.518  1.00  0.00     0.123 C 
BRANCH  21  22
HETATM   22  N3  UNL     1      -1.317   6.079  -0.945  1.00  0.00    -0.352 N 
HETATM   23  C14 UNL     1      -0.472   6.829  -1.796  1.00  0.00     0.318 C 
HETATM   24  O4  UNL     1       0.604   6.348  -2.172  1.00  0.00    -0.261 OA
ATOM     25  H3  UNL     1      -2.205   6.470  -0.631  1.00  0.00     0.162 HD
BRANCH  23  26
HETATM   26  C15 UNL     1      -0.852   8.165  -2.238  1.00  0.00     0.269 C 
HETATM   27  O5  UNL     1      -1.963   8.648  -1.845  1.00  0.00    -0.640 OA
HETATM   28  O6  UNL     1      -0.073   8.934  -3.062  1.00  0.00    -0.640 OA
ENDBRANCH  23  26
ENDBRANCH  21  22
ENDBRANCH  20  21
ENDBRANCH  19  20
ENDBRANCH   1  19
BRANCH   1  29
HETATM   29  N4  UNL     1      -2.299   0.493   0.020  1.00  0.00    -0.321 N 
HETATM   30  C16 UNL     1      -1.921  -0.768  -0.429  1.00  0.00     0.279 C 
HETATM   31  O7  UNL     1      -0.811  -0.997  -0.935  1.00  0.00    -0.265 OA
ATOM     32  H4  UNL     1      -3.219   0.590   0.449  1.00  0.00     0.169 HD
BRANCH  30  33
HETATM   33  C17 UNL     1      -2.833  -1.939  -0.328  1.00  0.00     0.143 A 
HETATM   34  N5  UNL     1      -4.070  -2.002   0.078  1.00  0.00    -0.349 N 
HETATM   35  C18 UNL     1      -4.719  -3.153   0.059  1.00  0.00     0.023 A 
ATOM     36  H5  UNL     1      -4.539  -1.160   0.412  1.00  0.00     0.166 HD
HETATM   37  C19 UNL     1      -4.019  -4.238  -0.401  1.00  0.00     0.007 A 
HETATM   38  C25 UNL     1      -6.178  -3.272   0.498  1.00  0.00     0.062 C 
HETATM   39  S1  UNL     1      -2.497  -3.550  -0.774  1.00  0.00    -0.069 SA
HETATM   40  C20 UNL     1      -4.606  -5.629  -0.488  1.00  0.00     0.048 C 
HETATM   41  C21 UNL     1      -6.056  -5.353  -0.919  1.00  0.00     0.010 C 
HETATM   42  C22 UNL     1      -6.644  -4.638   0.279  1.00  0.00    -0.009 C 
BRANCH  42  43
HETATM   43  C23 UNL     1      -8.162  -4.600   0.041  1.00  0.00     0.000 C 
HETATM   44  C24 UNL     1      -8.884  -3.900   1.171  1.00  0.00     0.005 C 
ENDBRANCH  42  43
ENDBRANCH  30  33
ENDBRANCH   1  29
TORSDOF 16
