REMARK  0 active torsions:
REMARK  status: ('A' for Active; 'I' for Inactive)
REMARK       I    between atoms: C3_6  and  N2_7 
ROOT
HETATM    1  O1  UNL     1       4.337  -0.918   1.422  1.00  0.00    -0.271 OA
HETATM    2  C1  UNL     1       3.479  -0.676   0.516  1.00  0.00     0.243 C 
HETATM    3  C2  UNL     1       2.328  -1.609   0.400  1.00  0.00     0.241 C 
HETATM    4  N1  UNL     1       1.063  -0.956   0.320  1.00  0.00    -0.217 N 
ATOM      5  H1  UNL     1       0.347  -1.432   0.869  1.00  0.00     0.178 HD
HETATM    6  C3  UNL     1       0.604   0.089  -0.277  1.00  0.00     0.680 C 
HETATM    7  N2  UNL     1      -0.779   0.385  -0.070  1.00  0.00    -0.215 N 
HETATM    8  C4  UNL     1      -1.327   0.628   1.261  1.00  0.00     0.160 C 
HETATM    9  C5  UNL     1      -2.354  -0.445   1.528  1.00  0.00     0.134 C 
HETATM   10  N3  UNL     1      -3.165  -0.764   0.403  1.00  0.00    -0.418 N 
ATOM     11  H3  UNL     1      -3.734  -1.610   0.364  1.00  0.00     0.153 HD
HETATM   12  C6  UNL     1      -3.129   0.180  -0.667  1.00  0.00     0.134 C 
HETATM   13  C7  UNL     1      -1.726   0.462  -1.169  1.00  0.00     0.160 C 
HETATM   14  N4  UNL     1       1.349   0.965  -1.115  1.00  0.00    -0.141 N 
ATOM     15  H4  UNL     1       0.811   1.508  -1.791  1.00  0.00     0.189 HD
HETATM   16  C8  UNL     1       2.775   1.174  -1.120  1.00  0.00     0.341 C 
HETATM   17  O2  UNL     1       3.212   2.025  -1.905  1.00  0.00    -0.246 OA
HETATM   18  N5  UNL     1       3.727   0.480  -0.293  1.00  0.00    -0.277 N 
ATOM     19  H5  UNL     1       4.677   0.850  -0.282  1.00  0.00     0.173 HD
ENDROOT
TORSDOF 0
