REMARK  6 active torsions:
REMARK  status: ('A' for Active; 'I' for Inactive)
REMARK    1  A    between atoms: N1_2  and  C3_4 
REMARK    2  A    between atoms: C3_4  and  C4_5 
REMARK    3  A    between atoms: C4_5  and  N2_6 
REMARK    4  A    between atoms: C5_8  and  C6_9 
REMARK    5  A    between atoms: C10_19  and  C11_20 
REMARK    6  A    between atoms: C12_21  and  O2_22 
ROOT
HETATM    1  C6  UNL     1       0.031   1.357  -0.127  1.00  0.00     0.047 A 
HETATM    2  C7  UNL     1       0.392   2.629   0.118  1.00  0.00     0.134 A 
HETATM    3  N3  UNL     1       1.721   3.007  -0.169  1.00  0.00    -0.082 NA
HETATM    4  N4  UNL     1      -0.487   3.602   0.648  1.00  0.00    -0.296 N 
ATOM      5  H4  UNL     1      -0.158   4.553   0.813  1.00  0.00     0.171 HD
HETATM    6  C8  UNL     1      -1.812   3.253   0.945  1.00  0.00     0.326 A 
HETATM    7  O1  UNL     1      -2.647   4.101   1.428  1.00  0.00    -0.247 OA
HETATM    8  N5  UNL     1      -2.225   1.924   0.698  1.00  0.00    -0.308 N 
ATOM      9  H5  UNL     1      -3.188   1.661   0.909  1.00  0.00     0.170 HD
HETATM   10  C9  UNL     1      -1.330   0.921   0.155  1.00  0.00     0.052 A 
HETATM   11  C10 UNL     1      -1.770  -0.281  -0.107  1.00  0.00     0.052 C 
ENDROOT
BRANCH   1  12
HETATM   12  C5  UNL     1       1.026   0.470  -0.665  1.00  0.00     0.100 C 
HETATM   13  N2  UNL     1       0.986  -0.743  -0.983  1.00  0.00    -0.396 N 
ATOM     14  H2  UNL     1       0.087  -1.203  -0.840  1.00  0.00     0.158 HD
BRANCH  13  15
HETATM   15  C4  UNL     1       2.010  -1.563  -1.511  1.00  0.00     0.149 C 
BRANCH  15  16
HETATM   16  C3  UNL     1       3.396  -1.028  -1.406  1.00  0.00     0.290 C 
BRANCH  16  17
HETATM   17  N1  UNL     1       3.828  -0.784  -0.065  1.00  0.00     0.081 N 
HETATM   18  C1  UNL     1       5.197  -0.259  -0.151  1.00  0.00     0.309 C 
HETATM   19  C2  UNL     1       3.857  -1.940   0.782  1.00  0.00     0.309 C 
ENDBRANCH  16  17
ENDBRANCH  15  16
ENDBRANCH  13  15
ENDBRANCH   1  12
BRANCH  11  20
HETATM   20  C11 UNL     1      -3.130  -0.702   0.193  1.00  0.00     0.085 A 
HETATM   21  C12 UNL     1      -3.610  -0.782   1.495  1.00  0.00     0.160 A 
HETATM   22  N6  UNL     1      -4.886  -1.152   1.689  1.00  0.00    -0.288 N 
HETATM   23  C13 UNL     1      -5.726  -1.451   0.702  1.00  0.00     0.329 A 
ATOM     24  H6  UNL     1      -5.231  -1.207   2.647  1.00  0.00     0.172 HD
HETATM   25  O3  UNL     1      -6.920  -1.798   0.886  1.00  0.00    -0.247 OA
HETATM   26  N7  UNL     1      -5.305  -1.388  -0.567  1.00  0.00    -0.275 N 
HETATM   27  C14 UNL     1      -4.036  -1.021  -0.810  1.00  0.00     0.264 A 
ATOM     28  H7  UNL     1      -5.936  -1.615  -1.335  1.00  0.00     0.173 HD
HETATM   29  O4  UNL     1      -3.653  -0.966  -2.005  1.00  0.00    -0.267 OA
BRANCH  21  30
HETATM   30  O2  UNL     1      -2.817  -0.496   2.602  1.00  0.00    -0.345 OA
ATOM     31  H2  UNL     1      -3.145  -0.551   3.492  1.00  0.00     0.219 HD
ENDBRANCH  21  30
ENDBRANCH  11  20
TORSDOF 6
