REMARK  0 active torsions:
REMARK  status: ('A' for Active; 'I' for Inactive)
ROOT
HETATM    1  C1  UNL     1      -2.020  -1.763  -0.717  1.00  0.00     0.045 C 
HETATM    2  C2  UNL     1      -2.047  -0.607  -0.092  1.00  0.00     0.057 A 
HETATM    3  N1  UNL     1      -3.224  -0.165   0.489  1.00  0.00    -0.298 N 
ATOM      4  H1  UNL     1      -4.129  -0.631   0.427  1.00  0.00     0.187 HD
HETATM    5  N2  UNL     1      -2.984   0.947   1.129  1.00  0.00    -0.265 N 
ATOM      6  H2  UNL     1      -3.667   1.495   1.652  1.00  0.00     0.190 HD
HETATM    7  C3  UNL     1      -1.684   1.246   0.981  1.00  0.00     0.274 A 
HETATM    8  O1  UNL     1      -1.229   2.285   1.525  1.00  0.00    -0.266 OA
HETATM    9  C4  UNL     1      -1.045   0.277   0.198  1.00  0.00     0.093 A 
HETATM   10  C5  UNL     1       0.171   0.368  -0.236  1.00  0.00     0.123 C 
HETATM   11  N3  UNL     1       0.991   1.450   0.326  1.00  0.00    -0.303 N 
ATOM     12  H3  UNL     1       0.557   2.367   0.429  1.00  0.00     0.171 HD
HETATM   13  C6  UNL     1       2.370   1.310   0.745  1.00  0.00     0.328 C 
HETATM   14  O2  UNL     1       2.790   2.175   1.561  1.00  0.00    -0.247 OA
HETATM   15  N4  UNL     1       3.283   0.289   0.319  1.00  0.00    -0.260 N 
ATOM     16  H4  UNL     1       4.253   0.463   0.583  1.00  0.00     0.175 HD
HETATM   17  C7  UNL     1       3.085  -0.932  -0.410  1.00  0.00     0.331 C 
HETATM   18  O3  UNL     1       3.990  -1.798  -0.346  1.00  0.00    -0.246 OA
HETATM   19  N5  UNL     1       1.911  -1.221  -1.206  1.00  0.00    -0.273 N 
ATOM     20  H5  UNL     1       1.946  -2.077  -1.759  1.00  0.00     0.173 HD
HETATM   21  C8  UNL     1       0.713  -0.459  -1.313  1.00  0.00     0.277 C 
HETATM   22  O4  UNL     1       0.069  -0.483  -2.406  1.00  0.00    -0.266 OA
ENDROOT
TORSDOF 0
