REMARK  4 active torsions:
REMARK  status: ('A' for Active; 'I' for Inactive)
REMARK    1  A    between atoms: C3_9  and  S2_10 
REMARK    2  A    between atoms: S2_10  and  C4_11 
REMARK    3  A    between atoms: C8_15  and  N4_16 
REMARK       I    between atoms: N4_16  and  C9_18 
REMARK    4  A    between atoms: C9_18  and  C10_20 
ROOT
HETATM    1  N1  UNL     1       7.198   3.795   1.015  1.00  0.00    -0.190 NA
HETATM    2  C1  UNL     1       7.225   2.643   0.832  1.00  0.00     0.121 C 
HETATM    3  C2  UNL     1       7.287   1.196   0.604  1.00  0.00     0.154 A 
HETATM    4  N2  UNL     1       8.394   0.548   0.572  1.00  0.00    -0.283 N 
ATOM      5  H2  UNL     1       9.268   1.055   0.711  1.00  0.00     0.188 HD
HETATM    6  N3  UNL     1       8.434  -0.727   0.369  1.00  0.00    -0.268 N 
ATOM      7  H3  UNL     1       9.247  -1.342   0.323  1.00  0.00     0.195 HD
HETATM    8  S1  UNL     1       6.812  -1.116   0.201  1.00  0.00     0.012 SA
HETATM    9  C3  UNL     1       6.124   0.432   0.405  1.00  0.00     0.103 A 
ENDROOT
BRANCH   9  10
HETATM   10  S2  UNL     1       4.472   1.072   0.398  1.00  0.00    -0.079 SA
BRANCH  10  11
HETATM   11  C4  UNL     1       3.247  -0.136   0.125  1.00  0.00     0.008 A 
HETATM   12  C5  UNL     1       3.442  -1.478  -0.063  1.00  0.00     0.019 A 
HETATM   13  C6  UNL     1       2.364  -2.341  -0.278  1.00  0.00     0.004 A 
HETATM   14  C7  UNL     1       1.069  -1.866  -0.306  1.00  0.00     0.029 A 
HETATM   15  C8  UNL     1       0.841  -0.542  -0.123  1.00  0.00     0.035 A 
HETATM   16  C16 UNL     1       1.931   0.294   0.088  1.00  0.00     0.048 A 
BRANCH  15  17
HETATM   17  N4  UNL     1      -0.453   0.037  -0.162  1.00  0.00    -0.327 N 
HETATM   18  C9  UNL     1      -1.586  -0.536  -0.734  1.00  0.00     0.226 C 
HETATM   19  O1  UNL     1      -1.627  -1.646  -1.306  1.00  0.00    -0.273 OA
ATOM     20  H4  UNL     1      -0.564   0.956   0.267  1.00  0.00     0.169 HD
BRANCH  18  21
HETATM   21  C10 UNL     1      -2.875   0.278  -0.645  1.00  0.00     0.078 C 
HETATM   22  C11 UNL     1      -3.137   0.461   0.820  1.00  0.00     0.014 C 
HETATM   23  C12 UNL     1      -4.493   1.098   1.033  1.00  0.00     0.001 C 
HETATM   24  C13 UNL     1      -5.537   0.193   0.400  1.00  0.00     0.000 C 
HETATM   25  C14 UNL     1      -5.286   0.221  -1.091  1.00  0.00     0.001 C 
HETATM   26  C15 UNL     1      -3.961  -0.438  -1.380  1.00  0.00     0.014 C 
ENDBRANCH  18  21
ENDBRANCH  15  17
ENDBRANCH  10  11
ENDBRANCH   9  10
TORSDOF 4
