REMARK  7 active torsions:
REMARK  status: ('A' for Active; 'I' for Inactive)
REMARK    1  A    between atoms: N1_2  and  C2_5 
REMARK    2  A    between atoms: C2_5  and  C3_6 
REMARK    3  A    between atoms: C3_6  and  N2_7 
REMARK    4  A    between atoms: N2_7  and  C4_9 
REMARK    5  A    between atoms: C4_9  and  N3_11 
REMARK    6  A    between atoms: N3_11  and  N4_13 
REMARK    7  A    between atoms: C5_15  and  C6_16 
ROOT
HETATM    1  N3  UNL     1       0.081   0.817  -1.095  1.00  0.00    -0.277 N 
ATOM      2  H3  UNL     1       0.365   0.917  -2.069  1.00  0.00     0.189 HD
ENDROOT
BRANCH   1   3
HETATM    3  C4  UNL     1       1.044   0.957  -0.063  1.00  0.00     0.186 C 
HETATM    4  S1  UNL     1       0.593   0.800   1.501  1.00  0.00    -0.040 SA
BRANCH   3   5
HETATM    5  N2  UNL     1       2.414   1.235  -0.328  1.00  0.00    -0.364 N 
ATOM      6  H2  UNL     1       2.710   1.337  -1.299  1.00  0.00     0.162 HD
BRANCH   5   7
HETATM    7  C3  UNL     1       3.399   1.378   0.705  1.00  0.00     0.149 C 
BRANCH   7   8
HETATM    8  C2  UNL     1       4.766   1.651   0.174  1.00  0.00     0.251 C 
BRANCH   8   9
HETATM    9  N1  UNL     1       5.183   0.553  -0.673  1.00  0.00    -0.077 N 
HETATM   10  C1  UNL     1       5.398  -0.658   0.064  1.00  0.00     0.267 C 
ATOM     11  H12 UNL     1       6.008   0.803  -1.218  1.00  0.00     0.276 HD
ATOM     12  H11 UNL     1       4.522   0.406  -1.436  1.00  0.00     0.276 HD
ENDBRANCH   8   9
ENDBRANCH   7   8
ENDBRANCH   5   7
ENDBRANCH   3   5
ENDBRANCH   1   3
BRANCH   1  13
HETATM   13  N4  UNL     1      -1.243   0.545  -0.790  1.00  0.00    -0.309 N 
HETATM   14  C5  UNL     1      -1.583  -0.619  -0.363  1.00  0.00     0.119 C 
ATOM     15  H4  UNL     1      -1.950   1.271  -0.905  1.00  0.00     0.186 HD
BRANCH  14  16
HETATM   16  C6  UNL     1      -2.915  -1.039  -0.009  1.00  0.00    -0.013 A 
HETATM   17  C7  UNL     1      -3.137  -2.347   0.449  1.00  0.00     0.013 A 
HETATM   18  C8  UNL     1      -4.388  -2.794   0.799  1.00  0.00     0.001 A 
HETATM   19  C9  UNL     1      -5.452  -1.934   0.699  1.00  0.00     0.001 A 
HETATM   20  C10 UNL     1      -5.256  -0.650   0.254  1.00  0.00     0.007 A 
HETATM   21  C11 UNL     1      -3.977  -0.201  -0.103  1.00  0.00    -0.050 A 
HETATM   22  C12 UNL     1      -3.838   1.183  -0.573  1.00  0.00     0.049 C 
ENDBRANCH  14  16
ENDBRANCH   1  13
TORSDOF 7
