REMARK  13 active torsions:
REMARK  status: ('A' for Active; 'I' for Inactive)
REMARK    1  A    between atoms: C3_3  and  C5_5 
REMARK    2  A    between atoms: C5_5  and  C6_6 
REMARK    3  A    between atoms: C6_6  and  C7_7 
REMARK    4  A    between atoms: C6_6  and  C15_18 
REMARK    5  A    between atoms: C7_7  and  O1_8 
REMARK    6  A    between atoms: C7_7  and  N1_10 
REMARK    7  A    between atoms: C10_13  and  C11_14 
REMARK    8  A    between atoms: C15_18  and  N2_19 
REMARK    9  A    between atoms: C15_18  and  C17_22 
REMARK       I    between atoms: C17_22  and  N3_24 
REMARK   10  A    between atoms: N3_24  and  C18_26 
REMARK   11  A    between atoms: C18_26  and  C19_27 
REMARK       I    between atoms: C19_27  and  N4_29 
REMARK   12  A    between atoms: N4_29  and  N5_31 
REMARK   13  A    between atoms: C20_33  and  C21_34 
ROOT
HETATM    1  C17 UNL     1       0.312   0.355  -1.123  1.00  0.00     0.245 C 
HETATM    2  O2  UNL     1       0.236   1.470  -0.495  1.00  0.00    -0.271 OA
HETATM    3  N3  UNL     1       1.195  -0.601  -0.650  1.00  0.00    -0.340 N 
ATOM      4  H3  UNL     1       1.221  -1.466  -1.190  1.00  0.00     0.163 HD
ENDROOT
BRANCH   1   5
HETATM    5  C15 UNL     1      -0.530   0.124  -2.323  1.00  0.00     0.203 C 
BRANCH   5   6
HETATM    6  C6  UNL     1      -1.619  -0.892  -2.197  1.00  0.00     0.006 C 
BRANCH   6   7
HETATM    7  C5  UNL     1      -1.165  -2.282  -1.831  1.00  0.00     0.074 C 
BRANCH   7   8
HETATM    8  C3  UNL     1      -2.239  -3.292  -2.220  1.00  0.00    -0.084 C 
HETATM    9  C2  UNL     1      -2.791  -4.055  -1.286  1.00  0.00    -0.028 C 
HETATM   10  C1  UNL     1      -3.837  -5.029  -1.699  1.00  0.00     0.036 C 
HETATM   11  C4  UNL     1      -2.692  -3.452  -3.621  1.00  0.00     0.043 C 
ENDBRANCH   7   8
ENDBRANCH   6   7
BRANCH   6  12
HETATM   12  C7  UNL     1      -2.866  -0.459  -1.576  1.00  0.00     0.143 C 
BRANCH  12  13
HETATM   13  O1  UNL     1      -3.791  -0.090  -2.455  1.00  0.00    -0.346 OA
ATOM     14  H1  UNL     1      -4.603   0.192  -2.051  1.00  0.00     0.219 HD
ENDBRANCH  12  13
BRANCH  12  15
HETATM   15  N1  UNL     1      -3.314  -0.341  -0.285  1.00  0.00    -0.362 N 
HETATM   16  C8  UNL     1      -4.686   0.185  -0.059  1.00  0.00     0.125 C 
HETATM   17  C9  UNL     1      -5.047   0.029   1.386  1.00  0.00     0.024 C 
HETATM   18  C10 UNL     1      -4.092   0.650   2.350  1.00  0.00    -0.012 C 
HETATM   19  C13 UNL     1      -2.697   0.580   1.829  1.00  0.00     0.024 C 
HETATM   20  C14 UNL     1      -2.639  -0.673   0.918  1.00  0.00     0.125 C 
BRANCH  18  21
HETATM   21  C11 UNL     1      -4.505   2.053   2.741  1.00  0.00     0.000 C 
HETATM   22  C12 UNL     1      -3.555   2.681   3.708  1.00  0.00     0.005 C 
ENDBRANCH  18  21
ENDBRANCH  12  15
ENDBRANCH   6  12
ENDBRANCH   5   6
BRANCH   5  23
HETATM   23  N2  UNL     1      -1.055   1.434  -2.682  1.00  0.00    -0.410 N 
HETATM   24  C16 UNL     1      -1.660   1.531  -3.970  1.00  0.00     0.141 C 
ATOM     25  H2  UNL     1      -0.994   2.233  -2.051  1.00  0.00     0.153 HD
ENDBRANCH   5  23
ENDBRANCH   1   5
BRANCH   3  26
HETATM   26  C18 UNL     1       2.096  -0.568   0.500  1.00  0.00     0.124 C 
HETATM   27  C25 UNL     1       1.318  -0.265   1.752  1.00  0.00     0.042 C 
HETATM   28  C26 UNL     1       2.201   0.220   2.881  1.00  0.00     0.013 C 
HETATM   29  C27 UNL     1       2.902  -0.983   3.510  1.00  0.00     0.074 C 
HETATM   30  S1  UNL     1       2.757  -2.406   2.393  1.00  0.00    -0.166 SA
HETATM   31  C28 UNL     1       2.743  -1.933   0.672  1.00  0.00     0.115 C 
BRANCH  26  32
HETATM   32  C19 UNL     1       3.124   0.453   0.275  1.00  0.00     0.265 C 
HETATM   33  O3  UNL     1       2.904   1.548  -0.272  1.00  0.00    -0.269 OA
HETATM   34  N4  UNL     1       4.471   0.223   0.686  1.00  0.00    -0.268 N 
ATOM     35  H4  UNL     1       4.676  -0.671   1.133  1.00  0.00     0.190 HD
BRANCH  34  36
HETATM   36  N5  UNL     1       5.520   1.105   0.531  1.00  0.00    -0.307 N 
HETATM   37  C20 UNL     1       5.699   1.956  -0.396  1.00  0.00     0.138 C 
ATOM     38  H5  UNL     1       6.242   1.070   1.250  1.00  0.00     0.186 HD
BRANCH  37  39
HETATM   39  C21 UNL     1       6.917   2.774  -0.309  1.00  0.00     0.064 A 
HETATM   40  C22 UNL     1       7.225   3.736  -1.247  1.00  0.00     0.118 A 
HETATM   41  N6  UNL     1       8.346   4.475  -1.154  1.00  0.00    -0.372 N 
HETATM   42  C23 UNL     1       9.222   4.314  -0.146  1.00  0.00     0.104 A 
ATOM     43  H6  UNL     1       8.537   5.177  -1.869  1.00  0.00     0.164 HD
HETATM   44  C24 UNL     1       8.908   3.347   0.792  1.00  0.00     0.105 A 
HETATM   45  N7  UNL     1       7.794   2.605   0.711  1.00  0.00    -0.362 N 
ATOM     46  H7  UNL     1       7.604   1.904   1.427  1.00  0.00     0.165 HD
ENDBRANCH  37  39
ENDBRANCH  34  36
ENDBRANCH  26  32
ENDBRANCH   3  26
TORSDOF 13
