REMARK  16 active torsions:
REMARK  status: ('A' for Active; 'I' for Inactive)
REMARK    1  A    between atoms: C2_2  and  N1_3 
REMARK    2  A    between atoms: C2_2  and  N2_10 
REMARK    3  A    between atoms: N1_3  and  C3_6 
REMARK    4  A    between atoms: N2_10  and  C7_11 
REMARK    5  A    between atoms: N2_10  and  C12_17 
REMARK    6  A    between atoms: C7_11  and  C8_12 
REMARK    7  A    between atoms: C8_12  and  C9_13 
REMARK    8  A    between atoms: C9_13  and  N3_14 
REMARK    9  A    between atoms: C12_17  and  O1_18 
REMARK   10  A    between atoms: C12_17  and  C13_20 
REMARK   11  A    between atoms: C16_23  and  N4_24 
REMARK       I    between atoms: N4_24  and  C17_26 
REMARK   12  A    between atoms: C17_26  and  C18_28 
REMARK   13  A    between atoms: C20_32  and  N6_33 
REMARK   14  A    between atoms: N6_33  and  C21_35 
REMARK   15  A    between atoms: C21_35  and  C22_36 
REMARK   16  A    between atoms: C22_36  and  N7_37 
ROOT
HETATM    1  C18 UNL     1       4.806   0.064   0.566  1.00  0.00     0.117 A 
HETATM    2  C19 UNL     1       5.764   0.554   1.429  1.00  0.00     0.125 A 
HETATM    3  N5  UNL     1       7.039   0.491   1.108  1.00  0.00    -0.348 N 
ATOM      4  H5  UNL     1       7.733   0.858   1.759  1.00  0.00     0.167 HD
HETATM    5  C20 UNL     1       7.466  -0.061  -0.093  1.00  0.00     0.139 A 
HETATM    6  C25 UNL     1       6.509  -0.540  -0.935  1.00  0.00     0.158 A 
HETATM    7  C26 UNL     1       6.827  -1.140  -2.223  1.00  0.00     0.121 C 
HETATM    8  N8  UNL     1       7.041  -1.612  -3.235  1.00  0.00    -0.190 NA
HETATM    9  N9  UNL     1       5.190  -0.468  -0.587  1.00  0.00    -0.339 N 
ATOM     10  H9  UNL     1       4.485  -0.831  -1.228  1.00  0.00     0.167 HD
ENDROOT
BRANCH   5  11
HETATM   11  N6  UNL     1       8.681  -0.089  -0.327  1.00  0.00    -0.372 N 
ATOM     12  H6  UNL     1       9.216   0.320   0.439  1.00  0.00     0.161 HD
BRANCH  11  13
HETATM   13  C21 UNL     1       9.502  -0.520  -1.335  1.00  0.00     0.140 C 
BRANCH  13  14
HETATM   14  C22 UNL     1      10.964  -0.352  -0.877  1.00  0.00     0.135 C 
BRANCH  14  15
HETATM   15  N7  UNL     1      11.305   0.997  -0.580  1.00  0.00    -0.419 N 
HETATM   16  C23 UNL     1      10.693   1.576   0.568  1.00  0.00     0.142 C 
HETATM   17  C24 UNL     1      11.423   1.866  -1.704  1.00  0.00     0.142 C 
ENDBRANCH  14  15
ENDBRANCH  13  14
ENDBRANCH  11  13
ENDBRANCH   5  11
BRANCH   1  18
HETATM   18  C17 UNL     1       3.372   0.128   0.924  1.00  0.00     0.274 C 
HETATM   19  N4  UNL     1       2.466  -0.372   0.005  1.00  0.00    -0.316 N 
ATOM     20  H4  UNL     1       2.818  -0.758  -0.871  1.00  0.00     0.170 HD
HETATM   21  O2  UNL     1       3.105   0.631   2.034  1.00  0.00    -0.266 OA
BRANCH  19  22
HETATM   22  C16 UNL     1       1.048  -0.368   0.237  1.00  0.00     0.077 A 
HETATM   23  C15 UNL     1       0.285   0.054   1.271  1.00  0.00     0.039 A 
HETATM   24  C14 UNL     1      -1.050  -0.081   1.183  1.00  0.00     0.026 A 
HETATM   25  C13 UNL     1      -1.590  -0.628   0.075  1.00  0.00     0.058 A 
HETATM   26  S1  UNL     1      -0.153  -0.957  -0.861  1.00  0.00    -0.068 SA
BRANCH  25  27
HETATM   27  C12 UNL     1      -2.925  -0.928  -0.398  1.00  0.00     0.161 C 
BRANCH  27  28
HETATM   28  N2  UNL     1      -4.203  -0.708   0.171  1.00  0.00    -0.308 N 
BRANCH  28  29
HETATM   29  C2  UNL     1      -5.313  -1.217  -0.654  1.00  0.00     0.288 C 
HETATM   30  C1  UNL     1      -6.262  -0.234  -1.211  1.00  0.00     0.064 C 
BRANCH  29  31
HETATM   31  N1  UNL     1      -6.004  -2.212   0.122  1.00  0.00    -0.046 N 
ATOM     32  H12 UNL     1      -5.337  -2.776   0.649  1.00  0.00     0.280 HD
ATOM     33  H11 UNL     1      -6.510  -1.773   0.891  1.00  0.00     0.280 HD
BRANCH  31  34
HETATM   34  C3  UNL     1      -6.895  -3.069  -0.644  1.00  0.00     0.117 C 
HETATM   35  C4  UNL     1      -7.004  -4.342   0.232  1.00  0.00     0.045 C 
HETATM   36  C5  UNL     1      -8.287  -2.537  -0.784  1.00  0.00     0.045 C 
HETATM   37  C6  UNL     1      -6.330  -3.540  -1.941  1.00  0.00     0.045 C 
ENDBRANCH  31  34
ENDBRANCH  29  31
ENDBRANCH  28  29
BRANCH  28  38
HETATM   38  C7  UNL     1      -4.500  -0.175   1.451  1.00  0.00     0.093 C 
BRANCH  38  39
HETATM   39  C8  UNL     1      -4.570   1.245   1.756  1.00  0.00     0.020 C 
BRANCH  39  40
HETATM   40  C9  UNL     1      -5.503   2.165   1.052  1.00  0.00     0.300 C 
BRANCH  40  41
HETATM   41  N3  UNL     1      -5.374   3.495   1.675  1.00  0.00     0.083 N 
HETATM   42  C10 UNL     1      -6.280   4.374   0.971  1.00  0.00     0.309 C 
HETATM   43  C11 UNL     1      -4.037   3.993   1.648  1.00  0.00     0.309 C 
ENDBRANCH  40  41
ENDBRANCH  39  40
ENDBRANCH  38  39
ENDBRANCH  28  38
ENDBRANCH  27  28
BRANCH  27  44
HETATM   44  O1  UNL     1      -2.916  -1.516  -1.577  1.00  0.00    -0.345 OA
ATOM     45  H1  UNL     1      -2.059  -1.664  -1.959  1.00  0.00     0.219 HD
ENDBRANCH  27  44
ENDBRANCH  25  27
ENDBRANCH  19  22
ENDBRANCH   1  18
TORSDOF 16
