REMARK  4 active torsions:
REMARK  status: ('A' for Active; 'I' for Inactive)
REMARK    1  A    between atoms: O1_2  and  C2_3 
REMARK    2  A    between atoms: C2_3  and  C3_5 
REMARK    3  A    between atoms: C3_5  and  C5_8 
REMARK    4  A    between atoms: C5_8  and  C6_10 
ROOT
HETATM    1  C3  UNL     1       0.913  -1.460  -1.234  1.00  0.00     0.266 C 
HETATM    2  C4  UNL     1       0.256  -2.696  -0.829  1.00  0.00     0.082 C 
HETATM    3  N1  UNL     1      -0.261  -3.674  -0.509  1.00  0.00    -0.196 NA
ENDROOT
BRANCH   1   4
HETATM    4  C2  UNL     1       1.866  -1.031  -0.178  1.00  0.00     0.284 C 
HETATM    5  O2  UNL     1       2.121  -1.790   0.789  1.00  0.00    -0.263 OA
BRANCH   4   6
HETATM    6  O1  UNL     1       2.509   0.192  -0.205  1.00  0.00    -0.325 OA
HETATM    7  C1  UNL     1       3.425   0.613   0.798  1.00  0.00     0.213 C 
ENDBRANCH   4   6
ENDBRANCH   1   4
BRANCH   1   8
HETATM    8  C5  UNL     1      -0.038  -0.397  -1.501  1.00  0.00     0.186 C 
HETATM    9  O3  UNL     1      -0.003   0.074  -2.709  1.00  0.00    -0.290 OA
BRANCH   8  10
HETATM   10  C6  UNL     1      -1.004   0.202  -0.611  1.00  0.00     0.012 A 
HETATM   11  C7  UNL     1      -1.821   1.240  -0.999  1.00  0.00     0.015 A 
HETATM   12  C8  UNL     1      -2.752   1.805  -0.147  1.00  0.00     0.001 A 
HETATM   13  C9  UNL     1      -2.898   1.340   1.140  1.00  0.00     0.000 A 
HETATM   14  C10 UNL     1      -2.092   0.304   1.545  1.00  0.00     0.001 A 
HETATM   15  C11 UNL     1      -1.154  -0.254   0.666  1.00  0.00     0.015 A 
ENDBRANCH   8  10
ENDBRANCH   1   8
TORSDOF 4
