REMARK  4 active torsions:
REMARK  status: ('A' for Active; 'I' for Inactive)
REMARK    1  A    between atoms: C2_2  and  C3_6 
REMARK    2  A    between atoms: C4_7  and  C5_8 
REMARK    3  A    between atoms: C5_8  and  N2_9 
REMARK    4  A    between atoms: C8_12  and  N3_13 
ROOT
HETATM    1  N2  UNL     1       0.932   0.136  -0.109  1.00  0.00     0.093 N 
HETATM    2  C6  UNL     1       1.223  -1.288  -0.108  1.00  0.00     0.275 C 
HETATM    3  C7  UNL     1       2.743  -1.283  -0.320  1.00  0.00     0.064 C 
HETATM    4  C8  UNL     1       3.119  -0.263   0.761  1.00  0.00     0.213 C 
HETATM    5  C9  UNL     1       2.055   0.783   0.535  1.00  0.00     0.305 C 
ENDROOT
BRANCH   1   6
HETATM    6  C5  UNL     1      -0.257   0.398   0.703  1.00  0.00     0.300 C 
BRANCH   6   7
HETATM    7  C4  UNL     1      -1.463  -0.151   0.081  1.00  0.00     0.005 C 
HETATM    8  C3  UNL     1      -2.463   0.637  -0.248  1.00  0.00     0.021 C 
BRANCH   8   9
HETATM    9  C2  UNL     1      -3.682   0.123  -0.871  1.00  0.00    -0.002 C 
HETATM   10  C1  UNL     1      -4.752   1.091  -1.209  1.00  0.00     0.067 C 
HETATM   11  N1  UNL     1      -3.880  -1.114  -1.145  1.00  0.00    -0.403 N 
ATOM     12  H12 UNL     1      -4.730  -1.473  -1.580  1.00  0.00     0.156 HD
ATOM     13  H11 UNL     1      -3.144  -1.780  -0.912  1.00  0.00     0.156 HD
ENDBRANCH   8   9
ENDBRANCH   6   7
ENDBRANCH   1   6
BRANCH   4  14
HETATM   14  N3  UNL     1       4.447   0.201   0.502  1.00  0.00    -0.073 N 
ATOM     15  H33 UNL     1       5.121  -0.561   0.430  1.00  0.00     0.274 HD
ATOM     16  H32 UNL     1       4.555   0.572  -0.442  1.00  0.00     0.274 HD
ATOM     17  H31 UNL     1       4.697   0.880   1.221  1.00  0.00     0.274 HD
ENDBRANCH   4  14
TORSDOF 4
