REMARK  8 active torsions:
REMARK  status: ('A' for Active; 'I' for Inactive)
REMARK    1  A    between atoms: C2_2  and  O1_5 
REMARK    2  A    between atoms: O1_5  and  C5_6 
REMARK       I    between atoms: C5_6  and  N1_8 
REMARK    3  A    between atoms: C8_11  and  C9_12 
REMARK       I    between atoms: C9_12  and  N2_14 
REMARK    4  A    between atoms: N2_14  and  C10_16 
REMARK    5  A    between atoms: C10_16  and  C11_17 
REMARK       I    between atoms: C11_17  and  N3_19 
REMARK    6  A    between atoms: N3_19  and  C12_21 
REMARK    7  A    between atoms: C12_21  and  C13_22 
REMARK       I    between atoms: C13_22  and  N4_24 
REMARK    8  A    between atoms: N4_24  and  C14_26 
ROOT
HETATM    1  C9  UNL     1      -0.903   1.493   1.985  1.00  0.00     0.223 C 
HETATM    2  O3  UNL     1       0.306   1.649   2.290  1.00  0.00    -0.273 OA
HETATM    3  N2  UNL     1      -1.331   1.939   0.707  1.00  0.00    -0.352 N 
ATOM      4  H2  UNL     1      -2.313   1.821   0.460  1.00  0.00     0.162 HD
ENDROOT
BRANCH   3   5
HETATM    5  C10 UNL     1      -0.458   2.546  -0.255  1.00  0.00     0.225 C 
BRANCH   5   6
HETATM    6  C11 UNL     1       0.569   1.627  -0.734  1.00  0.00     0.235 C 
HETATM    7  O4  UNL     1       1.435   2.119  -1.539  1.00  0.00    -0.272 OA
HETATM    8  N3  UNL     1       0.680   0.280  -0.395  1.00  0.00    -0.351 N 
ATOM      9  H3  UNL     1      -0.015  -0.123   0.233  1.00  0.00     0.163 HD
BRANCH   8  10
HETATM   10  C12 UNL     1       1.744  -0.577  -0.898  1.00  0.00     0.225 C 
BRANCH  10  11
HETATM   11  C13 UNL     1       3.069  -0.119  -0.463  1.00  0.00     0.235 C 
HETATM   12  O5  UNL     1       3.187   0.887   0.272  1.00  0.00    -0.272 OA
HETATM   13  N4  UNL     1       4.272  -0.789  -0.851  1.00  0.00    -0.355 N 
ATOM     14  H4  UNL     1       4.209  -1.612  -1.450  1.00  0.00     0.162 HD
BRANCH  13  15
HETATM   15  C14 UNL     1       5.574  -0.333  -0.418  1.00  0.00     0.084 C 
HETATM   16  C15 UNL     1       6.264  -1.392   0.391  1.00  0.00     0.025 C 
HETATM   17  C16 UNL     1       7.752  -1.189   0.475  1.00  0.00     0.002 C 
HETATM   18  C17 UNL     1       8.416  -1.062  -0.861  1.00  0.00     0.000 C 
HETATM   19  C18 UNL     1       7.348  -1.058  -1.930  1.00  0.00     0.002 C 
HETATM   20  C19 UNL     1       6.407   0.092  -1.605  1.00  0.00     0.025 C 
ENDBRANCH  13  15
ENDBRANCH  10  11
ENDBRANCH   8  10
ENDBRANCH   5   6
ENDBRANCH   3   5
BRANCH   1  21
HETATM   21  C8  UNL     1      -1.810   0.865   2.947  1.00  0.00     0.097 C 
HETATM   22  C7  UNL     1      -2.960   1.762   3.345  1.00  0.00     0.035 C 
HETATM   23  C6  UNL     1      -4.069   1.341   2.454  1.00  0.00     0.129 C 
HETATM   24  N1  UNL     1      -3.681   0.093   1.833  1.00  0.00    -0.327 N 
HETATM   25  C5  UNL     1      -4.405  -0.527   0.757  1.00  0.00     0.363 C 
HETATM   26  C20 UNL     1      -2.482  -0.381   2.479  1.00  0.00     0.142 C 
HETATM   27  O2  UNL     1      -4.020  -1.618   0.253  1.00  0.00    -0.238 OA
BRANCH  25  28
HETATM   28  O1  UNL     1      -5.550   0.038   0.228  1.00  0.00    -0.294 OA
BRANCH  28  29
HETATM   29  C2  UNL     1      -6.320  -0.486  -0.814  1.00  0.00     0.061 C 
HETATM   30  C1  UNL     1      -5.591  -0.658  -2.108  1.00  0.00     0.046 C 
HETATM   31  C3  UNL     1      -6.960  -1.812  -0.460  1.00  0.00     0.046 C 
HETATM   32  C4  UNL     1      -7.474   0.492  -1.058  1.00  0.00     0.046 C 
ENDBRANCH  28  29
ENDBRANCH  25  28
ENDBRANCH   1  21
TORSDOF 8
