REMARK  7 active torsions:
REMARK  status: ('A' for Active; 'I' for Inactive)
REMARK    1  A    between atoms: N2_6  and  C3_7 
REMARK    2  A    between atoms: C3_7  and  C4_8 
REMARK    3  A    between atoms: C4_8  and  S1_9 
REMARK    4  A    between atoms: S1_9  and  C5_10 
REMARK    5  A    between atoms: C7_14  and  C8_15 
REMARK    6  A    between atoms: C8_15  and  O2_16 
REMARK    7  A    between atoms: N4_18  and  C9_19 
ROOT
HETATM    1  C5  UNL     1      -0.246   1.172  -1.048  1.00  0.00     0.145 C 
HETATM    2  N3  UNL     1      -0.239   2.503  -1.151  1.00  0.00    -0.368 N 
ATOM      3  H3  UNL     1       0.538   3.046  -1.527  1.00  0.00     0.161 HD
HETATM    4  C6  UNL     1      -1.451   3.066  -0.671  1.00  0.00     0.149 C 
HETATM    5  C7  UNL     1      -2.373   1.926  -0.562  1.00  0.00     0.136 C 
HETATM    6  N4  UNL     1      -1.458   0.764  -0.478  1.00  0.00    -0.291 N 
ENDROOT
BRANCH   1   7
HETATM    7  S1  UNL     1       1.146   0.191  -1.571  1.00  0.00    -0.092 SA
BRANCH   7   8
HETATM    8  C4  UNL     1       1.260  -1.378  -0.793  1.00  0.00     0.104 C 
BRANCH   8   9
HETATM    9  C3  UNL     1       1.808  -1.272   0.619  1.00  0.00     0.164 C 
BRANCH   9  10
HETATM   10  N2  UNL     1       3.172  -0.783   0.555  1.00  0.00    -0.242 N 
HETATM   11  N1  UNL     1       4.170  -1.662   0.320  1.00  0.00    -0.300 N 
HETATM   12  C2  UNL     1       5.449  -1.276   0.222  1.00  0.00     0.181 A 
ATOM     13  H1  UNL     1       3.943  -2.651   0.214  1.00  0.00     0.186 HD
HETATM   14  C1  UNL     1       5.815   0.044   0.356  1.00  0.00     0.266 A 
HETATM   15  O1  UNL     1       7.022   0.385   0.260  1.00  0.00    -0.267 OA
HETATM   16  N7  UNL     1       4.820   0.910   0.590  1.00  0.00    -0.273 N 
HETATM   17  C12 UNL     1       3.515   0.495   0.688  1.00  0.00     0.344 A 
ATOM     18  H7  UNL     1       5.037   1.901   0.698  1.00  0.00     0.173 HD
HETATM   19  O3  UNL     1       2.644   1.382   0.914  1.00  0.00    -0.245 OA
ENDBRANCH   9  10
ENDBRANCH   8   9
ENDBRANCH   7   8
ENDBRANCH   1   7
BRANCH   6  20
HETATM   20  C9  UNL     1      -1.897  -0.493   0.080  1.00  0.00     0.180 C 
HETATM   21  N5  UNL     1      -1.814  -0.922   1.277  1.00  0.00    -0.360 N 
HETATM   22  C10 UNL     1      -2.381  -2.245   1.408  1.00  0.00     0.142 C 
ATOM     23  H5  UNL     1      -1.399  -0.397   2.047  1.00  0.00     0.162 HD
HETATM   24  C11 UNL     1      -3.251  -2.363   0.185  1.00  0.00     0.142 C 
HETATM   25  N6  UNL     1      -2.580  -1.469  -0.741  1.00  0.00    -0.360 N 
ATOM     26  H6  UNL     1      -2.588  -1.519  -1.760  1.00  0.00     0.162 HD
ENDBRANCH   6  20
BRANCH   5  27
HETATM   27  C8  UNL     1      -3.270   1.965   0.654  1.00  0.00     0.191 C 
BRANCH  27  28
HETATM   28  O2  UNL     1      -4.103   3.073   0.518  1.00  0.00    -0.399 OA
ATOM     29  H2  UNL     1      -4.667   3.098   1.282  1.00  0.00     0.209 HD
ENDBRANCH  27  28
ENDBRANCH   5  27
TORSDOF 7
