REMARK  18 active torsions:
REMARK  status: ('A' for Active; 'I' for Inactive)
REMARK    1  A    between atoms: N3_4  and  C2_6 
REMARK    2  A    between atoms: C2_6  and  C3_7 
REMARK    3  A    between atoms: C3_7  and  C4_8 
REMARK    4  A    between atoms: C4_8  and  C5_9 
REMARK    5  A    between atoms: C5_9  and  C6_10 
REMARK    6  A    between atoms: C5_9  and  N5_20 
REMARK    7  A    between atoms: C6_10  and  C7_11 
REMARK    8  A    between atoms: C7_11  and  C8_12 
REMARK       I    between atoms: C8_12  and  N4_14 
REMARK    9  A    between atoms: N4_14  and  C9_16 
REMARK   10  A    between atoms: C9_16  and  C10_17 
REMARK       I    between atoms: N5_20  and  C11_22 
REMARK   11  A    between atoms: C11_22  and  C12_24 
REMARK   12  A    between atoms: C12_24  and  C13_25 
REMARK   13  A    between atoms: C13_25  and  C14_26 
REMARK   14  A    between atoms: C14_26  and  C15_27 
REMARK   15  A    between atoms: C15_27  and  C16_28 
REMARK   16  A    between atoms: C16_28  and  C17_29 
REMARK       I    between atoms: C17_29  and  N6_31 
REMARK   17  A    between atoms: C21_35  and  C22_36 
REMARK   18  A    between atoms: C22_36  and  N7_37 
ROOT
HETATM    1  N5  UNL     1       3.283  -0.603   1.167  1.00  0.00    -0.356 N 
ATOM      2  H5  UNL     1       3.256  -1.570   1.489  1.00  0.00     0.162 HD
HETATM    3  C11 UNL     1       2.117   0.156   1.365  1.00  0.00     0.217 C 
HETATM    4  O4  UNL     1       1.992   1.342   1.044  1.00  0.00    -0.274 OA
ENDROOT
BRANCH   1   5
HETATM    5  C5  UNL     1       4.513  -0.163   0.558  1.00  0.00     0.084 C 
BRANCH   5   6
HETATM    6  C4  UNL     1       5.397   0.299   1.704  1.00  0.00     0.027 C 
BRANCH   6   7
HETATM    7  C3  UNL     1       6.784   0.641   1.232  1.00  0.00     0.022 C 
BRANCH   7   8
HETATM    8  C2  UNL     1       7.600   1.088   2.425  1.00  0.00     0.122 C 
BRANCH   8   9
HETATM    9  N3  UNL     1       7.012   2.254   3.051  1.00  0.00    -0.367 N 
HETATM   10  C1  UNL     1       7.023   2.377   4.336  1.00  0.00     0.196 C 
HETATM   11  N1  UNL     1       6.443   3.521   4.924  1.00  0.00    -0.067 NA
HETATM   12  N2  UNL     1       7.601   1.389   5.146  1.00  0.00    -0.067 NA
ATOM     13  H3  UNL     1       6.588   2.981   2.475  1.00  0.00     0.161 HD
ENDBRANCH   8   9
ENDBRANCH   7   8
ENDBRANCH   6   7
ENDBRANCH   5   6
BRANCH   5  14
HETATM   14  C6  UNL     1       4.370   0.889  -0.495  1.00  0.00     0.034 C 
BRANCH  14  15
HETATM   15  C7  UNL     1       3.529   0.418  -1.637  1.00  0.00     0.105 C 
BRANCH  15  16
HETATM   16  C8  UNL     1       4.102  -0.714  -2.402  1.00  0.00     0.218 C 
HETATM   17  O1  UNL     1       5.248  -1.141  -2.193  1.00  0.00    -0.274 OA
HETATM   18  N4  UNL     1       3.337  -1.356  -3.419  1.00  0.00    -0.351 N 
ATOM     19  H4  UNL     1       2.392  -1.022  -3.610  1.00  0.00     0.163 HD
BRANCH  18  20
HETATM   20  C9  UNL     1       3.851  -2.455  -4.182  1.00  0.00     0.235 C 
BRANCH  20  21
HETATM   21  C10 UNL     1       2.838  -2.919  -5.174  1.00  0.00     0.191 C 
HETATM   22  O2  UNL     1       1.724  -2.371  -5.265  1.00  0.00    -0.647 OA
HETATM   23  O3  UNL     1       3.122  -3.974  -6.014  1.00  0.00    -0.647 OA
ENDBRANCH  20  21
ENDBRANCH  18  20
ENDBRANCH  15  16
ENDBRANCH  14  15
ENDBRANCH   5  14
ENDBRANCH   1   5
BRANCH   3  24
HETATM   24  C12 UNL     1       0.905  -0.469   2.008  1.00  0.00     0.103 C 
BRANCH  24  25
HETATM   25  C13 UNL     1      -0.259   0.468   2.028  1.00  0.00     0.009 C 
BRANCH  25  26
HETATM   26  C14 UNL     1      -1.470  -0.164   2.683  1.00  0.00     0.001 C 
BRANCH  26  27
HETATM   27  C15 UNL     1      -2.649   0.766   2.690  1.00  0.00     0.009 C 
BRANCH  27  28
HETATM   28  C16 UNL     1      -3.117   1.196   1.349  1.00  0.00     0.103 C 
BRANCH  28  29
HETATM   29  C17 UNL     1      -3.587   0.104   0.485  1.00  0.00     0.220 C 
HETATM   30  O5  UNL     1      -3.758  -1.045   0.944  1.00  0.00    -0.273 OA
HETATM   31  N6  UNL     1      -3.854   0.360  -0.906  1.00  0.00    -0.346 N 
HETATM   32  C18 UNL     1      -3.692   1.645  -1.557  1.00  0.00     0.126 C 
HETATM   33  C21 UNL     1      -4.275  -0.606  -1.853  1.00  0.00     0.115 C 
HETATM   34  C19 UNL     1      -4.313   1.508  -2.919  1.00  0.00     0.022 C 
HETATM   35  C20 UNL     1      -4.225   0.030  -3.237  1.00  0.00     0.029 C 
BRANCH  33  36
HETATM   36  C22 UNL     1      -5.597  -1.276  -1.671  1.00  0.00     0.297 C 
BRANCH  36  37
HETATM   37  N7  UNL     1      -6.771  -0.511  -1.673  1.00  0.00     0.094 N 
HETATM   38  C23 UNL     1      -7.968  -1.415  -1.797  1.00  0.00     0.298 C 
HETATM   39  C24 UNL     1      -7.967  -2.376  -0.663  1.00  0.00     0.198 C 
HETATM   40  O6  UNL     1      -7.518  -1.911   0.536  1.00  0.00    -0.388 OA
HETATM   41  C25 UNL     1      -7.391  -0.569   0.697  1.00  0.00     0.198 C 
HETATM   42  C26 UNL     1      -7.069   0.248  -0.507  1.00  0.00     0.298 C 
ENDBRANCH  36  37
ENDBRANCH  33  36
ENDBRANCH  28  29
ENDBRANCH  27  28
ENDBRANCH  26  27
ENDBRANCH  25  26
ENDBRANCH  24  25
ENDBRANCH   3  24
TORSDOF 18
