REMARK  18 active torsions:
REMARK  status: ('A' for Active; 'I' for Inactive)
REMARK    1  A    between atoms: N1_4  and  C4_5 
REMARK    2  A    between atoms: C4_5  and  C5_6 
REMARK    3  A    between atoms: C5_6  and  C6_7 
REMARK    4  A    between atoms: C6_7  and  C7_8 
REMARK    5  A    between atoms: C7_8  and  C8_9 
REMARK    6  A    between atoms: C8_9  and  C9_10 
REMARK    7  A    between atoms: C9_10  and  N2_11 
REMARK    8  A    between atoms: C16_18  and  C17_19 
REMARK       I    between atoms: C17_19  and  N3_21 
REMARK    9  A    between atoms: N3_21  and  C18_22 
REMARK   10  A    between atoms: N3_21  and  C20_26 
REMARK   11  A    between atoms: C18_22  and  C19_23 
REMARK   12  A    between atoms: C20_26  and  C21_27 
REMARK       I    between atoms: C21_27  and  N4_29 
REMARK   13  A    between atoms: N4_29  and  C22_30 
REMARK   14  A    between atoms: C22_30  and  C23_31 
REMARK   15  A    between atoms: C22_30  and  C27_39 
REMARK   16  A    between atoms: C23_31  and  C24_32 
REMARK   17  A    between atoms: C24_32  and  C25_33 
REMARK   18  A    between atoms: C25_33  and  N5_34 
ROOT
HETATM    1  C17 UNL     1       1.160   1.042   0.624  1.00  0.00     0.229 C 
HETATM    2  O1  UNL     1       1.563  -0.015   1.225  1.00  0.00    -0.273 OA
HETATM    3  N3  UNL     1       2.137   1.771  -0.132  1.00  0.00    -0.332 N 
ENDROOT
BRANCH   3   4
HETATM    4  C18 UNL     1       1.777   2.997  -0.788  1.00  0.00     0.239 C 
BRANCH   4   5
HETATM    5  C19 UNL     1       2.077   4.206   0.079  1.00  0.00     0.191 C 
HETATM    6  O2  UNL     1       2.556   4.073   1.237  1.00  0.00    -0.647 OA
HETATM    7  O3  UNL     1       1.825   5.453  -0.420  1.00  0.00    -0.647 OA
ENDBRANCH   4   5
ENDBRANCH   3   4
BRANCH   3   8
HETATM    8  C20 UNL     1       3.497   1.378  -0.137  1.00  0.00     0.245 C 
BRANCH   8   9
HETATM    9  C21 UNL     1       3.724   0.251  -1.242  1.00  0.00     0.305 C 
HETATM   10  O4  UNL     1       2.716  -0.034  -1.748  1.00  0.00    -0.256 OA
HETATM   11  N4  UNL     1       5.057  -0.026  -1.246  1.00  0.00    -0.397 NA
BRANCH  11  12
HETATM   12  C22 UNL     1       6.420  -0.315  -1.257  1.00  0.00     0.267 C 
BRANCH  12  13
HETATM   13  C23 UNL     1       6.926  -0.154   0.183  1.00  0.00     0.052 C 
BRANCH  13  14
HETATM   14  C24 UNL     1       8.322  -0.428   0.431  1.00  0.00     0.023 C 
BRANCH  14  15
HETATM   15  C25 UNL     1       8.796  -1.864   0.189  1.00  0.00     0.122 C 
BRANCH  15  16
HETATM   16  N5  UNL     1      10.212  -1.819   0.439  1.00  0.00    -0.367 N 
HETATM   17  C26 UNL     1      11.144  -2.621   0.291  1.00  0.00     0.196 C 
HETATM   18  N6  UNL     1      11.046  -3.906  -0.209  1.00  0.00    -0.067 NA
HETATM   19  N7  UNL     1      12.474  -2.182   0.657  1.00  0.00    -0.067 NA
ATOM     20  H5  UNL     1      10.517  -0.925   0.825  1.00  0.00     0.161 HD
ENDBRANCH  15  16
ENDBRANCH  14  15
ENDBRANCH  13  14
ENDBRANCH  12  13
BRANCH  12  21
HETATM   21  C27 UNL     1       7.154   0.570  -2.227  1.00  0.00     0.210 C 
HETATM   22  O5  UNL     1       6.551   1.282  -3.021  1.00  0.00    -0.646 OA
HETATM   23  O6  UNL     1       8.531   0.595  -2.230  1.00  0.00    -0.646 OA
ENDBRANCH  12  21
ENDBRANCH  11  12
ENDBRANCH   8   9
ENDBRANCH   3   8
BRANCH   1  24
HETATM   24  C16 UNL     1      -0.236   1.377   0.766  1.00  0.00     0.113 C 
HETATM   25  C2  UNL     1      -0.938   0.447   1.719  1.00  0.00    -0.039 C 
HETATM   26  C1  UNL     1      -0.959   0.699   2.976  1.00  0.00     0.021 C 
HETATM   27  C3  UNL     1      -1.681  -0.739   1.115  1.00  0.00     0.092 C 
HETATM   28  N1  UNL     1      -2.748  -0.145   0.466  1.00  0.00    -0.389 N 
HETATM   29  C14 UNL     1      -2.508   1.159  -0.052  1.00  0.00     0.123 C 
HETATM   30  C15 UNL     1      -1.076   1.235  -0.543  1.00  0.00     0.039 C 
BRANCH  28  31
HETATM   31  C4  UNL     1      -3.829  -0.877  -0.080  1.00  0.00     0.122 C 
BRANCH  31  32
HETATM   32  C5  UNL     1      -4.887   0.126  -0.607  1.00  0.00     0.020 C 
BRANCH  32  33
HETATM   33  C6  UNL     1      -5.353   0.948   0.559  1.00  0.00     0.002 C 
BRANCH  33  34
HETATM   34  C7  UNL     1      -6.563   0.339   1.269  1.00  0.00     0.002 C 
BRANCH  34  35
HETATM   35  C8  UNL     1      -7.799   0.680   0.466  1.00  0.00     0.030 C 
BRANCH  35  36
HETATM   36  C9  UNL     1      -9.098   0.146   0.868  1.00  0.00     0.272 C 
BRANCH  36  37
HETATM   37  N2  UNL     1      -9.508  -1.128   0.428  1.00  0.00     0.088 N 
HETATM   38  C10 UNL     1     -10.033  -0.937  -0.976  1.00  0.00     0.272 C 
HETATM   39  C11 UNL     1      -9.111  -1.560  -1.911  1.00  0.00     0.032 C 
HETATM   40  C12 UNL     1      -8.359  -2.570  -1.091  1.00  0.00     0.032 C 
HETATM   41  C13 UNL     1      -8.674  -2.235   0.344  1.00  0.00     0.272 C 
ENDBRANCH  36  37
ENDBRANCH  35  36
ENDBRANCH  34  35
ENDBRANCH  33  34
ENDBRANCH  32  33
ENDBRANCH  31  32
ENDBRANCH  28  31
ENDBRANCH   1  24
TORSDOF 18
