REMARK  9 active torsions:
REMARK  status: ('A' for Active; 'I' for Inactive)
REMARK    1  A    between atoms: N3_7  and  C3_8 
REMARK    2  A    between atoms: N7_16  and  C6_17 
REMARK    3  A    between atoms: C6_17  and  C7_18 
REMARK       I    between atoms: C7_18  and  N8_20 
REMARK    4  A    between atoms: N8_20  and  N9_22 
REMARK    5  A    between atoms: N9_22  and  C8_24 
REMARK    6  A    between atoms: C9_27  and  N11_28 
REMARK    7  A    between atoms: C10_33  and  O2_34 
REMARK    8  A    between atoms: C11_36  and  N13_37 
REMARK    9  A    between atoms: C12_40  and  N14_41 
ROOT
HETATM    1  C3  UNL     1      -3.666   0.839   0.064  1.00  0.00     0.723 A 
HETATM    2  N4  UNL     1      -2.535   0.684  -0.644  1.00  0.00    -0.170 N 
ATOM      3  H4  UNL     1      -1.948  -0.127  -0.451  1.00  0.00     0.186 HD
HETATM    4  C4  UNL     1      -2.140   1.553  -1.599  1.00  0.00     0.168 A 
HETATM    5  C5  UNL     1      -2.918   2.657  -1.875  1.00  0.00     0.136 A 
HETATM    6  N5  UNL     1      -2.285   3.323  -2.853  1.00  0.00    -0.277 N 
ATOM      7  H5  UNL     1      -2.600   4.190  -3.287  1.00  0.00     0.184 HD
HETATM    8  N6  UNL     1      -1.176   2.657  -3.158  1.00  0.00    -0.018 NA
HETATM    9  N7  UNL     1      -1.061   1.572  -2.408  1.00  0.00    -0.249 N 
HETATM   10  C12 UNL     1      -4.077   2.832  -1.161  1.00  0.00     0.146 A 
HETATM   11  N15 UNL     1      -4.423   1.937  -0.223  1.00  0.00    -0.171 N 
ATOM     12  H15 UNL     1      -5.288   2.084   0.297  1.00  0.00     0.186 HD
ENDROOT
BRANCH   9  13
HETATM   13  C6  UNL     1       0.005   0.619  -2.459  1.00  0.00     0.253 C 
BRANCH  13  14
HETATM   14  C7  UNL     1       1.109   0.959  -1.548  1.00  0.00     0.255 C 
HETATM   15  O1  UNL     1       1.024   1.985  -0.832  1.00  0.00    -0.270 OA
HETATM   16  N8  UNL     1       2.260   0.129  -1.484  1.00  0.00    -0.267 N 
ATOM     17  H8  UNL     1       2.292  -0.698  -2.080  1.00  0.00     0.190 HD
BRANCH  16  18
HETATM   18  N9  UNL     1       3.344   0.384  -0.653  1.00  0.00    -0.280 N 
ATOM     19  H9  UNL     1       3.649   1.353  -0.562  1.00  0.00     0.188 HD
BRANCH  18  20
HETATM   20  C8  UNL     1       4.060  -0.600   0.079  1.00  0.00     0.173 A 
HETATM   21  N10 UNL     1       3.755  -1.902   0.073  1.00  0.00    -0.173 N 
HETATM   22  C9  UNL     1       4.445  -2.833   0.768  1.00  0.00     0.679 A 
ATOM     23  H10 UNL     1       2.959  -2.209  -0.486  1.00  0.00     0.186 HD
HETATM   24  N12 UNL     1       5.496  -2.430   1.509  1.00  0.00    -0.168 N 
HETATM   25  C10 UNL     1       5.856  -1.132   1.559  1.00  0.00     0.192 A 
ATOM     26  H12 UNL     1       6.028  -3.119   2.041  1.00  0.00     0.186 HD
HETATM   27  C11 UNL     1       5.150  -0.204   0.852  1.00  0.00     0.199 A 
BRANCH  22  28
HETATM   28  N11 UNL     1       4.089  -4.077   0.710  1.00  0.00    -0.234 N 
ATOM     29 2H11 UNL     1       3.294  -4.382   0.149  1.00  0.00     0.174 HD
ATOM     30 1H11 UNL     1       4.610  -4.780   1.235  1.00  0.00     0.174 HD
ENDBRANCH  22  28
BRANCH  25  31
HETATM   31  O2  UNL     1       6.954  -0.797   2.348  1.00  0.00    -0.344 OA
ATOM     32  H2  UNL     1       7.208   0.118   2.383  1.00  0.00     0.219 HD
ENDBRANCH  25  31
BRANCH  27  33
HETATM   33  N13 UNL     1       5.532   1.168   0.905  1.00  0.00    -0.107 N 
HETATM   34  O3  UNL     1       6.082   1.629  -0.127  1.00  0.00    -0.531 OA
HETATM   35  O4  UNL     1       5.336   1.979   1.971  1.00  0.00    -0.531 OA
ENDBRANCH  27  33
ENDBRANCH  18  20
ENDBRANCH  16  18
ENDBRANCH  13  14
ENDBRANCH   9  13
BRANCH   1  36
HETATM   36  N3  UNL     1      -4.101  -0.068   1.070  1.00  0.00    -0.004 N 
HETATM   37  N2  UNL     1      -3.631  -0.139   2.290  1.00  0.00    -0.205 N 
HETATM   38  N1  UNL     1      -4.273  -1.112   2.960  1.00  0.00    -0.272 N 
ATOM     39  H2  UNL     1      -2.893   0.452   2.673  1.00  0.00     0.211 HD
HETATM   40  C2  UNL     1      -5.173  -1.662   2.129  1.00  0.00     0.110 A 
ATOM     41  H1  UNL     1      -4.106  -1.384   3.929  1.00  0.00     0.190 HD
HETATM   42  C1  UNL     1      -6.117  -2.784   2.435  1.00  0.00     0.092 C 
HETATM   43  N16 UNL     1      -5.049  -0.996   0.953  1.00  0.00    -0.251 N 
ATOM     44  H16 UNL     1      -5.596  -1.178   0.112  1.00  0.00     0.191 HD
ENDBRANCH   1  36
BRANCH  10  45
HETATM   45  N14 UNL     1      -4.802   3.865  -1.428  1.00  0.00    -0.383 N 
ATOM     46 2H14 UNL     1      -4.539   4.545  -2.141  1.00  0.00     0.157 HD
ATOM     47 1H14 UNL     1      -5.663   3.995  -0.897  1.00  0.00     0.157 HD
ENDBRANCH  10  45
TORSDOF 9
