REMARK  12 active torsions:
REMARK  status: ('A' for Active; 'I' for Inactive)
REMARK    1  A    between atoms: C2_3  and  N2_4 
REMARK    2  A    between atoms: N3_6  and  N4_8 
REMARK    3  A    between atoms: N4_8  and  S1_10 
REMARK    4  A    between atoms: S1_10  and  C3_11 
REMARK    5  A    between atoms: C4_12  and  C5_13 
REMARK    6  A    between atoms: N5_14  and  N6_16 
REMARK    7  A    between atoms: C6_19  and  N7_20 
REMARK    8  A    between atoms: N7_20  and  N8_22 
REMARK    9  A    between atoms: N8_22  and  C7_24 
REMARK   10  A    between atoms: C8_28  and  N10_29 
REMARK   11  A    between atoms: N10_29  and  O2_31 
REMARK   12  A    between atoms: N11_35  and  O4_36 
ROOT
HETATM    1  C3  UNL     1      -1.671   1.129   0.554  1.00  0.00     0.140 C 
HETATM    2  C4  UNL     1      -1.843   0.014  -0.229  1.00  0.00     0.064 C 
HETATM    3  C6  UNL     1      -2.655  -1.079   0.170  1.00  0.00     0.136 C 
HETATM    4  N9  UNL     1      -3.759  -1.008   0.970  1.00  0.00    -0.321 N 
ATOM      5  H9  UNL     1      -4.125  -1.896   1.314  1.00  0.00     0.169 HD
HETATM    6  C8  UNL     1      -4.430   0.113   1.363  1.00  0.00     0.198 C 
HETATM    7  C9  UNL     1      -3.872   1.375   1.601  1.00  0.00     0.318 C 
HETATM    8  O3  UNL     1      -4.564   2.153   2.293  1.00  0.00    -0.261 OA
HETATM    9  N11 UNL     1      -2.680   1.838   1.169  1.00  0.00    -0.175 N 
ENDROOT
BRANCH   1  10
HETATM   10  S1  UNL     1      -0.030   1.630   0.898  1.00  0.00     0.025 SA
BRANCH  10  11
HETATM   11  N4  UNL     1       1.227   0.555   0.450  1.00  0.00    -0.253 N 
ATOM     12  H4  UNL     1       1.595   0.624  -0.499  1.00  0.00     0.197 HD
BRANCH  11  13
HETATM   13  N3  UNL     1       1.793  -0.429   1.311  1.00  0.00    -0.235 N 
HETATM   14  N2  UNL     1       2.993  -0.802   1.201  1.00  0.00    -0.267 N 
ATOM     15  H2  UNL     1       3.326  -1.510   1.855  1.00  0.00     0.190 HD
ATOM     16  H3  UNL     1       1.210  -0.844   2.038  1.00  0.00     0.209 HD
BRANCH  14  17
HETATM   17  C2  UNL     1       3.917  -0.314   0.239  1.00  0.00     0.169 A 
HETATM   18  N1  UNL     1       4.115  -0.809  -0.999  1.00  0.00    -0.286 N 
HETATM   19  C1  UNL     1       3.430  -1.958  -1.609  1.00  0.00     0.163 C 
HETATM   20  C11 UNL     1       5.062  -0.045  -1.559  1.00  0.00     0.329 A 
HETATM   21  N13 UNL     1       5.454   0.908  -0.698  1.00  0.00    -0.293 N 
HETATM   22  O5  UNL     1       5.515  -0.207  -2.728  1.00  0.00    -0.246 OA
HETATM   23  C10 UNL     1       4.754   0.777   0.457  1.00  0.00     0.166 A 
ATOM     24  H13 UNL     1       6.164   1.617  -0.883  1.00  0.00     0.172 HD
HETATM   25  N12 UNL     1       4.854   1.564   1.635  1.00  0.00    -0.078 NA
ENDBRANCH  14  17
ENDBRANCH  11  13
ENDBRANCH  10  11
ENDBRANCH   1  10
BRANCH   2  26
HETATM   26  C5  UNL     1      -1.315  -0.028  -1.567  1.00  0.00     0.124 C 
HETATM   27  N5  UNL     1      -0.745   0.813  -2.214  1.00  0.00    -0.317 N 
ATOM     28  H5  UNL     1      -0.532   0.388  -3.116  1.00  0.00     0.185 HD
BRANCH  27  29
HETATM   29  N6  UNL     1      -0.271   2.061  -2.263  1.00  0.00    -0.345 N 
ATOM     30  H62 UNL     1      -0.499   2.457  -1.351  1.00  0.00     0.176 HD
ATOM     31  H61 UNL     1       0.212   2.773  -2.811  1.00  0.00     0.176 HD
ENDBRANCH  27  29
ENDBRANCH   2  26
BRANCH   9  32
HETATM   32  O4  UNL     1      -2.440   3.154   1.391  1.00  0.00    -0.279 OA
ATOM     33  H4  UNL     1      -3.136   3.643   1.815  1.00  0.00     0.245 HD
ENDBRANCH   9  32
BRANCH   3  34
HETATM   34  N7  UNL     1      -2.286  -2.194  -0.322  1.00  0.00    -0.282 N 
ATOM     35  H7  UNL     1      -1.475  -2.231  -0.940  1.00  0.00     0.188 HD
BRANCH  34  36
HETATM   36  N8  UNL     1      -2.969  -3.344  -0.028  1.00  0.00    -0.276 N 
ATOM     37  H8  UNL     1      -2.733  -3.833   0.836  1.00  0.00     0.189 HD
BRANCH  36  38
HETATM   38  C7  UNL     1      -3.873  -3.837  -0.760  1.00  0.00     0.368 C 
HETATM   39  O1  UNL     1      -4.857  -4.507  -1.094  1.00  0.00    -0.282 OA
ENDBRANCH  36  38
ENDBRANCH  34  36
ENDBRANCH   3  34
BRANCH   6  40
HETATM   40  N10 UNL     1      -5.694   0.029   1.527  1.00  0.00    -0.248 N 
ATOM     41  H10 UNL     1      -6.241   0.839   1.819  1.00  0.00     0.196 HD
BRANCH  40  42
HETATM   42  O2  UNL     1      -6.300  -1.194   1.296  1.00  0.00    -0.288 OA
ATOM     43  H2  UNL     1      -7.240  -1.256   1.418  1.00  0.00     0.244 HD
ENDBRANCH  40  42
ENDBRANCH   6  40
TORSDOF 12
