REMARK  10 active torsions:
REMARK  status: ('A' for Active; 'I' for Inactive)
REMARK       I    between atoms: C2_2  and  N1_4 
REMARK    1  A    between atoms: N1_4  and  C3_6 
REMARK    2  A    between atoms: C4_7  and  O2_8 
REMARK    3  A    between atoms: C6_12  and  C7_13 
REMARK    4  A    between atoms: C10_17  and  N2_18 
REMARK    5  A    between atoms: N2_18  and  C11_20 
REMARK    6  A    between atoms: C11_20  and  C12_26 
REMARK    7  A    between atoms: N3_21  and  N4_23 
REMARK    8  A    between atoms: N4_23  and  O5_24 
REMARK    9  A    between atoms: C12_26  and  N5_27 
REMARK   10  A    between atoms: C12_26  and  O6_31 
ROOT
HETATM    1  C3  UNL     1      -2.421   0.204  -0.417  1.00  0.00     0.109 C 
HETATM    2  C4  UNL     1      -2.870  -0.536  -1.526  1.00  0.00     0.147 C 
HETATM    3  C5  UNL     1      -2.150  -1.504  -2.230  1.00  0.00     0.220 C 
HETATM    4  O3  UNL     1      -2.712  -1.945  -3.264  1.00  0.00    -0.284 OA
HETATM    5  C6  UNL     1      -0.898  -2.038  -1.934  1.00  0.00     0.056 C 
HETATM    6  C8  UNL     1       0.062  -1.534  -1.058  1.00  0.00     0.037 C 
HETATM    7  C9  UNL     1       0.019  -0.274  -0.471  1.00  0.00     0.049 A 
HETATM    8  C10 UNL     1       1.113   0.458  -0.065  1.00  0.00     0.140 A 
HETATM    9  N6  UNL     1       0.622   1.608   0.424  1.00  0.00    -0.243 N 
ATOM     10  H6  UNL     1       1.187   2.367   0.806  1.00  0.00     0.196 HD
HETATM   11  O7  UNL     1      -0.674   1.617   0.341  1.00  0.00    -0.233 OA
HETATM   12  C13 UNL     1      -1.115   0.508  -0.191  1.00  0.00     0.142 A 
ENDROOT
BRANCH   8  13
HETATM   13  N2  UNL     1       2.312   0.061  -0.164  1.00  0.00    -0.325 N 
ATOM     14  H2  UNL     1       2.461  -0.862  -0.573  1.00  0.00     0.169 HD
BRANCH  13  15
HETATM   15  C11 UNL     1       3.457   0.774   0.237  1.00  0.00     0.153 C 
HETATM   16  N3  UNL     1       3.657   2.003  -0.102  1.00  0.00    -0.263 N 
ATOM     17  H3  UNL     1       2.971   2.488  -0.680  1.00  0.00     0.186 HD
BRANCH  16  18
HETATM   18  N4  UNL     1       4.806   2.671   0.318  1.00  0.00     0.020 NA
BRANCH  18  19
HETATM   19  O5  UNL     1       5.119   3.719  -0.464  1.00  0.00    -0.277 OA
ATOM     20  H5  UNL     1       5.902   4.174  -0.178  1.00  0.00     0.240 HD
ENDBRANCH  18  19
ENDBRANCH  16  18
BRANCH  15  21
HETATM   21  C12 UNL     1       4.457   0.068   1.079  1.00  0.00     0.386 C 
BRANCH  21  22
HETATM   22  N5  UNL     1       4.987  -1.105   0.380  1.00  0.00    -0.046 N 
ATOM     23  H53 UNL     1       4.242  -1.731   0.073  1.00  0.00     0.277 HD
ATOM     24  H52 UNL     1       5.368  -0.860  -0.534  1.00  0.00     0.277 HD
ATOM     25  H51 UNL     1       5.674  -1.590   0.958  1.00  0.00     0.277 HD
ENDBRANCH  21  22
BRANCH  21  26
HETATM   26  O6  UNL     1       3.802  -0.361   2.231  1.00  0.00    -0.364 OA
ATOM     27  H6  UNL     1       4.441  -0.812   2.769  1.00  0.00     0.212 HD
ENDBRANCH  21  26
ENDBRANCH  15  21
ENDBRANCH  13  15
ENDBRANCH   8  13
BRANCH   5  28
HETATM   28  C7  UNL     1      -0.525  -3.274  -2.608  1.00  0.00     0.274 C 
HETATM   29  O4  UNL     1      -1.306  -3.822  -3.420  1.00  0.00    -0.301 OA
ENDBRANCH   5  28
BRANCH   1  30
HETATM   30  N1  UNL     1      -3.396   0.660   0.458  1.00  0.00    -0.323 N 
HETATM   31  C2  UNL     1      -3.335   1.153   1.757  1.00  0.00     0.218 C 
HETATM   32  C1  UNL     1      -4.599   1.590   2.447  1.00  0.00     0.117 C 
HETATM   33  O1  UNL     1      -2.297   1.264   2.408  1.00  0.00    -0.274 OA
ATOM     34  H1  UNL     1      -4.341   0.627   0.074  1.00  0.00     0.169 HD
ENDBRANCH   1  30
BRANCH   2  35
HETATM   35  O2  UNL     1      -4.158  -0.236  -1.913  1.00  0.00    -0.355 OA
ATOM     36  H2  UNL     1      -4.461  -0.736  -2.662  1.00  0.00     0.218 HD
ENDBRANCH   2  35
TORSDOF 10
