REMARK  11 active torsions:
REMARK  status: ('A' for Active; 'I' for Inactive)
REMARK    1  A    between atoms: C3_6  and  N3_7 
REMARK    2  A    between atoms: C4_11  and  C5_12 
REMARK    3  A    between atoms: C5_12  and  C6_14 
REMARK    4  A    between atoms: C6_14  and  C7_15 
REMARK    5  A    between atoms: C6_14  and  O2_21 
REMARK    6  A    between atoms: C7_15  and  C8_16 
REMARK    7  A    between atoms: O2_21  and  C13_22 
REMARK       I    between atoms: C13_22  and  N4_24 
REMARK    8  A    between atoms: N4_24  and  C14_26 
REMARK    9  A    between atoms: C14_26  and  C15_27 
REMARK   10  A    between atoms: C14_26  and  C16_30 
REMARK   11  A    between atoms: C15_27  and  O4_28 
ROOT
HETATM    1  N1  UNL     1      -0.095   4.015   1.450  1.00  0.00    -0.190 NA
HETATM    2  C1  UNL     1      -0.424   3.871   0.333  1.00  0.00     0.119 C 
HETATM    3  C2  UNL     1      -0.861   3.673  -1.068  1.00  0.00     0.137 A 
HETATM    4  N2  UNL     1      -1.341   4.696  -1.749  1.00  0.00    -0.327 N 
ATOM      5  H2  UNL     1      -1.436   5.613  -1.313  1.00  0.00     0.168 HD
HETATM    6  C3  UNL     1      -1.699   4.507  -3.016  1.00  0.00     0.144 A 
HETATM    7  S1  UNL     1      -1.359   2.863  -3.267  1.00  0.00    -0.048 SA
HETATM    8  C4  UNL     1      -0.753   2.471  -1.685  1.00  0.00     0.094 A 
ENDROOT
BRANCH   8   9
HETATM    9  C5  UNL     1      -0.318   1.140  -1.279  1.00  0.00     0.198 C 
HETATM   10  O1  UNL     1      -0.286   0.258  -2.221  1.00  0.00    -0.289 OA
BRANCH   9  11
HETATM   11  C6  UNL     1       0.089   0.662   0.030  1.00  0.00     0.209 C 
BRANCH  11  12
HETATM   12  C7  UNL     1      -1.020   0.367   0.981  1.00  0.00     0.045 C 
BRANCH  12  13
HETATM   13  C8  UNL     1      -2.003  -0.683   0.649  1.00  0.00    -0.012 C 
HETATM   14  C9  UNL     1      -2.835  -0.548  -0.561  1.00  0.00     0.005 C 
HETATM   15  C10 UNL     1      -4.256  -0.979  -0.205  1.00  0.00     0.000 C 
HETATM   16  C11 UNL     1      -4.241  -1.371   1.249  1.00  0.00     0.000 C 
HETATM   17  C12 UNL     1      -3.036  -0.651   1.801  1.00  0.00     0.005 C 
ENDBRANCH  12  13
ENDBRANCH  11  12
BRANCH  11  18
HETATM   18  O2  UNL     1       0.790  -0.625  -0.203  1.00  0.00    -0.291 OA
BRANCH  18  19
HETATM   19  C13 UNL     1       2.112  -0.764   0.181  1.00  0.00     0.362 C 
HETATM   20  O3  UNL     1       2.638   0.263   0.724  1.00  0.00    -0.238 OA
HETATM   21  N4  UNL     1       2.860  -1.951  -0.000  1.00  0.00    -0.320 N 
ATOM     22  H4  UNL     1       2.394  -2.745  -0.438  1.00  0.00     0.165 HD
BRANCH  21  23
HETATM   23  C14 UNL     1       4.237  -2.112   0.394  1.00  0.00     0.211 C 
BRANCH  23  24
HETATM   24  C15 UNL     1       4.282  -3.133   1.515  1.00  0.00     0.200 C 
BRANCH  24  25
HETATM   25  O4  UNL     1       3.511  -2.656   2.588  1.00  0.00    -0.398 OA
ATOM     26  H4  UNL     1       3.539  -3.295   3.290  1.00  0.00     0.209 HD
ENDBRANCH  24  25
ENDBRANCH  23  24
BRANCH  23  27
HETATM   27  C16 UNL     1       5.118  -2.539  -0.682  1.00  0.00     0.199 C 
HETATM   28  O5  UNL     1       4.676  -2.737  -1.834  1.00  0.00    -0.646 OA
HETATM   29  O6  UNL     1       6.462  -2.732  -0.444  1.00  0.00    -0.646 OA
ENDBRANCH  23  27
ENDBRANCH  21  23
ENDBRANCH  18  19
ENDBRANCH  11  18
ENDBRANCH   9  11
ENDBRANCH   8   9
BRANCH   6  30
HETATM   30  N3  UNL     1      -2.192   5.355  -3.879  1.00  0.00    -0.380 N 
ATOM     31  H32 UNL     1      -2.396   6.343  -3.728  1.00  0.00     0.158 HD
ATOM     32  H31 UNL     1      -2.467   5.210  -4.851  1.00  0.00     0.158 HD
ENDBRANCH   6  30
TORSDOF 11
