REMARK  11 active torsions:
REMARK  status: ('A' for Active; 'I' for Inactive)
REMARK    1  A    between atoms: O1_2  and  C2_3 
REMARK    2  A    between atoms: C2_3  and  C3_5 
REMARK    3  A    between atoms: C4_8  and  C5_9 
REMARK    4  A    between atoms: C5_9  and  N2_10 
REMARK    5  A    between atoms: N2_10  and  C6_12 
REMARK    6  A    between atoms: C8_21  and  C9_22 
REMARK    7  A    between atoms: C9_22  and  N8_23 
REMARK    8  A    between atoms: C12_30  and  N11_31 
REMARK    9  A    between atoms: N12_34  and  N13_35 
REMARK   10  A    between atoms: N14_39  and  N15_40 
REMARK   11  A    between atoms: N15_40  and  N16_41 
ROOT
HETATM    1  C9  UNL     1       0.943   1.319   0.964  1.00  0.00     0.151 C 
ENDROOT
BRANCH   1   2
HETATM    2  C8  UNL     1      -0.497   1.107   0.933  1.00  0.00     0.086 A 
HETATM    3  C3  UNL     1      -1.353   2.226   0.884  1.00  0.00     0.138 A 
HETATM    4  N1  UNL     1      -2.619   1.772   0.855  1.00  0.00    -0.338 N 
HETATM    5  C4  UNL     1      -2.624   0.439   0.882  1.00  0.00     0.102 A 
ATOM      6  H1  UNL     1      -3.451   2.360   0.818  1.00  0.00     0.167 HD
HETATM    7  N7  UNL     1      -1.308   0.059   0.929  1.00  0.00    -0.336 N 
HETATM    8  C7  UNL     1      -0.903  -1.315   0.947  1.00  0.00     0.158 C 
BRANCH   3   9
HETATM    9  C2  UNL     1      -1.005   3.641   0.857  1.00  0.00     0.312 C 
HETATM   10  O2  UNL     1       0.168   4.060   0.876  1.00  0.00    -0.258 OA
BRANCH   9  11
HETATM   11  O1  UNL     1      -2.002   4.622   0.809  1.00  0.00    -0.321 OA
HETATM   12  C1  UNL     1      -1.674   6.001   0.784  1.00  0.00     0.213 C 
ENDBRANCH   9  11
ENDBRANCH   3   9
BRANCH   5  13
HETATM   13  C5  UNL     1      -3.813  -0.463   0.865  1.00  0.00     0.214 C 
BRANCH  13  14
HETATM   14  N2  UNL     1      -4.221  -0.799  -0.464  1.00  0.00    -0.217 N 
ATOM     15  H2  UNL     1      -3.722  -0.402  -1.260  1.00  0.00     0.178 HD
BRANCH  14  16
HETATM   16  C6  UNL     1      -5.205  -1.592  -0.666  1.00  0.00     0.704 A 
HETATM   17  N3  UNL     1      -5.939  -2.176   0.290  1.00  0.00    -0.117 N 
HETATM   18  N4  UNL     1      -6.875  -2.932  -0.257  1.00  0.00     0.006 NA
ATOM     19  H3  UNL     1      -5.797  -2.055   1.293  1.00  0.00     0.202 HD
HETATM   20  N5  UNL     1      -6.711  -2.808  -1.562  1.00  0.00     0.006 NA
HETATM   21  N6  UNL     1      -5.704  -2.000  -1.845  1.00  0.00    -0.117 N 
ATOM     22  H6  UNL     1      -5.372  -1.738  -2.773  1.00  0.00     0.202 HD
ENDBRANCH  14  16
ENDBRANCH  13  14
ENDBRANCH   5  13
ENDBRANCH   1   2
BRANCH   1  23
HETATM   23  N8  UNL     1       1.829   0.239   1.045  1.00  0.00    -0.239 N 
HETATM   24  C10 UNL     1       1.988  -0.490   2.249  1.00  0.00     0.209 A 
HETATM   25  N9  UNL     1       2.793  -1.484   2.362  1.00  0.00    -0.333 N 
HETATM   26  C11 UNL     1       3.606  -1.959   1.302  1.00  0.00     0.172 A 
ATOM     27  H9  UNL     1       2.851  -1.958   3.263  1.00  0.00     0.168 HD
HETATM   28  N10 UNL     1       4.501  -2.954   1.182  1.00  0.00    -0.171 N 
HETATM   29  C13 UNL     1       3.498  -1.283   0.083  1.00  0.00     0.227 A 
HETATM   30  C12 UNL     1       4.974  -2.942  -0.075  1.00  0.00     0.700 A 
ATOM     31  H10 UNL     1       4.774  -3.605   1.918  1.00  0.00     0.186 HD
HETATM   32  N12 UNL     1       4.362  -1.930  -0.728  1.00  0.00    -0.070 N 
HETATM   33  N14 UNL     1       2.607  -0.182  -0.045  1.00  0.00    -0.150 N 
BRANCH  30  34
HETATM   34  N11 UNL     1       5.849  -3.762  -0.532  1.00  0.00    -0.233 N 
ATOM     35 2H11 UNL     1       6.311  -4.526  -0.039  1.00  0.00     0.174 HD
ATOM     36 1H11 UNL     1       6.208  -3.753  -1.487  1.00  0.00     0.174 HD
ENDBRANCH  30  34
BRANCH  32  37
HETATM   37  N13 UNL     1       4.607  -1.618  -2.059  1.00  0.00    -0.322 N 
ATOM     38 2H13 UNL     1       5.260  -2.107  -2.672  1.00  0.00     0.178 HD
ATOM     39 1H13 UNL     1       4.145  -0.854  -2.552  1.00  0.00     0.178 HD
ENDBRANCH  32  37
BRANCH  33  40
HETATM   40  N15 UNL     1       2.547   0.451  -1.290  1.00  0.00    -0.004 NA
BRANCH  40  41
HETATM   41  N16 UNL     1       3.529   1.403  -1.472  1.00  0.00    -0.327 N 
ATOM     42 2H16 UNL     1       4.225   1.613  -0.757  1.00  0.00     0.174 HD
ATOM     43 1H16 UNL     1       3.485   1.865  -2.380  1.00  0.00     0.174 HD
ENDBRANCH  40  41
ENDBRANCH  33  40
ENDBRANCH   1  23
TORSDOF 11
