REMARK  12 active torsions:
REMARK  status: ('A' for Active; 'I' for Inactive)
REMARK    1  A    between atoms: C2_2  and  N1_3 
REMARK    2  A    between atoms: N1_3  and  C3_4 
REMARK    3  A    between atoms: N1_3  and  C6_8 
REMARK    4  A    between atoms: C3_4  and  C4_5 
REMARK    5  A    between atoms: C9_12  and  N4_13 
REMARK    6  A    between atoms: N4_13  and  O1_15 
REMARK    7  A    between atoms: C10_17  and  O2_18 
REMARK    8  A    between atoms: C11_20  and  O3_21 
REMARK    9  A    between atoms: C13_25  and  C14_26 
REMARK   10  A    between atoms: C14_26  and  C15_27 
REMARK   11  A    between atoms: C16_28  and  C17_29 
REMARK   12  A    between atoms: C20_32  and  O5_33 
ROOT
HETATM    1  C4  UNL     1      -6.350   1.345  -1.638  1.00  0.00     0.143 C 
HETATM    2  C5  UNL     1      -7.266   2.511  -1.502  1.00  0.00     0.060 C 
HETATM    3  N2  UNL     1      -7.959   3.428  -1.403  1.00  0.00    -0.197 NA
ENDROOT
BRANCH   1   4
HETATM    4  C3  UNL     1      -5.935   0.964  -0.257  1.00  0.00     0.137 C 
BRANCH   4   5
HETATM    5  N1  UNL     1      -5.021  -0.155  -0.177  1.00  0.00    -0.377 N 
BRANCH   5   6
HETATM    6  C2  UNL     1      -5.406  -1.495  -0.507  1.00  0.00     0.118 C 
HETATM    7  C1  UNL     1      -5.688  -1.734  -1.962  1.00  0.00     0.026 C 
ENDBRANCH   5   6
BRANCH   5   8
HETATM    8  C6  UNL     1      -3.658   0.058   0.253  1.00  0.00     0.081 A 
HETATM    9  C7  UNL     1      -2.700   0.825  -0.364  1.00  0.00     0.089 A 
HETATM   10  C8  UNL     1      -1.558   0.730   0.405  1.00  0.00     0.151 A 
HETATM   11  N3  UNL     1      -1.783  -0.065   1.465  1.00  0.00    -0.280 N 
HETATM   12  O6  UNL     1      -0.384   1.363   0.106  1.00  0.00    -0.325 OA
HETATM   13  C9  UNL     1      -3.070  -0.476   1.369  1.00  0.00     0.158 A 
HETATM   14  C10 UNL     1      -0.961  -0.492   2.563  1.00  0.00     0.260 C 
HETATM   15  C11 UNL     1       0.126   0.510   2.879  1.00  0.00     0.198 C 
HETATM   16  C12 UNL     1       1.184   0.603   1.821  1.00  0.00     0.187 C 
HETATM   17  O4  UNL     1       1.409  -0.574   1.152  1.00  0.00    -0.372 OA
HETATM   18  C21 UNL     1       0.849   1.558   0.712  1.00  0.00     0.193 C 
HETATM   19  C13 UNL     1       2.279  -0.208   0.127  1.00  0.00     0.157 C 
HETATM   20  C20 UNL     1       1.927   1.173  -0.312  1.00  0.00     0.179 C 
BRANCH  13  21
HETATM   21  N4  UNL     1      -3.767  -1.346   2.280  1.00  0.00    -0.251 N 
ATOM     22  H4  UNL     1      -4.570  -1.032   2.826  1.00  0.00     0.196 HD
BRANCH  21  23
HETATM   23  O1  UNL     1      -3.318  -2.523   2.358  1.00  0.00    -0.288 OA
ATOM     24  H1  UNL     1      -3.778  -3.097   2.959  1.00  0.00     0.244 HD
ENDBRANCH  21  23
ENDBRANCH  13  21
BRANCH  14  25
HETATM   25  O2  UNL     1      -1.774  -0.523   3.721  1.00  0.00    -0.373 OA
ATOM     26  H2  UNL     1      -1.230  -0.805   4.447  1.00  0.00     0.212 HD
ENDBRANCH  14  25
BRANCH  15  27
HETATM   27  O3  UNL     1       0.704   0.133   4.090  1.00  0.00    -0.388 OA
ATOM     28  H3  UNL     1       1.387   0.763   4.289  1.00  0.00     0.210 HD
ENDBRANCH  15  27
BRANCH  19  29
HETATM   29  C14 UNL     1       3.685  -0.352   0.643  1.00  0.00     0.061 C 
BRANCH  29  30
HETATM   30  C15 UNL     1       4.724   0.003  -0.339  1.00  0.00    -0.028 C 
HETATM   31  C16 UNL     1       5.637  -0.859  -0.743  1.00  0.00    -0.027 C 
BRANCH  31  32
HETATM   32  C17 UNL     1       6.695  -0.526  -1.733  1.00  0.00    -0.001 C 
HETATM   33  C18 UNL     1       8.083  -0.756  -1.162  1.00  0.00     0.013 C 
HETATM   34  C19 UNL     1       6.614   0.882  -2.217  1.00  0.00     0.013 C 
ENDBRANCH  31  32
ENDBRANCH  29  30
ENDBRANCH  19  29
BRANCH  20  35
HETATM   35  O5  UNL     1       1.410   1.220  -1.607  1.00  0.00    -0.390 OA
ATOM     36  H5  UNL     1       1.186   2.100  -1.887  1.00  0.00     0.210 HD
ENDBRANCH  20  35
ENDBRANCH   5   8
ENDBRANCH   4   5
ENDBRANCH   1   4
TORSDOF 12
