REMARK  15 active torsions:
REMARK  status: ('A' for Active; 'I' for Inactive)
REMARK    1  A    between atoms: C2_2  and  C3_3 
REMARK    2  A    between atoms: C3_3  and  C5_5 
REMARK    3  A    between atoms: C5_5  and  C6_6 
REMARK    4  A    between atoms: C5_5  and  N1_13 
REMARK    5  A    between atoms: C6_6  and  C7_7 
REMARK       I    between atoms: N1_13  and  C13_15 
REMARK    6  A    between atoms: C13_15  and  C14_17 
REMARK    7  A    between atoms: C17_23  and  C18_24 
REMARK    8  A    between atoms: C18_24  and  C19_25 
REMARK    9  A    between atoms: C19_25  and  C20_26 
REMARK       I    between atoms: C20_26  and  N3_28 
REMARK   10  A    between atoms: N3_28  and  C21_29 
REMARK   11  A    between atoms: C21_29  and  C22_30 
REMARK   12  A    between atoms: C22_30  and  C23_31 
REMARK   13  A    between atoms: C23_31  and  N4_32 
REMARK   14  A    between atoms: C25_39  and  C26_40 
REMARK   15  A    between atoms: C26_40  and  C27_41 
ROOT
HETATM    1  N4  UNL     1      12.176   2.013  -0.324  1.00  0.00    -0.368 N 
ATOM      2  H4  UNL     1      12.634   1.102  -0.330  1.00  0.00     0.161 HD
HETATM    3  C24 UNL     1      12.686   2.972  -0.965  1.00  0.00     0.348 C 
HETATM    4  O4  UNL     1      13.320   3.774  -1.652  1.00  0.00    -0.284 OA
ENDROOT
BRANCH   1   5
HETATM    5  C23 UNL     1      10.962   2.189   0.411  1.00  0.00     0.128 C 
BRANCH   5   6
HETATM    6  C22 UNL     1       9.856   1.276  -0.089  1.00  0.00     0.079 C 
BRANCH   6   7
HETATM    7  C21 UNL     1       8.629   1.571   0.802  1.00  0.00     0.160 C 
BRANCH   7   8
HETATM    8  N3  UNL     1       7.508   0.862   0.503  1.00  0.00    -0.388 NA
HETATM    9  C20 UNL     1       6.387   0.140   0.205  1.00  0.00     0.290 C 
HETATM   10  O3  UNL     1       6.265  -1.107   0.237  1.00  0.00    -0.257 OA
BRANCH   9  11
HETATM   11  C19 UNL     1       5.097   0.860  -0.218  1.00  0.00     0.121 C 
BRANCH  11  12
HETATM   12  C18 UNL     1       3.990  -0.116  -0.367  1.00  0.00     0.053 C 
BRANCH  12  13
HETATM   13  C17 UNL     1       2.699   0.498  -0.808  1.00  0.00     0.278 C 
HETATM   14  C16 UNL     1       2.110   1.508   0.078  1.00  0.00     0.249 C 
HETATM   15  N2  UNL     1       0.844   2.054  -0.346  1.00  0.00    -0.340 N 
HETATM   16  O2  UNL     1       2.625   1.923   1.172  1.00  0.00    -0.271 OA
HETATM   17  C14 UNL     1      -0.081   1.092  -1.005  1.00  0.00     0.138 C 
ATOM     18  H2  UNL     1       0.599   3.034  -0.204  1.00  0.00     0.163 HD
HETATM   19  C15 UNL     1       0.112   1.236  -2.519  1.00  0.00     0.051 C 
HETATM   20  C25 UNL     1       0.389  -0.250  -0.574  1.00  0.00     0.224 C 
HETATM   21  N5  UNL     1       1.728  -0.553  -1.069  1.00  0.00    -0.055 N 
ATOM     22  H52 UNL     1       1.702  -0.780  -2.063  1.00  0.00     0.278 HD
ATOM     23  H51 UNL     1       2.055  -1.445  -0.699  1.00  0.00     0.278 HD
BRANCH  17  24
HETATM   24  C13 UNL     1      -1.436   1.476  -0.606  1.00  0.00     0.248 C 
HETATM   25  N1  UNL     1      -2.623   0.845  -0.977  1.00  0.00    -0.354 N 
ATOM     26  H1  UNL     1      -2.484   0.041  -1.589  1.00  0.00     0.162 HD
HETATM   27  O1  UNL     1      -1.472   2.513   0.169  1.00  0.00    -0.271 OA
BRANCH  25  28
HETATM   28  C5  UNL     1      -4.001   1.103  -0.669  1.00  0.00     0.088 C 
BRANCH  28  29
HETATM   29  C3  UNL     1      -4.848   0.097  -1.324  1.00  0.00     0.004 C 
HETATM   30  C4  UNL     1      -4.718  -1.329  -0.846  1.00  0.00     0.012 C 
BRANCH  29  31
HETATM   31  C2  UNL     1      -4.553   0.014  -2.832  1.00  0.00     0.002 C 
HETATM   32  C1  UNL     1      -4.608   1.364  -3.459  1.00  0.00     0.005 C 
ENDBRANCH  29  31
ENDBRANCH  28  29
BRANCH  28  33
HETATM   33  C6  UNL     1      -4.143   1.319   0.806  1.00  0.00     0.030 C 
BRANCH  33  34
HETATM   34  C7  UNL     1      -5.458   1.725   1.367  1.00  0.00    -0.013 C 
HETATM   35  C8  UNL     1      -5.245   2.052   2.893  1.00  0.00     0.005 C 
HETATM   36  C9  UNL     1      -5.308   0.825   3.749  1.00  0.00     0.000 C 
HETATM   37  C10 UNL     1      -6.773   0.440   3.897  1.00  0.00     0.000 C 
HETATM   38  C11 UNL     1      -7.439   0.823   2.583  1.00  0.00     0.000 C 
HETATM   39  C12 UNL     1      -6.404   0.542   1.456  1.00  0.00     0.005 C 
ENDBRANCH  33  34
ENDBRANCH  28  33
ENDBRANCH  25  28
ENDBRANCH  17  24
BRANCH  20  40
HETATM   40  C26 UNL     1      -0.507  -1.369  -0.980  1.00  0.00     0.042 C 
BRANCH  40  41
HETATM   41  C27 UNL     1      -0.034  -2.758  -0.613  1.00  0.00     0.013 C 
HETATM   42  C28 UNL     1       0.108  -2.940   0.870  1.00  0.00     0.008 C 
HETATM   43  C29 UNL     1       0.604  -4.358   1.103  1.00  0.00     0.028 C 
HETATM   44  C30 UNL     1      -0.171  -5.393   0.368  1.00  0.00     0.232 C 
HETATM   45  N6  UNL     1      -0.590  -5.046  -0.950  1.00  0.00    -0.075 N 
HETATM   46  C31 UNL     1      -1.129  -3.728  -1.068  1.00  0.00     0.237 C 
ATOM     47  H62 UNL     1       0.173  -5.179  -1.613  1.00  0.00     0.277 HD
ATOM     48  H61 UNL     1      -1.252  -5.735  -1.306  1.00  0.00     0.277 HD
ENDBRANCH  40  41
ENDBRANCH  20  40
ENDBRANCH  12  13
ENDBRANCH  11  12
ENDBRANCH   9  11
ENDBRANCH   7   8
ENDBRANCH   6   7
ENDBRANCH   5   6
ENDBRANCH   1   5
TORSDOF 15
