REMARK  2 active torsions:
REMARK  status: ('A' for Active; 'I' for Inactive)
REMARK    1  A    between atoms: N2_4  and  C1_6 
REMARK    2  A    between atoms: C1_6  and  C2_7 
ROOT
HETATM    1  N1  UNL     1       2.266   0.421  -1.355  1.00  0.00    -0.349 N 
ATOM      2  H11 UNL     1       2.928   1.133  -1.663  1.00  0.00     0.176 HD
ATOM      3  H12 UNL     1       1.895  -0.239  -2.039  1.00  0.00     0.176 HD
HETATM    4  N2  UNL     1       1.872   0.298  -0.181  1.00  0.00    -0.343 N 
ATOM      5  H2  UNL     1       2.233   0.949   0.516  1.00  0.00     0.179 HD
ENDROOT
BRANCH   4   6
HETATM    6  C1  UNL     1       0.940  -0.705   0.252  1.00  0.00     0.143 C 
BRANCH   6   7
HETATM    7  C2  UNL     1      -0.340  -0.026   0.640  1.00  0.00     0.005 A 
HETATM    8  C3  UNL     1      -0.975   0.754  -0.517  1.00  0.00     0.007 A 
HETATM    9  C4  UNL     1      -1.645  -0.410   0.122  1.00  0.00     0.007 A 
ENDBRANCH   6   7
ENDBRANCH   4   6
TORSDOF 2
