REMARK  6 active torsions:
REMARK  status: ('A' for Active; 'I' for Inactive)
REMARK    1  A    between atoms: C2_2  and  C3_3 
REMARK    2  A    between atoms: C3_3  and  N1_4 
REMARK    3  A    between atoms: N1_4  and  N2_5 
REMARK    4  A    between atoms: N2_5  and  C4_7 
REMARK    5  A    between atoms: C4_7  and  C5_8 
REMARK    6  A    between atoms: C5_8  and  N3_9 
ROOT
HETATM    1  N2  UNL     1       0.235  -1.087   0.155  1.00  0.00    -0.338 N 
ATOM      2  H2  UNL     1       0.834  -1.868  -0.113  1.00  0.00     0.175 HD
ENDROOT
BRANCH   1   3
HETATM    3  N1  UNL     1      -0.855  -1.312   0.975  1.00  0.00    -0.146 NA
BRANCH   3   4
HETATM    4  C3  UNL     1      -1.843  -0.286   0.948  1.00  0.00     0.134 C 
BRANCH   4   5
HETATM    5  C2  UNL     1      -2.906  -0.580  -0.093  1.00  0.00     0.013 C 
HETATM    6  C1  UNL     1      -3.575   0.751  -0.357  1.00  0.00     0.006 C 
ENDBRANCH   4   5
ENDBRANCH   3   4
ENDBRANCH   1   3
BRANCH   1   7
HETATM    7  C4  UNL     1       0.526   0.199  -0.312  1.00  0.00     0.162 C 
BRANCH   7   8
HETATM    8  C5  UNL     1       1.904   0.639   0.237  1.00  0.00     0.252 C 
BRANCH   8   9
HETATM    9  N3  UNL     1       2.904  -0.319  -0.116  1.00  0.00    -0.077 N 
HETATM   10  C6  UNL     1       4.223   0.224  -0.083  1.00  0.00     0.267 C 
ATOM     11  H32 UNL     1       2.836  -1.151   0.470  1.00  0.00     0.276 HD
ATOM     12  H31 UNL     1       2.704  -0.739  -1.024  1.00  0.00     0.276 HD
ENDBRANCH   8   9
ENDBRANCH   7   8
ENDBRANCH   1   7
TORSDOF 6
