REMARK  7 active torsions:
REMARK  status: ('A' for Active; 'I' for Inactive)
REMARK    1  A    between atoms: C2_2  and  C3_3 
REMARK    2  A    between atoms: C3_3  and  N1_4 
REMARK    3  A    between atoms: N1_4  and  N2_6 
REMARK    4  A    between atoms: N2_6  and  C4_7 
REMARK    5  A    between atoms: C4_7  and  C5_8 
REMARK    6  A    between atoms: C5_8  and  C6_9 
REMARK    7  A    between atoms: C6_9  and  O1_10 
ROOT
HETATM    1  N2  UNL     1       0.369  -0.389  -0.933  1.00  0.00    -0.146 NA
ENDROOT
BRANCH   1   2
HETATM    2  N1  UNL     1      -0.973  -0.723  -0.913  1.00  0.00    -0.336 N 
ATOM      3  H1  UNL     1      -1.327  -1.552  -1.390  1.00  0.00     0.176 HD
BRANCH   2   4
HETATM    4  C3  UNL     1      -1.832   0.149  -0.194  1.00  0.00     0.161 C 
BRANCH   4   5
HETATM    5  C2  UNL     1      -3.218  -0.369  -0.287  1.00  0.00    -0.017 C 
HETATM    6  C1  UNL     1      -4.144   0.389  -0.833  1.00  0.00     0.008 C 
ENDBRANCH   4   5
ENDBRANCH   2   4
ENDBRANCH   1   2
BRANCH   1   7
HETATM    7  C4  UNL     1       0.721   0.312   0.251  1.00  0.00     0.136 C 
BRANCH   7   8
HETATM    8  C5  UNL     1       2.172   0.724   0.323  1.00  0.00     0.044 C 
BRANCH   8   9
HETATM    9  C6  UNL     1       3.022  -0.524   0.267  1.00  0.00     0.165 C 
BRANCH   9  10
HETATM   10  O1  UNL     1       4.385  -0.144   0.341  1.00  0.00    -0.401 OA
ATOM     11  H1  UNL     1       4.919  -0.929   0.306  1.00  0.00     0.209 HD
ENDBRANCH   9  10
ENDBRANCH   8   9
ENDBRANCH   7   8
ENDBRANCH   1   7
TORSDOF 7
