REMARK  15 active torsions:
REMARK  status: ('A' for Active; 'I' for Inactive)
REMARK    1  A    between atoms: N1_2  and  C2_3 
REMARK    2  A    between atoms: N1_2  and  C16_27 
REMARK    3  A    between atoms: C2_3  and  O1_4 
REMARK    4  A    between atoms: C3_6  and  N2_8 
REMARK    5  A    between atoms: N2_8  and  C4_10 
REMARK    6  A    between atoms: C4_10  and  C5_11 
REMARK    7  A    between atoms: C5_11  and  C6_12 
REMARK    8  A    between atoms: C6_12  and  C7_13 
REMARK    9  A    between atoms: C7_13  and  C8_14 
REMARK   10  A    between atoms: C8_14  and  C9_15 
REMARK   11  A    between atoms: C9_15  and  C10_16 
REMARK   12  A    between atoms: C10_16  and  N3_17 
REMARK   13  A    between atoms: N3_17  and  C11_19 
REMARK   14  A    between atoms: C11_19  and  N4_21 
REMARK   15  A    between atoms: N4_21  and  C12_23 
ROOT
HETATM    1  C4  UNL     1      -2.119  -0.319  -0.663  1.00  0.00     0.121 C 
ENDROOT
BRANCH   1   2
HETATM    2  N2  UNL     1      -2.198   0.093   0.697  1.00  0.00    -0.378 N 
ATOM      3  H2  UNL     1      -1.296   0.065   1.172  1.00  0.00     0.160 HD
BRANCH   2   4
HETATM    4  C3  UNL     1      -3.221   0.522   1.517  1.00  0.00     0.147 C 
HETATM    5  C2  UNL     1      -4.586   0.727   1.343  1.00  0.00     0.176 C 
HETATM    6  S1  UNL     1      -2.627   0.854   3.121  1.00  0.00    -0.056 SA
BRANCH   5   7
HETATM    7  N1  UNL     1      -5.492   0.620   0.316  1.00  0.00    -0.359 N 
HETATM    8  C1  UNL     1      -5.349   0.240  -1.060  1.00  0.00     0.152 C 
BRANCH   7   9
HETATM    9  C16 UNL     1      -6.911   0.949   0.657  1.00  0.00     0.086 C 
HETATM   10  C17 UNL     1      -7.424   2.094  -0.147  1.00  0.00     0.025 C 
HETATM   11  C18 UNL     1      -8.860   2.334   0.266  1.00  0.00     0.002 C 
HETATM   12  C19 UNL     1      -9.681   1.067   0.196  1.00  0.00     0.000 C 
HETATM   13  C20 UNL     1      -9.094  -0.057   1.004  1.00  0.00     0.002 C 
HETATM   14  C21 UNL     1      -7.691  -0.322   0.481  1.00  0.00     0.025 C 
ENDBRANCH   7   9
ENDBRANCH   5   7
BRANCH   5  15
HETATM   15  O1  UNL     1      -5.181   1.141   2.482  1.00  0.00    -0.344 OA
ATOM     16  H1  UNL     1      -4.554   1.215   3.192  1.00  0.00     0.219 HD
ENDBRANCH   5  15
ENDBRANCH   2   4
ENDBRANCH   1   2
BRANCH   1  17
HETATM   17  C5  UNL     1      -0.668  -0.753  -0.973  1.00  0.00     0.020 C 
BRANCH  17  18
HETATM   18  C6  UNL     1      -0.346  -1.926  -0.080  1.00  0.00     0.002 C 
BRANCH  18  19
HETATM   19  C7  UNL     1       1.061  -2.397  -0.380  1.00  0.00     0.000 C 
BRANCH  19  20
HETATM   20  C8  UNL     1       2.024  -1.284  -0.113  1.00  0.00     0.002 C 
BRANCH  20  21
HETATM   21  C9  UNL     1       3.460  -1.705  -0.389  1.00  0.00     0.020 C 
BRANCH  21  22
HETATM   22  C10 UNL     1       4.349  -0.523  -0.091  1.00  0.00     0.122 C 
BRANCH  22  23
HETATM   23  N3  UNL     1       5.719  -0.883  -0.345  1.00  0.00    -0.367 N 
ATOM     24  H3  UNL     1       5.922  -1.827  -0.675  1.00  0.00     0.161 HD
BRANCH  23  25
HETATM   25  C11 UNL     1       6.802   0.019  -0.156  1.00  0.00     0.168 C 
HETATM   26  S2  UNL     1       6.447   1.523   0.375  1.00  0.00    -0.041 SA
BRANCH  25  27
HETATM   27  N4  UNL     1       8.126  -0.399  -0.425  1.00  0.00    -0.359 N 
ATOM     28  H4  UNL     1       8.314  -1.345  -0.755  1.00  0.00     0.162 HD
BRANCH  27  29
HETATM   29  C12 UNL     1       9.215   0.545  -0.222  1.00  0.00     0.021 C 
HETATM   30  C13 UNL     1      10.513  -0.177  -0.600  1.00  0.00     0.037 C 
HETATM   31  C14 UNL     1       9.280   0.927   1.237  1.00  0.00     0.037 C 
HETATM   32  C15 UNL     1       9.024   1.789  -1.072  1.00  0.00     0.037 C 
ENDBRANCH  27  29
ENDBRANCH  25  27
ENDBRANCH  23  25
ENDBRANCH  22  23
ENDBRANCH  21  22
ENDBRANCH  20  21
ENDBRANCH  19  20
ENDBRANCH  18  19
ENDBRANCH  17  18
ENDBRANCH   1  17
TORSDOF 15
