REMARK  12 active torsions:
REMARK  status: ('A' for Active; 'I' for Inactive)
REMARK    1  A    between atoms: C2_2  and  N1_3 
REMARK    2  A    between atoms: N1_3  and  C3_4 
REMARK    3  A    between atoms: N1_3  and  C5_6 
REMARK    4  A    between atoms: C5_6  and  C6_7 
REMARK    5  A    between atoms: C8_9  and  O1_10 
REMARK    6  A    between atoms: O1_10  and  C9_11 
REMARK    7  A    between atoms: C10_14  and  N3_15 
REMARK    8  A    between atoms: N3_15  and  C11_17 
REMARK    9  A    between atoms: C11_17  and  C12_18 
REMARK   10  A    between atoms: C15_21  and  C16_22 
REMARK   11  A    between atoms: C16_22  and  N4_23 
REMARK   12  A    between atoms: N6_32  and  C20_34 
ROOT
HETATM    1  C9  UNL     1      -0.611   0.670   0.456  1.00  0.00     0.261 A 
HETATM    2  N2  UNL     1       0.539  -0.105   0.604  1.00  0.00    -0.153 N 
ATOM      3  H2  UNL     1       0.431  -1.085   0.865  1.00  0.00     0.188 HD
HETATM    4  C10 UNL     1       1.764   0.364   0.424  1.00  0.00     0.695 A 
HETATM    5  N5  UNL     1       1.897   1.652   0.081  1.00  0.00    -0.022 N 
ATOM      6  H5  UNL     1       2.835   2.027  -0.060  1.00  0.00     0.203 HD
HETATM    7  C19 UNL     1       0.849   2.466  -0.084  1.00  0.00     0.698 A 
HETATM    8  N6  UNL     1       0.928   3.700  -0.386  1.00  0.00    -0.221 N 
ATOM      9  H6  UNL     1       0.058   4.222  -0.489  1.00  0.00     0.178 HD
HETATM   10  N7  UNL     1      -0.410   1.946   0.111  1.00  0.00    -0.149 N 
HETATM   11  C25 UNL     1      -1.552   2.824  -0.085  1.00  0.00     0.179 C 
ENDROOT
BRANCH   1  12
HETATM   12  O1  UNL     1      -1.766   0.041   0.679  1.00  0.00    -0.261 OA
BRANCH  12  13
HETATM   13  C8  UNL     1      -3.080   0.140   0.727  1.00  0.00     0.152 A 
HETATM   14  C7  UNL     1      -3.959  -0.720   0.014  1.00  0.00     0.067 A 
HETATM   15  C6  UNL     1      -5.249  -0.386   0.260  1.00  0.00    -0.004 A 
HETATM   16  C26 UNL     1      -5.201   0.707   1.142  1.00  0.00     0.015 A 
HETATM   17  N8  UNL     1      -3.924   0.971   1.381  1.00  0.00    -0.340 N 
HETATM   18  C27 UNL     1      -6.413   1.417   1.682  1.00  0.00     0.069 C 
ATOM     19  H8  UNL     1      -3.610   1.723   1.995  1.00  0.00     0.167 HD
BRANCH  15  20
HETATM   20  C5  UNL     1      -6.499  -0.951  -0.246  1.00  0.00     0.313 C 
BRANCH  20  21
HETATM   21  N1  UNL     1      -6.450  -2.098  -1.074  1.00  0.00     0.091 N 
BRANCH  21  22
HETATM   22  C2  UNL     1      -7.714  -2.290  -1.730  1.00  0.00     0.268 C 
HETATM   23  C1  UNL     1      -8.859  -2.553  -0.835  1.00  0.00     0.037 C 
ENDBRANCH  21  22
BRANCH  21  24
HETATM   24  C3  UNL     1      -5.922  -3.289  -0.501  1.00  0.00     0.268 C 
HETATM   25  C4  UNL     1      -6.579  -3.854   0.708  1.00  0.00     0.037 C 
ENDBRANCH  21  24
ENDBRANCH  20  21
ENDBRANCH  15  20
ENDBRANCH  12  13
ENDBRANCH   1  12
BRANCH   4  26
HETATM   26  N3  UNL     1       2.759  -0.390   0.570  1.00  0.00    -0.225 N 
ATOM     27  H3  UNL     1       2.541  -1.352   0.828  1.00  0.00     0.177 HD
BRANCH  26  28
HETATM   28  C11 UNL     1       4.145  -0.098   0.428  1.00  0.00     0.142 C 
BRANCH  28  29
HETATM   29  C12 UNL     1       4.912  -1.278  -0.199  1.00  0.00     0.004 C 
HETATM   30  C13 UNL     1       4.747  -2.438   0.706  1.00  0.00     0.007 C 
HETATM   31  C14 UNL     1       5.621  -3.592   0.263  1.00  0.00     0.007 C 
HETATM   32  C15 UNL     1       7.039  -3.132   0.309  1.00  0.00     0.011 C 
HETATM   33  C17 UNL     1       7.334  -1.895  -0.490  1.00  0.00     0.007 C 
HETATM   34  C18 UNL     1       6.316  -0.831  -0.409  1.00  0.00     0.007 C 
BRANCH  32  35
HETATM   35  C16 UNL     1       7.916  -4.243  -0.244  1.00  0.00     0.234 C 
BRANCH  35  36
HETATM   36  N4  UNL     1       7.805  -5.459   0.499  1.00  0.00    -0.079 N 
ATOM     37  H43 UNL     1       7.996  -5.301   1.488  1.00  0.00     0.274 HD
ATOM     38  H42 UNL     1       6.832  -5.760   0.564  1.00  0.00     0.274 HD
ATOM     39  H41 UNL     1       8.394  -6.205   0.128  1.00  0.00     0.274 HD
ENDBRANCH  35  36
ENDBRANCH  32  35
ENDBRANCH  28  29
ENDBRANCH  26  28
ENDBRANCH   4  26
BRANCH   8  40
HETATM   40  C20 UNL     1       2.150   4.400  -0.590  1.00  0.00     0.099 C 
HETATM   41  C21 UNL     1       2.138   5.256  -1.848  1.00  0.00     0.026 C 
HETATM   42  C22 UNL     1       1.469   6.546  -1.484  1.00  0.00     0.002 C 
HETATM   43  C23 UNL     1       1.061   6.399  -0.034  1.00  0.00     0.002 C 
HETATM   44  C24 UNL     1       2.196   5.511   0.487  1.00  0.00     0.026 C 
ENDBRANCH   8  40
TORSDOF 12
