REMARK  16 active torsions:
REMARK  status: ('A' for Active; 'I' for Inactive)
REMARK    1  A    between atoms: C2_2  and  C3_3 
REMARK    2  A    between atoms: C3_3  and  O1_4 
REMARK    3  A    between atoms: C3_3  and  C4_6 
REMARK    4  A    between atoms: C4_6  and  O3_8 
REMARK    5  A    between atoms: O3_8  and  C5_9 
REMARK    6  A    between atoms: C7_11  and  O4_12 
REMARK    7  A    between atoms: O4_12  and  C8_13 
REMARK    8  A    between atoms: C8_13  and  C9_15 
REMARK    9  A    between atoms: C9_15  and  C10_16 
REMARK   10  A    between atoms: C10_16  and  C11_17 
REMARK   11  A    between atoms: C11_17  and  C13_19 
REMARK   12  A    between atoms: C14_20  and  C15_21 
REMARK   13  A    between atoms: C15_21  and  C16_22 
REMARK   14  A    between atoms: C16_22  and  C17_23 
REMARK   15  A    between atoms: C17_23  and  N1_24 
REMARK   16  A    between atoms: C27_37  and  O6_38 
ROOT
HETATM    1  C5  UNL     1      -3.075  -0.105  -1.200  1.00  0.00     0.150 C 
HETATM    2  C6  UNL     1      -1.982  -0.981  -1.704  1.00  0.00     0.054 C 
HETATM    3  C7  UNL     1      -1.064  -1.496  -0.605  1.00  0.00     0.143 C 
HETATM    4  C18 UNL     1      -2.009  -2.309   0.305  1.00  0.00     0.021 C 
HETATM    5  C19 UNL     1      -2.536  -3.476  -0.402  1.00  0.00     0.008 C 
HETATM    6  C20 UNL     1      -2.737  -3.386  -1.865  1.00  0.00     0.010 C 
HETATM    7  C21 UNL     1      -2.367  -2.127  -2.549  1.00  0.00    -0.039 C 
HETATM    8  C22 UNL     1      -3.416  -1.745  -3.610  1.00  0.00     0.015 C 
HETATM    9  C23 UNL     1      -1.133  -2.456  -3.423  1.00  0.00     0.015 C 
HETATM   10  C24 UNL     1      -2.912  -1.318   0.892  1.00  0.00     0.005 C 
HETATM   11  C25 UNL     1      -3.844  -1.683   1.967  1.00  0.00     0.009 C 
HETATM   12  C26 UNL     1      -4.561  -0.351   2.181  1.00  0.00     0.033 C 
HETATM   13  C27 UNL     1      -4.187   0.543   0.985  1.00  0.00     0.129 C 
HETATM   14  C28 UNL     1      -3.825  -0.569  -0.022  1.00  0.00     0.013 C 
HETATM   15  C29 UNL     1      -5.142  -1.191  -0.307  1.00  0.00     0.021 C 
ENDROOT
BRANCH   3  16
HETATM   16  O4  UNL     1      -0.484  -0.425   0.080  1.00  0.00    -0.315 OA
BRANCH  16  17
HETATM   17  C8  UNL     1       0.914  -0.304   0.101  1.00  0.00     0.259 C 
HETATM   18  O5  UNL     1       1.565  -1.176  -0.503  1.00  0.00    -0.265 OA
BRANCH  17  19
HETATM   19  C9  UNL     1       1.579   0.798   0.801  1.00  0.00     0.112 C 
BRANCH  19  20
HETATM   20  C10 UNL     1       3.051   0.713   0.787  1.00  0.00     0.018 C 
BRANCH  20  21
HETATM   21  C11 UNL     1       3.641  -0.495   1.470  1.00  0.00     0.004 C 
HETATM   22  C12 UNL     1       3.236  -0.530   2.946  1.00  0.00     0.014 C 
BRANCH  21  23
HETATM   23  C13 UNL     1       5.143  -0.376   1.446  1.00  0.00    -0.026 C 
HETATM   24  C14 UNL     1       5.856  -0.316   2.540  1.00  0.00    -0.030 C 
BRANCH  24  25
HETATM   25  C15 UNL     1       7.349  -0.197   2.442  1.00  0.00     0.028 C 
BRANCH  25  26
HETATM   26  C16 UNL     1       7.780  -0.166   0.988  1.00  0.00     0.031 C 
BRANCH  26  27
HETATM   27  C17 UNL     1       9.281  -0.044   0.894  1.00  0.00     0.230 C 
BRANCH  27  28
HETATM   28  N1  UNL     1       9.730   1.187   1.542  1.00  0.00    -0.079 N 
ATOM     29  H13 UNL     1       9.257   2.009   1.167  1.00  0.00     0.274 HD
ATOM     30  H12 UNL     1       9.402   1.251   2.506  1.00  0.00     0.274 HD
ATOM     31  H11 UNL     1      10.745   1.269   1.478  1.00  0.00     0.274 HD
ENDBRANCH  27  28
ENDBRANCH  26  27
ENDBRANCH  25  26
ENDBRANCH  24  25
ENDBRANCH  21  23
ENDBRANCH  20  21
ENDBRANCH  19  20
ENDBRANCH  17  19
ENDBRANCH  16  17
ENDBRANCH   3  16
BRANCH   1  32
HETATM   32  O3  UNL     1      -2.504   1.186  -0.940  1.00  0.00    -0.313 OA
BRANCH  32  33
HETATM   33  C4  UNL     1      -2.830   2.311  -1.641  1.00  0.00     0.288 C 
HETATM   34  O2  UNL     1      -3.668   2.231  -2.558  1.00  0.00    -0.262 OA
BRANCH  33  35
HETATM   35  C3  UNL     1      -2.224   3.635  -1.356  1.00  0.00     0.217 C 
BRANCH  35  36
HETATM   36  C2  UNL     1      -3.295   4.667  -1.037  1.00  0.00     0.037 C 
HETATM   37  C1  UNL     1      -2.675   6.035  -0.874  1.00  0.00     0.008 C 
ENDBRANCH  35  36
BRANCH  35  38
HETATM   38  O1  UNL     1      -1.302   3.599  -0.316  1.00  0.00    -0.386 OA
ATOM     39  H1  UNL     1      -0.633   2.954  -0.515  1.00  0.00     0.210 HD
ENDBRANCH  35  38
ENDBRANCH  33  35
ENDBRANCH  32  33
ENDBRANCH   1  32
BRANCH  13  40
HETATM   40  O6  UNL     1      -3.107   1.285   1.381  1.00  0.00    -0.395 OA
ATOM     41  H6  UNL     1      -2.876   1.837   0.643  1.00  0.00     0.210 HD
ENDBRANCH  13  40
TORSDOF 16
