REMARK  3 active torsions:
REMARK  status: ('A' for Active; 'I' for Inactive)
REMARK    1  A    between atoms: C2_2  and  N1_3 
REMARK    2  A    between atoms: C2_2  and  C3_7 
REMARK    3  A    between atoms: C8_12  and  N2_13 
ROOT
HETATM    1  C3  UNL     1      -0.272  -0.272  -0.348  1.00  0.00     0.046 C 
HETATM    2  C4  UNL     1       0.249  -0.524   1.051  1.00  0.00     0.009 C 
HETATM    3  C5  UNL     1       1.565  -1.277   0.816  1.00  0.00     0.001 C 
HETATM    4  C6  UNL     1       2.475  -0.563  -0.105  1.00  0.00     0.002 C 
HETATM    5  C7  UNL     1       1.989   0.710  -0.689  1.00  0.00     0.033 C 
HETATM    6  C8  UNL     1       0.536   0.863  -0.892  1.00  0.00     0.189 C 
ENDROOT
BRANCH   1   7
HETATM    7  C2  UNL     1      -1.747  -0.043  -0.385  1.00  0.00     0.185 C 
HETATM    8  C1  UNL     1      -2.481  -1.252   0.158  1.00  0.00     0.040 C 
BRANCH   7   9
HETATM    9  N1  UNL     1      -2.187   1.101   0.360  1.00  0.00    -0.075 N 
ATOM     10  H13 UNL     1      -3.201   1.215   0.352  1.00  0.00     0.274 HD
ATOM     11  H12 UNL     1      -2.074   0.987   1.367  1.00  0.00     0.274 HD
ATOM     12  H11 UNL     1      -1.693   1.915  -0.006  1.00  0.00     0.274 HD
ENDBRANCH   7   9
ENDBRANCH   1   7
BRANCH   6  13
HETATM   13  N2  UNL     1       0.082   2.143  -0.320  1.00  0.00    -0.075 N 
ATOM     14  H23 UNL     1      -0.918   2.288  -0.462  1.00  0.00     0.274 HD
ATOM     15  H22 UNL     1       0.091   2.126   0.700  1.00  0.00     0.274 HD
ATOM     16  H21 UNL     1       0.633   2.917  -0.691  1.00  0.00     0.274 HD
ENDBRANCH   6  13
TORSDOF 3
