REMARK  3 active torsions:
REMARK  status: ('A' for Active; 'I' for Inactive)
REMARK    1  A    between atoms: C2_5  and  C3_6 
REMARK    2  A    between atoms: C3_6  and  C4_7 
REMARK    3  A    between atoms: C4_7  and  C5_8 
ROOT
HETATM    1  F1  UNL     1       4.140  -2.169   0.179  1.00  0.00    -0.165 F 
HETATM    2  C1  UNL     1       3.317  -1.086   0.000  1.00  0.00     0.265 A 
HETATM    3  N1  UNL     1       1.988  -1.053  -0.067  1.00  0.00    -0.321 N 
ATOM      4  H1  UNL     1       1.382  -1.870   0.010  1.00  0.00     0.169 HD
HETATM    5  C2  UNL     1       1.551   0.219  -0.252  1.00  0.00     0.028 A 
HETATM    6  C8  UNL     1       2.679   1.015  -0.302  1.00  0.00     0.117 A 
HETATM    7  N2  UNL     1       3.732   0.190  -0.145  1.00  0.00    -0.327 N 
ATOM      8  H2  UNL     1       4.707   0.488  -0.137  1.00  0.00     0.169 HD
ENDROOT
BRANCH   5   9
HETATM    9  C3  UNL     1       0.144   0.680  -0.378  1.00  0.00     0.059 C 
BRANCH   9  10
HETATM   10  C4  UNL     1      -0.761  -0.534  -0.264  1.00  0.00     0.010 C 
BRANCH  10  11
HETATM   11  C5  UNL     1      -2.210  -0.188  -0.378  1.00  0.00    -0.014 A 
HETATM   12  C6  UNL     1      -2.745   0.756   0.641  1.00  0.00     0.005 A 
HETATM   13  C7  UNL     1      -3.109  -0.756   0.662  1.00  0.00     0.005 A 
ENDBRANCH  10  11
ENDBRANCH   9  10
ENDBRANCH   5   9
TORSDOF 3
