REMARK  3 active torsions:
REMARK  status: ('A' for Active; 'I' for Inactive)
REMARK    1  A    between atoms: C1_2  and  C2_3 
REMARK    2  A    between atoms: C2_3  and  C3_4 
REMARK    3  A    between atoms: C3_4  and  N1_5 
ROOT
HETATM    1  N1  UNL     1       0.285   1.198  -0.800  1.00  0.00    -0.360 N 
ATOM      2  H1  UNL     1       0.195   2.068  -1.325  1.00  0.00     0.166 HD
HETATM    3  C4  UNL     1      -0.834   0.646  -0.547  1.00  0.00     0.076 C 
HETATM    4  C5  UNL     1      -1.099  -0.613   0.188  1.00  0.00     0.078 C 
HETATM    5  C6  UNL     1      -2.602  -0.730   0.127  1.00  0.00     0.027 C 
HETATM    6  C7  UNL     1      -3.033   0.713   0.041  1.00  0.00     0.121 C 
HETATM    7  N2  UNL     1      -2.116   1.206  -0.957  1.00  0.00    -0.380 N 
ATOM      8  H2  UNL     1      -2.317   1.804  -1.759  1.00  0.00     0.160 HD
ENDROOT
BRANCH   1   9
HETATM    9  C3  UNL     1       1.604   0.865  -0.511  1.00  0.00     0.064 C 
BRANCH   9  10
HETATM   10  C2  UNL     1       1.953  -0.557  -0.221  1.00  0.00     0.076 C 
BRANCH  10  11
HETATM   11  C1  UNL     1       3.459  -0.689   0.050  1.00  0.00     0.227 C 
HETATM   12  F1  UNL     1       3.776   0.096   1.135  1.00  0.00    -0.255 F 
ENDBRANCH  10  11
ENDBRANCH   9  10
ENDBRANCH   1   9
TORSDOF 3
