REMARK  5 active torsions:
REMARK  status: ('A' for Active; 'I' for Inactive)
REMARK    1  A    between atoms: C4_5  and  N1_6 
REMARK    2  A    between atoms: C7_9  and  C8_10 
REMARK    3  A    between atoms: C8_10  and  O1_11 
REMARK    4  A    between atoms: C12_20  and  C13_21 
REMARK    5  A    between atoms: N4_24  and  C16_25 
ROOT
HETATM    1  C1  UNL     1       1.509  -3.151   2.691  1.00  0.00     0.018 C 
HETATM    2  C2  UNL     1       0.662  -2.639   2.006  1.00  0.00    -0.069 C 
HETATM    3  C3  UNL     1      -0.367  -2.047   1.179  1.00  0.00     0.074 A 
HETATM    4  S1  UNL     1      -2.024  -2.390   1.249  1.00  0.00    -0.060 SA
HETATM    5  C4  UNL     1      -2.589  -1.343  -0.016  1.00  0.00     0.102 A 
HETATM    6  C11 UNL     1      -1.422  -0.763  -0.438  1.00  0.00     0.096 A 
HETATM    7  N2  UNL     1      -1.055   0.163  -1.390  1.00  0.00    -0.297 N 
ATOM      8  H2  UNL     1      -1.703   0.630  -2.024  1.00  0.00     0.187 HD
HETATM    9  N3  UNL     1       0.247   0.363  -1.369  1.00  0.00    -0.303 N 
ATOM     10  H3  UNL     1       0.762   0.999  -1.977  1.00  0.00     0.186 HD
HETATM   11  C12 UNL     1       0.779  -0.410  -0.414  1.00  0.00     0.045 A 
HETATM   12  C21 UNL     1      -0.285  -1.120   0.170  1.00  0.00     0.045 A 
ENDROOT
BRANCH   5  13
HETATM   13  N1  UNL     1      -3.950  -1.199  -0.414  1.00  0.00    -0.373 N 
HETATM   14  C5  UNL     1      -4.444  -0.441  -1.518  1.00  0.00     0.124 C 
HETATM   15  C6  UNL     1      -5.086   0.855  -1.044  1.00  0.00     0.026 C 
HETATM   16  C7  UNL     1      -5.628   0.566   0.346  1.00  0.00     0.012 C 
HETATM   17  C9  UNL     1      -6.132  -0.845   0.441  1.00  0.00     0.026 C 
HETATM   18  C10 UNL     1      -4.980  -1.863   0.393  1.00  0.00     0.124 C 
BRANCH  16  19
HETATM   19  C8  UNL     1      -6.758   1.499   0.695  1.00  0.00     0.168 C 
BRANCH  19  20
HETATM   20  O1  UNL     1      -7.787   1.330  -0.237  1.00  0.00    -0.400 OA
ATOM     21  H1  UNL     1      -8.500   1.918  -0.017  1.00  0.00     0.209 HD
ENDBRANCH  19  20
ENDBRANCH  16  19
ENDBRANCH   5  13
BRANCH  11  22
HETATM   22  C13 UNL     1       2.216  -0.413  -0.103  1.00  0.00     0.044 C 
HETATM   23  C14 UNL     1       3.017   0.244  -1.223  1.00  0.00     0.031 C 
HETATM   24  C15 UNL     1       4.472  -0.069  -0.941  1.00  0.00     0.123 C 
HETATM   25  N4  UNL     1       4.833   0.586   0.262  1.00  0.00    -0.389 N 
HETATM   26  C19 UNL     1       3.801   1.197   1.001  1.00  0.00     0.059 C 
HETATM   27  C20 UNL     1       2.561   0.344   1.163  1.00  0.00     0.055 C 
BRANCH  25  28
HETATM   28  C16 UNL     1       6.129   1.099   0.367  1.00  0.00     0.075 C 
HETATM   29  C17 UNL     1       6.343   2.180  -0.681  1.00  0.00     0.032 C 
HETATM   30  C18 UNL     1       7.197   0.039   0.103  1.00  0.00     0.032 C 
ENDBRANCH  25  28
ENDBRANCH  11  22
TORSDOF 5
