REMARK  14 active torsions:
REMARK  status: ('A' for Active; 'I' for Inactive)
REMARK    1  A    between atoms: C2_4  and  C3_5 
REMARK    2  A    between atoms: C3_5  and  C4_6 
REMARK    3  A    between atoms: C4_6  and  C5_7 
REMARK    4  A    between atoms: C5_7  and  C6_8 
REMARK    5  A    between atoms: C6_8  and  C7_9 
REMARK    6  A    between atoms: C7_9  and  C8_10 
REMARK    7  A    between atoms: C8_10  and  C9_11 
REMARK    8  A    between atoms: C9_11  and  C10_12 
REMARK    9  A    between atoms: C10_12  and  C11_13 
REMARK   10  A    between atoms: C11_13  and  C12_14 
REMARK   11  A    between atoms: C12_14  and  C13_15 
REMARK   12  A    between atoms: C13_15  and  C14_16 
REMARK   13  A    between atoms: C14_16  and  C15_17 
REMARK   14  A    between atoms: C15_17  and  C16_18 
ROOT
HETATM    1  C9  UNL     1      -0.200  -0.873  -0.932  1.00  0.00     0.000 C 
ENDROOT
BRANCH   1   2
HETATM    2  C8  UNL     1       1.167  -0.189  -0.752  1.00  0.00     0.000 C 
BRANCH   2   3
HETATM    3  C7  UNL     1       2.287  -1.152  -0.908  1.00  0.00     0.000 C 
BRANCH   3   4
HETATM    4  C6  UNL     1       3.609  -0.437  -0.743  1.00  0.00     0.000 C 
BRANCH   4   5
HETATM    5  C5  UNL     1       3.786   0.214   0.598  1.00  0.00     0.000 C 
BRANCH   5   6
HETATM    6  C4  UNL     1       5.102   0.923   0.737  1.00  0.00     0.006 C 
BRANCH   6   7
HETATM    7  C3  UNL     1       6.233  -0.028   0.581  1.00  0.00     0.058 C 
BRANCH   7   8
HETATM    8  C2  UNL     1       7.561   0.653   0.743  1.00  0.00     0.025 A 
HETATM    9  N1  UNL     1       8.259   0.825   1.869  1.00  0.00    -0.355 N 
HETATM   10  C1  UNL     1       9.388   1.483   1.570  1.00  0.00     0.180 A 
ATOM     11  H1  UNL     1       7.980   0.509   2.798  1.00  0.00     0.166 HD
HETATM   12  N4  UNL     1       9.400   1.724   0.265  1.00  0.00    -0.360 N 
HETATM   13  C19 UNL     1       8.283   1.223  -0.276  1.00  0.00     0.113 A 
ATOM     14  H4  UNL     1      10.139   2.211  -0.242  1.00  0.00     0.166 HD
ENDBRANCH   7   8
ENDBRANCH   6   7
ENDBRANCH   5   6
ENDBRANCH   4   5
ENDBRANCH   3   4
ENDBRANCH   2   3
ENDBRANCH   1   2
BRANCH   1  15
HETATM   15  C10 UNL     1      -1.220   0.197  -0.752  1.00  0.00     0.000 C 
BRANCH  15  16
HETATM   16  C11 UNL     1      -2.655  -0.307  -0.901  1.00  0.00     0.000 C 
BRANCH  16  17
HETATM   17  C12 UNL     1      -2.995  -1.348   0.076  1.00  0.00     0.000 C 
BRANCH  17  18
HETATM   18  C13 UNL     1      -4.341  -1.939   0.026  1.00  0.00     0.000 C 
BRANCH  18  19
HETATM   19  C14 UNL     1      -5.562  -1.188   0.347  1.00  0.00     0.006 C 
BRANCH  19  20
HETATM   20  C15 UNL     1      -5.831   0.014  -0.464  1.00  0.00     0.058 C 
BRANCH  20  21
HETATM   21  C16 UNL     1      -7.185   0.608  -0.113  1.00  0.00     0.025 A 
HETATM   22  C17 UNL     1      -8.368   0.276  -0.723  1.00  0.00     0.113 A 
HETATM   23  N2  UNL     1      -9.372   1.000  -0.155  1.00  0.00    -0.360 N 
HETATM   24  C18 UNL     1      -8.807   1.764   0.790  1.00  0.00     0.180 A 
ATOM     25  H2  UNL     1     -10.361   0.967  -0.401  1.00  0.00     0.166 HD
HETATM   26  N3  UNL     1      -7.479   1.523   0.813  1.00  0.00    -0.355 N 
ATOM     27  H3  UNL     1      -6.808   1.969   1.438  1.00  0.00     0.166 HD
ENDBRANCH  20  21
ENDBRANCH  19  20
ENDBRANCH  18  19
ENDBRANCH  17  18
ENDBRANCH  16  17
ENDBRANCH  15  16
ENDBRANCH   1  15
TORSDOF 14
