REMARK  3 active torsions:
REMARK  status: ('A' for Active; 'I' for Inactive)
REMARK    1  A    between atoms: C2_2  and  N1_3 
REMARK       I    between atoms: N1_3  and  C4_5 
REMARK       I    between atoms: C4_5  and  N2_7 
REMARK       I    between atoms: N2_7  and  C5_9 
REMARK    2  A    between atoms: C5_9  and  C6_11 
REMARK    3  A    between atoms: C7_12  and  S1_13 
ROOT
HETATM    1  N1  UNL     1      -2.419  -0.214  -0.352  1.00  0.00    -0.339 N 
HETATM    2  C3  UNL     1      -2.091   0.664  -1.441  1.00  0.00     0.154 C 
HETATM    3  C4  UNL     1      -1.388  -0.853   0.368  1.00  0.00     0.324 C 
HETATM    4  O1  UNL     1      -1.606  -1.634   1.331  1.00  0.00    -0.247 OA
HETATM    5  N2  UNL     1      -0.010  -0.628   0.013  1.00  0.00    -0.276 N 
ATOM      6  H2  UNL     1       0.222  -0.005  -0.761  1.00  0.00     0.173 HD
HETATM    7  C5  UNL     1       1.012  -1.264   0.730  1.00  0.00     0.249 C 
HETATM    8  O2  UNL     1       0.699  -2.032   1.683  1.00  0.00    -0.268 OA
ENDROOT
BRANCH   7   9
HETATM    9  C6  UNL     1       2.408  -1.082   0.428  1.00  0.00     0.083 C 
HETATM   10  C7  UNL     1       2.782  -0.296  -0.551  1.00  0.00     0.083 C 
BRANCH  10  11
HETATM   11  S1  UNL     1       4.480  -0.105  -0.882  1.00  0.00     0.035 S 
HETATM   12  C8  UNL     1       5.027   1.365  -0.022  1.00  0.00     0.132 C 
HETATM   13  O3  UNL     1       5.311  -1.432  -0.262  1.00  0.00    -0.254 OA
ENDBRANCH  10  11
ENDBRANCH   7   9
BRANCH   1  14
HETATM   14  C2  UNL     1      -3.802  -0.423  -0.017  1.00  0.00     0.122 C 
HETATM   15  C1  UNL     1      -4.153   0.655   1.017  1.00  0.00     0.026 C 
ENDBRANCH   1  14
TORSDOF 3
