REMARK  3 active torsions:
REMARK  status: ('A' for Active; 'I' for Inactive)
REMARK    1  A    between atoms: N2_7  and  S1_9 
REMARK    2  A    between atoms: S1_9  and  N3_12 
REMARK    3  A    between atoms: N3_12  and  C5_14 
ROOT
HETATM    1  C1  UNL     1       5.720   0.788  -0.541  1.00  0.00     0.071 C 
HETATM    2  C2  UNL     1       4.242   0.648  -0.710  1.00  0.00     0.039 A 
HETATM    3  N1  UNL     1       3.513   1.070  -1.770  1.00  0.00    -0.263 N 
ATOM      4  H1  UNL     1       3.882   1.541  -2.596  1.00  0.00     0.194 HD
HETATM    5  O1  UNL     1       2.265   0.775  -1.560  1.00  0.00    -0.218 OA
HETATM    6  C3  UNL     1       2.102   0.173  -0.414  1.00  0.00     0.188 A 
HETATM    7  N2  UNL     1       1.015  -0.273   0.144  1.00  0.00    -0.249 N 
ATOM      8  H2  UNL     1       1.041  -0.728   1.056  1.00  0.00     0.182 HD
HETATM    9  C9  UNL     1       3.350   0.079   0.152  1.00  0.00     0.016 A 
HETATM   10  C10 UNL     1       3.697  -0.524   1.457  1.00  0.00     0.055 C 
ENDROOT
BRANCH   7  11
HETATM   11  S1  UNL     1      -0.476  -0.070  -0.710  1.00  0.00     0.304 S 
HETATM   12  O2  UNL     1      -0.598   1.278  -1.316  1.00  0.00    -0.188 OA
HETATM   13  O3  UNL     1      -0.539  -1.154  -1.775  1.00  0.00    -0.188 OA
BRANCH  11  14
HETATM   14  N3  UNL     1      -1.745  -0.318   0.422  1.00  0.00    -0.191 NA
HETATM   15  C4  UNL     1      -2.138   0.911   1.075  1.00  0.00     0.131 C 
BRANCH  14  16
HETATM   16  C5  UNL     1      -2.890  -0.951  -0.124  1.00  0.00     0.099 A 
HETATM   17  C6  UNL     1      -4.224  -0.441   0.420  1.00  0.00     0.022 A 
HETATM   18  C7  UNL     1      -5.218  -0.093  -0.661  1.00  0.00     0.013 C 
HETATM   19  C8  UNL     1      -3.789  -1.830   0.652  1.00  0.00     0.106 A 
HETATM   20 CL1  UNL     1      -3.288  -2.250   2.326  1.00  0.00    -0.123 Cl
ENDBRANCH  14  16
ENDBRANCH  11  14
ENDBRANCH   7  11
TORSDOF 3
