REMARK  6 active torsions:
REMARK  status: ('A' for Active; 'I' for Inactive)
REMARK    1  A    between atoms: O1_1  and  C1_3 
REMARK    2  A    between atoms: C1_3  and  C2_4 
REMARK    3  A    between atoms: C3_7  and  N2_8 
REMARK    4  A    between atoms: N2_8  and  C4_10 
REMARK    5  A    between atoms: C4_10  and  C5_11 
REMARK    6  A    between atoms: C5_11  and  N3_12 
ROOT
HETATM    1  C2  UNL     1       3.652  -0.379  -0.419  1.00  0.00     0.136 A 
HETATM    2  N1  UNL     1       2.612   0.173   0.236  1.00  0.00    -0.176 N 
ATOM      3  H1  UNL     1       2.682   0.761   1.066  1.00  0.00     0.185 HD
HETATM    4  C3  UNL     1       1.475  -0.171  -0.373  1.00  0.00     0.694 A 
HETATM    5  N4  UNL     1       1.835  -0.942  -1.411  1.00  0.00    -0.131 N 
ATOM      6  H4  UNL     1       1.186  -1.365  -2.074  1.00  0.00     0.205 HD
HETATM    7  N5  UNL     1       3.138  -1.075  -1.452  1.00  0.00    -0.272 N 
ATOM      8  H5  UNL     1       3.667  -1.609  -2.141  1.00  0.00     0.189 HD
ENDROOT
BRANCH   4   9
HETATM    9  N2  UNL     1       0.251   0.119  -0.104  1.00  0.00    -0.223 N 
ATOM     10  H2  UNL     1      -0.480  -0.255  -0.709  1.00  0.00     0.177 HD
BRANCH   9  11
HETATM   11  C4  UNL     1      -0.141   0.949   1.014  1.00  0.00     0.158 C 
BRANCH  11  12
HETATM   12  C5  UNL     1      -1.471   1.610   0.806  1.00  0.00     0.147 C 
BRANCH  12  13
HETATM   13  N3  UNL     1      -2.566   0.734   0.616  1.00  0.00    -0.365 N 
HETATM   14  C6  UNL     1      -3.298   0.282   1.645  1.00  0.00     0.090 A 
HETATM   15  C7  UNL     1      -4.362  -0.573   1.429  1.00  0.00     0.017 A 
HETATM   16  C8  UNL     1      -4.678  -0.966   0.141  1.00  0.00     0.003 A 
HETATM   17  C9  UNL     1      -3.929  -0.503  -0.921  1.00  0.00     0.017 A 
HETATM   18  C10 UNL     1      -2.877   0.349  -0.636  1.00  0.00     0.090 A 
ENDBRANCH  12  13
ENDBRANCH  11  12
ENDBRANCH   9  11
ENDBRANCH   4   9
BRANCH   1  19
HETATM   19  C1  UNL     1       5.111  -0.251  -0.077  1.00  0.00     0.242 C 
BRANCH  19  20
HETATM   20  O1  UNL     1       5.848  -0.969  -1.001  1.00  0.00    -0.393 OA
ATOM     21  H1  UNL     1       6.770  -0.888  -0.785  1.00  0.00     0.209 HD
ENDBRANCH  19  20
ENDBRANCH   1  19
TORSDOF 6
