REMARK  1 active torsions:
REMARK  status: ('A' for Active; 'I' for Inactive)
REMARK    1  A    between atoms: C2_2  and  C4_4 
ROOT
HETATM    1  C4  UNL     1      -0.804  -0.059  -0.437  1.00  0.00     0.148 A 
HETATM    2  C5  UNL     1      -1.762  -1.007   0.244  1.00  0.00     0.048 C 
HETATM    3  C6  UNL     1      -1.271   1.300  -0.628  1.00  0.00     0.272 A 
HETATM    4  N1  UNL     1      -1.198   0.377  -1.721  1.00  0.00    -0.062 N 
ATOM      5  H11 UNL     1      -1.866   0.039  -2.414  1.00  0.00     0.278 HD
ATOM      6  H12 UNL     1      -0.749   0.392  -2.637  1.00  0.00     0.278 HD
ENDROOT
BRANCH   1   7
HETATM    7  C2  UNL     1       0.655  -0.316  -0.138  1.00  0.00     0.015 C 
HETATM    8  C1  UNL     1       0.951  -0.199   1.349  1.00  0.00     0.012 C 
HETATM    9  C3  UNL     1       1.569   0.633  -0.853  1.00  0.00     0.012 C 
ENDBRANCH   1   7
TORSDOF 1
