REMARK  10 active torsions:
REMARK  status: ('A' for Active; 'I' for Inactive)
REMARK    1  A    between atoms: C4_5  and  C5_6 
REMARK    2  A    between atoms: C6_7  and  C7_8 
REMARK    3  A    between atoms: C9_11  and  O3_12 
REMARK    4  A    between atoms: O3_12  and  C10_13 
REMARK    5  A    between atoms: C10_13  and  C11_15 
REMARK    6  A    between atoms: C13_19  and  C14_20 
REMARK    7  A    between atoms: C15_21  and  C16_22 
REMARK    8  A    between atoms: C16_22  and  C18_24 
REMARK    9  A    between atoms: C18_24  and  O5_25 
REMARK   10  A    between atoms: C18_24  and  C19_27 
ROOT
HETATM    1  C1  UNL     1      -1.678  -5.348  -0.937  1.00  0.00     0.012 C 
HETATM    2  C2  UNL     1      -0.812  -4.108  -0.863  1.00  0.00     0.009 C 
HETATM    3  C3  UNL     1       0.113  -4.259   0.313  1.00  0.00     0.173 C 
HETATM    4  O1  UNL     1       1.006  -3.233   0.474  1.00  0.00    -0.377 OA
HETATM    5  C4  UNL     1       0.726  -2.089  -0.250  1.00  0.00     0.173 C 
HETATM    6  C12 UNL     1      -0.721  -1.770  -0.312  1.00  0.00    -0.047 C 
HETATM    7  C13 UNL     1      -1.227  -0.605   0.021  1.00  0.00     0.005 C 
HETATM    8  C20 UNL     1      -1.638  -2.841  -0.779  1.00  0.00     0.043 C 
ENDROOT
BRANCH   5   9
HETATM    9  C5  UNL     1       1.549  -0.959   0.209  1.00  0.00     0.010 C 
HETATM   10  C6  UNL     1       1.915  -0.024  -0.642  1.00  0.00     0.032 C 
BRANCH  10  11
HETATM   11  C7  UNL     1       2.749   1.151  -0.252  1.00  0.00     0.287 C 
HETATM   12  O2  UNL     1       3.592   1.439  -1.295  1.00  0.00    -0.353 OA
HETATM   13  C8  UNL     1       4.763   0.737  -0.953  1.00  0.00     0.232 C 
HETATM   14  C9  UNL     1       4.851   1.074   0.519  1.00  0.00     0.289 C 
HETATM   15  O4  UNL     1       3.490   0.924   0.880  1.00  0.00    -0.326 OA
BRANCH  14  16
HETATM   16  O3  UNL     1       5.151   2.399   0.712  1.00  0.00    -0.338 OA
BRANCH  16  17
HETATM   17  C10 UNL     1       6.176   2.653   1.584  1.00  0.00     0.234 C 
HETATM   18 CL1  UNL     1       5.482   3.646   2.915  1.00  0.00    -0.094 Cl
BRANCH  17  19
HETATM   19  C11 UNL     1       7.271   3.485   0.970  1.00  0.00     0.162 C 
HETATM   20 CL2  UNL     1       8.035   2.754  -0.432  1.00  0.00    -0.127 Cl
ENDBRANCH  17  19
ENDBRANCH  16  17
ENDBRANCH  14  16
ENDBRANCH  10  11
ENDBRANCH   5   9
BRANCH   7  21
HETATM   21  C14 UNL     1      -2.650  -0.347  -0.058  1.00  0.00    -0.003 C 
HETATM   22  C15 UNL     1      -3.199   0.836   0.275  1.00  0.00    -0.019 C 
BRANCH  22  23
HETATM   23  C16 UNL     1      -4.641   1.039   0.175  1.00  0.00     0.043 C 
HETATM   24  C17 UNL     1      -5.294   1.241   1.531  1.00  0.00     0.017 C 
BRANCH  23  25
HETATM   25  C18 UNL     1      -4.981   2.138  -0.781  1.00  0.00     0.226 C 
BRANCH  25  26
HETATM   26  O5  UNL     1      -6.386   2.275  -0.838  1.00  0.00    -0.384 OA
ATOM     27  H5  UNL     1      -6.602   2.973  -1.445  1.00  0.00     0.210 HD
ENDBRANCH  25  26
BRANCH  25  28
HETATM   28  C19 UNL     1      -4.404   3.443  -0.431  1.00  0.00     0.203 C 
HETATM   29  O6  UNL     1      -3.166   3.598  -0.402  1.00  0.00    -0.646 OA
HETATM   30  O7  UNL     1      -5.235   4.530  -0.127  1.00  0.00    -0.646 OA
ENDBRANCH  25  28
ENDBRANCH  23  25
ENDBRANCH  22  23
ENDBRANCH   7  21
TORSDOF 10
