REMARK  10 active torsions:
REMARK  status: ('A' for Active; 'I' for Inactive)
REMARK    1  A    between atoms: C2_2  and  C3_3 
REMARK    2  A    between atoms: C3_3  and  C4_4 
REMARK    3  A    between atoms: C4_4  and  C5_5 
REMARK    4  A    between atoms: C7_7  and  C8_8 
REMARK    5  A    between atoms: C8_8  and  C9_9 
REMARK    6  A    between atoms: C9_9  and  C10_10 
REMARK    7  A    between atoms: C10_10  and  C11_11 
REMARK    8  A    between atoms: C11_11  and  C12_12 
REMARK    9  A    between atoms: C12_12  and  C13_13 
REMARK   10  A    between atoms: C13_13  and  N1_14 
ROOT
HETATM    1  C9  UNL     1      -1.075  -0.045   0.011  1.00  0.00     0.000 C 
ENDROOT
BRANCH   1   2
HETATM    2  C8  UNL     1       0.162  -0.868  -0.301  1.00  0.00     0.005 C 
BRANCH   2   3
HETATM    3  C7  UNL     1       1.361   0.019  -0.052  1.00  0.00    -0.010 A 
HETATM    4  C5  UNL     1       2.684  -0.603  -0.301  1.00  0.00    -0.010 A 
HETATM    5  C6  UNL     1       2.269  -0.279   1.100  1.00  0.00     0.010 A 
BRANCH   4   6
HETATM    6  C4  UNL     1       3.814   0.221  -0.888  1.00  0.00     0.009 C 
BRANCH   6   7
HETATM    7  C3  UNL     1       5.024  -0.013   0.025  1.00  0.00     0.027 C 
BRANCH   7   8
HETATM    8  C2  UNL     1       6.173   0.754  -0.473  1.00  0.00    -0.037 C 
HETATM    9  C1  UNL     1       6.727   1.670   0.310  1.00  0.00     0.007 C 
ENDBRANCH   7   8
ENDBRANCH   6   7
ENDBRANCH   4   6
ENDBRANCH   2   3
ENDBRANCH   1   2
BRANCH   1  10
HETATM   10  C10 UNL     1      -2.343  -0.835  -0.204  1.00  0.00     0.000 C 
BRANCH  10  11
HETATM   11  C11 UNL     1      -3.511   0.056   0.129  1.00  0.00     0.002 C 
BRANCH  11  12
HETATM   12  C12 UNL     1      -4.836  -0.651  -0.057  1.00  0.00     0.027 C 
BRANCH  12  13
HETATM   13  C13 UNL     1      -5.922   0.368   0.315  1.00  0.00     0.229 C 
BRANCH  13  14
HETATM   14  N1  UNL     1      -7.242  -0.206   0.172  1.00  0.00    -0.079 N 
ATOM     15  H13 UNL     1      -7.388  -0.586  -0.763  1.00  0.00     0.274 HD
ATOM     16  H12 UNL     1      -7.337  -1.069   0.707  1.00  0.00     0.274 HD
ATOM     17  H11 UNL     1      -7.964   0.471   0.419  1.00  0.00     0.274 HD
ENDBRANCH  13  14
ENDBRANCH  12  13
ENDBRANCH  11  12
ENDBRANCH  10  11
ENDBRANCH   1  10
TORSDOF 10
