REMARK  5 active torsions:
REMARK  status: ('A' for Active; 'I' for Inactive)
REMARK    1  A    between atoms: N1_1  and  C1_5 
REMARK    2  A    between atoms: C1_5  and  C2_6 
REMARK       I    between atoms: C2_6  and  N2_8 
REMARK    3  A    between atoms: N2_8  and  N3_10 
REMARK    4  A    between atoms: C3_12  and  C4_13 
REMARK    5  A    between atoms: C7_18  and  C8_19 
ROOT
HETATM    1  N3  UNL     1       0.264  -0.649   0.291  1.00  0.00    -0.307 N 
ATOM      2  H3  UNL     1      -0.234  -1.528   0.148  1.00  0.00     0.186 HD
HETATM    3  C3  UNL     1      -0.380   0.433   0.360  1.00  0.00     0.137 C 
ENDROOT
BRANCH   1   4
HETATM    4  N2  UNL     1       1.648  -0.651   0.408  1.00  0.00    -0.269 N 
HETATM    5  C2  UNL     1       2.418   0.200  -0.407  1.00  0.00     0.261 C 
HETATM    6  O1  UNL     1       1.874   0.954  -1.232  1.00  0.00    -0.270 OA
ATOM      7  H2  UNL     1       2.104  -1.266   1.081  1.00  0.00     0.190 HD
BRANCH   5   8
HETATM    8  C1  UNL     1       3.884   0.210  -0.296  1.00  0.00     0.333 C 
BRANCH   8   9
HETATM    9  N1  UNL     1       4.284  -0.724   0.703  1.00  0.00    -0.071 N 
ATOM     10  H13 UNL     1       3.827  -0.553   1.598  1.00  0.00     0.274 HD
ATOM     11  H12 UNL     1       3.915  -1.659   0.529  1.00  0.00     0.274 HD
ATOM     12  H11 UNL     1       5.301  -0.717   0.780  1.00  0.00     0.274 HD
ENDBRANCH   8   9
ENDBRANCH   5   8
ENDBRANCH   1   4
BRANCH   3  13
HETATM   13  C4  UNL     1      -1.844   0.542   0.250  1.00  0.00     0.062 A 
HETATM   14  N4  UNL     1      -2.563   1.679   0.319  1.00  0.00    -0.364 N 
HETATM   15  C5  UNL     1      -3.868   1.442   0.182  1.00  0.00     0.089 A 
ATOM     16  H4  UNL     1      -2.160   2.605   0.459  1.00  0.00     0.165 HD
HETATM   17  C6  UNL     1      -3.990   0.092   0.018  1.00  0.00     0.034 A 
HETATM   18  C7  UNL     1      -2.717  -0.500   0.057  1.00  0.00     0.031 A 
BRANCH  18  19
HETATM   19  C8  UNL     1      -2.455  -1.935  -0.084  1.00  0.00     0.272 C 
HETATM   20  O2  UNL     1      -3.458  -2.689  -0.254  1.00  0.00    -0.301 OA
ENDBRANCH  18  19
ENDBRANCH   3  13
TORSDOF 5
