REMARK  3 active torsions:
REMARK  status: ('A' for Active; 'I' for Inactive)
REMARK       I    between atoms: C1_2  and  N1_3 
REMARK       I    between atoms: C1_2  and  N2_14 
REMARK    1  A    between atoms: N1_3  and  C2_5 
REMARK    2  A    between atoms: C7_10  and  C8_11 
REMARK    3  A    between atoms: C8_11  and  O2_12 
ROOT
HETATM    1  O1  UNL     1       0.258  -1.313  -1.787  1.00  0.00    -0.247 OA
HETATM    2  C1  UNL     1       0.227  -0.546  -0.756  1.00  0.00     0.318 C 
HETATM    3  N1  UNL     1       1.459  -0.073  -0.233  1.00  0.00    -0.338 N 
ATOM      4  H1  UNL     1       1.458   0.536   0.585  1.00  0.00     0.164 HD
HETATM    5  N2  UNL     1      -1.050  -0.244  -0.233  1.00  0.00    -0.331 N 
HETATM    6  C9  UNL     1      -1.247   0.597   0.906  1.00  0.00     0.128 C 
HETATM    7  C10 UNL     1      -2.314   1.655   0.715  1.00  0.00     0.023 C 
HETATM    8  C11 UNL     1      -3.338   1.266  -0.310  1.00  0.00     0.043 C 
HETATM    9  C12 UNL     1      -3.485  -0.237  -0.405  1.00  0.00     0.098 C 
HETATM   10  C13 UNL     1      -4.621  -0.504  -1.375  1.00  0.00     0.207 C 
HETATM   11  O3  UNL     1      -5.724   0.205  -0.889  1.00  0.00    -0.386 OA
HETATM   12  C14 UNL     1      -6.091  -0.368   0.331  1.00  0.00     0.194 C 
HETATM   13  C15 UNL     1      -4.996  -0.369   1.342  1.00  0.00     0.195 C 
HETATM   14  O4  UNL     1      -3.756  -0.717   0.865  1.00  0.00    -0.374 OA
HETATM   15  C16 UNL     1      -2.211  -0.835  -0.903  1.00  0.00     0.167 C 
ENDROOT
BRANCH   3  16
HETATM   16  C2  UNL     1       2.729  -0.448  -0.853  1.00  0.00     0.092 C 
HETATM   17  C3  UNL     1       3.410   0.812  -1.298  1.00  0.00     0.026 C 
HETATM   18  C4  UNL     1       3.905   1.655  -0.190  1.00  0.00     0.002 C 
HETATM   19  C5  UNL     1       4.554   0.964   0.959  1.00  0.00     0.001 C 
HETATM   20  C6  UNL     1       3.970  -0.374   1.294  1.00  0.00     0.009 C 
HETATM   21  C7  UNL     1       3.609  -1.192   0.086  1.00  0.00     0.032 C 
BRANCH  21  22
HETATM   22  C8  UNL     1       4.824  -1.747  -0.566  1.00  0.00     0.170 C 
BRANCH  22  23
HETATM   23  O2  UNL     1       5.675  -0.849  -1.143  1.00  0.00    -0.400 OA
ATOM     24  H2  UNL     1       6.452  -1.204  -1.560  1.00  0.00     0.209 HD
ENDBRANCH  22  23
ENDBRANCH  21  22
ENDBRANCH   3  16
TORSDOF 3
