REMARK  12 active torsions:
REMARK  status: ('A' for Active; 'I' for Inactive)
REMARK    1  A    between atoms: N2_3  and  N3_5 
REMARK    2  A    between atoms: C5_9  and  C6_10 
REMARK    3  A    between atoms: C9_13  and  O1_14 
REMARK    4  A    between atoms: O1_14  and  C10_15 
REMARK    5  A    between atoms: C10_15  and  C11_16 
REMARK    6  A    between atoms: C11_16  and  O2_17 
REMARK    7  A    between atoms: C11_16  and  C12_19 
REMARK    8  A    between atoms: C12_19  and  O3_20 
REMARK    9  A    between atoms: O3_20  and  C13_21 
REMARK   10  A    between atoms: C13_21  and  C14_22 
REMARK   11  A    between atoms: C14_22  and  C15_23 
REMARK   12  A    between atoms: C15_23  and  N4_24 
REMARK       I    between atoms: N4_24  and  C16_26 
ROOT
HETATM    1  N1  UNL     1      -9.534   2.924   1.461  1.00  0.00    -0.170 NA
HETATM    2  C1  UNL     1      -8.588   2.375   1.839  1.00  0.00     0.198 C 
HETATM    3  N2  UNL     1      -7.436   1.716   2.291  1.00  0.00    -0.231 N 
ATOM      4  H2  UNL     1      -6.946   2.032   3.128  1.00  0.00     0.200 HD
ENDROOT
BRANCH   3   5
HETATM    5  N3  UNL     1      -6.971   0.601   1.554  1.00  0.00    -0.269 N 
HETATM    6  C2  UNL     1      -7.841  -0.387   1.299  1.00  0.00     0.116 A 
HETATM    7  C3  UNL     1      -7.365  -1.466   0.576  1.00  0.00     0.020 A 
HETATM    8  C4  UNL     1      -6.052  -1.530   0.134  1.00  0.00     0.015 A 
HETATM    9  C5  UNL     1      -5.175  -0.500   0.409  1.00  0.00    -0.008 A 
HETATM   10  C19 UNL     1      -5.684   0.571   1.137  1.00  0.00     0.128 A 
BRANCH   9  11
HETATM   11  C6  UNL     1      -3.785  -0.530  -0.040  1.00  0.00    -0.024 A 
HETATM   12  C7  UNL     1      -3.426  -1.157  -1.221  1.00  0.00     0.015 A 
HETATM   13  C8  UNL     1      -2.124  -1.177  -1.628  1.00  0.00     0.037 A 
HETATM   14  C9  UNL     1      -1.118  -0.596  -0.917  1.00  0.00     0.068 A 
HETATM   15  C17 UNL     1      -1.456   0.037   0.267  1.00  0.00     0.037 A 
HETATM   16  C18 UNL     1      -2.768   0.075   0.707  1.00  0.00     0.015 A 
BRANCH  14  17
HETATM   17  O1  UNL     1       0.190  -0.611  -1.318  1.00  0.00    -0.349 OA
BRANCH  17  18
HETATM   18  C10 UNL     1       0.697  -1.194  -2.466  1.00  0.00     0.209 C 
BRANCH  18  19
HETATM   19  C11 UNL     1       2.216  -0.961  -2.501  1.00  0.00     0.166 C 
BRANCH  19  20
HETATM   20  O2  UNL     1       2.702  -1.563  -3.693  1.00  0.00    -0.391 OA
ATOM     21  H2  UNL     1       3.641  -1.419  -3.715  1.00  0.00     0.210 HD
ENDBRANCH  19  20
BRANCH  19  22
HETATM   22  C12 UNL     1       2.542   0.489  -2.593  1.00  0.00     0.201 C 
BRANCH  22  23
HETATM   23  O3  UNL     1       2.201   1.258  -1.513  1.00  0.00    -0.388 OA
BRANCH  23  24
HETATM   24  C13 UNL     1       2.843   0.918  -0.332  1.00  0.00     0.169 C 
BRANCH  24  25
HETATM   25  C14 UNL     1       4.350   1.051  -0.458  1.00  0.00     0.046 C 
BRANCH  25  26
HETATM   26  C15 UNL     1       4.951   0.658   0.875  1.00  0.00     0.124 C 
BRANCH  26  27
HETATM   27  N4  UNL     1       6.397   0.765   0.822  1.00  0.00    -0.365 N 
HETATM   28  C16 UNL     1       7.188   0.452   1.948  1.00  0.00     0.181 C 
HETATM   29  N5  UNL     1       7.750  -0.691   2.040  1.00  0.00    -0.374 N 
HETATM   30  N6  UNL     1       7.358   1.400   2.970  1.00  0.00    -0.064 NA
ATOM     31  H52 UNL     1       7.627  -1.380   1.298  1.00  0.00     0.158 HD
ATOM     32  H51 UNL     1       8.322  -0.917   2.854  1.00  0.00     0.158 HD
ATOM     33  H4  UNL     1       6.848   1.070  -0.040  1.00  0.00     0.162 HD
ENDBRANCH  26  27
ENDBRANCH  25  26
ENDBRANCH  24  25
ENDBRANCH  23  24
ENDBRANCH  22  23
ENDBRANCH  19  22
ENDBRANCH  18  19
ENDBRANCH  17  18
ENDBRANCH  14  17
ENDBRANCH   9  11
ENDBRANCH   3   5
TORSDOF 12
