REMARK  1 active torsions:
REMARK  status: ('A' for Active; 'I' for Inactive)
REMARK    1  A    between atoms: C6_7  and  O1_8 
ROOT
HETATM    1  C1  UNL     1      -1.759  -0.045   1.593  1.00  0.00     0.033 C 
HETATM    2  C2  UNL     1      -1.050  -0.211   0.244  1.00  0.00     0.069 C 
HETATM    3  C3  UNL     1      -2.104  -0.330  -0.864  1.00  0.00     0.033 C 
HETATM    4  S1  UNL     1      -0.152  -1.758   0.295  1.00  0.00    -0.153 SA
HETATM    5  C4  UNL     1       1.616  -1.580   0.076  1.00  0.00     0.077 C 
HETATM    6  C5  UNL     1       2.050  -0.118   0.047  1.00  0.00     0.048 C 
HETATM    7  C6  UNL     1       1.072   0.683  -0.761  1.00  0.00     0.192 C 
HETATM    8  C7  UNL     1      -0.204   0.988  -0.021  1.00  0.00     0.284 C 
HETATM    9  F1  UNL     1      -0.916   1.851  -0.871  1.00  0.00    -0.202 F 
HETATM   10  F2  UNL     1       0.032   1.735   1.124  1.00  0.00    -0.202 F 
ENDROOT
BRANCH   7  11
HETATM   11  O1  UNL     1       1.609   1.885  -1.221  1.00  0.00    -0.389 OA
ATOM     12  H1  UNL     1       0.990   2.392  -1.733  1.00  0.00     0.210 HD
ENDBRANCH   7  11
TORSDOF 1
