REMARK  1 active torsions:
REMARK  status: ('A' for Active; 'I' for Inactive)
REMARK    1  A    between atoms: C2_2  and  C3_3 
ROOT
HETATM    1  C3  UNL     1      -0.529  -0.490   0.012  1.00  0.00     0.283 C 
HETATM    2  C4  UNL     1      -1.179  -1.832   0.005  1.00  0.00     0.079 C 
HETATM    3  N1  UNL     1      -0.081  -0.131   1.341  1.00  0.00    -0.039 N 
ATOM      4  H11 UNL     1      -0.042  -0.922   1.984  1.00  0.00     0.280 HD
ATOM      5  H12 UNL     1      -0.761   0.421   1.864  1.00  0.00     0.280 HD
HETATM    6  C5  UNL     1       1.207   0.543   1.166  1.00  0.00     0.268 C 
HETATM    7  C6  UNL     1       1.783  -0.224   0.002  1.00  0.00     0.210 C 
HETATM    8  C7  UNL     1       2.695   0.677  -0.796  1.00  0.00     0.042 C 
HETATM    9  N2  UNL     1       0.674  -0.590  -0.812  1.00  0.00    -0.035 N 
ATOM     10  H21 UNL     1       0.614  -0.043  -1.671  1.00  0.00     0.280 HD
ATOM     11  H22 UNL     1       0.784  -1.507  -1.245  1.00  0.00     0.280 HD
ENDROOT
BRANCH   1  12
HETATM   12  C2  UNL     1      -1.365   0.612  -0.555  1.00  0.00     0.064 C 
HETATM   13  C1  UNL     1      -2.661   0.828   0.169  1.00  0.00     0.009 C 
ENDBRANCH   1  12
TORSDOF 1
