REMARK  1 active torsions:
REMARK  status: ('A' for Active; 'I' for Inactive)
REMARK    1  A    between atoms: C2_2  and  C3_3 
ROOT
HETATM    1  C1  UNL     1       1.415   0.903  -1.353  1.00  0.00     0.021 C 
HETATM    2  C2  UNL     1       0.701   0.085  -0.323  1.00  0.00    -0.005 C 
HETATM    3  C4  UNL     1      -0.427  -0.751  -0.923  1.00  0.00     0.047 C 
HETATM    4  C5  UNL     1      -1.723  -0.147  -0.413  1.00  0.00     0.187 C 
HETATM    5  C6  UNL     1      -1.264   1.308  -0.200  1.00  0.00     0.040 C 
HETATM    6  C7  UNL     1      -0.061   0.912   0.676  1.00  0.00     0.026 C 
HETATM    7  C8  UNL     1      -0.734  -0.040   1.630  1.00  0.00     0.238 C 
HETATM    8  N2  UNL     1      -1.941  -0.525   0.961  1.00  0.00    -0.070 N 
ATOM      9  H21 UNL     1      -2.139  -1.515   1.104  1.00  0.00     0.277 HD
ATOM     10  H22 UNL     1      -2.816  -0.187   1.362  1.00  0.00     0.277 HD
ENDROOT
BRANCH   2  11
HETATM   11  C3  UNL     1       1.666  -0.755   0.431  1.00  0.00     0.062 C 
HETATM   12  N1  UNL     1       1.744  -2.018   0.305  1.00  0.00    -0.410 N 
ATOM     13  H12 UNL     1       1.103  -2.462  -0.353  1.00  0.00     0.155 HD
ATOM     14  H11 UNL     1       2.407  -2.595   0.823  1.00  0.00     0.155 HD
ENDBRANCH   2  11
TORSDOF 1
