REMARK  8 active torsions:
REMARK  status: ('A' for Active; 'I' for Inactive)
REMARK    1  A    between atoms: C9_9  and  C11_11 
REMARK    2  A    between atoms: C11_11  and  S1_12 
REMARK    3  A    between atoms: S1_12  and  N1_15 
REMARK       I    between atoms: N1_15  and  C12_17 
REMARK    4  A    between atoms: C12_17  and  S2_19 
REMARK    5  A    between atoms: S2_19  and  C13_20 
REMARK    6  A    between atoms: C13_20  and  C14_21 
REMARK    7  A    between atoms: C14_21  and  C15_22 
REMARK    8  A    between atoms: C17_25  and  C18_26 
ROOT
HETATM    1  C15 UNL     1       7.069   1.046   1.447  1.00  0.00     0.124 C 
HETATM    2  C16 UNL     1       8.479   1.327   1.703  1.00  0.00     0.059 C 
HETATM    3  N2  UNL     1       9.607   1.572   1.904  1.00  0.00    -0.197 NA
ENDROOT
BRANCH   1   4
HETATM    4  C14 UNL     1       6.897  -0.190   0.595  1.00  0.00     0.025 C 
BRANCH   4   5
HETATM    5  C13 UNL     1       5.464  -0.500   0.316  1.00  0.00     0.085 C 
BRANCH   5   6
HETATM    6  S2  UNL     1       4.480  -0.795   1.777  1.00  0.00    -0.068 SA
BRANCH   6   7
HETATM    7  C12 UNL     1       2.799  -1.142   1.329  1.00  0.00     0.293 C 
HETATM    8  N1  UNL     1       2.430  -1.160  -0.016  1.00  0.00    -0.245 N 
ATOM      9  H1  UNL     1       3.139  -0.974  -0.725  1.00  0.00     0.182 HD
HETATM   10  O3  UNL     1       1.958  -1.366   2.217  1.00  0.00    -0.259 OA
BRANCH   8  11
HETATM   11  S1  UNL     1       0.782  -1.494  -0.526  1.00  0.00     0.234 S 
HETATM   12  O1  UNL     1       0.876  -2.157  -1.845  1.00  0.00    -0.206 OA
HETATM   13  O2  UNL     1       0.314  -2.505   0.460  1.00  0.00    -0.206 OA
BRANCH  11  14
HETATM   14  C11 UNL     1      -0.072   0.037  -0.525  1.00  0.00     0.174 C 
BRANCH  14  15
HETATM   15  C9  UNL     1      -1.487   0.052  -0.936  1.00  0.00    -0.008 C 
HETATM   16  C7  UNL     1      -2.483  -0.724  -0.160  1.00  0.00    -0.028 C 
HETATM   17  C2  UNL     1      -3.818   0.008  -0.369  1.00  0.00    -0.035 C 
HETATM   18  C6  UNL     1      -2.272  -0.437   1.317  1.00  0.00     0.011 C 
HETATM   19  C8  UNL     1      -2.637  -2.159  -0.385  1.00  0.00     0.016 C 
HETATM   20  C1  UNL     1      -4.374  -0.047  -1.728  1.00  0.00     0.016 C 
HETATM   21  C3  UNL     1      -4.895  -0.430   0.579  1.00  0.00     0.016 C 
HETATM   22  C4  UNL     1      -3.240   1.373   0.053  1.00  0.00     0.009 C 
HETATM   23  C5  UNL     1      -2.864   0.961   1.460  1.00  0.00     0.007 C 
HETATM   24  C17 UNL     1      -2.048   1.452  -0.863  1.00  0.00     0.101 C 
HETATM   25  C10 UNL     1      -1.468  -0.310  -2.418  1.00  0.00     0.018 C 
BRANCH  24  26
HETATM   26  C18 UNL     1      -1.131   2.547  -0.647  1.00  0.00     0.178 C 
HETATM   27  O4  UNL     1      -0.764   3.350  -1.543  1.00  0.00    -0.648 OA
HETATM   28  O5  UNL     1      -0.574   2.807   0.585  1.00  0.00    -0.648 OA
ENDBRANCH  24  26
ENDBRANCH  14  15
ENDBRANCH  11  14
ENDBRANCH   8  11
ENDBRANCH   6   7
ENDBRANCH   5   6
ENDBRANCH   4   5
ENDBRANCH   1   4
TORSDOF 8
