REMARK  4 active torsions:
REMARK  status: ('A' for Active; 'I' for Inactive)
REMARK    1  A    between atoms: C2_2  and  C3_3 
REMARK    2  A    between atoms: C3_3  and  C4_4 
REMARK    3  A    between atoms: C16_17  and  O1_19 
REMARK    4  A    between atoms: C20_23  and  O2_24 
ROOT
HETATM    1  C4  UNL     1       1.848  -0.503  -0.036  1.00  0.00     0.019 C 
HETATM    2  C5  UNL     1       0.816  -1.201  -0.902  1.00  0.00     0.027 C 
HETATM    3  C6  UNL     1      -0.211  -1.930  -0.087  1.00  0.00     0.102 C 
HETATM    4  C7  UNL     1      -0.097  -3.357  -0.447  1.00  0.00     0.064 C 
HETATM    5  N1  UNL     1       0.005  -4.467  -0.743  1.00  0.00    -0.197 NA
HETATM    6  C8  UNL     1      -1.623  -1.416  -0.226  1.00  0.00    -0.024 C 
HETATM    7  C9  UNL     1      -2.028  -1.270  -1.663  1.00  0.00     0.017 C 
HETATM    8  C10 UNL     1      -2.565  -2.500   0.323  1.00  0.00     0.011 C 
HETATM    9  C11 UNL     1      -2.828  -2.140   1.749  1.00  0.00     0.001 C 
HETATM   10  C12 UNL     1      -2.934  -0.660   1.691  1.00  0.00     0.005 C 
HETATM   11  C13 UNL     1      -1.894  -0.228   0.637  1.00  0.00    -0.005 C 
HETATM   12  C14 UNL     1      -2.425   0.988   0.014  1.00  0.00     0.008 C 
HETATM   13  C15 UNL     1      -1.424   1.993  -0.512  1.00  0.00     0.038 C 
HETATM   14  C16 UNL     1      -0.629   2.706   0.507  1.00  0.00     0.054 C 
HETATM   15  C17 UNL     1      -0.591   4.222   0.241  1.00  0.00     0.045 C 
HETATM   16  C18 UNL     1       0.793   2.252   0.722  1.00  0.00     0.040 C 
HETATM   17  C19 UNL     1       1.620   2.017  -0.451  1.00  0.00     0.035 C 
HETATM   18  C20 UNL     1       2.359   0.756  -0.628  1.00  0.00     0.122 C 
ENDROOT
BRANCH   1  19
HETATM   19  C3  UNL     1       2.953  -1.499   0.245  1.00  0.00     0.033 C 
BRANCH  19  20
HETATM   20  C2  UNL     1       3.645  -2.008  -0.945  1.00  0.00    -0.036 C 
HETATM   21  C1  UNL     1       4.937  -1.818  -1.068  1.00  0.00     0.007 C 
ENDBRANCH  19  20
ENDBRANCH   1  19
BRANCH  18  22
HETATM   22  O2  UNL     1       3.677   0.932  -0.119  1.00  0.00    -0.395 OA
ATOM     23  H2  UNL     1       4.005   1.739  -0.498  1.00  0.00     0.210 HD
ENDBRANCH  18  22
BRANCH  14  24
HETATM   24  O1  UNL     1      -1.278   2.605   1.762  1.00  0.00    -0.390 OA
ATOM     25  H1  UNL     1      -0.766   3.064   2.418  1.00  0.00     0.210 HD
ENDBRANCH  14  24
TORSDOF 4
