REMARK  4 active torsions:
REMARK  status: ('A' for Active; 'I' for Inactive)
REMARK    1  A    between atoms: N1_1  and  C1_4 
REMARK    2  A    between atoms: C3_9  and  C4_10 
REMARK    3  A    between atoms: C5_11  and  C6_12 
REMARK    4  A    between atoms: C6_12  and  N4_13 
ROOT
HETATM    1  C1  UNL     1      -3.770   1.144   0.553  1.00  0.00     0.680 A 
HETATM    2  N2  UNL     1      -3.598   0.142  -0.335  1.00  0.00    -0.178 N 
ATOM      3  H2  UNL     1      -4.399  -0.163  -0.889  1.00  0.00     0.185 HD
HETATM    4  C2  UNL     1      -2.426  -0.466  -0.519  1.00  0.00     0.147 A 
HETATM    5  N3  UNL     1      -2.267  -1.525  -1.465  1.00  0.00    -0.081 NA
HETATM    6  C3  UNL     1      -1.296  -0.075   0.224  1.00  0.00     0.074 A 
HETATM    7  C9  UNL     1      -1.526   0.951   1.115  1.00  0.00     0.273 A 
HETATM    8  O1  UNL     1      -0.570   1.387   1.843  1.00  0.00    -0.267 OA
HETATM    9  N7  UNL     1      -2.728   1.556   1.287  1.00  0.00    -0.156 N 
ATOM     10  H7  UNL     1      -2.836   2.312   1.964  1.00  0.00     0.187 HD
ENDROOT
BRANCH   6  11
HETATM   11  C4  UNL     1      -0.031  -0.738   0.018  1.00  0.00     0.018 C 
HETATM   12  C5  UNL     1       1.117  -0.537   0.589  1.00  0.00    -0.004 C 
BRANCH  12  13
HETATM   13  C6  UNL     1       2.316  -1.363   0.208  1.00  0.00     0.177 C 
BRANCH  13  14
HETATM   14  N4  UNL     1       3.355  -0.470  -0.302  1.00  0.00    -0.283 N 
HETATM   15  C7  UNL     1       4.305   0.113   0.454  1.00  0.00     0.201 A 
HETATM   16  N5  UNL     1       5.089   0.868  -0.354  1.00  0.00    -0.346 N 
HETATM   17  C8  UNL     1       4.627   0.754  -1.613  1.00  0.00     0.198 A 
ATOM     18  H5  UNL     1       5.890   1.426  -0.059  1.00  0.00     0.167 HD
HETATM   19  N6  UNL     1       3.569  -0.071  -1.531  1.00  0.00    -0.293 N 
ATOM     20  H6  UNL     1       3.001  -0.353  -2.330  1.00  0.00     0.188 HD
ENDBRANCH  13  14
ENDBRANCH  12  13
ENDBRANCH   6  11
BRANCH   1  21
HETATM   21  N1  UNL     1      -4.906   1.698   0.699  1.00  0.00    -0.234 N 
ATOM     22  H12 UNL     1      -5.699   1.384   0.140  1.00  0.00     0.174 HD
ATOM     23  H11 UNL     1      -5.036   2.455   1.370  1.00  0.00     0.174 HD
ENDBRANCH   1  21
TORSDOF 4
