REMARK  13 active torsions:
REMARK  status: ('A' for Active; 'I' for Inactive)
REMARK    1  A    between atoms: C2_2  and  C3_3 
REMARK    2  A    between atoms: C3_3  and  C4_4 
REMARK    3  A    between atoms: C4_4  and  N1_5 
REMARK    4  A    between atoms: C4_4  and  C19_24 
REMARK    5  A    between atoms: N1_5  and  C5_7 
REMARK    6  A    between atoms: C5_7  and  C6_8 
REMARK    7  A    between atoms: C5_7  and  C13_15 
REMARK    8  A    between atoms: C6_8  and  C7_9 
REMARK    9  A    between atoms: C13_15  and  C14_17 
REMARK       I    between atoms: C14_17  and  N2_19 
REMARK       I    between atoms: N3_28  and  C22_29 
REMARK   10  A    between atoms: C22_29  and  C23_31 
REMARK   11  A    between atoms: C23_31  and  N4_32 
REMARK   12  A    between atoms: C23_31  and  C28_43 
REMARK       I    between atoms: N4_32  and  C24_34 
REMARK   13  A    between atoms: C24_34  and  C25_36 
REMARK       I    between atoms: C25_36  and  N5_38 
REMARK       I    between atoms: N5_38  and  C26_40 
ROOT
HETATM    1  C4  UNL     1      -0.746  -1.761   0.087  1.00  0.00     0.101 C 
ENDROOT
BRANCH   1   2
HETATM    2  C3  UNL     1      -0.493  -1.689   1.590  1.00  0.00     0.026 C 
BRANCH   2   3
HETATM    3  C2  UNL     1       0.065  -2.933   2.182  1.00  0.00    -0.002 C 
HETATM    4  C1  UNL     1      -0.859  -4.083   1.999  1.00  0.00     0.005 C 
ENDBRANCH   2   3
ENDBRANCH   1   2
BRANCH   1   5
HETATM    5  N1  UNL     1      -1.233  -0.532  -0.332  1.00  0.00    -0.404 N 
ATOM      6  H1  UNL     1      -0.634   0.015  -0.951  1.00  0.00     0.154 HD
BRANCH   5   7
HETATM    7  C5  UNL     1      -2.463   0.028   0.012  1.00  0.00     0.158 C 
BRANCH   7   8
HETATM    8  C6  UNL     1      -3.751  -0.350  -0.521  1.00  0.00     0.042 C 
BRANCH   8   9
HETATM    9  C7  UNL     1      -4.376  -1.675  -0.487  1.00  0.00    -0.042 C 
HETATM   10  C8  UNL     1      -4.587  -2.326   0.829  1.00  0.00     0.015 C 
HETATM   11  C9  UNL     1      -5.918  -1.417  -0.930  1.00  0.00     0.009 C 
HETATM   12  C10 UNL     1      -6.364  -2.854  -1.020  1.00  0.00     0.001 C 
HETATM   13  C11 UNL     1      -5.203  -3.625  -1.564  1.00  0.00     0.001 C 
HETATM   14  C12 UNL     1      -4.057  -2.624  -1.589  1.00  0.00     0.009 C 
ENDBRANCH   8   9
ENDBRANCH   7   8
BRANCH   7  15
HETATM   15  C13 UNL     1      -2.248   1.537  -0.096  1.00  0.00     0.238 C 
HETATM   16  O1  UNL     1      -1.101   1.884   0.358  1.00  0.00    -0.285 OA
BRANCH  15  17
HETATM   17  C14 UNL     1      -3.116   2.510  -0.604  1.00  0.00     0.291 C 
HETATM   18  O2  UNL     1      -4.248   2.314  -1.138  1.00  0.00    -0.264 OA
HETATM   19  N2  UNL     1      -2.721   3.924  -0.536  1.00  0.00    -0.345 N 
HETATM   20  C15 UNL     1      -3.515   5.009  -1.023  1.00  0.00     0.126 C 
HETATM   21  C18 UNL     1      -1.498   4.403   0.030  1.00  0.00     0.126 C 
HETATM   22  C16 UNL     1      -2.586   6.175  -1.130  1.00  0.00     0.021 C 
HETATM   23  C17 UNL     1      -1.551   5.908  -0.045  1.00  0.00     0.021 C 
ENDBRANCH  15  17
ENDBRANCH   7  15
ENDBRANCH   5   7
ENDBRANCH   1   5
BRANCH   1  24
HETATM   24  C19 UNL     1       0.371  -2.346  -0.666  1.00  0.00     0.123 C 
HETATM   25  C20 UNL     1       0.130  -2.496  -2.159  1.00  0.00     0.040 C 
HETATM   26  C21 UNL     1       1.203  -3.380  -2.709  1.00  0.00     0.100 C 
HETATM   27  S1  UNL     1       2.562  -3.205  -1.467  1.00  0.00    -0.050 SA
HETATM   28  N3  UNL     1       1.695  -1.866  -0.560  1.00  0.00    -0.283 N 
HETATM   29  C22 UNL     1       2.432  -0.777  -0.110  1.00  0.00     0.253 C 
HETATM   30  O3  UNL     1       1.888   0.256   0.352  1.00  0.00    -0.270 OA
BRANCH  29  31
HETATM   31  C23 UNL     1       3.942  -0.730  -0.135  1.00  0.00     0.181 C 
BRANCH  31  32
HETATM   32  N4  UNL     1       4.412   0.568   0.323  1.00  0.00    -0.339 N 
HETATM   33  C24 UNL     1       5.308   1.379  -0.370  1.00  0.00     0.310 C 
HETATM   34  O4  UNL     1       5.770   1.005  -1.469  1.00  0.00    -0.262 OA
ATOM     35  H4  UNL     1       4.060   0.910   1.217  1.00  0.00     0.163 HD
BRANCH  33  36
HETATM   36  C25 UNL     1       5.715   2.662   0.166  1.00  0.00     0.316 C 
HETATM   37  O5  UNL     1       5.277   3.101   1.270  1.00  0.00    -0.262 OA
HETATM   38  N5  UNL     1       6.636   3.478  -0.551  1.00  0.00    -0.290 N 
HETATM   39  C26 UNL     1       7.073   4.735  -0.110  1.00  0.00     0.220 C 
ATOM     40  H5  UNL     1       6.999   3.127  -1.437  1.00  0.00     0.172 HD
HETATM   41  C27 UNL     1       6.645   5.384   1.137  1.00  0.00     0.117 C 
HETATM   42  O6  UNL     1       7.905   5.373  -0.839  1.00  0.00    -0.274 OA
ENDBRANCH  33  36
ENDBRANCH  31  32
BRANCH  31  43
HETATM   43  C28 UNL     1       4.447  -1.715   0.925  1.00  0.00     0.009 C 
HETATM   44  C29 UNL     1       5.962  -1.702   0.935  1.00  0.00     0.012 C 
HETATM   45  C30 UNL     1       3.994  -1.306   2.300  1.00  0.00     0.012 C 
ENDBRANCH  31  43
ENDBRANCH  29  31
ENDBRANCH   1  24
TORSDOF 13
