REMARK  18 active torsions:
REMARK  status: ('A' for Active; 'I' for Inactive)
REMARK    1  A    between atoms: C3_3  and  C4_4 
REMARK    2  A    between atoms: C4_4  and  C5_5 
REMARK    3  A    between atoms: C5_5  and  C7_7 
REMARK    4  A    between atoms: C7_7  and  C8_8 
REMARK    5  A    between atoms: C8_8  and  N1_9 
REMARK       I    between atoms: N1_9  and  C10_11 
REMARK    6  A    between atoms: C10_11  and  C11_13 
REMARK    7  A    between atoms: C11_13  and  C12_14 
REMARK    8  A    between atoms: C11_13  and  N2_18 
REMARK    9  A    between atoms: C12_14  and  C13_15 
REMARK   10  A    between atoms: C13_15  and  C14_16 
REMARK   11  A    between atoms: N2_18  and  C16_19 
REMARK   12  A    between atoms: N2_18  and  C31_49 
REMARK   13  A    between atoms: C16_19  and  O2_20 
REMARK   14  A    between atoms: C16_19  and  C17_22 
REMARK   15  A    between atoms: N5_30  and  C21_31 
REMARK   16  A    between atoms: C22_32  and  O3_33 
REMARK   17  A    between atoms: C23_35  and  O4_36 
REMARK   18  A    between atoms: C29_43  and  N6_44 
ROOT
HETATM    1  C1  UNL     1       9.134   2.324   1.448  1.00  0.00     0.112 C 
HETATM    2  C2  UNL     1       8.518   2.038   0.148  1.00  0.00    -0.111 C 
HETATM    3  C3  UNL     1       8.002   1.821  -0.920  1.00  0.00    -0.107 C 
ENDROOT
BRANCH   3   4
HETATM    4  C4  UNL     1       7.355   1.580  -2.233  1.00  0.00     0.098 C 
BRANCH   4   5
HETATM    5  C5  UNL     1       5.913   2.035  -2.152  1.00  0.00    -0.006 C 
HETATM    6  C6  UNL     1       5.192   1.818  -3.463  1.00  0.00     0.011 C 
BRANCH   5   7
HETATM    7  C7  UNL     1       5.152   1.201  -1.118  1.00  0.00     0.025 C 
BRANCH   7   8
HETATM    8  C8  UNL     1       3.733   1.697  -1.075  1.00  0.00     0.126 C 
BRANCH   8   9
HETATM    9  N1  UNL     1       2.939   0.935  -0.100  1.00  0.00    -0.351 N 
HETATM   10  C9  UNL     1       2.925   1.478   1.231  1.00  0.00     0.152 C 
HETATM   11  C10 UNL     1       2.232  -0.215  -0.488  1.00  0.00     0.266 C 
HETATM   12  O1  UNL     1       2.296  -0.479  -1.740  1.00  0.00    -0.266 OA
BRANCH  11  13
HETATM   13  C11 UNL     1       1.438  -1.108   0.433  1.00  0.00     0.086 C 
BRANCH  13  14
HETATM   14  C12 UNL     1       2.309  -1.735   1.383  1.00  0.00     0.063 C 
BRANCH  14  15
HETATM   15  C13 UNL     1       3.491  -2.526   0.930  1.00  0.00     0.006 C 
BRANCH  15  16
HETATM   16  C14 UNL     1       4.163  -3.055   2.209  1.00  0.00    -0.004 C 
HETATM   17  C15 UNL     1       5.382  -3.876   1.859  1.00  0.00     0.005 C 
ENDBRANCH  15  16
ENDBRANCH  14  15
ENDBRANCH  13  14
BRANCH  13  18
HETATM   18  N2  UNL     1       0.327  -1.758  -0.235  1.00  0.00    -0.296 N 
BRANCH  18  19
HETATM   19  C16 UNL     1      -0.912  -1.059  -0.181  1.00  0.00     0.192 C 
BRANCH  19  20
HETATM   20  O2  UNL     1      -0.862  -0.031   0.622  1.00  0.00    -0.343 OA
ATOM     21  H2  UNL     1      -1.689   0.435   0.658  1.00  0.00     0.219 HD
ENDBRANCH  19  20
BRANCH  19  22
HETATM   22  C17 UNL     1      -2.198  -1.206  -0.795  1.00  0.00     0.161 A 
HETATM   23  N3  UNL     1      -3.207  -0.500  -0.155  1.00  0.00    -0.323 N 
HETATM   24  C18 UNL     1      -4.490  -0.545  -0.468  1.00  0.00     0.141 A 
ATOM     25  H3  UNL     1      -2.936   0.104   0.621  1.00  0.00     0.169 HD
HETATM   26  C19 UNL     1      -4.858  -1.359  -1.516  1.00  0.00     0.122 A 
HETATM   27  N5  UNL     1      -5.610   0.048   0.015  1.00  0.00    -0.319 N 
HETATM   28  N4  UNL     1      -6.183  -1.227  -1.626  1.00  0.00    -0.346 N 
HETATM   29  C29 UNL     1      -3.877  -2.069  -2.170  1.00  0.00     0.133 A 
HETATM   30  C20 UNL     1      -6.658  -0.376  -0.704  1.00  0.00     0.185 A 
ATOM     31  H4  UNL     1      -6.757  -1.709  -2.318  1.00  0.00     0.167 HD
HETATM   32  N7  UNL     1      -2.591  -1.967  -1.790  1.00  0.00    -0.323 N 
ATOM     33  H7  UNL     1      -1.889  -2.505  -2.298  1.00  0.00     0.169 HD
BRANCH  29  34
HETATM   34  N6  UNL     1      -4.195  -2.832  -3.147  1.00  0.00    -0.379 N 
HETATM   35  C30 UNL     1      -5.521  -3.028  -3.648  1.00  0.00     0.147 C 
ATOM     36  H6  UNL     1      -3.441  -3.343  -3.607  1.00  0.00     0.160 HD
ENDBRANCH  29  34
BRANCH  27  37
HETATM   37  C21 UNL     1      -5.571   0.969   1.117  1.00  0.00     0.129 C 
HETATM   38  C22 UNL     1      -6.791   1.014   1.967  1.00  0.00     0.170 C 
HETATM   39  C23 UNL     1      -7.510   2.307   1.651  1.00  0.00     0.154 C 
HETATM   40  C24 UNL     1      -6.540   3.194   0.947  1.00  0.00     0.032 A 
HETATM   41  C25 UNL     1      -5.380   2.364   0.552  1.00  0.00     0.027 A 
HETATM   42  C26 UNL     1      -5.214   3.524   1.487  1.00  0.00    -0.035 A 
HETATM   43  C27 UNL     1      -4.460   4.685   0.866  1.00  0.00     0.016 C 
HETATM   44  C28 UNL     1      -4.935   3.293   2.935  1.00  0.00     0.016 C 
BRANCH  38  45
HETATM   45  O3  UNL     1      -7.644  -0.053   1.865  1.00  0.00    -0.391 OA
ATOM     46  H3  UNL     1      -8.423  -0.024   2.408  1.00  0.00     0.210 HD
ENDBRANCH  38  45
BRANCH  39  47
HETATM   47  O4  UNL     1      -8.137   2.876   2.739  1.00  0.00    -0.393 OA
ATOM     48  H4  UNL     1      -8.589   3.688   2.541  1.00  0.00     0.210 HD
ENDBRANCH  39  47
ENDBRANCH  27  37
ENDBRANCH  19  22
ENDBRANCH  18  19
BRANCH  18  49
HETATM   49  C31 UNL     1       0.335  -3.071  -0.758  1.00  0.00    -0.011 C 
HETATM   50  C32 UNL     1       1.110  -3.317  -2.010  1.00  0.00     0.063 C 
HETATM   51  C33 UNL     1       0.578  -4.211   0.226  1.00  0.00     0.063 C 
ENDBRANCH  18  49
ENDBRANCH  13  18
ENDBRANCH  11  13
ENDBRANCH   8   9
ENDBRANCH   7   8
ENDBRANCH   5   7
ENDBRANCH   4   5
ENDBRANCH   3   4
TORSDOF 18
