REMARK  15 active torsions:
REMARK  status: ('A' for Active; 'I' for Inactive)
REMARK    1  A    between atoms: C2_2  and  C3_3 
REMARK    2  A    between atoms: C3_3  and  C4_4 
REMARK    3  A    between atoms: C6_8  and  C7_9 
REMARK    4  A    between atoms: N2_12  and  C10_13 
REMARK    5  A    between atoms: C10_13  and  O1_14 
REMARK    6  A    between atoms: C10_13  and  N3_16 
REMARK    7  A    between atoms: C12_18  and  C13_19 
REMARK    8  A    between atoms: C13_19  and  C14_20 
REMARK    9  A    between atoms: C14_20  and  C15_21 
REMARK   10  A    between atoms: C14_20  and  C16_24 
REMARK   11  A    between atoms: N5_36  and  C24_38 
REMARK   12  A    between atoms: C24_38  and  C25_39 
REMARK   13  A    between atoms: C24_38  and  C28_44 
REMARK   14  A    between atoms: C25_39  and  C26_40 
REMARK   15  A    between atoms: C26_40  and  C27_41 
ROOT
HETATM    1  C7  UNL     1       0.836  -1.224   0.743  1.00  0.00     0.115 C 
HETATM    2  C8  UNL     1       0.730  -2.726   0.925  1.00  0.00     0.039 C 
HETATM    3  C9  UNL     1      -0.454  -3.207   0.108  1.00  0.00     0.137 C 
HETATM    4  N2  UNL     1      -1.192  -1.955  -0.210  1.00  0.00    -0.282 N 
HETATM    5  C22 UNL     1      -0.218  -0.947  -0.285  1.00  0.00     0.235 C 
HETATM    6  O4  UNL     1      -0.190   0.026  -1.058  1.00  0.00    -0.272 OA
ENDROOT
BRANCH   1   7
HETATM    7  C6  UNL     1       2.189  -0.805   0.306  1.00  0.00    -0.014 A 
HETATM    8  C5  UNL     1       2.788  -1.225  -0.856  1.00  0.00     0.099 A 
HETATM    9  N1  UNL     1       4.019  -0.811  -1.184  1.00  0.00    -0.355 N 
HETATM   10  C4  UNL     1       4.742   0.040  -0.396  1.00  0.00     0.086 A 
ATOM     11  H1  UNL     1       4.433  -1.144  -2.055  1.00  0.00     0.166 HD
HETATM   12  N4  UNL     1       4.143   0.432   0.721  1.00  0.00    -0.355 N 
HETATM   13  C23 UNL     1       2.928   0.066   1.113  1.00  0.00     0.099 A 
ATOM     14  H4  UNL     1       4.659   1.068   1.330  1.00  0.00     0.166 HD
BRANCH  10  15
HETATM   15  C3  UNL     1       6.094   0.472  -0.794  1.00  0.00     0.128 C 
BRANCH  15  16
HETATM   16  C2  UNL     1       7.139  -0.496  -0.381  1.00  0.00    -0.014 C 
HETATM   17  C1  UNL     1       6.859  -1.919  -0.857  1.00  0.00     0.063 C 
HETATM   18  N5  UNL     1       8.167  -0.324   0.240  1.00  0.00    -0.382 N 
ATOM     19  H5  UNL     1       8.651  -1.219   0.316  1.00  0.00     0.160 HD
BRANCH  18  20
HETATM   20  C24 UNL     1       8.918   0.628   0.877  1.00  0.00     0.183 C 
BRANCH  20  21
HETATM   21  C25 UNL     1       9.631   1.609  -0.031  1.00  0.00     0.046 C 
BRANCH  21  22
HETATM   22  C26 UNL     1      10.597   1.003  -0.980  1.00  0.00     0.116 C 
BRANCH  22  23
HETATM   23  C27 UNL     1      11.726   0.280  -0.407  1.00  0.00     0.172 C 
HETATM   24  O5  UNL     1      12.464  -0.381  -1.219  1.00  0.00    -0.648 OA
HETATM   25  O6  UNL     1      12.092   0.228   0.906  1.00  0.00    -0.648 OA
ENDBRANCH  22  23
ENDBRANCH  21  22
ENDBRANCH  20  21
BRANCH  20  26
HETATM   26  C28 UNL     1       8.294   1.428   1.952  1.00  0.00     0.196 C 
HETATM   27  O7  UNL     1       8.951   2.378   2.505  1.00  0.00    -0.646 OA
HETATM   28  O8  UNL     1       7.016   1.251   2.449  1.00  0.00    -0.646 OA
ENDBRANCH  20  26
ENDBRANCH  18  20
ENDBRANCH  15  16
ENDBRANCH  10  15
ENDBRANCH   1   7
BRANCH   4  29
HETATM   29  C10 UNL     1      -2.576  -1.911  -0.390  1.00  0.00     0.234 C 
BRANCH  29  30
HETATM   30  O1  UNL     1      -3.230  -3.054  -0.310  1.00  0.00    -0.332 OA
ATOM     31  H1  UNL     1      -4.172  -3.024  -0.432  1.00  0.00     0.221 HD
ENDBRANCH  29  30
BRANCH  29  32
HETATM   32  N3  UNL     1      -3.414  -0.827  -0.647  1.00  0.00    -0.285 N 
HETATM   33  C11 UNL     1      -4.867  -0.869  -0.845  1.00  0.00     0.147 C 
HETATM   34  C12 UNL     1      -5.394   0.288  -0.089  1.00  0.00     0.025 C 
HETATM   35  C19 UNL     1      -4.733   1.512  -0.760  1.00  0.00     0.026 C 
HETATM   36  C20 UNL     1      -4.841   2.731   0.090  1.00  0.00     0.029 C 
HETATM   37  C21 UNL     1      -5.158   1.678  -2.174  1.00  0.00     0.029 C 
HETATM   38  S1  UNL     1      -3.014   0.863  -0.781  1.00  0.00    -0.040 SA
BRANCH  34  39
HETATM   39  C13 UNL     1      -6.831   0.465   0.071  1.00  0.00     0.023 C 
BRANCH  39  40
HETATM   40  C14 UNL     1      -7.650  -0.548   0.759  1.00  0.00     0.090 C 
BRANCH  40  41
HETATM   41  C15 UNL     1      -7.687  -1.897   0.196  1.00  0.00     0.177 C 
HETATM   42  O2  UNL     1      -7.406  -2.889   0.936  1.00  0.00    -0.648 OA
HETATM   43  O3  UNL     1      -8.019  -2.140  -1.112  1.00  0.00    -0.648 OA
ENDBRANCH  40  41
BRANCH  40  44
HETATM   44  C16 UNL     1      -9.093  -0.078   0.856  1.00  0.00    -0.008 C 
HETATM   45  C17 UNL     1      -9.227   1.208   1.620  1.00  0.00     0.010 C 
HETATM   46  C18 UNL     1      -9.790   0.018  -0.459  1.00  0.00     0.010 C 
ENDBRANCH  40  44
ENDBRANCH  39  40
ENDBRANCH  34  39
ENDBRANCH  29  32
ENDBRANCH   4  29
TORSDOF 15
