REMARK  0 active torsions:
REMARK  status: ('A' for Active; 'I' for Inactive)
ROOT
HETATM    1  C1  UNL     1       1.302   2.615   1.132  1.00  0.00     0.043 C 
HETATM    2  C2  UNL     1       1.163   1.513   0.144  1.00  0.00    -0.079 C 
HETATM    3  C3  UNL     1       2.320   0.887  -0.141  1.00  0.00    -0.064 A 
HETATM    4  C4  UNL     1       2.419  -0.264  -1.122  1.00  0.00     0.027 A 
HETATM    5  C5  UNL     1       1.467  -1.300  -0.649  1.00  0.00     0.011 C 
HETATM    6  C6  UNL     1       0.508  -0.935   0.416  1.00  0.00     0.014 C 
HETATM    7  C7  UNL     1      -0.702  -0.135   0.007  1.00  0.00     0.010 C 
HETATM    8  C8  UNL     1      -0.201   1.212  -0.410  1.00  0.00     0.047 C 
HETATM    9  C9  UNL     1      -1.695  -0.107   1.149  1.00  0.00    -0.000 C 
HETATM   10  C10 UNL     1      -1.746   1.159   1.940  1.00  0.00     0.018 C 
HETATM   11  C11 UNL     1      -1.399  -1.189   2.197  1.00  0.00     0.018 C 
HETATM   12  C12 UNL     1      -3.060  -0.346   0.590  1.00  0.00     0.181 C 
HETATM   13  C13 UNL     1      -3.651  -1.574   1.143  1.00  0.00     0.088 C 
HETATM   14  N1  UNL     1      -4.143  -2.548   1.578  1.00  0.00    -0.195 NA
HETATM   15  C14 UNL     1      -3.996   0.734   0.888  1.00  0.00     0.088 C 
HETATM   16  N2  UNL     1      -4.729   1.591   1.128  1.00  0.00    -0.195 NA
HETATM   17  C15 UNL     1      -2.925  -0.446  -0.882  1.00  0.00     0.205 C 
HETATM   18  C16 UNL     1      -3.810  -1.523  -1.353  1.00  0.00     0.090 C 
HETATM   19  N3  UNL     1      -4.501  -2.369  -1.709  1.00  0.00    -0.195 NA
HETATM   20  C17 UNL     1      -3.223   0.777  -1.605  1.00  0.00     0.090 C 
HETATM   21  N4  UNL     1      -3.441   1.743  -2.178  1.00  0.00    -0.195 NA
HETATM   22  C18 UNL     1      -1.452  -0.854  -1.086  1.00  0.00     0.182 C 
HETATM   23  C19 UNL     1      -1.124  -0.439  -2.428  1.00  0.00     0.088 C 
HETATM   24  N5  UNL     1      -0.865  -0.129  -3.513  1.00  0.00    -0.195 NA
HETATM   25  C20 UNL     1      -1.463  -2.310  -0.936  1.00  0.00     0.088 C 
HETATM   26  N6  UNL     1      -1.461  -3.463  -0.842  1.00  0.00    -0.195 NA
HETATM   27  C21 UNL     1       3.588   0.221  -0.436  1.00  0.00    -0.016 A 
HETATM   28  C22 UNL     1       4.259  -0.665   0.582  1.00  0.00     0.020 C 
HETATM   29  C23 UNL     1       4.572   1.081  -1.203  1.00  0.00     0.020 C 
ENDROOT
TORSDOF 0
