REMARK  2 active torsions:
REMARK  status: ('A' for Active; 'I' for Inactive)
REMARK    1  A    between atoms: C6_6  and  O1_7 
REMARK    2  A    between atoms: C21_25  and  N1_26 
ROOT
HETATM    1  C1  UNL     1      -2.372  -2.473   1.888  1.00  0.00     0.016 C 
HETATM    2  C2  UNL     1      -2.417  -1.426   0.769  1.00  0.00    -0.032 C 
HETATM    3  C3  UNL     1      -3.226  -2.012  -0.342  1.00  0.00     0.011 C 
HETATM    4  C4  UNL     1      -3.552  -1.012  -1.420  1.00  0.00     0.008 C 
HETATM    5  C5  UNL     1      -4.402   0.059  -0.809  1.00  0.00     0.019 C 
HETATM    6  C6  UNL     1      -4.659   1.212  -1.762  1.00  0.00     0.122 C 
HETATM    7  C7  UNL     1      -3.854   2.392  -1.242  1.00  0.00     0.032 C 
HETATM    8  C8  UNL     1      -2.866   1.740  -0.260  1.00  0.00     0.008 C 
HETATM    9  C9  UNL     1      -3.733   0.696   0.351  1.00  0.00    -0.003 C 
HETATM   10  C10 UNL     1      -3.097  -0.215   1.339  1.00  0.00     0.002 C 
HETATM   11  C11 UNL     1      -2.257   0.582   2.284  1.00  0.00     0.033 C 
HETATM   12  C12 UNL     1      -0.809   0.556   2.042  1.00  0.00    -0.018 C 
HETATM   13  C13 UNL     1      -0.266  -0.241   1.148  1.00  0.00    -0.012 C 
HETATM   14  C14 UNL     1      -1.034  -1.179   0.303  1.00  0.00     0.028 C 
HETATM   15  C15 UNL     1      -0.142  -2.396   0.250  1.00  0.00     0.016 C 
HETATM   16  C16 UNL     1       1.220  -1.976   0.717  1.00  0.00     0.080 C 
HETATM   17  C17 UNL     1       1.158  -0.475   0.719  1.00  0.00     0.253 C 
HETATM   18  O2  UNL     1       2.056   0.119   1.571  1.00  0.00    -0.190 OA
HETATM   19  O3  UNL     1       2.679   1.132   1.008  1.00  0.00    -0.194 OA
HETATM   20  C18 UNL     1       3.465   0.621  -0.034  1.00  0.00     0.230 C 
HETATM   21  C19 UNL     1       4.596  -0.146   0.607  1.00  0.00     0.076 C 
HETATM   22  C20 UNL     1       5.714  -0.446  -0.351  1.00  0.00     0.038 C 
HETATM   23  C21 UNL     1       6.192   0.849  -0.998  1.00  0.00     0.183 C 
HETATM   24  C22 UNL     1       5.013   1.357  -1.826  1.00  0.00     0.038 C 
HETATM   25  C23 UNL     1       3.950   1.785  -0.854  1.00  0.00     0.076 C 
HETATM   26  O4  UNL     1       2.658  -0.171  -0.823  1.00  0.00    -0.194 OA
HETATM   27  O5  UNL     1       1.374  -0.024  -0.573  1.00  0.00    -0.190 OA
ENDROOT
BRANCH  23  28
HETATM   28  N1  UNL     1       6.409   1.824   0.061  1.00  0.00    -0.075 N 
ATOM     29  H13 UNL     1       5.587   1.957   0.651  1.00  0.00     0.274 HD
ATOM     30  H12 UNL     1       7.043   1.486   0.785  1.00  0.00     0.274 HD
ATOM     31  H11 UNL     1       6.729   2.690  -0.372  1.00  0.00     0.274 HD
ENDBRANCH  23  28
BRANCH   6  32
HETATM   32  O1  UNL     1      -6.006   1.559  -1.666  1.00  0.00    -0.395 OA
ATOM     33  H1  UNL     1      -6.167   2.281  -2.262  1.00  0.00     0.210 HD
ENDBRANCH   6  32
TORSDOF 2
