REMARK  5 active torsions:
REMARK  status: ('A' for Active; 'I' for Inactive)
REMARK    1  A    between atoms: C6_6  and  O1_7 
REMARK    2  A    between atoms: C7_10  and  O3_11 
REMARK    3  A    between atoms: C8_13  and  C9_14 
REMARK    4  A    between atoms: C14_20  and  O5_21 
REMARK    5  A    between atoms: C14_20  and  C15_23 
ROOT
HETATM    1  C1  UNL     1       3.518  -2.460   1.643  1.00  0.00     0.039 C 
HETATM    2  C2  UNL     1       3.014  -1.597   0.510  1.00  0.00     0.118 C 
HETATM    3  C3  UNL     1       3.615  -0.231   0.537  1.00  0.00     0.032 C 
HETATM    4  C4  UNL     1       2.532   0.852   0.456  1.00  0.00     0.020 C 
HETATM    5  C5  UNL     1       1.415   0.495  -0.541  1.00  0.00     0.049 C 
HETATM    6  C6  UNL     1       2.069   0.951  -1.880  1.00  0.00     0.271 C 
HETATM    7  O2  UNL     1       2.353   2.308  -1.585  1.00  0.00    -0.331 OA
HETATM    8  C7  UNL     1       1.331   2.822  -0.851  1.00  0.00     0.267 C 
HETATM    9  C8  UNL     1       0.456   1.598  -0.518  1.00  0.00     0.086 C 
HETATM   10  C15 UNL     1       1.032  -0.914  -0.524  1.00  0.00     0.171 C 
HETATM   11  O6  UNL     1       1.676  -1.397   0.670  1.00  0.00    -0.377 OA
ENDROOT
BRANCH   6  12
HETATM   12  O1  UNL     1       3.172   0.219  -2.198  1.00  0.00    -0.370 OA
ATOM     13  H1  UNL     1       3.571   0.497  -3.014  1.00  0.00     0.212 HD
ENDBRANCH   6  12
BRANCH   9  14
HETATM   14  C9  UNL     1      -0.442   1.795   0.631  1.00  0.00     0.136 C 
HETATM   15  O4  UNL     1      -0.546   0.736   1.439  1.00  0.00    -0.374 OA
HETATM   16  C10 UNL     1      -1.541  -0.187   1.284  1.00  0.00     0.062 C 
HETATM   17  C11 UNL     1      -2.583   0.140   2.373  1.00  0.00     0.046 C 
HETATM   18  C12 UNL     1      -1.004  -1.524   1.677  1.00  0.00     0.041 C 
HETATM   19  C19 UNL     1      -2.206  -0.164  -0.092  1.00  0.00     0.031 C 
HETATM   20  C13 UNL     1      -0.490  -2.422   0.648  1.00  0.00     0.044 C 
HETATM   21  C14 UNL     1      -0.192  -1.602  -0.635  1.00  0.00     0.092 C 
HETATM   22  C16 UNL     1      -1.546  -1.125  -1.014  1.00  0.00    -0.008 C 
HETATM   23  C17 UNL     1      -2.452  -2.395  -0.933  1.00  0.00     0.018 C 
HETATM   24  C18 UNL     1      -1.721  -0.863  -2.498  1.00  0.00     0.018 C 
HETATM   25  C20 UNL     1      -2.414   1.210  -0.629  1.00  0.00     0.015 C 
HETATM   26  C21 UNL     1      -1.735   2.339   0.066  1.00  0.00     0.012 C 
HETATM   27  C22 UNL     1      -2.539   3.173   0.979  1.00  0.00     0.012 C 
BRANCH  21  28
HETATM   28  O5  UNL     1      -0.051  -2.690  -1.571  1.00  0.00    -0.386 OA
ATOM     29  H5  UNL     1       0.131  -2.188  -2.357  1.00  0.00     0.210 HD
ENDBRANCH  21  28
ENDBRANCH   9  14
BRANCH   8  30
HETATM   30  O3  UNL     1       1.611   3.603   0.229  1.00  0.00    -0.371 OA
ATOM     31  H3  UNL     1       0.897   3.962   0.742  1.00  0.00     0.212 HD
ENDBRANCH   8  30
TORSDOF 5
