REMARK  5 active torsions:
REMARK  status: ('A' for Active; 'I' for Inactive)
REMARK    1  A    between atoms: C2_2  and  C4_4 
REMARK    2  A    between atoms: C7_9  and  N2_10 
REMARK    3  A    between atoms: C11_15  and  N3_16 
REMARK    4  A    between atoms: C13_24  and  N5_25 
REMARK    5  A    between atoms: C14_27  and  C15_28 
ROOT
HETATM    1  C4  UNL     1       0.862   0.305  -0.213  1.00  0.00     0.013 A 
HETATM    2  C5  UNL     1       0.091   0.816  -1.226  1.00  0.00     0.130 A 
HETATM    3  C6  UNL     1      -1.317   0.606  -1.457  1.00  0.00     0.143 A 
HETATM    4  N1  UNL     1      -2.046  -0.175  -0.681  1.00  0.00    -0.325 N 
ATOM      5  H1  UNL     1      -1.586  -0.632   0.107  1.00  0.00     0.169 HD
HETATM    6  C7  UNL     1      -3.367  -0.406  -0.868  1.00  0.00     0.125 A 
HETATM    7  C10 UNL     1      -4.005   0.197  -1.920  1.00  0.00     0.098 A 
HETATM    8 BR1  UNL     1      -5.864  -0.094  -2.229  1.00  0.00    -0.043 Br
HETATM    9  C11 UNL     1      -3.256   1.026  -2.754  1.00  0.00     0.121 A 
HETATM   10  N4  UNL     1      -1.969   1.199  -2.501  1.00  0.00    -0.325 N 
ATOM     11  H4  UNL     1      -1.434   1.809  -3.119  1.00  0.00     0.169 HD
HETATM   12  O1  UNL     1       0.902   1.568  -1.993  1.00  0.00    -0.292 OA
HETATM   13  C12 UNL     1       2.114   1.560  -1.531  1.00  0.00     0.172 A 
HETATM   14 CL1  UNL     1       3.492   2.415  -2.233  1.00  0.00    -0.054 Cl
HETATM   15  C13 UNL     1       2.158   0.767  -0.387  1.00  0.00     0.087 A 
ENDROOT
BRANCH   1  16
HETATM   16  C2  UNL     1       0.443  -0.548   0.894  1.00  0.00     0.016 C 
HETATM   17  C1  UNL     1       1.606  -1.200   1.648  1.00  0.00     0.015 C 
HETATM   18  C3  UNL     1      -0.350   0.190   1.948  1.00  0.00     0.015 C 
ENDBRANCH   1  16
BRANCH  15  19
HETATM   19  N5  UNL     1       3.310   0.551   0.359  1.00  0.00    -0.360 N 
HETATM   20  C14 UNL     1       4.491   0.359  -0.022  1.00  0.00     0.138 C 
ATOM     21  H5  UNL     1       3.176   0.548   1.370  1.00  0.00     0.165 HD
BRANCH  20  22
HETATM   22  C15 UNL     1       5.567   0.150   0.966  1.00  0.00     0.272 C 
HETATM   23  C16 UNL     1       6.581   1.274   0.887  1.00  0.00     0.096 C 
HETATM   24  F1  UNL     1       6.172  -1.071   0.654  1.00  0.00    -0.201 F 
HETATM   25  F2  UNL     1       5.042   0.023   2.222  1.00  0.00    -0.201 F 
ENDBRANCH  20  22
ENDBRANCH  15  19
BRANCH   6  26
HETATM   26  N2  UNL     1      -4.119  -1.251  -0.013  1.00  0.00    -0.375 N 
HETATM   27  C8  UNL     1      -4.769  -2.420  -0.560  1.00  0.00     0.150 C 
HETATM   28  C9  UNL     1      -4.257  -0.977   1.408  1.00  0.00     0.150 C 
ENDBRANCH   6  26
BRANCH   9  29
HETATM   29  N3  UNL     1      -3.894   1.573  -3.729  1.00  0.00    -0.384 N 
ATOM     30  H32 UNL     1      -4.886   1.440  -3.924  1.00  0.00     0.157 HD
ATOM     31  H31 UNL     1      -3.346   2.179  -4.339  1.00  0.00     0.157 HD
ENDBRANCH   9  29
TORSDOF 5
