REMARK  5 active torsions:
REMARK  status: ('A' for Active; 'I' for Inactive)
REMARK    1  A    between atoms: C3_5  and  N2_6 
REMARK    2  A    between atoms: C4_10  and  C5_11 
REMARK    3  A    between atoms: C6_16  and  S2_17 
REMARK    4  A    between atoms: S2_17  and  C7_18 
REMARK    5  A    between atoms: C7_18  and  C8_19 
ROOT
HETATM    1  C5  UNL     1      -2.952  -0.683  -0.759  1.00  0.00     0.089 A 
HETATM    2  N3  UNL     1      -2.288  -1.494   0.138  1.00  0.00    -0.297 N 
ATOM      3  H3  UNL     1      -2.843  -2.098   0.745  1.00  0.00     0.187 HD
HETATM    4  N4  UNL     1      -0.990  -1.530   0.252  1.00  0.00    -0.294 N 
ATOM      5  H4  UNL     1      -0.571  -2.157   0.939  1.00  0.00     0.187 HD
HETATM    6  C6  UNL     1      -0.188  -0.768  -0.506  1.00  0.00     0.086 A 
HETATM    7  C15 UNL     1      -0.810   0.053  -1.415  1.00  0.00     0.064 A 
HETATM    8  C16 UNL     1      -2.210   0.107  -1.557  1.00  0.00     0.066 A 
HETATM    9 CL3  UNL     1      -2.861   1.103  -2.873  1.00  0.00    -0.082 Cl
ENDROOT
BRANCH   6  10
HETATM   10  S2  UNL     1       1.594  -0.810  -0.353  1.00  0.00    -0.106 SA
BRANCH  10  11
HETATM   11  C7  UNL     1       2.117   0.421   0.873  1.00  0.00     0.124 C 
BRANCH  11  12
HETATM   12  C8  UNL     1       3.597   0.421   1.034  1.00  0.00     0.012 A 
HETATM   13  C9  UNL     1       4.211   1.281   1.918  1.00  0.00     0.045 A 
HETATM   14 CL1  UNL     1       3.201   2.368   2.840  1.00  0.00    -0.084 Cl
HETATM   15  C10 UNL     1       5.578   1.312   2.096  1.00  0.00     0.049 A 
HETATM   16  C11 UNL     1       6.385   0.458   1.373  1.00  0.00     0.044 A 
HETATM   17 CL2  UNL     1       8.138   0.493   1.597  1.00  0.00    -0.084 Cl
HETATM   18  C12 UNL     1       5.796  -0.414   0.480  1.00  0.00    -0.001 A 
HETATM   19  C13 UNL     1       6.693  -1.320  -0.282  1.00  0.00     0.053 C 
HETATM   20  C14 UNL     1       4.417  -0.427   0.318  1.00  0.00     0.132 A 
HETATM   21  F1  UNL     1       3.884  -1.297  -0.566  1.00  0.00    -0.205 F 
ENDBRANCH  11  12
ENDBRANCH  10  11
ENDBRANCH   6  10
BRANCH   1  22
HETATM   22  C4  UNL     1      -4.411  -0.694  -0.646  1.00  0.00     0.060 A 
HETATM   23  C2  UNL     1      -5.387   0.240  -0.590  1.00  0.00     0.027 A 
HETATM   24  C1  UNL     1      -5.069   1.740  -0.637  1.00  0.00     0.070 C 
HETATM   25  N1  UNL     1      -6.634  -0.158  -0.390  1.00  0.00    -0.340 N 
HETATM   26  C3  UNL     1      -6.878  -1.452  -0.247  1.00  0.00     0.143 A 
ATOM     27  H1  UNL     1      -7.394   0.521  -0.347  1.00  0.00     0.168 HD
HETATM   28  S1  UNL     1      -5.352  -2.159  -0.392  1.00  0.00    -0.050 SA
BRANCH  26  29
HETATM   29  N2  UNL     1      -8.059  -2.017  -0.040  1.00  0.00    -0.380 N 
ATOM     30  H22 UNL     1      -8.981  -1.590   0.048  1.00  0.00     0.158 HD
ATOM     31  H21 UNL     1      -8.247  -3.013   0.070  1.00  0.00     0.158 HD
ENDBRANCH  26  29
ENDBRANCH   1  22
TORSDOF 5
