REMARK  6 active torsions:
REMARK  status: ('A' for Active; 'I' for Inactive)
REMARK    1  A    between atoms: N1_1  and  C1_5 
REMARK    2  A    between atoms: C1_5  and  C2_6 
REMARK    3  A    between atoms: C2_6  and  N2_7 
REMARK    4  A    between atoms: N2_7  and  C3_8 
REMARK    5  A    between atoms: N2_7  and  S1_14 
REMARK    6  A    between atoms: S1_14  and  C9_17 
ROOT
HETATM    1  N2  UNL     1      -0.707  -0.306   0.735  1.00  0.00    -0.270 N 
ENDROOT
BRANCH   1   2
HETATM    2  C2  UNL     1      -0.842   1.031   1.233  1.00  0.00     0.169 C 
BRANCH   2   3
HETATM    3  C1  UNL     1      -0.485   2.104   0.254  1.00  0.00     0.250 C 
BRANCH   3   4
HETATM    4  N1  UNL     1      -0.677   3.391   0.923  1.00  0.00    -0.078 N 
ATOM      5  H13 UNL     1      -1.614   3.502   1.311  1.00  0.00     0.274 HD
ATOM      6  H12 UNL     1      -0.161   3.465   1.800  1.00  0.00     0.274 HD
ATOM      7  H11 UNL     1      -0.434   4.123   0.255  1.00  0.00     0.274 HD
ENDBRANCH   3   4
ENDBRANCH   2   3
ENDBRANCH   1   2
BRANCH   1   8
HETATM    8  C3  UNL     1      -1.784  -0.908   0.048  1.00  0.00     0.045 A 
HETATM    9  C4  UNL     1      -2.700  -1.620   0.815  1.00  0.00     0.030 A 
HETATM   10  C5  UNL     1      -3.783  -2.240   0.228  1.00  0.00     0.002 A 
HETATM   11  C6  UNL     1      -3.975  -2.162  -1.150  1.00  0.00     0.000 A 
HETATM   12  C7  UNL     1      -3.073  -1.458  -1.924  1.00  0.00     0.002 A 
HETATM   13  C8  UNL     1      -1.996  -0.848  -1.293  1.00  0.00     0.030 A 
ENDBRANCH   1   8
BRANCH   1  14
HETATM   14  S1  UNL     1       0.741  -1.188   0.960  1.00  0.00     0.265 S 
HETATM   15  O1  UNL     1       0.642  -2.594   0.438  1.00  0.00    -0.200 OA
HETATM   16  O2  UNL     1       1.039  -1.312   2.446  1.00  0.00    -0.200 OA
BRANCH  14  17
HETATM   17  C9  UNL     1       2.135  -0.468   0.216  1.00  0.00     0.080 A 
HETATM   18  C10 UNL     1       2.516  -0.721  -1.070  1.00  0.00     0.025 A 
HETATM   19  C11 UNL     1       3.627  -0.129  -1.604  1.00  0.00     0.002 A 
HETATM   20  C12 UNL     1       4.363   0.728  -0.837  1.00  0.00     0.000 A 
HETATM   21  C13 UNL     1       4.014   1.005   0.451  1.00  0.00     0.002 A 
HETATM   22  C14 UNL     1       2.894   0.401   0.973  1.00  0.00     0.025 A 
ENDBRANCH  14  17
ENDBRANCH   1  14
TORSDOF 6
