REMARK  5 active torsions:
REMARK  status: ('A' for Active; 'I' for Inactive)
REMARK    1  A    between atoms: O1_2  and  C2_3 
REMARK    2  A    between atoms: C4_5  and  S1_6 
REMARK    3  A    between atoms: C6_9  and  C7_10 
REMARK       I    between atoms: C7_10  and  N1_12 
REMARK    4  A    between atoms: N1_12  and  C8_14 
REMARK    5  A    between atoms: C8_14  and  C9_15 
ROOT
HETATM    1  C7  UNL     1      -0.569   0.996   0.690  1.00  0.00     0.261 C 
HETATM    2  O2  UNL     1      -0.056   2.122   0.982  1.00  0.00    -0.267 OA
HETATM    3  N1  UNL     1       0.179  -0.161   0.929  1.00  0.00    -0.356 N 
ATOM      4  H1  UNL     1      -0.219  -1.074   0.707  1.00  0.00     0.162 HD
ENDROOT
BRANCH   1   5
HETATM    5  C6  UNL     1      -1.908   0.997   0.125  1.00  0.00     0.107 A 
HETATM    6  C2  UNL     1      -2.741  -0.004  -0.295  1.00  0.00     0.092 A 
HETATM    7  C3  UNL     1      -3.942   0.350  -0.779  1.00  0.00     0.064 A 
HETATM    8  C4  UNL     1      -4.246   1.689  -0.817  1.00  0.00     0.044 A 
HETATM    9  S2  UNL     1      -2.846   2.410  -0.177  1.00  0.00    -0.075 SA
BRANCH   6  10
HETATM   10  O1  UNL     1      -2.308  -1.357  -0.203  1.00  0.00    -0.354 OA
HETATM   11  C1  UNL     1      -3.128  -2.417  -0.620  1.00  0.00     0.210 C 
ENDBRANCH   6  10
BRANCH   8  12
HETATM   12  S1  UNL     1      -5.776   2.442  -1.413  1.00  0.00    -0.127 SA
HETATM   13  C5  UNL     1      -6.885   1.124  -1.970  1.00  0.00     0.096 C 
ENDBRANCH   8  12
ENDBRANCH   1   5
BRANCH   3  14
HETATM   14  C8  UNL     1       1.503  -0.078   1.485  1.00  0.00     0.127 C 
BRANCH  14  15
HETATM   15  C9  UNL     1       2.470   0.672   0.602  1.00  0.00     0.003 C 
HETATM   16  C10 UNL     1       3.816   0.655   1.346  1.00  0.00     0.006 C 
HETATM   17  C11 UNL     1       4.496  -0.635   1.000  1.00  0.00     0.000 C 
HETATM   18  C12 UNL     1       5.065  -0.500  -0.404  1.00  0.00     0.000 C 
HETATM   19  C13 UNL     1       3.950   0.003  -1.303  1.00  0.00     0.000 C 
HETATM   20  C14 UNL     1       2.600  -0.156  -0.675  1.00  0.00     0.006 C 
ENDBRANCH  14  15
ENDBRANCH   3  14
TORSDOF 5
