REMARK  7 active torsions:
REMARK  status: ('A' for Active; 'I' for Inactive)
REMARK    1  A    between atoms: C2_2  and  C4_4 
REMARK    2  A    between atoms: C4_4  and  S1_5 
REMARK    3  A    between atoms: S1_5  and  C5_6 
REMARK    4  A    between atoms: C8_11  and  C9_12 
REMARK    5  A    between atoms: C11_14  and  C12_15 
REMARK    6  A    between atoms: C16_19  and  O1_20 
REMARK    7  A    between atoms: C17_22  and  C18_23 
ROOT
HETATM    1  C9  UNL     1      -0.514   0.446  -0.110  1.00  0.00     0.060 A 
HETATM    2  C10 UNL     1      -1.417   1.435   0.130  1.00  0.00     0.042 A 
HETATM    3  C11 UNL     1      -2.789   1.204   0.301  1.00  0.00    -0.013 A 
HETATM    4  C16 UNL     1      -3.214  -0.097   0.216  1.00  0.00     0.096 A 
HETATM    5  C17 UNL     1      -2.297  -1.113  -0.029  1.00  0.00     0.051 A 
HETATM    6  N2  UNL     1      -1.003  -0.819  -0.181  1.00  0.00    -0.355 N 
ATOM      7  H2  UNL     1      -0.350  -1.582  -0.359  1.00  0.00     0.166 HD
ENDROOT
BRANCH   1   8
HETATM    8  C8  UNL     1       0.932   0.682  -0.299  1.00  0.00     0.062 A 
HETATM    9  C7  UNL     1       1.457   1.949  -0.243  1.00  0.00     0.049 A 
HETATM   10  C6  UNL     1       2.836   2.157  -0.435  1.00  0.00     0.092 A 
HETATM   11  N1  UNL     1       3.570   1.071  -0.666  1.00  0.00    -0.347 N 
HETATM   12  C5  UNL     1       3.106  -0.182  -0.730  1.00  0.00     0.144 A 
ATOM     13  H1  UNL     1       4.571   1.206  -0.806  1.00  0.00     0.167 HD
HETATM   14  N3  UNL     1       1.756  -0.321  -0.535  1.00  0.00    -0.335 N 
ATOM     15  H3  UNL     1       1.363  -1.261  -0.575  1.00  0.00     0.168 HD
BRANCH  12  16
HETATM   16  S1  UNL     1       4.091  -1.625  -1.042  1.00  0.00    -0.093 SA
BRANCH  16  17
HETATM   17  C4  UNL     1       5.818  -1.343  -1.199  1.00  0.00     0.086 C 
BRANCH  17  18
HETATM   18  C2  UNL     1       6.637  -1.104   0.012  1.00  0.00    -0.013 C 
HETATM   19  C1  UNL     1       8.105  -0.907  -0.429  1.00  0.00     0.010 C 
HETATM   20  C3  UNL     1       6.273   0.064   0.856  1.00  0.00     0.010 C 
ENDBRANCH  17  18
ENDBRANCH  16  17
ENDBRANCH  12  16
ENDBRANCH   1   8
BRANCH   3  21
HETATM   21  C12 UNL     1      -3.661   2.351   0.554  1.00  0.00    -0.021 C 
HETATM   22  C13 UNL     1      -2.840   3.621   0.581  1.00  0.00     0.019 C 
HETATM   23  C14 UNL     1      -4.410   2.267   1.857  1.00  0.00     0.019 C 
HETATM   24  C15 UNL     1      -4.662   2.498  -0.582  1.00  0.00     0.019 C 
ENDBRANCH   3  21
BRANCH   5  25
HETATM   25  C18 UNL     1      -2.751  -2.526  -0.122  1.00  0.00    -0.006 C 
HETATM   26  C19 UNL     1      -3.415  -3.018   1.138  1.00  0.00     0.021 C 
HETATM   27  C20 UNL     1      -1.535  -3.419  -0.369  1.00  0.00     0.021 C 
HETATM   28  C21 UNL     1      -3.670  -2.743  -1.297  1.00  0.00     0.021 C 
ENDBRANCH   5  25
BRANCH   4  29
HETATM   29  O1  UNL     1      -4.537  -0.383   0.372  1.00  0.00    -0.358 OA
ATOM     30  H1  UNL     1      -4.831  -1.284   0.313  1.00  0.00     0.217 HD
ENDBRANCH   4  29
TORSDOF 7
