REMARK  5 active torsions:
REMARK  status: ('A' for Active; 'I' for Inactive)
REMARK    1  A    between atoms: C3_3  and  S1_4 
REMARK    2  A    between atoms: S1_4  and  C4_5 
REMARK    3  A    between atoms: C4_5  and  N1_6 
REMARK       I    between atoms: N1_6  and  C5_8 
REMARK    4  A    between atoms: C5_8  and  C6_10 
REMARK    5  A    between atoms: C8_12  and  C9_13 
ROOT
HETATM    1  N1  UNL     1       0.508  -1.264   1.711  1.00  0.00    -0.326 N 
ATOM      2  H1  UNL     1      -0.328  -1.826   1.554  1.00  0.00     0.169 HD
HETATM    3  C5  UNL     1       0.427   0.087   1.377  1.00  0.00     0.262 C 
HETATM    4  O1  UNL     1       1.375   0.877   1.540  1.00  0.00    -0.267 OA
ENDROOT
BRANCH   1   5
HETATM    5  C4  UNL     1       1.634  -1.934   2.246  1.00  0.00     0.144 C 
BRANCH   5   6
HETATM    6  S1  UNL     1       2.950  -2.253   1.151  1.00  0.00    -0.059 SA
BRANCH   6   7
HETATM    7  C3  UNL     1       3.943  -0.950   0.538  1.00  0.00     0.125 A 
HETATM    8  C2  UNL     1       3.784  -0.224  -0.640  1.00  0.00    -0.001 A 
HETATM    9  C1  UNL     1       2.756  -0.344  -1.682  1.00  0.00     0.053 C 
HETATM   10  C17 UNL     1       4.841   0.686  -0.645  1.00  0.00     0.048 A 
HETATM   11  C14 UNL     1       5.586   0.506   0.475  1.00  0.00     0.095 A 
HETATM   12  S3  UNL     1       5.645   1.959  -1.447  1.00  0.00    -0.099 SA
HETATM   13  O2  UNL     1       5.012  -0.487   1.161  1.00  0.00    -0.301 OA
HETATM   14  C15 UNL     1       6.667   1.310   0.640  1.00  0.00     0.046 A 
HETATM   15  C16 UNL     1       6.912   2.231  -0.335  1.00  0.00     0.053 A 
ENDBRANCH   6   7
ENDBRANCH   5   6
ENDBRANCH   1   5
BRANCH   3  16
HETATM   16  C6  UNL     1      -0.846   0.602   0.803  1.00  0.00     0.073 A 
HETATM   17  C7  UNL     1      -2.006  -0.077   0.576  1.00  0.00     0.033 A 
HETATM   18  C8  UNL     1      -3.028   0.637   0.044  1.00  0.00    -0.043 A 
HETATM   19  C13 UNL     1      -2.820   1.946  -0.214  1.00  0.00     0.058 A 
HETATM   20  S2  UNL     1      -1.191   2.183   0.286  1.00  0.00    -0.096 SA
BRANCH  18  21
HETATM   21  C9  UNL     1      -4.352  -0.043  -0.254  1.00  0.00    -0.024 C 
HETATM   22  C10 UNL     1      -3.958  -1.283  -1.076  1.00  0.00     0.019 C 
HETATM   23  C11 UNL     1      -5.202   0.806  -1.125  1.00  0.00     0.019 C 
HETATM   24  C12 UNL     1      -5.049  -0.420   1.012  1.00  0.00     0.019 C 
ENDBRANCH  18  21
ENDBRANCH   3  16
TORSDOF 5
