REMARK  6 active torsions:
REMARK  status: ('A' for Active; 'I' for Inactive)
REMARK    1  A    between atoms: C2_2  and  C3_3 
REMARK    2  A    between atoms: C3_3  and  C4_4 
REMARK    3  A    between atoms: C5_5  and  C7_7 
REMARK       I    between atoms: N1_11  and  C11_12 
REMARK    4  A    between atoms: C11_12  and  C12_14 
REMARK    5  A    between atoms: C12_14  and  C13_15 
REMARK    6  A    between atoms: C13_15  and  C14_16 
ROOT
HETATM    1  C7  UNL     1      -2.282  -0.379   0.396  1.00  0.00     0.024 C 
HETATM    2  C8  UNL     1      -1.835  -1.524   1.315  1.00  0.00     0.012 C 
HETATM    3  C9  UNL     1      -0.334  -1.307   1.283  1.00  0.00     0.027 C 
HETATM    4  C10 UNL     1      -0.062  -0.609  -0.031  1.00  0.00     0.096 C 
HETATM    5  N1  UNL     1       1.042  -1.142  -0.721  1.00  0.00    -0.347 N 
HETATM    6  C11 UNL     1       2.344  -1.027  -0.119  1.00  0.00     0.220 C 
HETATM    7  O1  UNL     1       2.419  -0.477   1.021  1.00  0.00    -0.273 OA
HETATM    8  C19 UNL     1       0.906  -1.785  -1.975  1.00  0.00     0.126 C 
HETATM    9  C20 UNL     1      -0.351  -2.568  -2.042  1.00  0.00     0.021 C 
HETATM   10  C21 UNL     1      -1.595  -1.880  -1.546  1.00  0.00     0.013 C 
HETATM   11  C22 UNL     1      -1.381  -0.652  -0.782  1.00  0.00    -0.016 C 
HETATM   12  C23 UNL     1      -1.420   0.575  -1.688  1.00  0.00     0.018 C 
ENDROOT
BRANCH   6  13
HETATM   13  C12 UNL     1       3.483  -1.561  -0.875  1.00  0.00     0.106 C 
BRANCH  13  14
HETATM   14  C13 UNL     1       4.848  -1.160  -0.494  1.00  0.00     0.046 C 
BRANCH  14  15
HETATM   15  C14 UNL     1       5.181   0.278  -0.672  1.00  0.00     0.155 C 
HETATM   16  C15 UNL     1       6.616   0.517  -0.248  1.00  0.00     0.002 C 
HETATM   17  C16 UNL     1       6.954   1.673   0.272  1.00  0.00    -0.018 C 
HETATM   18  C17 UNL     1       6.059   2.824   0.505  1.00  0.00     0.138 C 
HETATM   19  C18 UNL     1       4.636   2.441   0.347  1.00  0.00     0.262 C 
HETATM   20  O2  UNL     1       3.716   3.285   0.435  1.00  0.00    -0.265 OA
HETATM   21  O3  UNL     1       4.359   1.105   0.098  1.00  0.00    -0.312 OA
ENDBRANCH  14  15
ENDBRANCH  13  14
ENDBRANCH   6  13
BRANCH   1  22
HETATM   22  C5  UNL     1      -3.694  -0.311   0.182  1.00  0.00    -0.083 C 
HETATM   23  C4  UNL     1      -4.415   0.765   0.412  1.00  0.00    -0.024 C 
HETATM   24  C6  UNL     1      -4.452  -1.527  -0.306  1.00  0.00     0.043 C 
BRANCH  23  25
HETATM   25  C3  UNL     1      -3.930   2.072   0.886  1.00  0.00     0.027 C 
BRANCH  25  26
HETATM   26  C2  UNL     1      -4.529   2.463   2.223  1.00  0.00    -0.001 C 
HETATM   27  C1  UNL     1      -6.016   2.562   2.189  1.00  0.00     0.005 C 
ENDBRANCH  25  26
ENDBRANCH  23  25
ENDBRANCH   1  22
TORSDOF 6
