REMARK  6 active torsions:
REMARK  status: ('A' for Active; 'I' for Inactive)
REMARK    1  A    between atoms: C4_5  and  C5_6 
REMARK    2  A    between atoms: C5_6  and  N1_7 
REMARK    3  A    between atoms: N1_7  and  C6_9 
REMARK    4  A    between atoms: C9_12  and  C10_13 
REMARK    5  A    between atoms: N2_14  and  N3_16 
REMARK    6  A    between atoms: N3_16  and  C11_18 
ROOT
HETATM    1  C6  UNL     1      -1.535  -0.530   0.449  1.00  0.00     0.028 A 
HETATM    2  C7  UNL     1      -0.774  -1.192   1.392  1.00  0.00     0.030 A 
HETATM    3  C8  UNL     1       0.577  -1.424   1.254  1.00  0.00     0.015 A 
HETATM    4  C9  UNL     1       1.219  -0.975   0.112  1.00  0.00    -0.019 A 
HETATM    5  C17 UNL     1       0.502  -0.314  -0.847  1.00  0.00     0.015 A 
HETATM    6  C18 UNL     1      -0.836  -0.100  -0.680  1.00  0.00     0.030 A 
ENDROOT
BRANCH   4   7
HETATM    7  C10 UNL     1       2.641  -1.201  -0.069  1.00  0.00     0.118 C 
HETATM    8  N2  UNL     1       3.223  -0.790  -1.110  1.00  0.00    -0.311 N 
ATOM      9  H2  UNL     1       2.642  -0.304  -1.792  1.00  0.00     0.186 HD
BRANCH   8  10
HETATM   10  N3  UNL     1       4.555  -0.925  -1.427  1.00  0.00    -0.301 N 
ATOM     11  H3  UNL     1       4.842  -1.470  -2.240  1.00  0.00     0.187 HD
BRANCH  10  12
HETATM   12  C11 UNL     1       5.524  -0.293  -0.604  1.00  0.00     0.048 A 
HETATM   13  C12 UNL     1       5.954   0.988  -0.853  1.00  0.00     0.031 A 
HETATM   14  C13 UNL     1       6.899   1.619  -0.061  1.00  0.00     0.002 A 
HETATM   15  C14 UNL     1       7.441   0.963   1.018  1.00  0.00     0.000 A 
HETATM   16  C15 UNL     1       7.023  -0.319   1.283  1.00  0.00     0.002 A 
HETATM   17  C16 UNL     1       6.085  -0.945   0.497  1.00  0.00     0.031 A 
ENDBRANCH  10  12
ENDBRANCH   8  10
ENDBRANCH   4   7
BRANCH   1  18
HETATM   18  N1  UNL     1      -2.918  -0.297   0.600  1.00  0.00    -0.386 N 
ATOM     19  H1  UNL     1      -3.411  -0.619   1.433  1.00  0.00     0.160 HD
BRANCH  18  20
HETATM   20  C5  UNL     1      -3.619   0.401  -0.439  1.00  0.00     0.158 C 
BRANCH  20  21
HETATM   21  C4  UNL     1      -5.047   0.588  -0.180  1.00  0.00    -0.040 A 
HETATM   22  C3  UNL     1      -5.546   1.685   0.472  1.00  0.00     0.012 A 
HETATM   23  C2  UNL     1      -6.920   1.817   0.695  1.00  0.00     0.043 A 
HETATM   24  C1  UNL     1      -7.804   0.845   0.262  1.00  0.00     0.116 A 
HETATM   25  F1  UNL     1      -9.148   0.960   0.472  1.00  0.00    -0.206 F 
HETATM   26  C20 UNL     1      -7.306  -0.258  -0.393  1.00  0.00     0.043 A 
HETATM   27  C19 UNL     1      -5.931  -0.380  -0.611  1.00  0.00     0.012 A 
ENDBRANCH  20  21
ENDBRANCH  18  20
ENDBRANCH   1  18
TORSDOF 6
