REMARK  0 active torsions:
REMARK  status: ('A' for Active; 'I' for Inactive)
REMARK       I    between atoms: N1_1  and  C1_4 
ROOT
HETATM    1  N1  UNL     1      -3.419   0.496   0.442  1.00  0.00    -0.233 N 
ATOM      2  H11 UNL     1      -3.936   0.306  -0.417  1.00  0.00     0.174 HD
ATOM      3  H12 UNL     1      -3.809   0.842   1.319  1.00  0.00     0.174 HD
HETATM    4  C1  UNL     1      -2.126   0.277   0.426  1.00  0.00     0.693 C 
HETATM    5  N2  UNL     1      -1.447   0.527   1.554  1.00  0.00    -0.131 N 
ATOM      6  H2  UNL     1      -2.029   0.638   2.384  1.00  0.00     0.205 HD
HETATM    7  N3  UNL     1      -0.151   0.654   1.770  1.00  0.00    -0.269 N 
ATOM      8  H3  UNL     1       0.108   1.082   2.659  1.00  0.00     0.189 HD
HETATM    9  C2  UNL     1       0.885   0.292   0.970  1.00  0.00     0.154 A 
HETATM   10  N4  UNL     1       2.185   0.321   1.289  1.00  0.00    -0.336 N 
ATOM     11  H4  UNL     1       2.552   0.625   2.191  1.00  0.00     0.168 HD
HETATM   12  C3  UNL     1       2.942  -0.104   0.261  1.00  0.00     0.182 A 
HETATM   13  N5  UNL     1       2.093  -0.412  -0.739  1.00  0.00    -0.345 N 
ATOM     14  H5  UNL     1       2.361  -0.765  -1.658  1.00  0.00     0.167 HD
HETATM   15  C4  UNL     1       0.835  -0.177  -0.327  1.00  0.00     0.148 A 
HETATM   16  C5  UNL     1      -0.325  -0.368  -1.065  1.00  0.00     0.290 C 
HETATM   17  O1  UNL     1      -0.064  -0.789  -2.234  1.00  0.00    -0.265 OA
HETATM   18  N6  UNL     1      -1.612  -0.179  -0.729  1.00  0.00    -0.153 N 
ATOM     19  H6  UNL     1      -2.293  -0.414  -1.451  1.00  0.00     0.187 HD
ENDROOT
TORSDOF 0
