REMARK  3 active torsions:
REMARK  status: ('A' for Active; 'I' for Inactive)
REMARK    1  A    between atoms: N1_1  and  C1_4 
REMARK    2  A    between atoms: C2_11  and  N5_12 
REMARK    3  A    between atoms: N6_15  and  C3_16 
ROOT
HETATM    1  C1  UNL     1       0.472   1.295   0.346  1.00  0.00     0.714 A 
HETATM    2  N2  UNL     1       1.704   1.563  -0.144  1.00  0.00    -0.116 N 
ATOM      3  H2  UNL     1       2.090   2.504  -0.070  1.00  0.00     0.207 HD
HETATM    4  N3  UNL     1       2.406   0.602  -0.719  1.00  0.00    -0.214 N 
ATOM      5  H3  UNL     1       3.332   0.833  -1.079  1.00  0.00     0.209 HD
HETATM    6  N4  UNL     1       1.978  -0.640  -0.854  1.00  0.00    -0.116 N 
ATOM      7  H4  UNL     1       2.553  -1.352  -1.305  1.00  0.00     0.207 HD
HETATM    8  C2  UNL     1       0.756  -0.931  -0.374  1.00  0.00     0.714 A 
HETATM    9  N6  UNL     1       0.019   0.036   0.219  1.00  0.00     0.048 N 
ENDROOT
BRANCH   1  10
HETATM   10  N1  UNL     1      -0.262   2.190   0.919  1.00  0.00    -0.232 N 
ATOM     11  H12 UNL     1       0.082   3.145   1.015  1.00  0.00     0.174 HD
ATOM     12  H11 UNL     1      -1.191   1.988   1.288  1.00  0.00     0.174 HD
ENDBRANCH   1  10
BRANCH   9  13
HETATM   13  C3  UNL     1      -1.273  -0.253   0.731  1.00  0.00     0.225 C 
HETATM   14  N7  UNL     1      -2.436   0.013  -0.011  1.00  0.00    -0.068 NA
HETATM   15  S1  UNL     1      -1.401  -0.910   2.219  1.00  0.00    -0.043 SA
ENDBRANCH   9  13
BRANCH   8  16
HETATM   16  N5  UNL     1       0.254  -2.117  -0.460  1.00  0.00    -0.232 N 
ATOM     17  H52 UNL     1       0.810  -2.846  -0.907  1.00  0.00     0.174 HD
ATOM     18  H51 UNL     1      -0.673  -2.338  -0.096  1.00  0.00     0.174 HD
ENDBRANCH   8  16
TORSDOF 3
