REMARK  8 active torsions:
REMARK  status: ('A' for Active; 'I' for Inactive)
REMARK    1  A    between atoms: C5_5  and  C6_6 
REMARK    2  A    between atoms: N2_10  and  C8_11 
REMARK    3  A    between atoms: C11_14  and  C12_15 
REMARK    4  A    between atoms: C12_15  and  O1_16 
REMARK    5  A    between atoms: C12_15  and  N3_18 
REMARK    6  A    between atoms: N3_18  and  N4_20 
REMARK    7  A    between atoms: C13_27  and  C14_28 
REMARK    8  A    between atoms: C14_28  and  C15_29 
ROOT
HETATM    1  C12 UNL     1       0.162   0.559   0.028  1.00  0.00     0.288 C 
ENDROOT
BRANCH   1   2
HETATM    2  C11 UNL     1       1.423   1.389  -0.134  1.00  0.00     0.090 A 
HETATM    3  C6  UNL     1       2.712   0.921  -0.161  1.00  0.00     0.071 A 
HETATM    4  N1  UNL     1       3.513   2.018  -0.321  1.00  0.00    -0.350 N 
HETATM    5  C7  UNL     1       2.699   3.112  -0.387  1.00  0.00     0.184 A 
ATOM      6  H1  UNL     1       4.531   2.019  -0.380  1.00  0.00     0.166 HD
HETATM    7  N2  UNL     1       1.413   2.723  -0.272  1.00  0.00    -0.337 N 
BRANCH   3   8
HETATM    8  C5  UNL     1       3.258  -0.423  -0.069  1.00  0.00    -0.007 A 
HETATM    9  C4  UNL     1       2.856  -1.322   0.889  1.00  0.00     0.014 A 
HETATM   10  C3  UNL     1       3.390  -2.594   0.947  1.00  0.00     0.007 A 
HETATM   11  C2  UNL     1       4.344  -3.010   0.050  1.00  0.00    -0.062 A 
HETATM   12  C1  UNL     1       4.925  -4.394   0.114  1.00  0.00     0.048 C 
HETATM   13  C22 UNL     1       4.759  -2.125  -0.917  1.00  0.00     0.007 A 
HETATM   14  C21 UNL     1       4.231  -0.855  -0.980  1.00  0.00     0.014 A 
ENDBRANCH   3   8
BRANCH   7  15
HETATM   15  C8  UNL     1       0.296   3.632  -0.301  1.00  0.00     0.082 C 
HETATM   16  C9  UNL     1      -0.135   3.977  -1.710  1.00  0.00     0.032 C 
HETATM   17  C10 UNL     1       0.643   4.963   0.372  1.00  0.00     0.032 C 
ENDBRANCH   7  15
ENDBRANCH   1   2
BRANCH   1  18
HETATM   18  O1  UNL     1      -0.757   1.002  -0.934  1.00  0.00    -0.370 OA
ATOM     19  H1  UNL     1      -1.546   0.483  -0.833  1.00  0.00     0.212 HD
ENDBRANCH   1  18
BRANCH   1  20
HETATM   20  N3  UNL     1      -0.354   0.664   1.351  1.00  0.00    -0.278 N 
ATOM     21  H3  UNL     1       0.086   1.392   1.914  1.00  0.00     0.185 HD
BRANCH  20  22
HETATM   22  N4  UNL     1      -1.333  -0.035   2.005  1.00  0.00    -0.169 N 
HETATM   23  N5  UNL     1      -1.658   0.294   3.287  1.00  0.00    -0.205 N 
HETATM   24  N6  UNL     1      -2.575  -0.506   3.739  1.00  0.00    -0.225 N 
ATOM     25  H5  UNL     1      -1.240   1.060   3.816  1.00  0.00     0.212 HD
HETATM   26  N7  UNL     1      -2.861  -1.345   2.797  1.00  0.00    -0.270 N 
ATOM     27  H6  UNL     1      -2.994  -0.478   4.669  1.00  0.00     0.210 HD
HETATM   28  C13 UNL     1      -2.090  -1.062   1.700  1.00  0.00     0.143 A 
ATOM     29  H7  UNL     1      -3.549  -2.096   2.860  1.00  0.00     0.190 HD
BRANCH  28  30
HETATM   30  C14 UNL     1      -2.225  -1.838   0.480  1.00  0.00     0.120 C 
BRANCH  30  31
HETATM   31  C15 UNL     1      -3.658  -1.693   0.038  1.00  0.00    -0.051 A 
HETATM   32  C16 UNL     1      -4.627  -2.526   0.563  1.00  0.00     0.010 A 
HETATM   33  C17 UNL     1      -5.929  -2.413   0.170  1.00  0.00     0.043 A 
HETATM   34  C18 UNL     1      -6.284  -1.467  -0.754  1.00  0.00     0.116 A 
HETATM   35  F1  UNL     1      -7.570  -1.347  -1.151  1.00  0.00    -0.206 F 
HETATM   36  C19 UNL     1      -5.348  -0.631  -1.290  1.00  0.00     0.043 A 
HETATM   37  C20 UNL     1      -4.007  -0.748  -0.884  1.00  0.00     0.010 A 
ENDBRANCH  30  31
ENDBRANCH  28  30
ENDBRANCH  20  22
ENDBRANCH   1  20
TORSDOF 8
