REMARK  4 active torsions:
REMARK  status: ('A' for Active; 'I' for Inactive)
REMARK    1  A    between atoms: O1_2  and  C2_3 
REMARK    2  A    between atoms: C2_3  and  C3_5 
REMARK    3  A    between atoms: C6_10  and  N1_11 
REMARK    4  A    between atoms: N1_11  and  S2_13 
ROOT
HETATM    1  C3  UNL     1       0.973   0.759  -0.012  1.00  0.00     0.110 A 
HETATM    2  S1  UNL     1       0.918   2.448   0.378  1.00  0.00    -0.052 SA
HETATM    3  C4  UNL     1      -0.754   2.687   0.307  1.00  0.00     0.160 A 
HETATM    4  F1  UNL     1      -1.459   3.846   0.524  1.00  0.00    -0.198 F 
HETATM    5  C5  UNL     1      -1.237   1.456  -0.016  1.00  0.00     0.081 A 
HETATM    6  C6  UNL     1      -0.343   0.454  -0.183  1.00  0.00     0.069 A 
ENDROOT
BRANCH   6   7
HETATM    7  N1  UNL     1      -0.783  -0.898  -0.532  1.00  0.00    -0.283 N 
ATOM      8  H1  UNL     1      -0.087  -1.632  -0.661  1.00  0.00     0.178 HD
BRANCH   7   9
HETATM    9  S2  UNL     1      -2.454  -1.275  -0.730  1.00  0.00     0.227 S 
HETATM   10  C7  UNL     1      -3.298  -0.979   0.814  1.00  0.00     0.186 C 
HETATM   11  O3  UNL     1      -2.584  -2.700  -1.121  1.00  0.00    -0.206 OA
HETATM   12  O4  UNL     1      -3.094  -0.358  -1.748  1.00  0.00    -0.206 OA
ENDBRANCH   7   9
ENDBRANCH   6   7
BRANCH   1  13
HETATM   13  C2  UNL     1       2.195  -0.069  -0.112  1.00  0.00     0.302 C 
HETATM   14  O2  UNL     1       2.132  -1.260  -0.394  1.00  0.00    -0.259 OA
BRANCH  13  15
HETATM   15  O1  UNL     1       3.421   0.584   0.133  1.00  0.00    -0.322 OA
HETATM   16  C1  UNL     1       4.588  -0.219   0.035  1.00  0.00     0.213 C 
ENDBRANCH  13  15
ENDBRANCH   1  13
TORSDOF 4
