REMARK  4 active torsions:
REMARK  status: ('A' for Active; 'I' for Inactive)
REMARK    1  A    between atoms: C2_2  and  N1_3 
REMARK    2  A    between atoms: N1_3  and  C3_5 
REMARK    3  A    between atoms: C4_8  and  N3_9 
REMARK    4  A    between atoms: N3_9  and  C5_11 
ROOT
HETATM    1  C3  UNL     1      -1.119   0.264   0.161  1.00  0.00     0.153 A 
HETATM    2  N2  UNL     1      -0.020   0.109   0.882  1.00  0.00    -0.316 N 
ATOM      3  H2  UNL     1      -0.057   0.211   1.896  1.00  0.00     0.170 HD
HETATM    4  C4  UNL     1       1.120  -0.177   0.292  1.00  0.00     0.155 A 
HETATM    5  S1  UNL     1       1.094  -0.330  -1.409  1.00  0.00    -0.013 SA
HETATM    6  S2  UNL     1      -0.959   0.075  -1.529  1.00  0.00    -0.013 SA
ENDROOT
BRANCH   4   7
HETATM    7  N3  UNL     1       2.242  -0.340   0.983  1.00  0.00    -0.340 N 
ATOM      8  H3  UNL     1       2.220  -0.241   1.998  1.00  0.00     0.164 HD
BRANCH   7   9
HETATM    9  C5  UNL     1       3.472  -0.649   0.343  1.00  0.00     0.266 C 
HETATM   10  C6  UNL     1       4.182   0.565  -0.221  1.00  0.00     0.069 C 
HETATM   11  F1  UNL     1       3.236  -1.597  -0.650  1.00  0.00    -0.227 F 
ENDBRANCH   7   9
ENDBRANCH   4   7
BRANCH   1  12
HETATM   12  N1  UNL     1      -2.288   0.554   0.727  1.00  0.00    -0.370 N 
ATOM     13  H1  UNL     1      -2.345   0.660   1.740  1.00  0.00     0.161 HD
BRANCH  12  14
HETATM   14  C2  UNL     1      -3.457   0.717  -0.062  1.00  0.00     0.117 C 
HETATM   15  C1  UNL     1      -4.205  -0.610  -0.182  1.00  0.00     0.026 C 
ENDBRANCH  12  14
ENDBRANCH   1  12
TORSDOF 4
