REMARK  10 active torsions:
REMARK  status: ('A' for Active; 'I' for Inactive)
REMARK    1  A    between atoms: N1_1  and  C1_4 
REMARK    2  A    between atoms: C2_5  and  N2_6 
REMARK    3  A    between atoms: N2_6  and  N3_8 
REMARK    4  A    between atoms: N3_8  and  N4_10 
REMARK    5  A    between atoms: N4_10  and  O1_12 
REMARK    6  A    between atoms: O1_12  and  C3_13 
REMARK    7  A    between atoms: C4_17  and  N6_18 
REMARK    8  A    between atoms: C5_22  and  O2_23 
REMARK    9  A    between atoms: C6_25  and  O3_26 
REMARK   10  A    between atoms: N9_36  and  C9_37 
ROOT
HETATM    1  N3  UNL     1       0.221  -0.884  -0.127  1.00  0.00    -0.221 N 
ATOM      2  H3  UNL     1      -0.339  -0.790  -0.974  1.00  0.00     0.210 HD
ENDROOT
BRANCH   1   3
HETATM    3  N2  UNL     1       1.481  -1.492  -0.125  1.00  0.00    -0.265 N 
ATOM      4  H2  UNL     1       1.588  -2.504  -0.063  1.00  0.00     0.190 HD
BRANCH   3   5
HETATM    5  C2  UNL     1       2.501  -0.706  -0.206  1.00  0.00     0.181 C 
HETATM    6  C1  UNL     1       3.696  -1.387  -0.198  1.00  0.00     0.158 C 
HETATM    7  N9  UNL     1       4.934  -0.890  -0.029  1.00  0.00    -0.233 N 
HETATM    8  C8  UNL     1       5.251   0.374   0.292  1.00  0.00     0.325 C 
HETATM    9  C7  UNL     1       4.429   1.493   0.392  1.00  0.00     0.328 C 
HETATM   10  O5  UNL     1       6.470   0.593   0.541  1.00  0.00    -0.261 OA
HETATM   11  N8  UNL     1       3.147   1.612  -0.008  1.00  0.00    -0.260 N 
HETATM   12  O4  UNL     1       4.919   2.518   0.911  1.00  0.00    -0.261 OA
HETATM   13  N7  UNL     1       2.295   0.620  -0.286  1.00  0.00    -0.278 N 
ATOM     14  H8  UNL     1       2.788   2.561  -0.109  1.00  0.00     0.190 HD
ATOM     15  H7  UNL     1       1.368   0.907  -0.600  1.00  0.00     0.189 HD
BRANCH   6  16
HETATM   16  N1  UNL     1       3.656  -2.663  -0.372  1.00  0.00    -0.382 N 
ATOM     17  H12 UNL     1       2.717  -3.040  -0.500  1.00  0.00     0.157 HD
ATOM     18  H11 UNL     1       4.542  -3.168  -0.366  1.00  0.00     0.157 HD
ENDBRANCH   6  16
BRANCH   7  19
HETATM   19  C9  UNL     1       5.990  -1.805  -0.210  1.00  0.00     0.364 C 
HETATM   20  O6  UNL     1       5.763  -3.003  -0.511  1.00  0.00    -0.283 OA
ENDBRANCH   7  19
ENDBRANCH   3   5
ENDBRANCH   1   3
BRANCH   1  21
HETATM   21  N4  UNL     1      -0.181  -0.451   1.019  1.00  0.00    -0.191 N 
ATOM     22  H4  UNL     1       0.417  -0.569   1.837  1.00  0.00     0.217 HD
BRANCH  21  23
HETATM   23  O1  UNL     1      -1.382   0.157   1.155  1.00  0.00    -0.227 OA
BRANCH  23  24
HETATM   24  C3  UNL     1      -2.423   0.110   0.206  1.00  0.00     0.385 C 
HETATM   25  N5  UNL     1      -2.776   1.424  -0.290  1.00  0.00    -0.012 N 
HETATM   26  C4  UNL     1      -4.160   1.221  -0.684  1.00  0.00     0.414 C 
ATOM     27  H52 UNL     1      -2.617   2.193   0.361  1.00  0.00     0.283 HD
ATOM     28  H51 UNL     1      -2.165   1.793  -1.019  1.00  0.00     0.283 HD
HETATM   29  C5  UNL     1      -4.734   0.599   0.591  1.00  0.00     0.209 C 
HETATM   30  C6  UNL     1      -3.653  -0.430   0.904  1.00  0.00     0.209 C 
BRANCH  26  31
HETATM   31  N6  UNL     1      -4.235   0.198  -1.701  1.00  0.00    -0.047 N 
ATOM     32  H63 UNL     1      -3.636   0.407  -2.500  1.00  0.00     0.276 HD
ATOM     33  H62 UNL     1      -3.789  -0.670  -1.405  1.00  0.00     0.276 HD
ATOM     34  H61 UNL     1      -5.206   0.056  -1.978  1.00  0.00     0.276 HD
ENDBRANCH  26  31
BRANCH  29  35
HETATM   35  O2  UNL     1      -4.807   1.588   1.563  1.00  0.00    -0.389 OA
ATOM     36  H2  UNL     1      -5.163   1.202   2.354  1.00  0.00     0.210 HD
ENDBRANCH  29  35
BRANCH  30  37
HETATM   37  O3  UNL     1      -3.934  -1.666   0.337  1.00  0.00    -0.388 OA
ATOM     38  H3  UNL     1      -4.706  -2.005   0.775  1.00  0.00     0.210 HD
ENDBRANCH  30  37
ENDBRANCH  23  24
ENDBRANCH  21  23
ENDBRANCH   1  21
TORSDOF 10
