REMARK  11 active torsions:
REMARK  status: ('A' for Active; 'I' for Inactive)
REMARK    1  A    between atoms: C2_2  and  C9_31 
REMARK    2  A    between atoms: N1_3  and  N2_5 
REMARK    3  A    between atoms: N2_5  and  C3_7 
REMARK    4  A    between atoms: C5_14  and  N6_15 
REMARK    5  A    between atoms: N6_15  and  C6_17 
REMARK    6  A    between atoms: C7_21  and  O1_22 
REMARK    7  A    between atoms: C7_21  and  O2_24 
REMARK    8  A    between atoms: C8_26  and  O3_27 
REMARK    9  A    between atoms: C9_31  and  O4_32 
REMARK   10  A    between atoms: C9_31  and  C10_34 
REMARK   11  A    between atoms: C10_34  and  O5_36 
ROOT
HETATM    1  C3  UNL     1       0.395   0.646  -1.495  1.00  0.00     0.713 A 
HETATM    2  N3  UNL     1      -0.084   0.404  -2.735  1.00  0.00    -0.161 N 
ATOM      3  H3  UNL     1       0.552   0.245  -3.516  1.00  0.00     0.187 HD
HETATM    4  C4  UNL     1      -1.420   0.377  -2.920  1.00  0.00     0.221 A 
HETATM    5  N4  UNL     1      -1.912   0.121  -4.233  1.00  0.00    -0.062 NA
HETATM    6  N5  UNL     1      -2.237   0.590  -1.877  1.00  0.00    -0.162 N 
ATOM      7  H5  UNL     1      -3.245   0.567  -2.029  1.00  0.00     0.187 HD
HETATM    8  C5  UNL     1      -1.773   0.832  -0.640  1.00  0.00     0.697 A 
HETATM    9  N8  UNL     1      -0.452   0.859  -0.454  1.00  0.00    -0.021 N 
ATOM     10  H8  UNL     1      -0.075   1.041   0.476  1.00  0.00     0.203 HD
ENDROOT
BRANCH   8  11
HETATM   11  N6  UNL     1      -2.555   1.035   0.356  1.00  0.00    -0.193 N 
ATOM     12  H6  UNL     1      -2.178   1.217   1.286  1.00  0.00     0.180 HD
BRANCH  11  13
HETATM   13  C6  UNL     1      -3.981   1.000   0.132  1.00  0.00     0.342 C 
HETATM   14  N7  UNL     1      -4.727   1.041   1.374  1.00  0.00     0.009 N 
HETATM   15  C7  UNL     1      -5.158  -0.331   1.206  1.00  0.00     0.366 C 
ATOM     16  H72 UNL     1      -4.251   1.314   2.234  1.00  0.00     0.286 HD
ATOM     17  H71 UNL     1      -5.426   1.771   1.513  1.00  0.00     0.286 HD
HETATM   18  C8  UNL     1      -4.532  -0.358  -0.171  1.00  0.00     0.261 C 
BRANCH  15  19
HETATM   19  O1  UNL     1      -6.554  -0.413   1.159  1.00  0.00    -0.342 OA
ATOM     20  H1  UNL     1      -6.837  -1.313   1.049  1.00  0.00     0.215 HD
ENDBRANCH  15  19
BRANCH  15  21
HETATM   21  O2  UNL     1      -4.597  -1.227   2.112  1.00  0.00    -0.342 OA
ATOM     22  H2  UNL     1      -4.880  -2.127   2.002  1.00  0.00     0.215 HD
ENDBRANCH  15  21
BRANCH  18  23
HETATM   23  O3  UNL     1      -5.467  -0.366  -1.199  1.00  0.00    -0.384 OA
ATOM     24  H3  UNL     1      -5.817  -1.228  -1.391  1.00  0.00     0.210 HD
ENDBRANCH  18  23
ENDBRANCH  11  13
ENDBRANCH   8  11
BRANCH   1  25
HETATM   25  N2  UNL     1       1.664   0.665  -1.353  1.00  0.00    -0.131 N 
ATOM     26  H2  UNL     1       2.266   0.501  -2.160  1.00  0.00     0.205 HD
BRANCH  25  27
HETATM   27  N1  UNL     1       2.226   0.906  -0.118  1.00  0.00    -0.292 N 
HETATM   28  C2  UNL     1       2.979   0.073   0.519  1.00  0.00     0.031 C 
HETATM   29  C1  UNL     1       3.252  -1.222  -0.124  1.00  0.00     0.068 C 
ATOM     30  H1  UNL     1       2.034   1.805   0.324  1.00  0.00     0.187 HD
BRANCH  28  31
HETATM   31  C9  UNL     1       3.515   0.452   1.827  1.00  0.00     0.193 C 
BRANCH  31  32
HETATM   32  O4  UNL     1       3.084   1.727   2.189  1.00  0.00    -0.387 OA
ATOM     33  H4  UNL     1       3.432   1.973   3.038  1.00  0.00     0.210 HD
ENDBRANCH  31  32
BRANCH  31  34
HETATM   34  C10 UNL     1       5.025   0.469   1.888  1.00  0.00     0.148 C 
HETATM   35  C11 UNL     1       5.652  -0.876   1.720  1.00  0.00     0.042 C 
BRANCH  34  36
HETATM   36  O5  UNL     1       5.599   1.387   1.042  1.00  0.00    -0.393 OA
ATOM     37  H5  UNL     1       6.548   1.398   1.080  1.00  0.00     0.210 HD
ENDBRANCH  34  36
ENDBRANCH  31  34
ENDBRANCH  28  31
ENDBRANCH  25  27
ENDBRANCH   1  25
TORSDOF 11
