REMARK  7 active torsions:
REMARK  status: ('A' for Active; 'I' for Inactive)
REMARK    1  A    between atoms: N1_2  and  C2_5 
REMARK    2  A    between atoms: C2_5  and  O1_6 
REMARK    3  A    between atoms: C2_5  and  C3_8 
REMARK    4  A    between atoms: C3_8  and  N2_9 
REMARK    5  A    between atoms: C4_15  and  N4_16 
REMARK    6  A    between atoms: C6_21  and  N5_22 
REMARK    7  A    between atoms: C10_30  and  O4_31 
ROOT
HETATM    1  C3  UNL     1       1.774   0.294   0.125  1.00  0.00     0.355 C 
HETATM    2  N3  UNL     1       2.058  -0.811   0.962  1.00  0.00    -0.338 N 
ATOM      3  H3  UNL     1       3.015  -1.035   1.236  1.00  0.00     0.160 HD
HETATM    4  C4  UNL     1       0.956  -1.601   1.409  1.00  0.00     0.285 C 
HETATM    5  C5  UNL     1      -0.236  -0.624   1.395  1.00  0.00     0.110 C 
HETATM    6  C6  UNL     1      -0.493  -0.343  -0.047  1.00  0.00     0.258 C 
HETATM    7  O6  UNL     1       0.596   0.428  -0.498  1.00  0.00    -0.308 OA
ENDROOT
BRANCH   6   8
HETATM    8  N5  UNL     1      -1.706   0.376  -0.356  1.00  0.00    -0.201 N 
HETATM    9  C7  UNL     1      -1.643   1.694  -0.696  1.00  0.00     0.346 A 
HETATM   10  O2  UNL     1      -0.515   2.223  -0.762  1.00  0.00    -0.245 OA
HETATM   11  N6  UNL     1      -2.765   2.361  -0.948  1.00  0.00    -0.272 N 
HETATM   12  C8  UNL     1      -3.967   1.796  -0.884  1.00  0.00     0.282 A 
ATOM     13  H6  UNL     1      -2.701   3.347  -1.201  1.00  0.00     0.174 HD
HETATM   14  O3  UNL     1      -5.032   2.440  -1.124  1.00  0.00    -0.265 OA
HETATM   15  C9  UNL     1      -4.033   0.461  -0.542  1.00  0.00     0.180 A 
HETATM   16  C10 UNL     1      -5.118  -0.385  -0.411  1.00  0.00     0.179 A 
HETATM   17  N8  UNL     1      -2.899  -0.251  -0.278  1.00  0.00    -0.187 N 
HETATM   18  N7  UNL     1      -4.627  -1.561  -0.082  1.00  0.00    -0.285 N 
HETATM   19  C11 UNL     1      -3.269  -1.509   0.005  1.00  0.00     0.348 A 
ATOM     20  H7  UNL     1      -5.187  -2.397   0.085  1.00  0.00     0.172 HD
HETATM   21  O5  UNL     1      -2.522  -2.462   0.292  1.00  0.00    -0.245 OA
BRANCH  16  22
HETATM   22  O4  UNL     1      -6.449  -0.002  -0.603  1.00  0.00    -0.344 OA
ATOM     23  H4  UNL     1      -7.195  -0.584  -0.513  1.00  0.00     0.219 HD
ENDBRANCH  16  22
ENDBRANCH   6   8
BRANCH   4  24
HETATM   24  N4  UNL     1       0.804  -2.661   0.468  1.00  0.00    -0.058 N 
ATOM     25  H43 UNL     1       0.702  -2.335  -0.493  1.00  0.00     0.276 HD
ATOM     26  H42 UNL     1       1.657  -3.202   0.330  1.00  0.00     0.276 HD
ATOM     27  H41 UNL     1       0.017  -3.225   0.787  1.00  0.00     0.276 HD
ENDBRANCH   4  24
BRANCH   1  28
HETATM   28  C2  UNL     1       2.836   0.195  -1.000  1.00  0.00     0.404 C 
BRANCH  28  29
HETATM   29  N1  UNL     1       4.150  -0.052  -0.410  1.00  0.00    -0.046 N 
HETATM   30  C1  UNL     1       5.194   0.560  -1.210  1.00  0.00     0.270 C 
ATOM     31  H12 UNL     1       4.319  -1.048  -0.266  1.00  0.00     0.280 HD
ATOM     32  H11 UNL     1       4.191   0.253   0.563  1.00  0.00     0.280 HD
ENDBRANCH  28  29
BRANCH  28  33
HETATM   33  O1  UNL     1       2.871   1.319  -1.778  1.00  0.00    -0.365 OA
ATOM     34  H1  UNL     1       2.017   1.480  -2.162  1.00  0.00     0.212 HD
ENDBRANCH  28  33
ENDBRANCH   1  28
BRANCH   1  35
HETATM   35  N2  UNL     1       2.230   1.477   0.891  1.00  0.00    -0.023 N 
ATOM     36  H23 UNL     1       3.196   1.432   1.215  1.00  0.00     0.280 HD
ATOM     37  H22 UNL     1       2.350   2.326   0.338  1.00  0.00     0.280 HD
ATOM     38  H21 UNL     1       1.531   1.542   1.631  1.00  0.00     0.280 HD
ENDBRANCH   1  35
TORSDOF 7
