REMARK  3 active torsions:
REMARK  status: ('A' for Active; 'I' for Inactive)
REMARK    1  A    between atoms: C4_5  and  N1_6 
REMARK    2  A    between atoms: C7_11  and  S1_12 
REMARK    3  A    between atoms: S1_12  and  C8_13 
ROOT
HETATM    1  C1  UNL     1       1.657   2.542   1.215  1.00  0.00     0.051 C 
HETATM    2  C2  UNL     1       0.460   1.923   0.567  1.00  0.00    -0.020 A 
HETATM    3  C3  UNL     1      -0.500   2.724  -0.051  1.00  0.00     0.077 A 
HETATM    4 CL1  UNL     1      -0.261   4.446  -0.057  1.00  0.00    -0.081 Cl
HETATM    5  C4  UNL     1      -1.615   2.180  -0.647  1.00  0.00     0.159 A 
HETATM    6  C5  UNL     1      -1.771   0.805  -0.622  1.00  0.00     0.112 A 
HETATM    7  C6  UNL     1      -0.844  -0.008  -0.022  1.00  0.00    -0.002 A 
HETATM    8  C7  UNL     1       0.261   0.560   0.566  1.00  0.00     0.018 A 
HETATM    9  C12 UNL     1      -1.331  -1.400  -0.188  1.00  0.00     0.080 C 
HETATM   10  C13 UNL     1      -2.835  -1.148  -0.306  1.00  0.00     0.065 C 
HETATM   11  C14 UNL     1      -3.565  -2.299  -0.907  1.00  0.00     0.046 C 
HETATM   12  C15 UNL     1      -3.327  -0.815   1.070  1.00  0.00     0.046 C 
HETATM   13  O5  UNL     1      -2.812   0.012  -1.154  1.00  0.00    -0.337 OA
ENDROOT
BRANCH   8  14
HETATM   14  S1  UNL     1       1.478  -0.535   1.341  1.00  0.00    -0.121 SA
BRANCH  14  15
HETATM   15  C8  UNL     1       2.673  -1.010   0.108  1.00  0.00     0.086 C 
HETATM   16  C9  UNL     1       3.551   0.086  -0.402  1.00  0.00     0.194 C 
HETATM   17  O3  UNL     1       4.557  -0.663  -1.097  1.00  0.00    -0.320 OA
HETATM   18  C10 UNL     1       4.818  -1.800  -0.345  1.00  0.00     0.260 C 
HETATM   19  O4  UNL     1       5.854  -2.495  -0.445  1.00  0.00    -0.265 OA
HETATM   20  C11 UNL     1       3.663  -2.042   0.589  1.00  0.00     0.128 C 
ENDBRANCH  14  15
ENDBRANCH   8  14
BRANCH   5  21
HETATM   21  N1  UNL     1      -2.596   3.017  -1.283  1.00  0.00    -0.111 N 
HETATM   22  O1  UNL     1      -2.426   4.246  -1.280  1.00  0.00    -0.532 OA
HETATM   23  O2  UNL     1      -3.711   2.514  -1.892  1.00  0.00    -0.532 OA
ENDBRANCH   5  21
TORSDOF 3
