REMARK  5 active torsions:
REMARK  status: ('A' for Active; 'I' for Inactive)
REMARK    1  A    between atoms: C2_2  and  C3_3 
REMARK    2  A    between atoms: C3_3  and  C4_4 
REMARK    3  A    between atoms: C12_15  and  O4_16 
REMARK    4  A    between atoms: O4_16  and  C13_17 
REMARK    5  A    between atoms: C18_23  and  O6_24 
ROOT
HETATM    1  C4  UNL     1      -2.086   0.921  -0.720  1.00  0.00     0.272 C 
HETATM    2  O1  UNL     1      -1.824  -0.393  -0.720  1.00  0.00    -0.290 OA
HETATM    3  C5  UNL     1      -1.787  -1.560  -1.313  1.00  0.00     0.261 C 
HETATM    4  O2  UNL     1      -2.819  -2.313  -1.437  1.00  0.00    -0.265 OA
HETATM    5  C6  UNL     1      -0.569  -2.196  -1.926  1.00  0.00     0.111 C 
HETATM    6  C7  UNL     1       0.167  -3.154  -1.089  1.00  0.00     0.012 C 
HETATM    7  C8  UNL     1      -0.300  -3.223   0.323  1.00  0.00     0.027 C 
HETATM    8  C9  UNL     1       0.812  -3.561   1.268  1.00  0.00     0.175 C 
HETATM    9  O3  UNL     1       1.586  -2.436   1.704  1.00  0.00    -0.351 OA
HETATM   10  C10 UNL     1       1.593  -1.137   1.164  1.00  0.00     0.072 A 
HETATM   11  C11 UNL     1       2.806  -0.805   0.557  1.00  0.00     0.074 A 
HETATM   12  C12 UNL     1       3.032   0.403  -0.057  1.00  0.00     0.082 A 
HETATM   13  C15 UNL     1       1.974   1.272  -0.038  1.00  0.00     0.049 A 
HETATM   14  C16 UNL     1       0.730   0.982   0.564  1.00  0.00     0.002 A 
HETATM   15  C17 UNL     1       0.548  -0.227   1.172  1.00  0.00     0.049 A 
HETATM   16  C18 UNL     1      -0.269   2.069   0.258  1.00  0.00     0.297 C 
HETATM   17  O7  UNL     1      -0.994   1.718  -0.894  1.00  0.00    -0.327 OA
ENDROOT
BRANCH  12  18
HETATM   18  O4  UNL     1       4.248   0.719  -0.655  1.00  0.00    -0.279 OA
BRANCH  18  19
HETATM   19  C13 UNL     1       4.534   0.456  -1.974  1.00  0.00     0.260 C 
HETATM   20  C14 UNL     1       5.855   0.808  -2.594  1.00  0.00     0.126 C 
HETATM   21  O5  UNL     1       3.645  -0.100  -2.668  1.00  0.00    -0.265 OA
ENDBRANCH  18  19
ENDBRANCH  12  18
BRANCH  16  22
HETATM   22  O6  UNL     1       0.386   3.255  -0.156  1.00  0.00    -0.362 OA
HETATM   23  C19 UNL     1      -0.022   4.369   0.572  1.00  0.00     0.205 C 
ENDBRANCH  16  22
BRANCH   1  24
HETATM   24  C3  UNL     1      -2.873   1.285   0.546  1.00  0.00     0.061 C 
BRANCH  24  25
HETATM   25  C2  UNL     1      -4.181   0.521   0.590  1.00  0.00     0.000 C 
HETATM   26  C1  UNL     1      -4.888   0.939   1.862  1.00  0.00     0.005 C 
ENDBRANCH  24  25
ENDBRANCH   1  24
TORSDOF 5
