REMARK  5 active torsions:
REMARK  status: ('A' for Active; 'I' for Inactive)
REMARK    1  A    between atoms: C2_3  and  C3_4 
REMARK    2  A    between atoms: C3_4  and  N1_5 
REMARK    3  A    between atoms: N1_5  and  C4_7 
REMARK    4  A    between atoms: C10_13  and  O2_14 
REMARK    5  A    between atoms: C12_19  and  C13_20 
ROOT
HETATM    1  O1  UNL     1      -1.924  -0.333   2.027  1.00  0.00    -0.285 OA
HETATM    2  C1  UNL     1      -1.822  -0.331   0.777  1.00  0.00     0.218 A 
HETATM    3  C2  UNL     1      -0.610  -0.066   0.155  1.00  0.00     0.090 A 
HETATM    4  C10 UNL     1      -0.465  -0.036  -1.195  1.00  0.00     0.200 A 
HETATM    5  O3  UNL     1      -1.560  -0.290  -1.938  1.00  0.00    -0.277 OA
HETATM    6  C11 UNL     1      -2.710  -0.546  -1.378  1.00  0.00     0.151 A 
HETATM    7  S1  UNL     1      -4.294  -0.904  -1.979  1.00  0.00    -0.049 SA
HETATM    8  C12 UNL     1      -5.094  -1.045  -0.503  1.00  0.00     0.058 A 
HETATM    9  N2  UNL     1      -4.140  -0.836   0.380  1.00  0.00    -0.348 N 
ATOM     10  H2  UNL     1      -4.346  -0.871   1.378  1.00  0.00     0.166 HD
HETATM   11  C16 UNL     1      -2.945  -0.587  -0.027  1.00  0.00     0.126 A 
ENDROOT
BRANCH   3  12
HETATM   12  C3  UNL     1       0.554   0.309   1.051  1.00  0.00     0.104 C 
BRANCH  12  13
HETATM   13  N1  UNL     1       1.750  -0.315   0.783  1.00  0.00    -0.393 N 
ATOM     14  H1  UNL     1       1.794  -1.257   1.171  1.00  0.00     0.159 HD
BRANCH  13  15
HETATM   15  C4  UNL     1       2.878   0.025   0.128  1.00  0.00     0.081 C 
HETATM   16  C5  UNL     1       3.444   1.376   0.571  1.00  0.00     0.025 C 
HETATM   17  C6  UNL     1       4.801   1.609   0.045  1.00  0.00     0.002 C 
HETATM   18  C7  UNL     1       5.757   0.474   0.319  1.00  0.00     0.000 C 
HETATM   19  C8  UNL     1       5.152  -0.802  -0.217  1.00  0.00     0.002 C 
HETATM   20  C9  UNL     1       3.936  -1.081   0.592  1.00  0.00     0.025 C 
ENDBRANCH  13  15
ENDBRANCH  12  13
ENDBRANCH   3  12
BRANCH   4  21
HETATM   21  O2  UNL     1       0.709   0.250  -1.850  1.00  0.00    -0.340 OA
ATOM     22  H2  UNL     1       0.810   0.271  -2.794  1.00  0.00     0.220 HD
ENDBRANCH   4  21
BRANCH   8  23
HETATM   23  C13 UNL     1      -6.589  -1.210  -0.183  1.00  0.00     0.043 A 
HETATM   24  C14 UNL     1      -7.105  -0.355   0.903  1.00  0.00     0.012 A 
HETATM   25  C15 UNL     1      -7.228   0.240  -0.466  1.00  0.00     0.012 A 
ENDBRANCH   8  23
TORSDOF 5
