REMARK  6 active torsions:
REMARK  status: ('A' for Active; 'I' for Inactive)
REMARK    1  A    between atoms: C2_2  and  C3_3 
REMARK    2  A    between atoms: C3_3  and  N1_4 
REMARK    3  A    between atoms: N1_4  and  C4_5 
REMARK       I    between atoms: N1_4  and  C10_12 
REMARK    4  A    between atoms: C4_5  and  C5_6 
REMARK    5  A    between atoms: C10_12  and  C11_14 
REMARK    6  A    between atoms: C11_14  and  N2_15 
ROOT
HETATM    1  N1  UNL     1       0.649  -0.528   0.283  1.00  0.00    -0.347 N 
HETATM    2  C10 UNL     1       1.076   0.795   0.474  1.00  0.00     0.245 C 
HETATM    3  O2  UNL     1       0.302   1.581   1.111  1.00  0.00    -0.272 OA
ENDROOT
BRANCH   1   4
HETATM    4  C3  UNL     1       1.562  -1.465  -0.365  1.00  0.00     0.152 C 
BRANCH   4   5
HETATM    5  C2  UNL     1       2.415  -2.211   0.573  1.00  0.00    -0.017 C 
HETATM    6  C1  UNL     1       3.739  -2.195   0.578  1.00  0.00     0.008 C 
ENDBRANCH   4   5
ENDBRANCH   1   4
BRANCH   1   7
HETATM    7  C4  UNL     1      -0.656  -0.967   0.648  1.00  0.00     0.133 C 
BRANCH   7   8
HETATM    8  C5  UNL     1      -1.698  -1.026  -0.387  1.00  0.00     0.040 A 
HETATM    9  C6  UNL     1      -2.289  -0.024  -1.238  1.00  0.00     0.025 A 
HETATM   10  C7  UNL     1      -2.528   1.415  -1.024  1.00  0.00     0.034 C 
HETATM   11  C9  UNL     1      -3.095  -0.627  -0.042  1.00  0.00     0.132 A 
HETATM   12  C8  UNL     1      -3.545   1.471   0.091  1.00  0.00     0.168 C 
HETATM   13  O1  UNL     1      -3.167   0.403   0.889  1.00  0.00    -0.385 OA
ENDBRANCH   7   8
ENDBRANCH   1   7
BRANCH   2  14
HETATM   14  C11 UNL     1       2.383   1.340  -0.026  1.00  0.00     0.332 C 
BRANCH  14  15
HETATM   15  N2  UNL     1       2.444   2.746   0.357  1.00  0.00    -0.071 N 
ATOM     16  H23 UNL     1       1.639   3.282   0.033  1.00  0.00     0.274 HD
ATOM     17  H22 UNL     1       2.308   2.893   1.357  1.00  0.00     0.274 HD
ATOM     18  H21 UNL     1       3.332   3.116   0.017  1.00  0.00     0.274 HD
ENDBRANCH  14  15
ENDBRANCH   2  14
TORSDOF 6
