REMARK  7 active torsions:
REMARK  status: ('A' for Active; 'I' for Inactive)
REMARK    1  A    between atoms: N1_2  and  C2_4 
REMARK    2  A    between atoms: C2_4  and  C3_5 
REMARK    3  A    between atoms: C4_8  and  C5_9 
REMARK    4  A    between atoms: C5_9  and  N3_10 
REMARK    5  A    between atoms: N3_10  and  N4_12 
REMARK    6  A    between atoms: N4_12  and  N5_13 
REMARK    7  A    between atoms: N4_12  and  C6_16 
ROOT
HETATM    1  C5  UNL     1       0.231   0.206  -0.383  1.00  0.00     0.157 C 
ENDROOT
BRANCH   1   2
HETATM    2  C4  UNL     1       1.378   0.107   0.266  1.00  0.00     0.126 A 
HETATM    3  N2  UNL     1       2.625   0.092  -0.292  1.00  0.00    -0.336 N 
HETATM    4  C3  UNL     1       3.510  -0.022   0.710  1.00  0.00     0.117 A 
ATOM      5  H2  UNL     1       2.843   0.156  -1.286  1.00  0.00     0.168 HD
HETATM    6  C12 UNL     1       2.786  -0.076   1.879  1.00  0.00     0.275 A 
HETATM    7  N6  UNL     1       1.475   0.002   1.608  1.00  0.00    -0.306 N 
HETATM    8  O1  UNL     1       3.296  -0.186   3.045  1.00  0.00    -0.266 OA
ATOM      9  H6  UNL     1       0.707  -0.015   2.279  1.00  0.00     0.170 HD
BRANCH   4  10
HETATM   10  C2  UNL     1       4.836  -0.071   0.574  1.00  0.00     0.118 C 
BRANCH  10  11
HETATM   11  N1  UNL     1       5.426  -0.001  -0.711  1.00  0.00    -0.401 N 
HETATM   12  C1  UNL     1       5.533   1.277  -1.391  1.00  0.00     0.145 C 
ATOM     13  H1  UNL     1       5.776  -0.848  -1.159  1.00  0.00     0.158 HD
ENDBRANCH  10  11
ENDBRANCH   4  10
ENDBRANCH   1   2
BRANCH   1  14
HETATM   14  N3  UNL     1      -0.979   0.207   0.324  1.00  0.00    -0.287 N 
ATOM     15  H3  UNL     1      -1.144   0.959   0.993  1.00  0.00     0.188 HD
BRANCH  14  16
HETATM   16  N4  UNL     1      -1.976  -0.766   0.166  1.00  0.00    -0.204 N 
BRANCH  16  17
HETATM   17  N5  UNL     1      -1.638  -2.098   0.189  1.00  0.00    -0.324 N 
ATOM     18  H52 UNL     1      -0.675  -2.408   0.319  1.00  0.00     0.179 HD
ATOM     19  H51 UNL     1      -2.363  -2.806   0.074  1.00  0.00     0.179 HD
ENDBRANCH  16  17
BRANCH  16  20
HETATM   20  C6  UNL     1      -3.314  -0.336  -0.014  1.00  0.00     0.074 A 
HETATM   21  C7  UNL     1      -4.334  -1.259  -0.174  1.00  0.00     0.033 A 
HETATM   22  C8  UNL     1      -5.633  -0.903  -0.350  1.00  0.00     0.002 A 
HETATM   23  C9  UNL     1      -5.958   0.457  -0.371  1.00  0.00     0.000 A 
HETATM   24  C10 UNL     1      -4.976   1.411  -0.215  1.00  0.00     0.002 A 
HETATM   25  C11 UNL     1      -3.674   0.997  -0.040  1.00  0.00     0.033 A 
ENDBRANCH  16  20
ENDBRANCH  14  16
ENDBRANCH   1  14
TORSDOF 7
