REMARK  6 active torsions:
REMARK  status: ('A' for Active; 'I' for Inactive)
REMARK    1  A    between atoms: C2_2  and  O2_4 
REMARK    2  A    between atoms: O2_4  and  C3_5 
REMARK    3  A    between atoms: C6_8  and  O3_10 
REMARK    4  A    between atoms: C10_14  and  C11_15 
REMARK    5  A    between atoms: C11_15  and  C12_16 
REMARK    6  A    between atoms: C19_24  and  C20_25 
ROOT
HETATM    1  C3  UNL     1       1.002   2.434  -0.665  1.00  0.00     0.089 A 
HETATM    2  C4  UNL     1       0.605   3.454  -1.388  1.00  0.00     0.015 A 
HETATM    3  C5  UNL     1      -0.728   3.528  -1.989  1.00  0.00     0.072 A 
HETATM    4  C6  UNL     1      -1.692   2.451  -1.736  1.00  0.00     0.085 A 
HETATM    5  C7  UNL     1      -2.221   1.964  -3.096  1.00  0.00     0.051 C 
HETATM    6  C8  UNL     1      -1.177   1.309  -0.955  1.00  0.00    -0.008 A 
HETATM    7  C9  UNL     1      -2.020   0.207  -0.740  1.00  0.00     0.019 A 
HETATM    8  C10 UNL     1      -1.621  -0.887  -0.016  1.00  0.00    -0.045 A 
HETATM    9  C16 UNL     1      -0.354  -0.852   0.489  1.00  0.00    -0.010 A 
HETATM   10  C17 UNL     1       0.515   0.210   0.303  1.00  0.00     0.091 A 
HETATM   11  C18 UNL     1       0.120   1.325  -0.429  1.00  0.00     0.041 A 
HETATM   12  O4  UNL     1       1.794   0.192   0.836  1.00  0.00    -0.333 OA
HETATM   13  C19 UNL     1       2.461  -1.053   0.935  1.00  0.00     0.221 C 
HETATM   14  C24 UNL     1       1.555  -2.203   0.925  1.00  0.00     0.164 C 
HETATM   15  O5  UNL     1       1.928  -3.321   0.627  1.00  0.00    -0.294 OA
HETATM   16  C25 UNL     1       0.124  -2.016   1.287  1.00  0.00     0.123 C 
ENDROOT
BRANCH   8  17
HETATM   17  C11 UNL     1      -2.493  -2.064   0.225  1.00  0.00     0.066 C 
BRANCH  17  18
HETATM   18  C12 UNL     1      -3.825  -1.929  -0.369  1.00  0.00    -0.020 C 
HETATM   19  C13 UNL     1      -4.889  -1.967   0.417  1.00  0.00    -0.091 C 
HETATM   20  C14 UNL     1      -6.268  -1.830  -0.176  1.00  0.00     0.042 C 
HETATM   21  C15 UNL     1      -4.800  -2.141   1.887  1.00  0.00     0.042 C 
ENDBRANCH  17  18
ENDBRANCH   8  17
BRANCH   4  22
HETATM   22  O3  UNL     1      -2.801   3.033  -1.054  1.00  0.00    -0.385 OA
ATOM     23  H3  UNL     1      -3.425   2.336  -0.890  1.00  0.00     0.211 HD
ENDBRANCH   4  22
BRANCH   1  24
HETATM   24  O2  UNL     1       2.303   2.421  -0.113  1.00  0.00    -0.279 OA
BRANCH  24  25
HETATM   25  C2  UNL     1       2.518   3.060   1.121  1.00  0.00     0.260 C 
HETATM   26  C1  UNL     1       3.826   3.107   1.782  1.00  0.00     0.126 C 
HETATM   27  O1  UNL     1       1.521   3.609   1.655  1.00  0.00    -0.265 OA
ENDBRANCH  24  25
ENDBRANCH   1  24
BRANCH  13  28
HETATM   28  C20 UNL     1       3.511  -1.162  -0.110  1.00  0.00     0.015 C 
HETATM   29  C21 UNL     1       4.740  -1.525   0.179  1.00  0.00    -0.088 C 
HETATM   30  C22 UNL     1       5.097  -1.838   1.589  1.00  0.00     0.042 C 
HETATM   31  C23 UNL     1       5.790  -1.635  -0.860  1.00  0.00     0.042 C 
ENDBRANCH  13  28
TORSDOF 6
