REMARK  15 active torsions:
REMARK  status: ('A' for Active; 'I' for Inactive)
REMARK    1  A    between atoms: C2_2  and  O2_4 
REMARK    2  A    between atoms: O2_4  and  C3_5 
REMARK    3  A    between atoms: C9_11  and  C10_12 
REMARK    4  A    between atoms: C11_13  and  C12_14 
REMARK    5  A    between atoms: C12_14  and  O7_37 
REMARK    6  A    between atoms: C13_15  and  C14_16 
REMARK    7  A    between atoms: C15_17  and  C16_18 
REMARK    8  A    between atoms: C18_20  and  O3_21 
REMARK    9  A    between atoms: O3_21  and  C19_22 
REMARK       I    between atoms: C19_22  and  N1_24 
REMARK   10  A    between atoms: N1_24  and  C20_26 
REMARK   11  A    between atoms: C23_29  and  O5_30 
REMARK   12  A    between atoms: O7_37  and  C28_38 
REMARK   13  A    between atoms: C28_38  and  C29_39 
REMARK   14  A    between atoms: C30_40  and  C31_41 
REMARK   15  A    between atoms: C31_41  and  O8_44 
ROOT
HETATM    1  C12 UNL     1      -2.284  -0.127  -0.178  1.00  0.00     0.068 C 
HETATM    2  C13 UNL     1      -1.035  -0.519  -0.122  1.00  0.00     0.036 C 
ENDROOT
BRANCH   1   3
HETATM    3  C11 UNL     1      -2.650   1.178  -0.700  1.00  0.00     0.033 C 
HETATM    4  C10 UNL     1      -3.820   1.711  -0.824  1.00  0.00    -0.016 C 
BRANCH   4   5
HETATM    5  C9  UNL     1      -5.110   1.151  -0.475  1.00  0.00     0.045 C 
HETATM    6  C3  UNL     1      -5.887   2.190   0.367  1.00  0.00     0.140 C 
HETATM    7  C4  UNL     1      -7.251   1.605   0.350  1.00  0.00     0.034 C 
HETATM    8  C5  UNL     1      -7.408   1.083  -1.059  1.00  0.00     0.012 C 
HETATM    9  C6  UNL     1      -6.050   1.037  -1.674  1.00  0.00    -0.038 C 
HETATM   10  C7  UNL     1      -5.806  -0.288  -2.388  1.00  0.00     0.015 C 
HETATM   11  C8  UNL     1      -5.786   2.189  -2.591  1.00  0.00     0.015 C 
BRANCH   6  12
HETATM   12  O2  UNL     1      -5.310   2.250   1.657  1.00  0.00    -0.316 OA
BRANCH  12  13
HETATM   13  C2  UNL     1      -4.770   3.419   2.125  1.00  0.00     0.255 C 
HETATM   14  C1  UNL     1      -4.143   3.607   3.449  1.00  0.00     0.126 C 
HETATM   15  O1  UNL     1      -4.816   4.422   1.352  1.00  0.00    -0.266 OA
ENDBRANCH  12  13
ENDBRANCH   6  12
ENDBRANCH   4   5
ENDBRANCH   1   3
BRANCH   1  16
HETATM   16  O7  UNL     1      -3.237  -1.047   0.298  1.00  0.00    -0.348 OA
BRANCH  16  17
HETATM   17  C28 UNL     1      -3.251  -2.326  -0.297  1.00  0.00     0.203 C 
BRANCH  17  18
HETATM   18  C29 UNL     1      -4.311  -3.193   0.300  1.00  0.00    -0.002 C 
HETATM   19  C30 UNL     1      -4.007  -4.337   0.903  1.00  0.00     0.008 C 
BRANCH  19  20
HETATM   20  C31 UNL     1      -5.008  -5.231   1.508  1.00  0.00     0.068 C 
HETATM   21  C32 UNL     1      -4.643  -6.678   1.258  1.00  0.00     0.050 C 
HETATM   22  C33 UNL     1      -6.399  -4.966   0.956  1.00  0.00     0.050 C 
BRANCH  20  23
HETATM   23  O8  UNL     1      -5.002  -5.055   2.907  1.00  0.00    -0.387 OA
ATOM     24  H8  UNL     1      -5.648  -5.632   3.297  1.00  0.00     0.211 HD
ENDBRANCH  20  23
ENDBRANCH  19  20
ENDBRANCH  17  18
ENDBRANCH  16  17
ENDBRANCH   1  16
BRANCH   2  25
HETATM   25  C14 UNL     1       0.092   0.252  -0.551  1.00  0.00     0.001 C 
HETATM   26  C15 UNL     1       1.352  -0.219  -0.461  1.00  0.00     0.005 C 
BRANCH  26  27
HETATM   27  C16 UNL     1       2.477   0.614  -0.916  1.00  0.00     0.146 C 
HETATM   28  C17 UNL     1       3.822   0.005  -0.541  1.00  0.00     0.070 C 
HETATM   29  C18 UNL     1       4.688   1.257  -0.573  1.00  0.00     0.160 C 
HETATM   30  C27 UNL     1       3.741   2.366  -0.341  1.00  0.00     0.201 C 
HETATM   31  O6  UNL     1       2.482   1.832  -0.249  1.00  0.00    -0.379 OA
BRANCH  29  32
HETATM   32  O3  UNL     1       5.730   1.127   0.366  1.00  0.00    -0.296 OA
BRANCH  32  33
HETATM   33  C19 UNL     1       7.091   1.163  -0.049  1.00  0.00     0.365 C 
HETATM   34  O4  UNL     1       7.205   1.316  -1.291  1.00  0.00    -0.238 OA
HETATM   35  N1  UNL     1       8.128   1.036   0.881  1.00  0.00    -0.303 N 
ATOM     36  H1  UNL     1       7.828   0.920   1.849  1.00  0.00     0.171 HD
BRANCH  35  37
HETATM   37  C20 UNL     1       9.515   1.044   0.688  1.00  0.00     0.037 A 
HETATM   38  C21 UNL     1      10.061   1.171  -0.558  1.00  0.00     0.032 A 
HETATM   39  C22 UNL     1      11.452   1.185  -0.762  1.00  0.00     0.039 A 
HETATM   40  C23 UNL     1      12.281   1.066   0.334  1.00  0.00     0.071 A 
HETATM   41  C24 UNL     1      11.755   0.937   1.602  1.00  0.00    -0.027 A 
HETATM   42  C25 UNL     1      12.662   0.812   2.762  1.00  0.00     0.051 C 
HETATM   43  C26 UNL     1      10.390   0.927   1.766  1.00  0.00     0.039 A 
BRANCH  40  44
HETATM   44  O5  UNL     1      13.669   1.071   0.216  1.00  0.00    -0.360 OA
ATOM     45  H5  UNL     1      14.240   0.989   0.971  1.00  0.00     0.217 HD
ENDBRANCH  40  44
ENDBRANCH  35  37
ENDBRANCH  32  33
ENDBRANCH  29  32
ENDBRANCH  26  27
ENDBRANCH   2  25
TORSDOF 15
