REMARK  8 active torsions:
REMARK  status: ('A' for Active; 'I' for Inactive)
REMARK    1  A    between atoms: C2_2  and  O1_4 
REMARK    2  A    between atoms: O1_4  and  C4_5 
REMARK    3  A    between atoms: C8_12  and  N2_13 
REMARK    4  A    between atoms: N2_13  and  C9_15 
REMARK    5  A    between atoms: C12_22  and  N5_23 
REMARK    6  A    between atoms: N5_23  and  C13_25 
REMARK    7  A    between atoms: C18_32  and  O2_33 
REMARK    8  A    between atoms: O2_33  and  C19_34 
ROOT
HETATM    1  C9  UNL     1      -2.319   0.079   0.994  1.00  0.00     0.122 A 
HETATM    2  C10 UNL     1      -1.825   1.182   0.356  1.00  0.00     0.138 A 
HETATM    3  N3  UNL     1      -0.556   1.117  -0.143  1.00  0.00    -0.346 N 
ATOM      4  H3  UNL     1      -0.168   1.930  -0.622  1.00  0.00     0.167 HD
HETATM    5  C11 UNL     1       0.195   0.009  -0.019  1.00  0.00     0.149 A 
HETATM    6  N4  UNL     1       1.450  -0.084  -0.502  1.00  0.00    -0.174 N 
ATOM      7  H4  UNL     1       1.849   0.722  -0.983  1.00  0.00     0.186 HD
HETATM    8  C12 UNL     1       2.192  -1.186  -0.377  1.00  0.00     0.684 A 
HETATM    9  N6  UNL     1       1.733  -2.281   0.243  1.00  0.00    -0.199 N 
ATOM     10  H6  UNL     1       2.312  -3.116   0.332  1.00  0.00     0.183 HD
HETATM   11  C22 UNL     1       0.483  -2.247   0.746  1.00  0.00     0.139 A 
HETATM   12  C23 UNL     1      -0.301  -1.110   0.625  1.00  0.00     0.095 A 
HETATM   13  N7  UNL     1      -1.548  -1.050   1.118  1.00  0.00    -0.337 N 
ATOM     14  H7  UNL     1      -1.933  -1.864   1.597  1.00  0.00     0.167 HD
ENDROOT
BRANCH   1  15
HETATM   15  N2  UNL     1      -3.510   0.064   1.502  1.00  0.00    -0.338 N 
ATOM     16  H2  UNL     1      -3.850  -0.776   1.970  1.00  0.00     0.167 HD
BRANCH  15  17
HETATM   17  C8  UNL     1      -4.340   1.199   1.414  1.00  0.00     0.083 A 
HETATM   18  C4  UNL     1      -5.393   1.236   0.537  1.00  0.00     0.100 A 
HETATM   19  C5  UNL     1      -6.147   2.458   0.530  1.00  0.00     0.081 A 
HETATM   20  C6  UNL     1      -5.817   3.491   1.349  1.00  0.00     0.106 A 
HETATM   21 CL1  UNL     1      -6.733   4.985   1.347  1.00  0.00    -0.064 Cl
HETATM   22  N1  UNL     1      -4.774   3.410   2.197  1.00  0.00    -0.354 N 
HETATM   23  C7  UNL     1      -4.036   2.296   2.246  1.00  0.00     0.121 A 
ATOM     24  H1  UNL     1      -4.547   4.199   2.802  1.00  0.00     0.166 HD
BRANCH  18  25
HETATM   25  O1  UNL     1      -5.768   0.259  -0.291  1.00  0.00    -0.344 OA
BRANCH  25  26
HETATM   26  C2  UNL     1      -5.453  -0.991  -0.611  1.00  0.00     0.120 C 
HETATM   27  C1  UNL     1      -6.688  -1.941  -0.625  1.00  0.00     0.040 C 
HETATM   28  C3  UNL     1      -4.767  -1.136  -1.983  1.00  0.00     0.040 C 
ENDBRANCH  25  26
ENDBRANCH  18  25
ENDBRANCH  15  17
ENDBRANCH   1  15
BRANCH   8  29
HETATM   29  N5  UNL     1       3.398  -1.234  -0.857  1.00  0.00    -0.186 N 
ATOM     30  H5  UNL     1       3.921  -2.101  -0.732  1.00  0.00     0.184 HD
BRANCH  29  31
HETATM   31  C13 UNL     1       4.035  -0.187  -1.532  1.00  0.00     0.121 A 
HETATM   32  C14 UNL     1       3.548   0.211  -2.767  1.00  0.00     0.148 A 
HETATM   33  F1  UNL     1       2.478  -0.424  -3.316  1.00  0.00    -0.204 F 
HETATM   34  C15 UNL     1       4.138   1.246  -3.460  1.00  0.00     0.068 A 
HETATM   35  C16 UNL     1       5.225   1.911  -2.945  1.00  0.00     0.039 A 
HETATM   36 CL2  UNL     1       5.951   3.230  -3.864  1.00  0.00    -0.084 Cl
HETATM   37  C17 UNL     1       5.701   1.518  -1.734  1.00  0.00     0.063 A 
HETATM   38  C18 UNL     1       5.127   0.465  -0.993  1.00  0.00     0.101 A 
BRANCH  38  39
HETATM   39  O2  UNL     1       5.711   0.190   0.192  1.00  0.00    -0.344 OA
BRANCH  39  40
HETATM   40  C19 UNL     1       5.624  -0.644   1.240  1.00  0.00     0.120 C 
HETATM   41  C20 UNL     1       5.206   0.087   2.543  1.00  0.00     0.040 C 
HETATM   42  C21 UNL     1       6.936  -1.371   1.558  1.00  0.00     0.040 C 
ENDBRANCH  39  40
ENDBRANCH  38  39
ENDBRANCH  29  31
ENDBRANCH   8  29
TORSDOF 8
