REMARK  6 active torsions:
REMARK  status: ('A' for Active; 'I' for Inactive)
REMARK    1  A    between atoms: C5_6  and  N2_7 
REMARK    2  A    between atoms: N2_7  and  C6_9 
REMARK    3  A    between atoms: C6_9  and  N3_11 
REMARK    4  A    between atoms: N3_11  and  N4_13 
REMARK    5  A    between atoms: C7_15  and  C8_16 
REMARK    6  A    between atoms: C9_17  and  C10_18 
ROOT
HETATM    1  N1  UNL     1       9.685   2.400  -0.174  1.00  0.00    -0.191 NA
HETATM    2  C1  UNL     1       8.652   1.910  -0.331  1.00  0.00     0.099 C 
HETATM    3  C2  UNL     1       7.357   1.303  -0.504  1.00  0.00     0.044 A 
HETATM    4  C3  UNL     1       6.197   1.962  -0.173  1.00  0.00     0.025 A 
HETATM    5  C4  UNL     1       4.945   1.350  -0.349  1.00  0.00     0.031 A 
HETATM    6  C5  UNL     1       4.812   0.085  -0.851  1.00  0.00     0.034 A 
HETATM    7  C22 UNL     1       6.008  -0.580  -1.187  1.00  0.00     0.031 A 
HETATM    8  C23 UNL     1       7.217   0.029  -1.010  1.00  0.00     0.025 A 
ENDROOT
BRANCH   6   9
HETATM    9  N2  UNL     1       3.584  -0.606  -1.022  1.00  0.00    -0.332 N 
ATOM     10  H2  UNL     1       3.554  -1.274  -1.792  1.00  0.00     0.168 HD
BRANCH   9  11
HETATM   11  C6  UNL     1       2.405  -0.489  -0.269  1.00  0.00     0.191 C 
HETATM   12  S1  UNL     1       2.338   0.487   1.021  1.00  0.00    -0.039 SA
BRANCH  11  13
HETATM   13  N3  UNL     1       1.253  -1.254  -0.601  1.00  0.00    -0.276 N 
ATOM     14  H3  UNL     1       1.285  -1.894  -1.395  1.00  0.00     0.189 HD
BRANCH  13  15
HETATM   15  N4  UNL     1       0.097  -1.142   0.134  1.00  0.00    -0.309 N 
HETATM   16  C7  UNL     1      -1.013  -0.659  -0.314  1.00  0.00     0.121 C 
ATOM     17  H4  UNL     1       0.118  -1.463   1.102  1.00  0.00     0.186 HD
BRANCH  16  18
HETATM   18  C8  UNL     1      -2.190  -0.575   0.526  1.00  0.00     0.021 A 
HETATM   19  C9  UNL     1      -3.424  -0.073   0.191  1.00  0.00     0.055 A 
HETATM   20  N5  UNL     1      -4.196  -0.327   1.293  1.00  0.00    -0.354 N 
HETATM   21  C16 UNL     1      -3.520  -0.931   2.246  1.00  0.00     0.043 A 
ATOM     22  H5  UNL     1      -5.182  -0.077   1.366  1.00  0.00     0.166 HD
HETATM   23  C17 UNL     1      -3.930  -1.358   3.513  1.00  0.00     0.030 A 
HETATM   24  C21 UNL     1      -2.229  -1.119   1.821  1.00  0.00     0.004 A 
HETATM   25  C18 UNL     1      -3.047  -1.978   4.366  1.00  0.00     0.002 A 
HETATM   26  C19 UNL     1      -1.752  -2.169   3.948  1.00  0.00     0.001 A 
HETATM   27  C20 UNL     1      -1.369  -1.735   2.680  1.00  0.00     0.014 A 
BRANCH  19  28
HETATM   28  C10 UNL     1      -3.948   0.551  -1.002  1.00  0.00    -0.009 A 
HETATM   29  C11 UNL     1      -5.344   0.526  -1.212  1.00  0.00     0.014 A 
HETATM   30  C12 UNL     1      -5.908   1.154  -2.285  1.00  0.00     0.001 A 
HETATM   31  C13 UNL     1      -5.151   1.836  -3.208  1.00  0.00     0.000 A 
HETATM   32  C14 UNL     1      -3.795   1.853  -2.992  1.00  0.00     0.001 A 
HETATM   33  C15 UNL     1      -3.182   1.223  -1.904  1.00  0.00     0.014 A 
ENDBRANCH  19  28
ENDBRANCH  16  18
ENDBRANCH  13  15
ENDBRANCH  11  13
ENDBRANCH   9  11
ENDBRANCH   6   9
TORSDOF 6
