REMARK  14 active torsions:
REMARK  status: ('A' for Active; 'I' for Inactive)
REMARK    1  A    between atoms: C2_2  and  C3_3 
REMARK    2  A    between atoms: C3_3  and  C4_4 
REMARK    3  A    between atoms: C4_4  and  C5_5 
REMARK       I    between atoms: N1_7  and  C6_8 
REMARK    4  A    between atoms: C6_8  and  C7_10 
REMARK    5  A    between atoms: C7_10  and  N2_11 
REMARK    6  A    between atoms: C7_10  and  C11_21 
REMARK       I    between atoms: N2_11  and  C8_13 
REMARK    7  A    between atoms: C8_13  and  C9_15 
REMARK    8  A    between atoms: C9_15  and  N3_17 
REMARK    9  A    between atoms: C11_21  and  C13_23 
REMARK   10  A    between atoms: C15_25  and  C16_26 
REMARK       I    between atoms: C16_26  and  N4_28 
REMARK   11  A    between atoms: N4_28  and  C17_30 
REMARK   12  A    between atoms: C17_30  and  C18_31 
REMARK   13  A    between atoms: C17_30  and  C21_34 
REMARK   14  A    between atoms: C21_34  and  C23_36 
ROOT
HETATM    1  C5  UNL     1       1.513   2.378   0.150  1.00  0.00     0.157 C 
HETATM    2  O1  UNL     1       1.203   1.268   0.914  1.00  0.00    -0.269 OA
HETATM    3  N1  UNL     1       0.454   0.378   0.196  1.00  0.00    -0.210 N 
HETATM    4  C6  UNL     1       1.141  -0.681  -0.393  1.00  0.00     0.267 C 
HETATM    5  O2  UNL     1       0.479  -1.523  -1.093  1.00  0.00    -0.269 OA
HETATM    6  C15 UNL     1      -0.962   0.584   0.026  1.00  0.00     0.210 C 
HETATM    7  C25 UNL     1      -1.134   1.119  -1.399  1.00  0.00     0.042 C 
HETATM    8  C26 UNL     1      -0.475   2.495  -1.482  1.00  0.00    -0.006 C 
HETATM    9  C27 UNL     1      -0.507   2.889  -2.979  1.00  0.00     0.005 C 
HETATM   10  C28 UNL     1       0.804   3.551  -3.269  1.00  0.00     0.001 C 
HETATM   11  C29 UNL     1       1.413   3.776  -1.902  1.00  0.00     0.007 C 
HETATM   12  C30 UNL     1       0.961   2.467  -1.210  1.00  0.00     0.021 C 
ENDROOT
BRANCH   4  13
HETATM   13  C7  UNL     1       2.576  -0.943  -0.300  1.00  0.00     0.182 C 
BRANCH  13  14
HETATM   14  N2  UNL     1       2.954  -2.134  -1.078  1.00  0.00    -0.346 N 
HETATM   15  C8  UNL     1       3.615  -2.083  -2.317  1.00  0.00     0.248 C 
HETATM   16  O3  UNL     1       3.905  -0.962  -2.798  1.00  0.00    -0.271 OA
ATOM     17  H2  UNL     1       2.722  -3.051  -0.695  1.00  0.00     0.163 HD
BRANCH  15  18
HETATM   18  C9  UNL     1       3.972  -3.298  -3.059  1.00  0.00     0.270 C 
HETATM   19  C10 UNL     1       4.962  -4.164  -2.291  1.00  0.00     0.050 C 
BRANCH  18  20
HETATM   20  N3  UNL     1       4.566  -3.006  -4.351  1.00  0.00    -0.067 N 
ATOM     21  H33 UNL     1       3.959  -2.402  -4.906  1.00  0.00     0.275 HD
ATOM     22  H32 UNL     1       5.370  -2.386  -4.254  1.00  0.00     0.275 HD
ATOM     23  H31 UNL     1       4.814  -3.850  -4.867  1.00  0.00     0.275 HD
ENDBRANCH  18  20
ENDBRANCH  15  18
ENDBRANCH  13  14
BRANCH  13  24
HETATM   24  C11 UNL     1       3.192  -0.953   1.049  1.00  0.00     0.013 C 
HETATM   25  C12 UNL     1       2.614  -1.977   1.986  1.00  0.00     0.012 C 
BRANCH  24  26
HETATM   26  C13 UNL     1       4.693  -1.235   0.816  1.00  0.00     0.002 C 
HETATM   27  C14 UNL     1       5.408  -1.264   2.125  1.00  0.00     0.005 C 
ENDBRANCH  24  26
ENDBRANCH  13  24
ENDBRANCH   4  13
BRANCH   6  28
HETATM   28  C16 UNL     1      -1.839  -0.543   0.303  1.00  0.00     0.247 C 
HETATM   29  O4  UNL     1      -1.411  -1.600   0.837  1.00  0.00    -0.271 OA
HETATM   30  N4  UNL     1      -3.223  -0.463  -0.035  1.00  0.00    -0.332 N 
ATOM     31  H4  UNL     1      -3.518   0.414  -0.463  1.00  0.00     0.168 HD
BRANCH  30  32
HETATM   32  C17 UNL     1      -4.242  -1.425   0.139  1.00  0.00    -0.003 C 
BRANCH  32  33
HETATM   33  C18 UNL     1      -4.278  -2.584  -0.808  1.00  0.00     0.023 C 
HETATM   34  C19 UNL     1      -4.485  -1.990  -2.229  1.00  0.00     0.016 C 
HETATM   35  C20 UNL     1      -3.143  -3.528  -0.815  1.00  0.00     0.016 C 
ENDBRANCH  32  33
BRANCH  32  36
HETATM   36  C21 UNL     1      -4.732  -1.753   1.491  1.00  0.00     0.027 C 
HETATM   37  C22 UNL     1      -3.829  -2.279   2.524  1.00  0.00     0.016 C 
BRANCH  36  38
HETATM   38  C23 UNL     1      -5.470  -0.549   2.121  1.00  0.00     0.005 C 
HETATM   39  C24 UNL     1      -5.969  -0.906   3.504  1.00  0.00     0.006 C 
ENDBRANCH  36  38
ENDBRANCH  32  36
ENDBRANCH  30  32
ENDBRANCH   6  28
BRANCH   1  40
HETATM   40  C4  UNL     1       1.510   3.592   1.004  1.00  0.00     0.035 C 
BRANCH  40  41
HETATM   41  C3  UNL     1       0.264   3.938   1.720  1.00  0.00     0.002 C 
BRANCH  41  42
HETATM   42  C2  UNL     1       0.553   5.215   2.520  1.00  0.00    -0.004 C 
HETATM   43  C1  UNL     1      -0.672   5.649   3.291  1.00  0.00     0.005 C 
ENDBRANCH  41  42
ENDBRANCH  40  41
ENDBRANCH   1  40
TORSDOF 14
