REMARK  15 active torsions:
REMARK  status: ('A' for Active; 'I' for Inactive)
REMARK    1  A    between atoms: C2_2  and  C3_3 
REMARK    2  A    between atoms: C3_3  and  C5_5 
REMARK    3  A    between atoms: C5_5  and  N1_6 
REMARK    4  A    between atoms: C5_5  and  C17_21 
REMARK       I    between atoms: N1_6  and  C6_8 
REMARK    5  A    between atoms: C6_8  and  O2_10 
REMARK    6  A    between atoms: O2_10  and  C7_11 
REMARK    7  A    between atoms: C17_21  and  C18_23 
REMARK    8  A    between atoms: C18_23  and  C19_24 
REMARK    9  A    between atoms: C18_23  and  N2_28 
REMARK   10  A    between atoms: C19_24  and  C20_25 
REMARK       I    between atoms: N2_28  and  C23_30 
REMARK   11  A    between atoms: C23_30  and  C24_32 
REMARK   12  A    between atoms: C24_32  and  C25_33 
REMARK   13  A    between atoms: C24_32  and  N4_37 
REMARK   14  A    between atoms: C25_33  and  C26_34 
REMARK   15  A    between atoms: N4_37  and  C28_39 
ROOT
HETATM    1  C5  UNL     1      -0.400   1.162  -1.263  1.00  0.00     0.066 C 
ENDROOT
BRANCH   1   2
HETATM    2  C3  UNL     1      -0.212   1.694  -2.639  1.00  0.00     0.035 C 
HETATM    3  C4  UNL     1      -0.834   3.075  -2.826  1.00  0.00     0.016 C 
BRANCH   2   4
HETATM    4  C2  UNL     1      -0.901   0.766  -3.665  1.00  0.00     0.006 C 
HETATM    5  C1  UNL     1      -0.696   1.219  -5.072  1.00  0.00     0.006 C 
ENDBRANCH   2   4
ENDBRANCH   1   2
BRANCH   1   6
HETATM    6  N1  UNL     1      -1.784   1.070  -0.856  1.00  0.00    -0.302 N 
HETATM    7  C6  UNL     1      -2.392  -0.160  -0.490  1.00  0.00     0.365 C 
HETATM    8  O1  UNL     1      -1.675  -1.214  -0.525  1.00  0.00    -0.238 OA
ATOM      9  H1  UNL     1      -2.345   1.921  -0.831  1.00  0.00     0.171 HD
BRANCH   7  10
HETATM   10  O2  UNL     1      -3.686  -0.310  -0.098  1.00  0.00    -0.298 OA
BRANCH  10  11
HETATM   11  C7  UNL     1      -4.208  -1.579   0.264  1.00  0.00     0.142 C 
HETATM   12  C8  UNL     1      -5.374  -1.909  -0.606  1.00  0.00     0.016 C 
HETATM   13  C9  UNL     1      -5.876  -3.307  -0.268  1.00  0.00     0.012 C 
HETATM   14  C13 UNL     1      -6.540  -0.975  -0.432  1.00  0.00     0.012 C 
HETATM   15  C10 UNL     1      -6.272  -3.364   1.174  1.00  0.00    -0.013 C 
HETATM   16  C11 UNL     1      -7.428  -2.405   1.366  1.00  0.00     0.009 C 
HETATM   17  C16 UNL     1      -5.130  -2.959   2.062  1.00  0.00     0.012 C 
HETATM   18  C12 UNL     1      -6.974  -1.029   1.009  1.00  0.00    -0.013 C 
HETATM   19  C14 UNL     1      -5.833  -0.620   1.899  1.00  0.00     0.012 C 
HETATM   20  C15 UNL     1      -4.677  -1.566   1.708  1.00  0.00     0.016 C 
ENDBRANCH  10  11
ENDBRANCH   7  10
ENDBRANCH   1   6
BRANCH   1  21
HETATM   21  C17 UNL     1       0.515   1.629  -0.222  1.00  0.00     0.194 C 
HETATM   22  O3  UNL     1       0.089   1.851   0.898  1.00  0.00    -0.289 OA
BRANCH  21  23
HETATM   23  C18 UNL     1       1.988   1.861  -0.420  1.00  0.00     0.161 C 
BRANCH  23  24
HETATM   24  C19 UNL     1       2.156   3.352  -0.254  1.00  0.00     0.037 C 
BRANCH  24  25
HETATM   25  C20 UNL     1       3.534   3.877  -0.425  1.00  0.00    -0.020 C 
HETATM   26  C21 UNL     1       4.582   3.373   0.494  1.00  0.00     0.009 C 
HETATM   27  C22 UNL     1       4.018   3.767  -1.865  1.00  0.00     0.009 C 
ENDBRANCH  24  25
ENDBRANCH  23  24
BRANCH  23  28
HETATM   28  N2  UNL     1       2.586   1.250   0.781  1.00  0.00    -0.347 N 
HETATM   29  C23 UNL     1       3.444   0.115   0.663  1.00  0.00     0.252 C 
HETATM   30  O4  UNL     1       3.655  -0.319  -0.478  1.00  0.00    -0.271 OA
ATOM     31  H2  UNL     1       2.386   1.640   1.702  1.00  0.00     0.163 HD
BRANCH  29  32
HETATM   32  C24 UNL     1       4.018  -0.469   1.863  1.00  0.00     0.321 C 
BRANCH  32  33
HETATM   33  C25 UNL     1       2.896  -1.339   2.531  1.00  0.00     0.145 C 
BRANCH  33  34
HETATM   34  C26 UNL     1       2.480  -2.371   1.556  1.00  0.00     0.233 C 
HETATM   35  N3  UNL     1       2.946  -3.695   1.539  1.00  0.00    -0.062 NA
HETATM   36  O5  UNL     1       1.642  -2.022   0.677  1.00  0.00    -0.277 OA
ENDBRANCH  33  34
ENDBRANCH  32  33
BRANCH  32  37
HETATM   37  N4  UNL     1       5.175  -1.247   1.831  1.00  0.00     0.098 N 
HETATM   38  C27 UNL     1       5.445  -1.699   3.230  1.00  0.00     0.310 C 
BRANCH  37  39
HETATM   39  C28 UNL     1       6.411  -0.719   1.372  1.00  0.00     0.268 C 
HETATM   40  C29 UNL     1       6.616  -0.439  -0.072  1.00  0.00     0.037 C 
ENDBRANCH  37  39
ENDBRANCH  32  37
ENDBRANCH  29  32
ENDBRANCH  23  28
ENDBRANCH  21  23
ENDBRANCH   1  21
TORSDOF 15
