REMARK  8 active torsions:
REMARK  status: ('A' for Active; 'I' for Inactive)
REMARK    1  A    between atoms: C2_2  and  C3_3 
REMARK    2  A    between atoms: C3_3  and  S1_4 
REMARK    3  A    between atoms: S1_4  and  N1_7 
REMARK    4  A    between atoms: N1_7  and  C4_9 
REMARK    5  A    between atoms: C10_22  and  C11_23 
REMARK    6  A    between atoms: C11_23  and  N5_24 
REMARK    7  A    between atoms: N5_24  and  C12_25 
REMARK    8  A    between atoms: N5_24  and  C15_28 
ROOT
HETATM    1  C4  UNL     1       3.760  -0.836   0.360  1.00  0.00     0.144 A 
HETATM    2  N2  UNL     1       4.444  -1.535   1.309  1.00  0.00    -0.284 N 
ATOM      3  H2  UNL     1       5.443  -1.441   1.493  1.00  0.00     0.188 HD
HETATM    4  N3  UNL     1       3.633  -2.351   1.958  1.00  0.00    -0.302 N 
ATOM      5  H3  UNL     1       3.909  -2.978   2.713  1.00  0.00     0.186 HD
HETATM    6  C5  UNL     1       2.371  -2.225   1.462  1.00  0.00     0.042 A 
HETATM    7  C6  UNL     1       2.453  -1.281   0.470  1.00  0.00     0.061 A 
HETATM    8  C7  UNL     1       1.317  -0.795  -0.359  1.00  0.00     0.052 C 
HETATM    9  N4  UNL     1       1.513   0.056  -1.210  1.00  0.00    -0.398 N 
ATOM     10  H41 UNL     1       0.734   0.389  -1.778  1.00  0.00     0.156 HD
ATOM     11  H42 UNL     1       2.472   0.390  -1.305  1.00  0.00     0.156 HD
HETATM   12  C8  UNL     1      -0.086  -1.284  -0.220  1.00  0.00    -0.002 A 
HETATM   13  C9  UNL     1      -0.994  -0.363  -0.748  1.00  0.00     0.023 A 
HETATM   14  C10 UNL     1      -2.335  -0.639  -0.710  1.00  0.00    -0.029 A 
HETATM   15  C18 UNL     1      -2.729  -1.849  -0.138  1.00  0.00     0.009 A 
HETATM   16  C19 UNL     1      -1.825  -2.751   0.378  1.00  0.00     0.009 A 
HETATM   17  C20 UNL     1      -0.449  -2.480   0.347  1.00  0.00    -0.045 A 
HETATM   18  C21 UNL     1       0.353  -3.568   0.942  1.00  0.00     0.045 C 
HETATM   19  C22 UNL     1       1.267  -3.046   2.020  1.00  0.00     0.064 C 
ENDROOT
BRANCH   1  20
HETATM   20  N1  UNL     1       4.137   0.023  -0.470  1.00  0.00    -0.268 N 
ATOM     21  H1  UNL     1       3.375   0.368  -1.053  1.00  0.00     0.180 HD
BRANCH  20  22
HETATM   22  S1  UNL     1       5.596   0.729  -0.838  1.00  0.00     0.232 S 
HETATM   23  O1  UNL     1       5.320   2.197  -1.202  1.00  0.00    -0.206 OA
HETATM   24  O2  UNL     1       6.175   0.038  -2.058  1.00  0.00    -0.206 OA
BRANCH  22  25
HETATM   25  C3  UNL     1       6.836   0.751   0.390  1.00  0.00     0.163 C 
BRANCH  25  26
HETATM   26  C2  UNL     1       8.071   1.463  -0.187  1.00  0.00     0.012 C 
HETATM   27  C1  UNL     1       7.804   2.867  -0.606  1.00  0.00     0.006 C 
ENDBRANCH  25  26
ENDBRANCH  22  25
ENDBRANCH  20  22
ENDBRANCH   1  20
BRANCH  14  28
HETATM   28  C11 UNL     1      -3.404   0.246  -1.243  1.00  0.00     0.311 C 
BRANCH  28  29
HETATM   29  N5  UNL     1      -4.440   0.497  -0.264  1.00  0.00     0.100 N 
BRANCH  29  30
HETATM   30  C12 UNL     1      -3.921   1.217   0.818  1.00  0.00     0.216 C 
HETATM   31  C13 UNL     1      -3.402   2.599   0.470  1.00  0.00     0.042 C 
HETATM   32  C14 UNL     1      -4.802   1.265   2.061  1.00  0.00     0.042 C 
ENDBRANCH  29  30
BRANCH  29  33
HETATM   33  C15 UNL     1      -5.625   0.850  -0.908  1.00  0.00     0.216 C 
HETATM   34  C16 UNL     1      -6.526   1.864  -0.300  1.00  0.00     0.042 C 
HETATM   35  C17 UNL     1      -6.457  -0.447  -1.039  1.00  0.00     0.042 C 
ENDBRANCH  29  33
ENDBRANCH  28  29
ENDBRANCH  14  28
TORSDOF 8
