REMARK  4 active torsions:
REMARK  status: ('A' for Active; 'I' for Inactive)
REMARK    1  A    between atoms: O1_2  and  C2_3 
REMARK    2  A    between atoms: C2_3  and  C3_5 
REMARK    3  A    between atoms: C3_5  and  C4_6 
REMARK    4  A    between atoms: C4_6  and  N1_7 
ROOT
HETATM    1  C4  UNL     1       2.997  -0.041   0.966  1.00  0.00     0.132 C 
HETATM    2  C5  UNL     1       2.386   1.139   0.261  1.00  0.00     0.040 C 
HETATM    3  C6  UNL     1       0.973   1.316   0.762  1.00  0.00     0.012 C 
HETATM    4  C7  UNL     1       0.056   0.201   0.343  1.00  0.00    -0.040 C 
HETATM    5  C8  UNL     1      -1.117   0.010   1.247  1.00  0.00     0.009 C 
HETATM    6  C9  UNL     1      -1.656   1.235   1.871  1.00  0.00     0.001 C 
HETATM    7  C10 UNL     1      -3.064   1.596   1.557  1.00  0.00     0.000 C 
HETATM    8  C11 UNL     1      -4.058   0.506   1.627  1.00  0.00     0.000 C 
HETATM    9  C12 UNL     1      -5.082   0.535   0.494  1.00  0.00     0.000 C 
HETATM   10  C13 UNL     1      -4.916  -0.651  -0.434  1.00  0.00     0.000 C 
HETATM   11  C14 UNL     1      -4.017  -0.172  -1.567  1.00  0.00     0.000 C 
HETATM   12  C15 UNL     1      -3.291  -1.283  -2.254  1.00  0.00     0.000 C 
HETATM   13  C16 UNL     1      -1.966  -0.720  -2.730  1.00  0.00     0.000 C 
HETATM   14  C17 UNL     1      -0.873  -0.905  -1.708  1.00  0.00     0.001 C 
HETATM   15  C18 UNL     1      -0.348   0.361  -1.125  1.00  0.00     0.009 C 
HETATM   16  C19 UNL     1       0.840  -1.122   0.367  1.00  0.00     0.012 C 
HETATM   17  C20 UNL     1       1.942  -1.046   1.400  1.00  0.00     0.040 C 
ENDROOT
BRANCH   1  18
HETATM   18  C3  UNL     1       4.006  -0.755   0.086  1.00  0.00     0.149 C 
BRANCH  18  19
HETATM   19  C2  UNL     1       5.145   0.106  -0.268  1.00  0.00     0.260 C 
HETATM   20  O2  UNL     1       5.235   1.292   0.134  1.00  0.00    -0.265 OA
BRANCH  19  21
HETATM   21  O1  UNL     1       6.152  -0.399  -1.069  1.00  0.00    -0.326 OA
HETATM   22  C1  UNL     1       7.277   0.399  -1.440  1.00  0.00     0.213 C 
ENDBRANCH  19  21
ENDBRANCH  18  19
ENDBRANCH   1  18
BRANCH   1  23
HETATM   23  N1  UNL     1       3.689   0.362   2.181  1.00  0.00    -0.070 N 
ATOM     24  H13 UNL     1       4.150  -0.415   2.653  1.00  0.00     0.275 HD
ATOM     25  H12 UNL     1       4.523   0.920   1.998  1.00  0.00     0.275 HD
ATOM     26  H11 UNL     1       3.011   0.842   2.773  1.00  0.00     0.275 HD
ENDBRANCH   1  23
TORSDOF 4
