REMARK  4 active torsions:
REMARK  status: ('A' for Active; 'I' for Inactive)
REMARK    1  A    between atoms: C2_2  and  O2_4 
REMARK    2  A    between atoms: O2_4  and  C3_5 
REMARK    3  A    between atoms: C3_5  and  C5_7 
REMARK    4  A    between atoms: C13_15  and  O3_16 
ROOT
HETATM    1  C5  UNL     1       1.377   0.468   0.566  1.00  0.00     0.023 C 
HETATM    2  C6  UNL     1       0.407   1.663   0.501  1.00  0.00     0.009 C 
HETATM    3  C7  UNL     1      -0.390   1.565  -0.736  1.00  0.00     0.011 C 
HETATM    4  C8  UNL     1      -1.351   0.390  -0.714  1.00  0.00    -0.027 C 
HETATM    5  C9  UNL     1      -1.463   0.006  -2.205  1.00  0.00     0.017 C 
HETATM    6  C10 UNL     1      -2.709   0.786  -0.314  1.00  0.00    -0.014 C 
HETATM    7  C11 UNL     1      -2.912   2.306  -0.163  1.00  0.00     0.018 C 
HETATM    8  C12 UNL     1      -3.789   0.445  -1.363  1.00  0.00     0.018 C 
HETATM    9  C13 UNL     1      -3.257   0.280   0.972  1.00  0.00     0.126 C 
HETATM   10  C14 UNL     1      -2.854  -1.097   1.347  1.00  0.00     0.033 C 
HETATM   11  C15 UNL     1      -1.358  -1.072   1.337  1.00  0.00     0.013 C 
HETATM   12  C16 UNL     1      -0.751  -0.813  -0.052  1.00  0.00    -0.029 C 
HETATM   13  C17 UNL     1      -1.119  -2.076  -0.803  1.00  0.00     0.016 C 
HETATM   14  C18 UNL     1       0.748  -0.814   0.135  1.00  0.00    -0.034 C 
HETATM   15  C19 UNL     1       1.494  -1.565  -0.935  1.00  0.00     0.016 C 
HETATM   16  C20 UNL     1       1.047  -1.785   1.322  1.00  0.00     0.016 C 
ENDROOT
BRANCH   1  17
HETATM   17  C3  UNL     1       2.718   0.867   0.124  1.00  0.00     0.132 C 
HETATM   18  C4  UNL     1       2.928   1.560  -1.163  1.00  0.00     0.040 C 
BRANCH  17  19
HETATM   19  O2  UNL     1       3.709  -0.137   0.161  1.00  0.00    -0.316 OA
BRANCH  19  20
HETATM   20  C2  UNL     1       4.824  -0.117   0.979  1.00  0.00     0.255 C 
HETATM   21  C1  UNL     1       5.843  -1.209   0.975  1.00  0.00     0.126 C 
HETATM   22  O1  UNL     1       4.954   0.877   1.743  1.00  0.00    -0.266 OA
ENDBRANCH  19  20
ENDBRANCH  17  19
ENDBRANCH   1  17
BRANCH   9  23
HETATM   23  O3  UNL     1      -2.858   1.133   2.005  1.00  0.00    -0.395 OA
ATOM     24  H3  UNL     1      -3.208   0.810   2.827  1.00  0.00     0.210 HD
ENDBRANCH   9  23
TORSDOF 4
