REMARK  7 active torsions:
REMARK  status: ('A' for Active; 'I' for Inactive)
REMARK    1  A    between atoms: C3_4  and  N2_5 
REMARK    2  A    between atoms: C8_13  and  S1_14 
REMARK    3  A    between atoms: S1_14  and  C9_15 
REMARK    4  A    between atoms: C9_15  and  C10_16 
REMARK    5  A    between atoms: C10_16  and  N5_18 
REMARK    6  A    between atoms: N5_18  and  N6_20 
REMARK    7  A    between atoms: C11_25  and  N8_26 
ROOT
HETATM    1  N1  UNL     1      -2.383   1.117  -3.456  1.00  0.00    -0.191 NA
HETATM    2  C1  UNL     1      -1.646   0.649  -2.703  1.00  0.00     0.107 C 
HETATM    3  C2  UNL     1      -0.688   0.052  -1.795  1.00  0.00     0.132 A 
HETATM    4  C3  UNL     1      -1.084  -0.375  -0.563  1.00  0.00     0.130 A 
HETATM    5  N3  UNL     1      -0.088  -0.951   0.197  1.00  0.00    -0.322 N 
ATOM      6  H3  UNL     1      -0.320  -1.292   1.130  1.00  0.00     0.169 HD
HETATM    7  C8  UNL     1       1.164  -1.080  -0.237  1.00  0.00     0.147 A 
HETATM    8  N7  UNL     1       1.539  -0.655  -1.450  1.00  0.00    -0.322 N 
ATOM      9  H7  UNL     1       2.505  -0.765  -1.759  1.00  0.00     0.169 HD
HETATM   10  C11 UNL     1       0.640  -0.089  -2.246  1.00  0.00     0.125 A 
ENDROOT
BRANCH   4  11
HETATM   11  N2  UNL     1      -2.370  -0.243  -0.030  1.00  0.00    -0.362 N 
HETATM   12  C4  UNL     1      -2.639  -1.055   1.183  1.00  0.00     0.150 C 
HETATM   13  C5  UNL     1      -4.101  -1.477   1.045  1.00  0.00     0.187 C 
HETATM   14  O1  UNL     1      -4.908  -0.382   1.276  1.00  0.00    -0.388 OA
HETATM   15  C6  UNL     1      -4.409   0.801   0.789  1.00  0.00     0.187 C 
HETATM   16  C7  UNL     1      -3.478   0.569  -0.429  1.00  0.00     0.150 C 
ENDBRANCH   4  11
BRANCH  10  17
HETATM   17  N8  UNL     1       0.942   0.339  -3.424  1.00  0.00    -0.384 N 
ATOM     18  H82 UNL     1       0.251   0.774  -4.036  1.00  0.00     0.157 HD
ATOM     19  H81 UNL     1       1.903   0.237  -3.750  1.00  0.00     0.157 HD
ENDBRANCH  10  17
BRANCH   7  20
HETATM   20  S1  UNL     1       2.364  -1.825   0.826  1.00  0.00    -0.087 SA
BRANCH  20  21
HETATM   21  C9  UNL     1       3.084  -0.614   1.947  1.00  0.00     0.156 C 
BRANCH  21  22
HETATM   22  C10 UNL     1       3.868   0.365   1.183  1.00  0.00     0.116 C 
HETATM   23  N4  UNL     1       3.235   1.263   0.316  1.00  0.00    -0.085 NA
BRANCH  22  24
HETATM   24  N5  UNL     1       5.141   0.388   1.320  1.00  0.00    -0.297 N 
ATOM     25  H5  UNL     1       5.555  -0.286   1.964  1.00  0.00     0.187 HD
BRANCH  24  26
HETATM   26  N6  UNL     1       5.996   1.249   0.668  1.00  0.00    -0.344 N 
ATOM     27  H62 UNL     1       5.564   1.916   0.028  1.00  0.00     0.176 HD
ATOM     28  H61 UNL     1       7.010   1.267   0.777  1.00  0.00     0.176 HD
ENDBRANCH  24  26
ENDBRANCH  22  24
ENDBRANCH  21  22
ENDBRANCH  20  21
ENDBRANCH   7  20
TORSDOF 7
