REMARK  8 active torsions:
REMARK  status: ('A' for Active; 'I' for Inactive)
REMARK    1  A    between atoms: N1_1  and  C1_5 
REMARK    2  A    between atoms: C1_5  and  C2_6 
REMARK    3  A    between atoms: C2_6  and  C3_7 
REMARK    4  A    between atoms: C3_7  and  C4_8 
REMARK    5  A    between atoms: C5_9  and  N2_10 
REMARK    6  A    between atoms: N3_16  and  C8_17 
REMARK    7  A    between atoms: C8_17  and  C9_18 
REMARK    8  A    between atoms: C9_18  and  N4_19 
ROOT
HETATM    1  C4  UNL     1      -0.053   0.640  -0.050  1.00  0.00     0.253 C 
HETATM    2  C5  UNL     1       0.470   1.362   1.223  1.00  0.00     0.218 C 
HETATM    3  C6  UNL     1      -0.763   1.869   1.935  1.00  0.00     0.065 C 
HETATM    4  C7  UNL     1      -1.829   1.632   0.879  1.00  0.00     0.275 C 
HETATM    5  N3  UNL     1      -1.355   0.336   0.367  1.00  0.00     0.096 N 
ENDROOT
BRANCH   1   6
HETATM    6  C3  UNL     1       0.875  -0.483  -0.389  1.00  0.00     0.040 C 
BRANCH   6   7
HETATM    7  C2  UNL     1       2.298   0.015  -0.622  1.00  0.00     0.029 C 
BRANCH   7   8
HETATM    8  C1  UNL     1       3.151  -1.216  -0.952  1.00  0.00     0.229 C 
BRANCH   8   9
HETATM    9  N1  UNL     1       3.124  -2.156   0.141  1.00  0.00    -0.079 N 
ATOM     10  H13 UNL     1       3.406  -1.723   1.021  1.00  0.00     0.274 HD
ATOM     11  H12 UNL     1       2.171  -2.413   0.397  1.00  0.00     0.274 HD
ATOM     12  H11 UNL     1       3.691  -2.975  -0.078  1.00  0.00     0.274 HD
ENDBRANCH   8   9
ENDBRANCH   7   8
ENDBRANCH   6   7
ENDBRANCH   1   6
BRANCH   2  13
HETATM   13  N2  UNL     1       1.252   2.536   0.857  1.00  0.00    -0.073 N 
ATOM     14  H23 UNL     1       2.009   2.303   0.215  1.00  0.00     0.274 HD
ATOM     15  H22 UNL     1       0.728   3.167   0.251  1.00  0.00     0.274 HD
ATOM     16  H21 UNL     1       1.595   3.010   1.692  1.00  0.00     0.274 HD
ENDBRANCH   2  13
BRANCH   5  17
HETATM   17  C8  UNL     1      -2.327  -0.296  -0.379  1.00  0.00     0.300 C 
BRANCH  17  18
HETATM   18  C9  UNL     1      -2.222  -1.741  -0.686  1.00  0.00     0.259 C 
BRANCH  18  19
HETATM   19  N4  UNL     1      -3.346  -2.234  -1.469  1.00  0.00    -0.078 N 
ATOM     20  H43 UNL     1      -4.232  -2.021  -1.011  1.00  0.00     0.274 HD
ATOM     21  H42 UNL     1      -3.465  -1.687  -2.322  1.00  0.00     0.274 HD
ATOM     22  H41 UNL     1      -3.274  -3.229  -1.680  1.00  0.00     0.274 HD
ENDBRANCH  18  19
ENDBRANCH  17  18
ENDBRANCH   5  17
TORSDOF 8
