REMARK  21 active torsions:
REMARK  status: ('A' for Active; 'I' for Inactive)
REMARK    1  A    between atoms: C5_5  and  C6_6 
REMARK    2  A    between atoms: C6_6  and  C7_7 
REMARK    3  A    between atoms: C7_7  and  C8_8 
REMARK    4  A    between atoms: C8_8  and  C9_10 
REMARK    5  A    between atoms: C9_10  and  C10_12 
REMARK    6  A    between atoms: C10_12  and  C12_14 
REMARK    7  A    between atoms: C12_14  and  C14_16 
REMARK    8  A    between atoms: C14_16  and  O3_17 
REMARK    9  A    between atoms: C14_16  and  C15_19 
REMARK   10  A    between atoms: C15_19  and  O4_20 
REMARK   11  A    between atoms: C15_19  and  C17_22 
REMARK   12  A    between atoms: C17_22  and  C19_24 
REMARK   13  A    between atoms: C19_24  and  C21_26 
REMARK   14  A    between atoms: C21_26  and  O5_27 
REMARK   15  A    between atoms: C21_26  and  C22_29 
REMARK   16  A    between atoms: C22_29  and  O6_30 
REMARK   17  A    between atoms: C22_29  and  C23_32 
REMARK   18  A    between atoms: C24_33  and  C25_34 
REMARK   19  A    between atoms: C32_42  and  C33_43 
REMARK   20  A    between atoms: C33_43  and  O8_44 
REMARK   21  A    between atoms: O8_44  and  C34_45 
ROOT
HETATM    1  C1  UNL     1      10.057  -1.566  -2.826  1.00  0.00     0.017 C 
HETATM    2  C2  UNL     1       9.693  -0.553  -2.302  1.00  0.00    -0.083 C 
HETATM    3  C3  UNL     1       9.257   0.654  -1.649  1.00  0.00    -0.013 C 
HETATM    4  C4  UNL     1       8.646   1.719  -2.451  1.00  0.00     0.057 C 
HETATM    5  C5  UNL     1       9.413   0.773  -0.365  1.00  0.00    -0.011 C 
ENDROOT
BRANCH   5   6
HETATM    6  C6  UNL     1      10.007  -0.219   0.554  1.00  0.00     0.036 C 
BRANCH   6   7
HETATM    7  C7  UNL     1       9.085  -0.574   1.659  1.00  0.00     0.091 C 
BRANCH   7   8
HETATM    8  C8  UNL     1       7.842  -1.199   1.159  1.00  0.00     0.195 C 
HETATM    9  O1  UNL     1       7.974  -2.197   0.426  1.00  0.00    -0.289 OA
BRANCH   8  10
HETATM   10  C9  UNL     1       6.578  -0.668   1.514  1.00  0.00     0.199 C 
HETATM   11  O2  UNL     1       6.547   0.385   2.265  1.00  0.00    -0.289 OA
BRANCH  10  12
HETATM   12  C10 UNL     1       5.211  -1.169   1.131  1.00  0.00     0.066 C 
HETATM   13  C11 UNL     1       5.152  -2.633   1.478  1.00  0.00     0.018 C 
BRANCH  12  14
HETATM   14  C12 UNL     1       4.796  -0.757  -0.220  1.00  0.00     0.024 C 
HETATM   15  C13 UNL     1       5.596  -1.309  -1.374  1.00  0.00     0.013 C 
BRANCH  14  16
HETATM   16  C14 UNL     1       3.388  -0.402  -0.518  1.00  0.00     0.152 C 
BRANCH  16  17
HETATM   17  O3  UNL     1       3.420  -0.017  -1.912  1.00  0.00    -0.393 OA
ATOM     18  H3  UNL     1       2.518   0.211  -2.103  1.00  0.00     0.210 HD
ENDBRANCH  16  17
BRANCH  16  19
HETATM   19  C15 UNL     1       2.221  -1.168  -0.216  1.00  0.00     0.154 C 
BRANCH  19  20
HETATM   20  O4  UNL     1       2.041  -1.640   1.076  1.00  0.00    -0.388 OA
HETATM   21  C16 UNL     1       1.584  -2.969   1.079  1.00  0.00     0.202 C 
ENDBRANCH  19  20
BRANCH  19  22
HETATM   22  C17 UNL     1       0.879  -0.494  -0.622  1.00  0.00     0.019 C 
HETATM   23  C18 UNL     1       0.856  -0.251  -2.062  1.00  0.00     0.013 C 
BRANCH  22  24
HETATM   24  C19 UNL     1       0.301   0.426   0.343  1.00  0.00     0.019 C 
HETATM   25  C20 UNL     1       1.061   1.647   0.774  1.00  0.00     0.013 C 
BRANCH  24  26
HETATM   26  C21 UNL     1      -1.101   0.885   0.069  1.00  0.00     0.154 C 
BRANCH  26  27
HETATM   27  O5  UNL     1      -1.289   1.553  -1.120  1.00  0.00    -0.392 OA
ATOM     28  H5  UNL     1      -2.177   1.844  -1.293  1.00  0.00     0.210 HD
ENDBRANCH  26  27
BRANCH  26  29
HETATM   29  C22 UNL     1      -2.177  -0.132   0.359  1.00  0.00     0.169 C 
BRANCH  29  30
HETATM   30  O6  UNL     1      -2.246  -1.103  -0.651  1.00  0.00    -0.389 OA
ATOM     31  H6  UNL     1      -2.924  -1.743  -0.468  1.00  0.00     0.210 HD
ENDBRANCH  29  30
BRANCH  29  32
HETATM   32  C23 UNL     1      -3.526   0.501   0.408  1.00  0.00     0.005 C 
HETATM   33  C24 UNL     1      -4.462   0.107   1.258  1.00  0.00     0.003 C 
BRANCH  33  34
HETATM   34  C25 UNL     1      -5.814   0.783   1.267  1.00  0.00     0.144 C 
HETATM   35  C26 UNL     1      -5.667   1.949   2.247  1.00  0.00     0.039 C 
HETATM   36  C27 UNL     1      -6.876   2.857   2.112  1.00  0.00     0.037 C 
HETATM   37  C28 UNL     1      -8.150   2.095   2.210  1.00  0.00     0.151 A 
HETATM   38  O7  UNL     1      -9.269   2.891   1.747  1.00  0.00    -0.375 OA
HETATM   39  C29 UNL     1      -8.830   1.691   1.075  1.00  0.00     0.157 A 
HETATM   40  C30 UNL     1      -8.266   1.873  -0.294  1.00  0.00     0.044 C 
HETATM   41  C31 UNL     1      -9.325   1.859  -1.376  1.00  0.00     0.015 C 
HETATM   42  C32 UNL     1      -7.182   0.861  -0.633  1.00  0.00     0.153 C 
HETATM   43  O10 UNL     1      -6.031   1.216  -0.004  1.00  0.00    -0.374 OA
BRANCH  42  44
HETATM   44  C33 UNL     1      -7.624  -0.552  -0.499  1.00  0.00     0.212 C 
BRANCH  44  45
HETATM   45  O8  UNL     1      -8.837  -0.712  -1.246  1.00  0.00    -0.304 OA
BRANCH  45  46
HETATM   46  C34 UNL     1      -9.477  -1.942  -1.292  1.00  0.00     0.372 C 
HETATM   47  N1  UNL     1     -10.671  -2.171  -2.007  1.00  0.00    -0.032 NA
HETATM   48  O9  UNL     1      -8.954  -2.892  -0.659  1.00  0.00    -0.242 OA
ENDBRANCH  45  46
ENDBRANCH  44  45
ENDBRANCH  42  44
ENDBRANCH  33  34
ENDBRANCH  29  32
ENDBRANCH  26  29
ENDBRANCH  24  26
ENDBRANCH  22  24
ENDBRANCH  19  22
ENDBRANCH  16  19
ENDBRANCH  14  16
ENDBRANCH  12  14
ENDBRANCH  10  12
ENDBRANCH   8  10
ENDBRANCH   7   8
ENDBRANCH   6   7
ENDBRANCH   5   6
TORSDOF 21
