REMARK  2 active torsions:
REMARK  status: ('A' for Active; 'I' for Inactive)
REMARK    1  A    between atoms: C3_3  and  C4_4 
REMARK    2  A    between atoms: C8_8  and  N1_10 
ROOT
HETATM    1  C4  UNL     1      -0.094  -0.382   0.757  1.00  0.00     0.048 C 
HETATM    2  C5  UNL     1      -0.594   1.035   0.694  1.00  0.00     0.002 A 
HETATM    3  C6  UNL     1      -1.881   1.588   1.003  1.00  0.00     0.013 A 
HETATM    4  C7  UNL     1      -1.946   0.210   0.697  1.00  0.00     0.027 A 
HETATM    5  C8  UNL     1      -1.188  -0.609  -0.303  1.00  0.00     0.131 C 
HETATM    6  C9  UNL     1      -0.965  -0.115  -1.661  1.00  0.00     0.047 C 
ENDROOT
BRANCH   5   7
HETATM    7  N1  UNL     1      -1.527  -2.023  -0.293  1.00  0.00    -0.070 N 
ATOM      8  H13 UNL     1      -0.715  -2.626  -0.426  1.00  0.00     0.275 HD
ATOM      9  H12 UNL     1      -1.795  -2.360   0.632  1.00  0.00     0.275 HD
ATOM     10  H11 UNL     1      -2.252  -2.173  -0.995  1.00  0.00     0.275 HD
ENDBRANCH   5   7
BRANCH   1  11
HETATM   11  C3  UNL     1       1.271  -0.560   0.269  1.00  0.00    -0.024 C 
HETATM   12  C2  UNL     1       2.170   0.409   0.301  1.00  0.00    -0.034 C 
HETATM   13  C1  UNL     1       3.558   0.209  -0.200  1.00  0.00     0.036 C 
ENDBRANCH   1  11
TORSDOF 2
