REMARK  2 active torsions:
REMARK  status: ('A' for Active; 'I' for Inactive)
REMARK    1  A    between atoms: N1_2  and  C2_4 
REMARK    2  A    between atoms: C5_7  and  C9_11 
ROOT
HETATM    1  C2  UNL     1       0.619  -0.321   0.060  1.00  0.00     0.037 C 
HETATM    2  C3  UNL     1       0.251   0.843   0.905  1.00  0.00     0.015 C 
HETATM    3  C4  UNL     1      -1.175   0.815   1.449  1.00  0.00     0.012 C 
HETATM    4  C5  UNL     1      -1.808  -0.067   0.416  1.00  0.00    -0.004 C 
HETATM    5  C6  UNL     1      -1.454  -1.470   0.945  1.00  0.00     0.012 C 
HETATM    6  C7  UNL     1      -0.235  -1.565   0.028  1.00  0.00     0.015 C 
HETATM    7  C8  UNL     1      -1.128  -1.414  -1.241  1.00  0.00     0.018 C 
HETATM    8  C9  UNL     1      -1.351   0.060  -0.982  1.00  0.00    -0.026 A 
HETATM    9  C10 UNL     1      -0.730   1.278  -1.186  1.00  0.00     0.002 A 
HETATM   10  C11 UNL     1       0.059   2.019  -0.089  1.00  0.00     0.013 C 
HETATM   11  C12 UNL     1       0.181   0.221  -1.258  1.00  0.00     0.028 A 
ENDROOT
BRANCH   1  12
HETATM   12  N1  UNL     1       1.972  -0.753   0.141  1.00  0.00    -0.416 N 
HETATM   13  C1  UNL     1       2.977   0.156  -0.272  1.00  0.00     0.140 C 
ATOM     14  H1  UNL     1       2.210  -1.684   0.484  1.00  0.00     0.153 HD
ENDBRANCH   1  12
TORSDOF 2
