REMARK  1 active torsions:
REMARK  status: ('A' for Active; 'I' for Inactive)
REMARK    1  A    between atoms: C5_5  and  C6_6 
ROOT
HETATM    1  C1  UNL     1      -3.777  -0.418  -0.139  1.00  0.00     0.011 C 
HETATM    2  C2  UNL     1      -2.359  -0.177   0.383  1.00  0.00     0.007 C 
HETATM    3  C3  UNL     1      -1.995   1.227   0.059  1.00  0.00     0.008 C 
HETATM    4  C4  UNL     1      -0.544   1.536   0.087  1.00  0.00     0.039 C 
HETATM    5  C5  UNL     1       0.345   0.367  -0.251  1.00  0.00     0.224 C 
HETATM    6  N2  UNL     1      -0.089  -0.861   0.360  1.00  0.00    -0.066 N 
ATOM      7  H21 UNL     1      -0.067  -0.816   1.379  1.00  0.00     0.278 HD
ATOM      8  H22 UNL     1       0.586  -1.616   0.235  1.00  0.00     0.278 HD
HETATM    9  C9  UNL     1      -1.410  -1.208  -0.151  1.00  0.00     0.237 C 
ENDROOT
BRANCH   5  10
HETATM   10  C6  UNL     1       1.717   0.683   0.211  1.00  0.00     0.090 C 
HETATM   11  N1  UNL     1       2.706  -0.103   0.013  1.00  0.00    -0.400 N 
HETATM   12  C7  UNL     1       4.008   0.294   0.502  1.00  0.00     0.148 C 
HETATM   13  C8  UNL     1       2.487  -1.330  -0.675  1.00  0.00     0.148 C 
ENDBRANCH   5  10
TORSDOF 1
