REMARK  3 active torsions:
REMARK  status: ('A' for Active; 'I' for Inactive)
REMARK    1  A    between atoms: C5_5  and  N1_6 
REMARK    2  A    between atoms: N1_6  and  C6_8 
REMARK    3  A    between atoms: C6_8  and  C7_10 
ROOT
HETATM    1  C1  UNL     1       4.912  -0.489   0.733  1.00  0.00     0.012 C 
HETATM    2  C2  UNL     1       3.771  -0.734   0.429  1.00  0.00    -0.110 C 
HETATM    3  C3  UNL     1       2.384  -1.058   0.066  1.00  0.00     0.088 A 
HETATM    4  C4  UNL     1       1.897  -0.517  -1.213  1.00  0.00     0.045 A 
HETATM    5  C5  UNL     1       1.361  -0.015   0.117  1.00  0.00     0.099 A 
ENDROOT
BRANCH   5   6
HETATM    6  N1  UNL     1      -0.017  -0.276   0.391  1.00  0.00    -0.378 N 
ATOM      7  H1  UNL     1      -0.310  -1.238   0.560  1.00  0.00     0.160 HD
BRANCH   6   8
HETATM    8  C6  UNL     1      -0.991   0.752   0.436  1.00  0.00     0.077 C 
HETATM    9  S1  UNL     1      -0.499   2.281   0.162  1.00  0.00    -0.065 SA
BRANCH   8  10
HETATM   10  C7  UNL     1      -2.423   0.523   0.714  1.00  0.00     0.047 A 
HETATM   11  C8  UNL     1      -3.269  -0.333  -0.125  1.00  0.00     0.012 A 
HETATM   12  C9  UNL     1      -3.352   1.141  -0.356  1.00  0.00     0.012 A 
ENDBRANCH   8  10
ENDBRANCH   6   8
ENDBRANCH   5   6
TORSDOF 3
