REMARK  4 active torsions:
REMARK  status: ('A' for Active; 'I' for Inactive)
REMARK    1  A    between atoms: C3_3  and  N1_4 
REMARK    2  A    between atoms: N1_4  and  C6_7 
REMARK    3  A    between atoms: C10_13  and  C11_14 
REMARK    4  A    between atoms: C11_14  and  O1_15 
ROOT
HETATM    1  C1  UNL     1       4.350  -0.212  -0.585  1.00  0.00     0.013 C 
HETATM    2  C2  UNL     1       3.168  -0.280  -0.830  1.00  0.00    -0.089 C 
HETATM    3  C3  UNL     1       1.750  -0.337  -1.120  1.00  0.00     0.330 C 
ENDROOT
BRANCH   3   4
HETATM    4  N1  UNL     1       0.966   0.161   0.026  1.00  0.00    -0.054 N 
HETATM    5  C4  UNL     1       1.497  -0.495   1.232  1.00  0.00     0.274 C 
HETATM    6  C5  UNL     1       1.256   1.548   0.133  1.00  0.00     0.274 C 
BRANCH   4   7
HETATM    7  C6  UNL     1      -0.371  -0.226  -0.198  1.00  0.00     0.152 A 
HETATM    8  C7  UNL     1      -0.511  -1.746  -0.341  1.00  0.00     0.070 A 
HETATM    9  C8  UNL     1      -1.574  -2.186  -1.241  1.00  0.00     0.063 C 
HETATM   10  C12 UNL     1      -1.239  -0.979   0.683  1.00  0.00     0.058 A 
HETATM   11  N2  UNL     1      -2.625  -1.487  -1.090  1.00  0.00    -0.396 N 
HETATM   12  C9  UNL     1      -2.420  -0.488  -0.079  1.00  0.00     0.096 C 
ATOM     13  H2  UNL     1      -3.491  -1.617  -1.613  1.00  0.00     0.159 HD
HETATM   14  C10 UNL     1      -1.480   0.632  -0.589  1.00  0.00     0.070 C 
BRANCH  14  15
HETATM   15  C11 UNL     1      -1.817   1.882   0.139  1.00  0.00     0.173 C 
BRANCH  15  16
HETATM   16  O1  UNL     1      -2.132   1.634   1.497  1.00  0.00    -0.400 OA
ATOM     17  H1  UNL     1      -2.348   2.434   1.963  1.00  0.00     0.209 HD
ENDBRANCH  15  16
ENDBRANCH  14  15
ENDBRANCH   4   7
ENDBRANCH   3   4
TORSDOF 4
