REMARK  6 active torsions:
REMARK  status: ('A' for Active; 'I' for Inactive)
REMARK       I    between atoms: N1_2  and  C3_4 
REMARK    1  A    between atoms: C3_4  and  C4_6 
REMARK    2  A    between atoms: C5_7  and  C6_8 
REMARK    3  A    between atoms: C6_8  and  C7_9 
REMARK    4  A    between atoms: C6_8  and  N4_15 
REMARK    5  A    between atoms: C7_9  and  N2_10 
REMARK       I    between atoms: N2_10  and  C8_12 
REMARK    6  A    between atoms: N4_15  and  N5_16 
ROOT
HETATM    1  C6  UNL     1       1.087  -0.608   0.095  1.00  0.00     0.179 C 
ENDROOT
BRANCH   1   2
HETATM    2  C5  UNL     1      -0.193   0.041   0.094  1.00  0.00    -0.025 C 
HETATM    3  C4  UNL     1      -1.270   0.605   0.090  1.00  0.00     0.002 C 
BRANCH   3   4
HETATM    4  C3  UNL     1      -2.535   1.292   0.081  1.00  0.00     0.298 C 
HETATM    5  N1  UNL     1      -3.722   0.526  -0.052  1.00  0.00    -0.350 N 
HETATM    6  C1  UNL     1      -3.662  -0.916  -0.175  1.00  0.00     0.153 C 
HETATM    7  C2  UNL     1      -4.991   1.202  -0.062  1.00  0.00     0.153 C 
HETATM    8  O1  UNL     1      -2.586   2.552   0.188  1.00  0.00    -0.258 OA
ENDBRANCH   3   4
ENDBRANCH   1   2
BRANCH   1   9
HETATM    9  C7  UNL     1       2.289   0.229   0.036  1.00  0.00     0.208 C 
BRANCH   9  10
HETATM   10  N2  UNL     1       3.513  -0.507   0.042  1.00  0.00    -0.338 N 
HETATM   11  C8  UNL     1       4.739   0.207  -0.013  1.00  0.00     0.329 C 
HETATM   12  N3  UNL     1       6.008  -0.471  -0.011  1.00  0.00    -0.040 NA
HETATM   13  O2  UNL     1       4.791   1.464  -0.067  1.00  0.00    -0.251 OA
ATOM     14  H2  UNL     1       3.506  -1.526   0.085  1.00  0.00     0.164 HD
ENDBRANCH   9  10
ENDBRANCH   1   9
BRANCH   1  15
HETATM   15  N4  UNL     1       1.099  -1.862   0.148  1.00  0.00    -0.327 NA
BRANCH  15  16
HETATM   16  N5  UNL     1       1.142  -3.095   0.218  1.00  0.00    -0.279 N 
ATOM     17  H52 UNL     1       1.861  -2.485   0.608  1.00  0.00     0.191 HD
ATOM     18  H51 UNL     1       1.152  -4.114   0.261  1.00  0.00     0.191 HD
ENDBRANCH  15  16
ENDBRANCH   1  15
TORSDOF 6
