REMARK  5 active torsions:
REMARK  status: ('A' for Active; 'I' for Inactive)
REMARK    1  A    between atoms: C2_2  and  C3_3 
REMARK    2  A    between atoms: C3_3  and  C4_4 
REMARK    3  A    between atoms: C4_4  and  C5_5 
REMARK    4  A    between atoms: C6_6  and  C7_7 
REMARK    5  A    between atoms: C8_8  and  C9_9 
REMARK       I    between atoms: C9_9  and  N1_11 
ROOT
HETATM    1  C7  UNL     1       0.885   0.100  -1.179  1.00  0.00    -0.005 C 
HETATM    2  C8  UNL     1       2.030  -0.055  -1.563  1.00  0.00     0.009 C 
ENDROOT
BRANCH   2   3
HETATM    3  C9  UNL     1       3.382  -0.263  -2.022  1.00  0.00     0.302 C 
HETATM    4  O1  UNL     1       3.646  -1.105  -2.937  1.00  0.00    -0.258 OA
HETATM    5  N1  UNL     1       4.417   0.474  -1.450  1.00  0.00    -0.308 N 
HETATM    6  C10 UNL     1       5.086   0.024  -0.458  1.00  0.00     0.092 C 
ATOM      7  H1  UNL     1       4.646   1.392  -1.831  1.00  0.00     0.170 HD
HETATM    8  C11 UNL     1       6.179   0.846   0.115  1.00  0.00     0.085 C 
HETATM    9  N2  UNL     1       4.758  -1.255   0.062  1.00  0.00    -0.088 NA
ENDBRANCH   2   3
BRANCH   1  10
HETATM   10  C6  UNL     1      -0.457   0.273  -0.752  1.00  0.00    -0.015 C 
HETATM   11  C5  UNL     1      -1.607   0.402  -0.380  1.00  0.00    -0.092 C 
BRANCH  11  12
HETATM   12  C4  UNL     1      -3.003   0.550   0.048  1.00  0.00     0.095 C 
BRANCH  12  13
HETATM   13  C3  UNL     1      -3.328  -0.553   1.054  1.00  0.00     0.012 C 
BRANCH  13  14
HETATM   14  C2  UNL     1      -4.756  -0.407   1.496  1.00  0.00    -0.004 C 
HETATM   15  C1  UNL     1      -5.651  -0.527   0.297  1.00  0.00     0.005 C 
ENDBRANCH  13  14
ENDBRANCH  12  13
ENDBRANCH  11  12
ENDBRANCH   1  10
TORSDOF 5
