REMARK  7 active torsions:
REMARK  status: ('A' for Active; 'I' for Inactive)
REMARK    1  A    between atoms: N1_1  and  S1_4 
REMARK    2  A    between atoms: S1_4  and  N2_6 
REMARK    3  A    between atoms: S1_4  and  N8_21 
REMARK       I    between atoms: N2_6  and  C1_8 
REMARK       I    between atoms: C1_8  and  N3_10 
REMARK    4  A    between atoms: N3_10  and  C2_12 
REMARK       I    between atoms: N8_21  and  C3_23 
REMARK    5  A    between atoms: C3_23  and  C4_25 
REMARK    6  A    between atoms: C4_25  and  O4_26 
REMARK    7  A    between atoms: C4_25  and  C5_28 
ROOT
HETATM    1  S1  UNL     1       0.117  -1.379  -0.175  1.00  0.00     0.202 S 
HETATM    2  O1  UNL     1      -0.199  -2.572   0.697  1.00  0.00    -0.206 OA
ENDROOT
BRANCH   1   3
HETATM    3  N1  UNL     1       0.626  -1.860  -1.551  1.00  0.00    -0.328 N 
ATOM      4  H12 UNL     1       0.728  -2.840  -1.816  1.00  0.00     0.168 HD
ATOM      5  H11 UNL     1       0.839  -1.055  -2.140  1.00  0.00     0.168 HD
ENDBRANCH   1   3
BRANCH   1   6
HETATM    6  N2  UNL     1      -1.335  -0.461  -0.321  1.00  0.00    -0.236 N 
HETATM    7  C1  UNL     1      -2.026  -0.065   0.846  1.00  0.00     0.348 C 
HETATM    8  O2  UNL     1      -1.552  -0.400   1.977  1.00  0.00    -0.245 OA
HETATM    9  N3  UNL     1      -3.227   0.689   0.826  1.00  0.00    -0.138 N 
ATOM     10  H3  UNL     1      -3.345   1.503   1.430  1.00  0.00     0.189 HD
ATOM     11  H2  UNL     1      -1.692  -0.206  -1.242  1.00  0.00     0.183 HD
BRANCH   9  12
HETATM   12  C2  UNL     1      -4.167   0.317   0.022  1.00  0.00     0.717 A 
HETATM   13  N4  UNL     1      -4.156  -0.723  -0.826  1.00  0.00    -0.115 N 
HETATM   14  N5  UNL     1      -5.310  -0.729  -1.443  1.00  0.00    -0.213 N 
ATOM     15  H4  UNL     1      -3.392  -1.384  -0.964  1.00  0.00     0.207 HD
HETATM   16  N6  UNL     1      -6.056   0.259  -1.028  1.00  0.00    -0.213 N 
ATOM     17  H5  UNL     1      -5.588  -1.410  -2.149  1.00  0.00     0.210 HD
HETATM   18  N7  UNL     1      -5.361   0.919  -0.118  1.00  0.00    -0.115 N 
ATOM     19  H6  UNL     1      -6.999   0.480  -1.347  1.00  0.00     0.210 HD
ATOM     20  H7  UNL     1      -5.677   1.744   0.391  1.00  0.00     0.207 HD
ENDBRANCH   9  12
ENDBRANCH   1   6
BRANCH   1  21
HETATM   21  N8  UNL     1       1.319  -0.402   0.628  1.00  0.00    -0.252 N 
HETATM   22  C3  UNL     1       2.678  -0.446   0.266  1.00  0.00     0.268 C 
HETATM   23  O3  UNL     1       3.051  -1.200  -0.654  1.00  0.00    -0.269 OA
ATOM     24  H8  UNL     1       1.028   0.220   1.382  1.00  0.00     0.181 HD
BRANCH  22  25
HETATM   25  C4  UNL     1       3.669   0.391   0.965  1.00  0.00     0.299 C 
BRANCH  25  26
HETATM   26  O4  UNL     1       3.010   1.148   1.934  1.00  0.00    -0.377 OA
ATOM     27  H4  UNL     1       3.649   1.688   2.385  1.00  0.00     0.211 HD
ENDBRANCH  25  26
BRANCH  25  28
HETATM   28  C5  UNL     1       4.417   1.269   0.039  1.00  0.00     0.269 C 
HETATM   29  N9  UNL     1       5.154   0.718  -1.040  1.00  0.00    -0.059 NA
HETATM   30  O5  UNL     1       4.388   2.505   0.224  1.00  0.00    -0.273 OA
ENDBRANCH  25  28
ENDBRANCH  22  25
ENDBRANCH   1  21
TORSDOF 7
