REMARK  6 active torsions:
REMARK  status: ('A' for Active; 'I' for Inactive)
REMARK       I    between atoms: C2_2  and  N1_4 
REMARK    1  A    between atoms: N1_4  and  C3_6 
REMARK    2  A    between atoms: C3_6  and  C4_7 
REMARK    3  A    between atoms: C3_6  and  C8_23 
REMARK    4  A    between atoms: C4_7  and  N2_8 
REMARK    5  A    between atoms: C7_17  and  N5_18 
REMARK    6  A    between atoms: N5_18  and  N6_20 
REMARK       I    between atoms: C8_23  and  N7_25 
ROOT
HETATM    1  N2  UNL     1       0.592  -1.402  -1.091  1.00  0.00    -0.265 N 
HETATM    2  N3  UNL     1       0.763  -1.231  -2.375  1.00  0.00    -0.247 N 
ATOM      3  H3  UNL     1      -0.039  -1.041  -2.976  1.00  0.00     0.192 HD
HETATM    4  C5  UNL     1       2.006  -1.307  -2.906  1.00  0.00     0.342 A 
HETATM    5  O2  UNL     1       2.114  -1.136  -4.143  1.00  0.00    -0.245 OA
HETATM    6  N4  UNL     1       3.045  -1.557  -2.107  1.00  0.00    -0.271 N 
ATOM      7  H4  UNL     1       3.977  -1.612  -2.517  1.00  0.00     0.174 HD
HETATM    8  C6  UNL     1       2.907  -1.741  -0.766  1.00  0.00     0.296 A 
HETATM    9  O3  UNL     1       3.959  -1.971  -0.105  1.00  0.00    -0.264 OA
HETATM   10  C7  UNL     1       1.648  -1.664  -0.232  1.00  0.00     0.206 A 
ENDROOT
BRANCH   1  11
HETATM   11  C4  UNL     1      -0.699  -1.290  -0.514  1.00  0.00     0.186 C 
BRANCH  11  12
HETATM   12  C3  UNL     1      -1.221   0.058  -0.184  1.00  0.00     0.197 C 
BRANCH  12  13
HETATM   13  N1  UNL     1      -2.571  -0.164   0.418  1.00  0.00    -0.346 N 
HETATM   14  C2  UNL     1      -3.716   0.390  -0.179  1.00  0.00     0.214 C 
HETATM   15  C1  UNL     1      -5.039   0.165   0.439  1.00  0.00     0.117 C 
HETATM   16  O1  UNL     1      -3.604   1.067  -1.222  1.00  0.00    -0.274 OA
ATOM     17  H1  UNL     1      -2.662  -0.721   1.268  1.00  0.00     0.163 HD
ENDBRANCH  12  13
BRANCH  12  18
HETATM   18  C8  UNL     1      -0.486   0.860   0.798  1.00  0.00     0.248 C 
HETATM   19  O4  UNL     1      -0.895   0.969   1.970  1.00  0.00    -0.271 OA
HETATM   20  N7  UNL     1       0.701   1.526   0.407  1.00  0.00    -0.302 N 
HETATM   21  C9  UNL     1       1.154   2.614   0.866  1.00  0.00     0.203 C 
ATOM     22  H7  UNL     1       1.252   1.079  -0.326  1.00  0.00     0.171 HD
HETATM   23  N8  UNL     1       2.372   3.149   0.355  1.00  0.00    -0.066 NA
HETATM   24  N9  UNL     1       0.457   3.313   1.889  1.00  0.00    -0.066 NA
ENDBRANCH  12  18
ENDBRANCH  11  12
ENDBRANCH   1  11
BRANCH  10  25
HETATM   25  N5  UNL     1       1.422  -1.860   0.983  1.00  0.00    -0.286 N 
ATOM     26  H5  UNL     1       0.434  -1.805   1.232  1.00  0.00     0.188 HD
BRANCH  25  27
HETATM   27  N6  UNL     1       2.226  -2.128   2.019  1.00  0.00    -0.343 N 
ATOM     28  H62 UNL     1       3.208  -2.179   1.748  1.00  0.00     0.176 HD
ATOM     29  H61 UNL     1       2.042  -2.288   3.009  1.00  0.00     0.176 HD
ENDBRANCH  25  27
ENDBRANCH  10  25
TORSDOF 6
