REMARK  5 active torsions:
REMARK  status: ('A' for Active; 'I' for Inactive)
REMARK    1  A    between atoms: C3_3  and  C4_4 
REMARK    2  A    between atoms: C5_5  and  C6_6 
REMARK    3  A    between atoms: C6_6  and  C7_8 
REMARK    4  A    between atoms: C6_6  and  N1_12 
REMARK    5  A    between atoms: C8_9  and  C9_10 
REMARK       I    between atoms: N2_15  and  C12_16 
ROOT
HETATM    1  C1  UNL     1       5.366   3.953   0.033  1.00  0.00     0.113 C 
HETATM    2  C2  UNL     1       4.353   2.909  -0.193  1.00  0.00    -0.097 C 
HETATM    3  C3  UNL     1       3.530   2.039  -0.362  1.00  0.00    -0.015 C 
ENDROOT
BRANCH   3   4
HETATM    4  C4  UNL     1       2.554   1.010  -0.536  1.00  0.00    -0.011 C 
HETATM    5  C5  UNL     1       1.722   0.140  -0.661  1.00  0.00    -0.035 C 
BRANCH   5   6
HETATM    6  C6  UNL     1       0.707  -0.904  -0.788  1.00  0.00     0.224 C 
HETATM    7 BR1  UNL     1       0.030  -0.804  -2.613  1.00  0.00    -0.032 Br
BRANCH   6   8
HETATM    8  C7  UNL     1       1.256  -2.252  -0.628  1.00  0.00    -0.048 C 
HETATM    9  C8  UNL     1       1.687  -3.367  -0.489  1.00  0.00    -0.091 C 
BRANCH   9  10
HETATM   10  C9  UNL     1       2.197  -4.750  -0.331  1.00  0.00     0.179 C 
HETATM   11 BR2  UNL     1       1.258  -5.505   1.179  1.00  0.00    -0.083 Br
ENDBRANCH   9  10
ENDBRANCH   6   8
BRANCH   6  12
HETATM   12  N1  UNL     1      -0.350  -0.625   0.090  1.00  0.00    -0.331 N 
HETATM   13  C10 UNL     1      -1.362  -1.581   0.263  1.00  0.00     0.086 C 
HETATM   14  C11 UNL     1      -2.677  -1.044  -0.258  1.00  0.00     0.172 C 
HETATM   15  N2  UNL     1      -2.987   0.259   0.264  1.00  0.00    -0.327 N 
HETATM   16  C12 UNL     1      -4.256   0.840   0.048  1.00  0.00     0.331 C 
HETATM   17  C13 UNL     1      -1.968   0.950   1.008  1.00  0.00     0.172 C 
HETATM   18  N3  UNL     1      -4.613   2.114   0.539  1.00  0.00    -0.040 NA
HETATM   19  O1  UNL     1      -5.146   0.224  -0.611  1.00  0.00    -0.251 OA
HETATM   20  C14 UNL     1      -0.612   0.724   0.401  1.00  0.00     0.086 C 
ENDBRANCH   6  12
ENDBRANCH   5   6
ENDBRANCH   3   4
TORSDOF 5
