REMARK  7 active torsions:
REMARK  status: ('A' for Active; 'I' for Inactive)
REMARK    1  A    between atoms: C4_5  and  C5_6 
REMARK    2  A    between atoms: C5_6  and  C6_7 
REMARK    3  A    between atoms: C6_7  and  N2_8 
REMARK    4  A    between atoms: C6_7  and  N3_12 
REMARK    5  A    between atoms: N3_12  and  C7_14 
REMARK    6  A    between atoms: C7_14  and  C8_15 
REMARK    7  A    between atoms: C8_15  and  N4_16 
ROOT
HETATM    1  C6  UNL     1      -0.232  -1.504  -0.973  1.00  0.00     0.281 C 
ENDROOT
BRANCH   1   2
HETATM    2  C5  UNL     1       1.099  -2.261  -0.812  1.00  0.00     0.092 C 
BRANCH   2   3
HETATM    3  C4  UNL     1       2.017  -1.375  -0.059  1.00  0.00    -0.051 A 
HETATM    4  C3  UNL     1       2.805  -0.529  -0.806  1.00  0.00     0.037 A 
HETATM    5  C2  UNL     1       3.691   0.315  -0.123  1.00  0.00     0.042 A 
HETATM    6  N1  UNL     1       4.500   1.162  -0.621  1.00  0.00    -0.381 N 
HETATM    7  C16 UNL     1       3.755   0.283   1.251  1.00  0.00     0.006 A 
HETATM    8  C1  UNL     1       4.677   1.439  -2.058  1.00  0.00     0.150 C 
HETATM    9  C18 UNL     1       5.213   1.800   0.463  1.00  0.00     0.151 A 
HETATM   10  C17 UNL     1       4.655   1.158   1.669  1.00  0.00     0.008 A 
HETATM   11  C15 UNL     1       2.950  -0.578   1.982  1.00  0.00     0.023 A 
HETATM   12  C14 UNL     1       2.082  -1.405   1.310  1.00  0.00     0.027 A 
HETATM   13 BR3  UNL     1       2.984  -0.672   3.882  1.00  0.00    -0.050 Br
ENDBRANCH   2   3
ENDBRANCH   1   2
BRANCH   1  14
HETATM   14  N2  UNL     1      -1.077  -2.420  -1.717  1.00  0.00    -0.058 N 
ATOM     15  H23 UNL     1      -0.671  -2.743  -2.595  1.00  0.00     0.276 HD
ATOM     16  H22 UNL     1      -1.170  -3.342  -1.291  1.00  0.00     0.276 HD
ATOM     17  H21 UNL     1      -1.959  -1.918  -1.824  1.00  0.00     0.276 HD
ENDBRANCH   1  14
BRANCH   1  18
HETATM   18  N3  UNL     1      -0.677  -1.189   0.333  1.00  0.00    -0.394 N 
ATOM     19  H3  UNL     1      -0.233  -1.612   1.148  1.00  0.00     0.155 HD
BRANCH  18  20
HETATM   20  C7  UNL     1      -1.749  -0.277   0.490  1.00  0.00     0.136 C 
BRANCH  20  21
HETATM   21  C8  UNL     1      -3.063  -0.809   0.012  1.00  0.00     0.147 C 
BRANCH  21  22
HETATM   22  N4  UNL     1      -4.068   0.235   0.260  1.00  0.00    -0.363 N 
HETATM   23  C9  UNL     1      -4.350   1.168  -0.653  1.00  0.00     0.092 A 
HETATM   24  C10 UNL     1      -5.313   2.109  -0.336  1.00  0.00     0.038 A 
HETATM   25  C11 UNL     1      -5.976   2.116   0.866  1.00  0.00     0.031 A 
HETATM   26 BR1  UNL     1      -7.300   3.401   1.316  1.00  0.00    -0.050 Br
HETATM   27  C12 UNL     1      -5.663   1.144   1.782  1.00  0.00     0.043 A 
HETATM   28 BR2  UNL     1      -6.552   1.092   3.485  1.00  0.00    -0.048 Br
HETATM   29  C13 UNL     1      -4.699   0.217   1.441  1.00  0.00     0.111 A 
ENDBRANCH  21  22
ENDBRANCH  20  21
ENDBRANCH  18  20
ENDBRANCH   1  18
TORSDOF 7
