REMARK  6 active torsions:
REMARK  status: ('A' for Active; 'I' for Inactive)
REMARK    1  A    between atoms: C2_2  and  C3_3 
REMARK    2  A    between atoms: C3_3  and  C4_4 
REMARK    3  A    between atoms: C8_10  and  C9_11 
REMARK    4  A    between atoms: C9_11  and  C10_12 
REMARK    5  A    between atoms: C13_17  and  C14_18 
REMARK    6  A    between atoms: C14_18  and  C15_19 
ROOT
HETATM    1  C10 UNL     1      -0.973  -0.274   1.616  1.00  0.00     0.020 A 
HETATM    2  N2  UNL     1      -1.442  -1.061   2.590  1.00  0.00    -0.359 N 
ATOM      3  H2  UNL     1      -0.859  -1.510   3.296  1.00  0.00     0.166 HD
HETATM    4  C11 UNL     1      -2.794  -1.187   2.522  1.00  0.00     0.033 A 
HETATM    5  C12 UNL     1      -3.521  -1.903   3.352  1.00  0.00     0.044 C 
HETATM    6  C13 UNL     1      -3.224  -0.424   1.422  1.00  0.00    -0.000 A 
HETATM    7  C19 UNL     1      -2.087   0.123   0.889  1.00  0.00    -0.027 A 
HETATM    8  C20 UNL     1      -2.024   1.014  -0.287  1.00  0.00     0.051 C 
ENDROOT
BRANCH   1   9
HETATM    9  C9  UNL     1       0.478   0.085   1.370  1.00  0.00     0.087 C 
BRANCH   9  10
HETATM   10  C8  UNL     1       1.026  -0.663   0.246  1.00  0.00     0.010 C 
HETATM   11  C7  UNL     1       2.238  -0.719  -0.209  1.00  0.00     0.039 A 
HETATM   12  N1  UNL     1       2.605  -1.479  -1.287  1.00  0.00    -0.359 N 
HETATM   13  C21 UNL     1       3.401  -0.101   0.219  1.00  0.00    -0.011 A 
HETATM   14  C5  UNL     1       3.912  -1.352  -1.525  1.00  0.00     0.013 A 
ATOM     15  H1  UNL     1       1.969  -2.061  -1.832  1.00  0.00     0.166 HD
HETATM   16  C4  UNL     1       4.457  -0.496  -0.603  1.00  0.00    -0.021 A 
HETATM   17  C6  UNL     1       4.677  -2.031  -2.617  1.00  0.00     0.068 C 
HETATM   18  C22 UNL     1       3.564   0.735   1.202  1.00  0.00     0.026 C 
BRANCH  16  19
HETATM   19  C3  UNL     1       5.905  -0.085  -0.516  1.00  0.00     0.067 C 
BRANCH  19  20
HETATM   20  C2  UNL     1       6.235   0.935  -1.540  1.00  0.00    -0.032 C 
HETATM   21  C1  UNL     1       6.690   2.112  -1.140  1.00  0.00     0.007 C 
ENDBRANCH  19  20
ENDBRANCH  16  19
ENDBRANCH   9  10
ENDBRANCH   1   9
BRANCH   6  22
HETATM   22  C14 UNL     1      -4.492  -0.350   1.099  1.00  0.00     0.046 C 
BRANCH  22  23
HETATM   23  C15 UNL     1      -5.088   0.386   0.003  1.00  0.00     0.070 A 
HETATM   24  N3  UNL     1      -5.241   1.719  -0.011  1.00  0.00    -0.316 N 
HETATM   25  C16 UNL     1      -5.825   2.360  -1.061  1.00  0.00     0.314 A 
ATOM     26  H3  UNL     1      -4.912   2.266   0.785  1.00  0.00     0.169 HD
HETATM   27  O1  UNL     1      -5.937   3.626  -1.006  1.00  0.00    -0.262 OA
HETATM   28  C17 UNL     1      -6.272   1.636  -2.137  1.00  0.00     0.314 A 
HETATM   29  O2  UNL     1      -6.819   2.211  -3.126  1.00  0.00    -0.262 OA
HETATM   30  N4  UNL     1      -6.133   0.286  -2.157  1.00  0.00    -0.311 N 
HETATM   31  C18 UNL     1      -5.544  -0.321  -1.089  1.00  0.00     0.109 A 
ATOM     32  H4  UNL     1      -6.462  -0.261  -2.953  1.00  0.00     0.170 HD
HETATM   33 BR1  UNL     1      -5.333  -2.212  -1.075  1.00  0.00    -0.029 Br
ENDBRANCH  22  23
ENDBRANCH   6  22
TORSDOF 6
