REMARK  6 active torsions:
REMARK  status: ('A' for Active; 'I' for Inactive)
REMARK    1  A    between atoms: C5_9  and  C6_10 
REMARK    2  A    between atoms: C6_10  and  C12_20 
REMARK    3  A    between atoms: N3_11  and  C7_13 
REMARK    4  A    between atoms: C12_20  and  C13_21 
REMARK    5  A    between atoms: C14_22  and  C15_23 
REMARK       I    between atoms: N5_29  and  C21_31 
REMARK       I    between atoms: C21_31  and  N6_33 
REMARK    6  A    between atoms: N6_33  and  C22_35 
ROOT
HETATM    1  C12 UNL     1      -0.631  -0.240  -0.449  1.00  0.00     0.064 C 
HETATM    2  N5  UNL     1      -0.164  -1.312  -0.373  1.00  0.00    -0.306 N 
ATOM      3  H5  UNL     1      -0.758  -2.108  -0.604  1.00  0.00     0.170 HD
HETATM    4  C21 UNL     1       1.230  -1.587   0.036  1.00  0.00     0.325 C 
HETATM    5  O2  UNL     1       1.385  -2.105   1.169  1.00  0.00    -0.247 OA
HETATM    6  N6  UNL     1       2.276  -1.241  -0.842  1.00  0.00    -0.309 N 
ATOM      7  H6  UNL     1       2.008  -0.844  -1.742  1.00  0.00     0.170 HD
ENDROOT
BRANCH   1   8
HETATM    8  C6  UNL     1      -2.314  -0.087  -0.952  1.00  0.00     0.079 C 
HETATM    9  N3  UNL     1      -2.397   0.821   0.048  1.00  0.00    -0.340 N 
ATOM     10  H3  UNL     1      -2.206   1.804  -0.145  1.00  0.00     0.167 HD
BRANCH   8  11
HETATM   11  C5  UNL     1      -2.237  -0.928  -1.876  1.00  0.00     0.090 A 
HETATM   12  C2  UNL     1      -3.699  -1.196  -2.315  1.00  0.00     0.057 A 
HETATM   13  C1  UNL     1      -4.742  -0.635  -1.763  1.00  0.00     0.045 C 
HETATM   14  N1  UNL     1      -3.640  -2.000  -3.329  1.00  0.00    -0.296 N 
HETATM   15  N2  UNL     1      -2.426  -2.321  -3.655  1.00  0.00    -0.261 N 
ATOM     16  H1  UNL     1      -4.464  -2.345  -3.821  1.00  0.00     0.187 HD
HETATM   17  C3  UNL     1      -1.989  -3.202  -4.734  1.00  0.00     0.181 C 
HETATM   18  C4  UNL     1      -1.605  -1.665  -2.769  1.00  0.00     0.276 A 
HETATM   19  O1  UNL     1      -0.340  -1.852  -2.946  1.00  0.00    -0.266 OA
ENDBRANCH   8  11
BRANCH   9  20
HETATM   20  C7  UNL     1      -2.728   0.440   1.288  1.00  0.00     0.105 A 
HETATM   21  C8  UNL     1      -2.976  -0.865   1.526  1.00  0.00     0.048 A 
HETATM   22  C9  UNL     1      -3.308  -1.199   2.844  1.00  0.00     0.005 A 
HETATM   23  C10 UNL     1      -3.361  -0.206   3.791  1.00  0.00     0.017 A 
HETATM   24  C11 UNL     1      -3.099   1.134   3.492  1.00  0.00     0.089 A 
HETATM   25  N4  UNL     1      -2.785   1.413   2.219  1.00  0.00    -0.352 N 
ATOM     26  H4  UNL     1      -2.586   2.377   1.951  1.00  0.00     0.166 HD
ENDBRANCH   9  20
ENDBRANCH   1   8
BRANCH   1  27
HETATM   27  C13 UNL     1      -0.228   1.011   0.128  1.00  0.00     0.033 C 
HETATM   28  C14 UNL     1       0.870   1.401   0.704  1.00  0.00     0.013 C 
BRANCH  28  29
HETATM   29  C15 UNL     1       1.058   2.770   1.232  1.00  0.00    -0.036 A 
HETATM   30  C16 UNL     1       2.286   3.084   1.813  1.00  0.00     0.011 A 
HETATM   31  C17 UNL     1       2.526   4.322   2.369  1.00  0.00     0.001 A 
HETATM   32  C18 UNL     1       1.550   5.300   2.371  1.00  0.00     0.000 A 
HETATM   33  C19 UNL     1       0.344   4.985   1.794  1.00  0.00     0.001 A 
HETATM   34  C20 UNL     1       0.083   3.732   1.222  1.00  0.00     0.011 A 
ENDBRANCH  28  29
ENDBRANCH   1  27
BRANCH   6  35
HETATM   35  C22 UNL     1       3.674  -1.391  -0.597  1.00  0.00     0.037 A 
HETATM   36  C23 UNL     1       4.540  -0.751  -1.503  1.00  0.00     0.029 A 
HETATM   37  C24 UNL     1       5.892  -0.809  -1.307  1.00  0.00     0.004 A 
HETATM   38  C25 UNL     1       6.408  -1.483  -0.237  1.00  0.00     0.019 A 
HETATM   39  C26 UNL     1       5.587  -2.130   0.690  1.00  0.00     0.013 A 
HETATM   40 BR1  UNL     1       6.327  -3.013   2.193  1.00  0.00    -0.051 Br
HETATM   41  C27 UNL     1       4.216  -2.058   0.465  1.00  0.00     0.048 A 
ENDBRANCH   6  35
TORSDOF 6
