REMARK  12 active torsions:
REMARK  status: ('A' for Active; 'I' for Inactive)
REMARK    1  A    between atoms: C7_8  and  C8_9 
REMARK    2  A    between atoms: C8_9  and  C9_10 
REMARK    3  A    between atoms: C9_10  and  C10_11 
REMARK       I    between atoms: C10_11  and  N1_13 
REMARK    4  A    between atoms: N1_13  and  C11_15 
REMARK    5  A    between atoms: C11_15  and  C12_16 
REMARK    6  A    between atoms: C12_16  and  C13_17 
REMARK    7  A    between atoms: C14_18  and  C15_19 
REMARK    8  A    between atoms: C16_20  and  C17_21 
REMARK    9  A    between atoms: C22_29  and  C23_30 
REMARK       I    between atoms: C23_30  and  N3_32 
REMARK   10  A    between atoms: N3_32  and  C25_34 
REMARK   11  A    between atoms: N4_37  and  C28_38 
REMARK   12  A    between atoms: N5_39  and  N6_41 
ROOT
HETATM    1  C11 UNL     1       0.519   1.043  -0.437  1.00  0.00     0.203 C 
HETATM    2  N2  UNL     1       1.379   1.208   0.782  1.00  0.00    -0.314 N 
ATOM      3  H2  UNL     1       1.333   0.688   1.658  1.00  0.00     0.166 HD
HETATM    4  C21 UNL     1       2.270   2.253   0.435  1.00  0.00     0.253 C 
HETATM    5  O2  UNL     1       3.407   2.377   0.958  1.00  0.00    -0.271 OA
HETATM    6  C22 UNL     1       1.609   3.097  -0.603  1.00  0.00     0.273 C 
HETATM    7  N4  UNL     1       0.332   2.483  -0.709  1.00  0.00    -0.309 N 
ENDROOT
BRANCH   1   8
HETATM    8  N1  UNL     1      -0.706   0.437  -0.074  1.00  0.00    -0.316 N 
HETATM    9  C10 UNL     1      -1.020  -0.701   0.672  1.00  0.00     0.221 C 
HETATM   10  O1  UNL     1      -0.145  -1.415   1.199  1.00  0.00    -0.273 OA
ATOM     11  H1  UNL     1      -1.525   0.930  -0.428  1.00  0.00     0.166 HD
BRANCH   9  12
HETATM   12  C9  UNL     1      -2.437  -1.146   0.891  1.00  0.00     0.107 C 
BRANCH  12  13
HETATM   13  C8  UNL     1      -2.443  -2.386   1.737  1.00  0.00     0.048 C 
BRANCH  13  14
HETATM   14  C7  UNL     1      -3.810  -2.876   1.993  1.00  0.00    -0.050 A 
HETATM   15  C2  UNL     1      -4.570  -3.546   1.070  1.00  0.00    -0.056 A 
HETATM   16  C1  UNL     1      -4.052  -3.831  -0.290  1.00  0.00     0.049 C 
HETATM   17  C3  UNL     1      -5.862  -3.992   1.358  1.00  0.00     0.009 A 
HETATM   18  C4  UNL     1      -6.412  -3.765   2.598  1.00  0.00     0.024 A 
HETATM   19  C5  UNL     1      -5.646  -3.091   3.526  1.00  0.00     0.034 A 
HETATM   20 CL1  UNL     1      -6.340  -2.793   5.119  1.00  0.00    -0.084 Cl
HETATM   21  C6  UNL     1      -4.371  -2.650   3.244  1.00  0.00     0.031 A 
ENDBRANCH  13  14
ENDBRANCH  12  13
ENDBRANCH   9  12
ENDBRANCH   1   8
BRANCH   1  22
HETATM   22  C12 UNL     1       1.375   0.396  -1.426  1.00  0.00     0.173 C 
BRANCH  22  23
HETATM   23  C13 UNL     1       1.895  -0.904  -1.143  1.00  0.00    -0.086 C 
HETATM   24  C14 UNL     1       2.382  -2.012  -0.941  1.00  0.00    -0.015 C 
BRANCH  24  25
HETATM   25  C15 UNL     1       2.921  -3.298  -0.713  1.00  0.00    -0.014 C 
HETATM   26  C16 UNL     1       3.358  -4.391  -0.527  1.00  0.00    -0.084 C 
BRANCH  26  27
HETATM   27  C17 UNL     1       3.873  -5.745  -0.296  1.00  0.00     0.013 C 
HETATM   28  C18 UNL     1       3.339  -6.677  -1.368  1.00  0.00     0.028 C 
HETATM   29  C19 UNL     1       3.395  -6.236   1.046  1.00  0.00     0.028 C 
HETATM   30  C20 UNL     1       5.388  -5.729  -0.295  1.00  0.00     0.028 C 
ENDBRANCH  26  27
ENDBRANCH  24  25
ENDBRANCH  22  23
ENDBRANCH   1  22
BRANCH   7  31
HETATM   31  C28 UNL     1      -0.907   3.040  -0.996  1.00  0.00     0.199 C 
HETATM   32  N5  UNL     1      -1.619   3.592  -0.077  1.00  0.00    -0.303 N 
ATOM     33  H5  UNL     1      -1.270   3.623   0.881  1.00  0.00     0.187 HD
BRANCH  32  34
HETATM   34  N6  UNL     1      -2.875   4.154  -0.379  1.00  0.00    -0.344 N 
ATOM     35  H62 UNL     1      -3.209   4.115  -1.342  1.00  0.00     0.176 HD
ATOM     36  H61 UNL     1      -3.439   4.592   0.349  1.00  0.00     0.176 HD
ENDBRANCH  32  34
ENDBRANCH   7  31
BRANCH   6  37
HETATM   37  C23 UNL     1       1.615   4.515  -0.223  1.00  0.00     0.252 C 
HETATM   38  O3  UNL     1       1.939   4.785   0.981  1.00  0.00    -0.270 OA
HETATM   39  N3  UNL     1       1.299   5.599  -1.062  1.00  0.00    -0.350 N 
HETATM   40  C24 UNL     1       0.952   5.353  -2.445  1.00  0.00     0.153 C 
BRANCH  39  41
HETATM   41  C25 UNL     1       1.313   6.955  -0.575  1.00  0.00     0.078 C 
HETATM   42  C26 UNL     1      -0.079   7.576  -0.623  1.00  0.00     0.032 C 
HETATM   43  C27 UNL     1       2.235   7.843  -1.368  1.00  0.00     0.032 C 
ENDBRANCH  39  41
ENDBRANCH   6  37
TORSDOF 12
