REMARK  9 active torsions:
REMARK  status: ('A' for Active; 'I' for Inactive)
REMARK    1  A    between atoms: C2_2  and  N1_4 
REMARK       I    between atoms: N1_4  and  C4_6 
REMARK    2  A    between atoms: C4_6  and  C5_8 
REMARK    3  A    between atoms: C5_8  and  C6_9 
REMARK    4  A    between atoms: C5_8  and  N2_18 
REMARK    5  A    between atoms: C6_9  and  C7_10 
REMARK    6  A    between atoms: C7_10  and  C8_11 
REMARK       I    between atoms: N2_18  and  C14_20 
REMARK       I    between atoms: C14_20  and  N3_22 
REMARK    7  A    between atoms: N3_22  and  C15_24 
REMARK    8  A    between atoms: C15_24  and  C16_26 
REMARK    9  A    between atoms: C16_26  and  N4_27 
ROOT
HETATM    1  N2  UNL     1      -1.206  -0.118  -2.925  1.00  0.00    -0.330 N 
ATOM      2  H2  UNL     1      -1.086  -0.202  -3.934  1.00  0.00     0.165 HD
HETATM    3  C14 UNL     1      -0.159   0.454  -2.106  1.00  0.00     0.321 C 
HETATM    4  O2  UNL     1      -0.328   0.549  -0.878  1.00  0.00    -0.247 OA
HETATM    5  N3  UNL     1       0.990   0.864  -2.801  1.00  0.00    -0.301 N 
ATOM      6  H3  UNL     1       0.989   0.735  -3.813  1.00  0.00     0.171 HD
ENDROOT
BRANCH   1   7
HETATM    7  C5  UNL     1      -2.397  -0.559  -2.305  1.00  0.00     0.178 C 
BRANCH   7   8
HETATM    8  C4  UNL     1      -2.085  -1.779  -1.476  1.00  0.00     0.240 C 
HETATM    9  N1  UNL     1      -3.120  -2.415  -0.764  1.00  0.00    -0.355 N 
ATOM     10  H1  UNL     1      -4.073  -2.054  -0.806  1.00  0.00     0.162 HD
HETATM   11  O1  UNL     1      -0.908  -2.219  -1.429  1.00  0.00    -0.271 OA
BRANCH   9  12
HETATM   12  C2  UNL     1      -2.814  -3.595   0.033  1.00  0.00     0.076 C 
HETATM   13  C1  UNL     1      -3.270  -3.295   1.449  1.00  0.00     0.032 C 
HETATM   14  C3  UNL     1      -3.602  -4.784  -0.514  1.00  0.00     0.032 C 
ENDBRANCH   9  12
ENDBRANCH   7   8
BRANCH   7  15
HETATM   15  C6  UNL     1      -3.120   0.405  -1.426  1.00  0.00     0.039 C 
BRANCH  15  16
HETATM   16  C7  UNL     1      -3.510   1.701  -2.069  1.00  0.00     0.041 C 
BRANCH  16  17
HETATM   17  C8  UNL     1      -4.208   2.493  -0.990  1.00  0.00    -0.058 A 
HETATM   18  C9  UNL     1      -3.497   3.337  -0.165  1.00  0.00     0.008 A 
HETATM   19  C10 UNL     1      -4.146   4.038   0.803  1.00  0.00     0.019 A 
HETATM   20  C11 UNL     1      -5.503   3.962   1.022  1.00  0.00     0.011 A 
HETATM   21 BR1  UNL     1      -6.368   4.970   2.398  1.00  0.00    -0.051 Br
HETATM   22  C12 UNL     1      -6.206   3.109   0.185  1.00  0.00     0.019 A 
HETATM   23  C13 UNL     1      -5.563   2.392  -0.800  1.00  0.00     0.008 A 
ENDBRANCH  16  17
ENDBRANCH  15  16
ENDBRANCH   7  15
ENDBRANCH   1   7
BRANCH   5  24
HETATM   24  C15 UNL     1       2.132   1.431  -2.238  1.00  0.00     0.107 C 
HETATM   25  S1  UNL     1       3.396   1.872  -3.259  1.00  0.00    -0.063 SA
BRANCH  24  26
HETATM   26  C16 UNL     1       2.348   1.645  -0.804  1.00  0.00     0.306 C 
BRANCH  26  27
HETATM   27  N4  UNL     1       3.121   0.524  -0.274  1.00  0.00    -0.062 N 
HETATM   28  C17 UNL     1       3.001  -0.678  -1.040  1.00  0.00     0.273 C 
HETATM   29  C18 UNL     1       4.506   0.967  -0.208  1.00  0.00     0.265 C 
HETATM   30  C19 UNL     1       5.394   0.009   0.512  1.00  0.00     0.264 C 
HETATM   31  N5  UNL     1       4.898  -0.360   1.800  1.00  0.00    -0.071 N 
HETATM   32  C20 UNL     1       5.085   0.692   2.787  1.00  0.00     0.272 C 
HETATM   33  C21 UNL     1       5.667  -1.527   2.244  1.00  0.00     0.272 C 
HETATM   34  C22 UNL     1       3.517  -0.735   1.805  1.00  0.00     0.264 C 
HETATM   35  C23 UNL     1       2.670   0.297   1.086  1.00  0.00     0.265 C 
ENDBRANCH  26  27
ENDBRANCH  24  26
ENDBRANCH   5  24
TORSDOF 9
