REMARK  2 active torsions:
REMARK  status: ('A' for Active; 'I' for Inactive)
REMARK    1  A    between atoms: C2_2  and  C3_3 
REMARK    2  A    between atoms: C5_5  and  O1_6 
ROOT
HETATM    1  C3  UNL     1      -0.954   0.515  -0.468  1.00  0.00     0.049 C 
HETATM    2  C4  UNL     1      -0.321  -0.829  -0.566  1.00  0.00     0.046 C 
HETATM    3  C5  UNL     1       0.601  -1.175   0.552  1.00  0.00     0.120 C 
HETATM    4  C6  UNL     1       1.934  -0.483   0.483  1.00  0.00     0.046 C 
HETATM    5  C7  UNL     1       1.856   1.003   0.464  1.00  0.00     0.046 C 
HETATM    6  C8  UNL     1       2.682   1.502  -0.717  1.00  0.00     0.021 C 
HETATM    7  S1  UNL     1       0.197   1.663   0.287  1.00  0.00    -0.160 SA
ENDROOT
BRANCH   1   8
HETATM    8  C2  UNL     1      -2.267   0.493   0.281  1.00  0.00     0.011 C 
HETATM    9  C1  UNL     1      -3.248  -0.424  -0.427  1.00  0.00     0.006 C 
ENDBRANCH   1   8
BRANCH   3  10
HETATM   10  O1  UNL     1       0.069  -0.977   1.808  1.00  0.00    -0.396 OA
ATOM     11  H1  UNL     1       0.657  -1.198   2.521  1.00  0.00     0.210 HD
ENDBRANCH   3  10
TORSDOF 2
