REMARK  0 active torsions:
REMARK  status: ('A' for Active; 'I' for Inactive)
ROOT
HETATM    1  C1  UNL     1      -0.954  -1.354  -0.001  1.00  0.00     0.152 C 
HETATM    2  N1  UNL     1      -1.793  -0.369  -0.576  1.00  0.00    -0.362 N 
ATOM      3  H1  UNL     1      -2.415  -0.575  -1.358  1.00  0.00     0.167 HD
HETATM    4  S1  UNL     1      -1.695   1.208   0.134  1.00  0.00    -0.043 SA
HETATM    5  C2  UNL     1      -0.069   1.920  -0.323  1.00  0.00     0.219 C 
HETATM    6  N2  UNL     1       0.965   1.280   0.423  1.00  0.00    -0.163 NA
HETATM    7  C3  UNL     1       0.515   0.177   1.235  1.00  0.00     0.148 C 
HETATM    8  C4  UNL     1       0.457  -0.948   0.239  1.00  0.00     0.142 C 
HETATM    9  N3  UNL     1       1.141  -0.434  -0.901  1.00  0.00    -0.071 NA
HETATM   10  O1  UNL     1       1.803   0.673  -0.440  1.00  0.00    -0.189 OA
ENDROOT
TORSDOF 0
