REMARK  3 active torsions:
REMARK  status: ('A' for Active; 'I' for Inactive)
REMARK    1  A    between atoms: C2_2  and  C3_3 
REMARK    2  A    between atoms: C2_2  and  C11_11 
REMARK    3  A    between atoms: C4_4  and  C5_5 
REMARK       I    between atoms: C11_11  and  N1_13 
ROOT
HETATM    1  C11 UNL     1       1.075   0.654  -0.583  1.00  0.00     0.265 C 
HETATM    2  O1  UNL     1       0.753  -0.283  -1.353  1.00  0.00    -0.267 OA
HETATM    3  N1  UNL     1       2.439   1.039  -0.468  1.00  0.00    -0.299 N 
ATOM      4  H1  UNL     1       2.662   2.032  -0.530  1.00  0.00     0.171 HD
HETATM    5  C12 UNL     1       3.399   0.223  -0.293  1.00  0.00     0.205 C 
HETATM    6  N2  UNL     1       3.401  -1.177  -0.171  1.00  0.00    -0.346 N 
ATOM      7  H2  UNL     1       2.593  -1.738  -0.440  1.00  0.00     0.167 HD
HETATM    8  C13 UNL     1       4.561  -1.761   0.335  1.00  0.00     0.078 C 
HETATM    9  C14 UNL     1       5.756  -0.915   0.137  1.00  0.00     0.193 C 
HETATM   10  S1  UNL     1       5.083   0.708  -0.152  1.00  0.00     0.211 S 
HETATM   11  O2  UNL     1       5.594   1.290  -1.427  1.00  0.00    -0.219 OA
HETATM   12  O3  UNL     1       5.306   1.616   1.001  1.00  0.00    -0.219 OA
ENDROOT
BRANCH   1  13
HETATM   13  C2  UNL     1       0.017   1.312   0.168  1.00  0.00     0.076 C 
HETATM   14  C1  UNL     1       0.363   2.299   0.978  1.00  0.00     0.039 C 
BRANCH  13  15
HETATM   15  C3  UNL     1      -1.350   0.911   0.039  1.00  0.00    -0.057 C 
HETATM   16  C4  UNL     1      -2.503   0.572  -0.070  1.00  0.00    -0.061 C 
BRANCH  16  17
HETATM   17  C5  UNL     1      -3.879   0.160  -0.184  1.00  0.00     0.018 A 
HETATM   18  C6  UNL     1      -4.712   0.819  -1.070  1.00  0.00     0.020 A 
HETATM   19  C7  UNL     1      -6.026   0.400  -1.155  1.00  0.00     0.001 A 
HETATM   20  C8  UNL     1      -6.509  -0.637  -0.392  1.00  0.00     0.000 A 
HETATM   21  C9  UNL     1      -5.686  -1.299   0.495  1.00  0.00     0.001 A 
HETATM   22  C10 UNL     1      -4.370  -0.891   0.591  1.00  0.00     0.020 A 
ENDBRANCH  16  17
ENDBRANCH  13  15
ENDBRANCH   1  13
TORSDOF 3
