REMARK  6 active torsions:
REMARK  status: ('A' for Active; 'I' for Inactive)
REMARK    1  A    between atoms: C1_4  and  N2_5 
REMARK    2  A    between atoms: C1_4  and  O1_12 
REMARK    3  A    between atoms: N2_5  and  C2_7 
REMARK    4  A    between atoms: O1_12  and  C7_13 
REMARK    5  A    between atoms: C7_13  and  C8_14 
REMARK    6  A    between atoms: C8_14  and  N3_15 
ROOT
HETATM    1  N1  UNL     1       1.458   0.009  -1.819  1.00  0.00    -0.365 N 
ATOM      2  H11 UNL     1       2.332   0.527  -1.908  1.00  0.00     0.159 HD
ATOM      3  H12 UNL     1       1.012  -0.456  -2.609  1.00  0.00     0.159 HD
HETATM    4  C1  UNL     1       0.852  -0.093  -0.685  1.00  0.00     0.212 C 
ENDROOT
BRANCH   4   5
HETATM    5  N2  UNL     1      -0.372  -0.818  -0.561  1.00  0.00    -0.352 N 
ATOM      6  H2  UNL     1      -0.466  -1.693  -1.077  1.00  0.00     0.163 HD
BRANCH   5   7
HETATM    7  C2  UNL     1      -1.470  -0.391   0.242  1.00  0.00     0.085 C 
HETATM    8  C3  UNL     1      -2.005   0.978  -0.202  1.00  0.00     0.025 C 
HETATM    9  C4  UNL     1      -3.423   0.913   0.311  1.00  0.00     0.002 C 
HETATM   10  C5  UNL     1      -3.853  -0.462  -0.216  1.00  0.00     0.002 C 
HETATM   11  C6  UNL     1      -2.639  -1.291   0.026  1.00  0.00     0.025 C 
ENDBRANCH   5   7
ENDBRANCH   4   5
BRANCH   4  12
HETATM   12  O1  UNL     1       1.458   0.539   0.388  1.00  0.00    -0.321 OA
BRANCH  12  13
HETATM   13  C7  UNL     1       2.808   0.880   0.464  1.00  0.00     0.206 C 
BRANCH  13  14
HETATM   14  C8  UNL     1       3.728  -0.316   0.356  1.00  0.00     0.256 C 
BRANCH  14  15
HETATM   15  N3  UNL     1       5.118   0.065   0.437  1.00  0.00    -0.077 N 
ATOM     16  H33 UNL     1       5.349   0.775  -0.258  1.00  0.00     0.274 HD
ATOM     17  H32 UNL     1       5.306   0.602   1.283  1.00  0.00     0.274 HD
ATOM     18  H31 UNL     1       5.738  -0.741   0.364  1.00  0.00     0.274 HD
ENDBRANCH  14  15
ENDBRANCH  13  14
ENDBRANCH  12  13
ENDBRANCH   4  12
TORSDOF 6
