REMARK  8 active torsions:
REMARK  status: ('A' for Active; 'I' for Inactive)
REMARK    1  A    between atoms: C3_3  and  C4_4 
REMARK    2  A    between atoms: C4_4  and  O1_5 
REMARK    3  A    between atoms: C9_11  and  C10_12 
REMARK    4  A    between atoms: C11_18  and  C12_19 
REMARK    5  A    between atoms: C12_19  and  O2_20 
REMARK    6  A    between atoms: C12_19  and  C13_22 
REMARK    7  A    between atoms: C12_19  and  C15_26 
REMARK    8  A    between atoms: C13_22  and  C14_23 
ROOT
HETATM    1  C1  UNL     1      -3.183  -1.999   1.717  1.00  0.00     0.051 C 
HETATM    2  C2  UNL     1      -1.913  -1.672   1.044  1.00  0.00    -0.027 A 
HETATM    3  C3  UNL     1      -1.739  -0.726   0.073  1.00  0.00     0.051 A 
HETATM    4  N1  UNL     1      -0.543  -0.491  -0.492  1.00  0.00    -0.355 N 
ATOM      5  H1  UNL     1      -0.491   0.231  -1.211  1.00  0.00     0.166 HD
HETATM    6  C11 UNL     1       0.612  -1.155  -0.169  1.00  0.00     0.084 A 
HETATM    7  C21 UNL     1       0.454  -2.106   0.800  1.00  0.00     0.148 A 
HETATM    8  F4  UNL     1       1.494  -2.868   1.154  1.00  0.00    -0.203 F 
HETATM    9  C22 UNL     1      -0.757  -2.377   1.405  1.00  0.00    -0.013 A 
HETATM   10  C23 UNL     1      -0.888  -3.414   2.455  1.00  0.00     0.052 C 
ENDROOT
BRANCH   6  11
HETATM   11  C12 UNL     1       1.914  -0.830  -0.755  1.00  0.00     0.114 C 
BRANCH  11  12
HETATM   12  O2  UNL     1       1.561   0.146  -1.775  1.00  0.00    -0.383 OA
ATOM     13  H2  UNL     1       2.406   0.357  -2.155  1.00  0.00     0.211 HD
ENDBRANCH  11  12
BRANCH  11  14
HETATM   14  C13 UNL     1       2.500  -1.936  -1.593  1.00  0.00     0.144 C 
BRANCH  14  15
HETATM   15  C14 UNL     1       3.819  -1.628  -2.189  1.00  0.00     0.234 C 
HETATM   16  N2  UNL     1       3.995  -1.109  -3.505  1.00  0.00    -0.062 NA
HETATM   17  O3  UNL     1       4.877  -1.818  -1.532  1.00  0.00    -0.277 OA
ENDBRANCH  14  15
ENDBRANCH  11  14
BRANCH  11  18
HETATM   18  C15 UNL     1       2.869  -0.017   0.013  1.00  0.00     0.027 C 
HETATM   19  C16 UNL     1       3.445  -0.364   1.298  1.00  0.00     0.008 C 
HETATM   20  C17 UNL     1       4.085   0.884   1.941  1.00  0.00     0.000 C 
HETATM   21  C18 UNL     1       4.638   1.751   0.864  1.00  0.00     0.000 C 
HETATM   22  C19 UNL     1       3.487   2.401   0.139  1.00  0.00     0.000 C 
HETATM   23  C20 UNL     1       2.306   1.412   0.149  1.00  0.00     0.008 C 
ENDBRANCH  11  18
ENDBRANCH   6  11
BRANCH   3  24
HETATM   24  C4  UNL     1      -2.866   0.101  -0.401  1.00  0.00     0.112 C 
HETATM   25  C5  UNL     1      -2.450   0.908  -1.636  1.00  0.00     0.045 C 
HETATM   26  C6  UNL     1      -3.636   1.526  -2.247  1.00  0.00     0.003 C 
HETATM   27  C7  UNL     1      -4.642   2.139  -1.341  1.00  0.00     0.001 C 
HETATM   28  C8  UNL     1      -4.780   1.519  -0.008  1.00  0.00     0.017 C 
HETATM   29  C9  UNL     1      -3.471   1.022   0.581  1.00  0.00     0.134 C 
BRANCH  24  30
HETATM   30  O1  UNL     1      -3.908  -0.700  -0.941  1.00  0.00    -0.383 OA
ATOM     31  H1  UNL     1      -4.633  -0.168  -1.246  1.00  0.00     0.211 HD
ENDBRANCH  24  30
BRANCH  29  32
HETATM   32  C10 UNL     1      -2.626   2.163   1.065  1.00  0.00     0.394 C 
HETATM   33  F1  UNL     1      -3.414   2.878   1.996  1.00  0.00    -0.171 F 
HETATM   34  F2  UNL     1      -2.353   3.119   0.100  1.00  0.00    -0.171 F 
HETATM   35  F3  UNL     1      -1.516   1.751   1.747  1.00  0.00    -0.171 F 
ENDBRANCH  29  32
ENDBRANCH   3  24
TORSDOF 8
