REMARK  13 active torsions:
REMARK  status: ('A' for Active; 'I' for Inactive)
REMARK    1  A    between atoms: C2_2  and  C3_3 
REMARK    2  A    between atoms: C7_7  and  C8_8 
REMARK    3  A    between atoms: C8_8  and  O1_9 
REMARK    4  A    between atoms: C8_8  and  C9_11 
REMARK    5  A    between atoms: C9_11  and  N1_12 
REMARK    6  A    between atoms: N1_12  and  N2_13 
REMARK    7  A    between atoms: N1_12  and  C10_16 
REMARK    8  A    between atoms: C10_16  and  C11_17 
REMARK    9  A    between atoms: C11_17  and  N3_18 
REMARK   10  A    between atoms: N3_18  and  O2_19 
REMARK   11  A    between atoms: N3_18  and  C12_21 
REMARK   12  A    between atoms: C12_21  and  C13_22 
REMARK   13  A    between atoms: C13_22  and  N4_23 
ROOT
HETATM    1  N1  UNL     1       0.814   0.322   0.394  1.00  0.00    -0.289 N 
ENDROOT
BRANCH   1   2
HETATM    2  C9  UNL     1      -0.378   0.681  -0.173  1.00  0.00     0.124 C 
BRANCH   2   3
HETATM    3  C8  UNL     1      -1.598  -0.181   0.007  1.00  0.00     0.193 C 
BRANCH   3   4
HETATM    4  C7  UNL     1      -2.809   0.594  -0.350  1.00  0.00     0.000 A 
HETATM    5  C6  UNL     1      -2.772   1.806  -1.002  1.00  0.00     0.012 A 
HETATM    6  C5  UNL     1      -3.910   2.547  -1.295  1.00  0.00     0.001 A 
HETATM    7  C4  UNL     1      -5.137   2.067  -0.926  1.00  0.00     0.009 A 
HETATM    8  C3  UNL     1      -5.220   0.847  -0.267  1.00  0.00    -0.034 A 
HETATM    9  C16 UNL     1      -4.062   0.114   0.020  1.00  0.00     0.061 A 
HETATM   10  N7  UNL     1      -4.160  -1.129   0.702  1.00  0.00    -0.101 NA
BRANCH   8  11
HETATM   11  C2  UNL     1      -6.518   0.287   0.164  1.00  0.00     0.036 C 
HETATM   12  C1  UNL     1      -6.952  -0.785  -0.793  1.00  0.00     0.010 C 
ENDBRANCH   8  11
ENDBRANCH   3   4
BRANCH   3  13
HETATM   13  O1  UNL     1      -1.481  -1.415  -0.547  1.00  0.00    -0.386 OA
ATOM     14  H1  UNL     1      -0.704  -1.912  -0.318  1.00  0.00     0.210 HD
ENDBRANCH   3  13
ENDBRANCH   2   3
ENDBRANCH   1   2
BRANCH   1  15
HETATM   15  N2  UNL     1       0.869   0.660   1.774  1.00  0.00    -0.340 N 
ATOM     16  H22 UNL     1       0.228   1.413   2.023  1.00  0.00     0.177 HD
ATOM     17  H21 UNL     1       1.758   0.392   2.197  1.00  0.00     0.177 HD
ENDBRANCH   1  15
BRANCH   1  18
HETATM   18  C10 UNL     1       1.685  -0.701   0.056  1.00  0.00     0.104 C 
BRANCH  18  19
HETATM   19  C11 UNL     1       2.387  -0.541  -1.278  1.00  0.00     0.167 C 
BRANCH  19  20
HETATM   20  N3  UNL     1       3.419  -1.528  -1.509  1.00  0.00    -0.193 NA
BRANCH  20  21
HETATM   21  O2  UNL     1       3.013  -2.794  -1.420  1.00  0.00    -0.313 OA
ATOM     22  H2  UNL     1       3.691  -3.442  -1.572  1.00  0.00     0.237 HD
ENDBRANCH  20  21
BRANCH  20  23
HETATM   23  C12 UNL     1       4.520  -1.232  -0.608  1.00  0.00     0.141 C 
BRANCH  23  24
HETATM   24  C13 UNL     1       5.242   0.039  -0.985  1.00  0.00     0.147 C 
BRANCH  24  25
HETATM   25  N4  UNL     1       6.281   0.300  -0.007  1.00  0.00    -0.336 N 
HETATM   26  C14 UNL     1       6.056   1.008   1.119  1.00  0.00     0.200 A 
HETATM   27  N5  UNL     1       7.204   1.108   1.800  1.00  0.00    -0.295 N 
HETATM   28  N6  UNL     1       8.163   0.474   1.126  1.00  0.00    -0.295 N 
ATOM     29  H5  UNL     1       7.325   1.591   2.690  1.00  0.00     0.187 HD
HETATM   30  C15 UNL     1       7.561  -0.023  -0.001  1.00  0.00     0.200 A 
ATOM     31  H6  UNL     1       9.143   0.378   1.393  1.00  0.00     0.187 HD
ENDBRANCH  24  25
ENDBRANCH  23  24
ENDBRANCH  20  23
ENDBRANCH  19  20
ENDBRANCH  18  19
ENDBRANCH   1  18
TORSDOF 13
