REMARK  14 active torsions:
REMARK  status: ('A' for Active; 'I' for Inactive)
REMARK    1  A    between atoms: C2_2  and  O1_3 
REMARK    2  A    between atoms: C2_2  and  O2_5 
REMARK    3  A    between atoms: C2_2  and  C3_7 
REMARK    4  A    between atoms: N3_14  and  N4_15 
REMARK    5  A    between atoms: N4_15  and  N5_16 
REMARK    6  A    between atoms: N6_19  and  C6_20 
REMARK    7  A    between atoms: C6_20  and  C7_21 
REMARK    8  A    between atoms: C9_26  and  C10_27 
REMARK    9  A    between atoms: C10_27  and  O3_28 
REMARK   10  A    between atoms: C10_27  and  C11_30 
REMARK   11  A    between atoms: C10_27  and  C12_33 
REMARK   12  A    between atoms: C11_30  and  O4_31 
REMARK       I    between atoms: C12_33  and  N8_35 
REMARK   13  A    between atoms: N8_35  and  C13_37 
REMARK   14  A    between atoms: C13_37  and  C14_38 
ROOT
HETATM    1  C6  UNL     1      -2.264   1.146   2.320  1.00  0.00     0.251 C 
ENDROOT
BRANCH   1   2
HETATM    2  N6  UNL     1      -3.216   0.707   1.323  1.00  0.00    -0.191 N 
HETATM    3  N3  UNL     1      -3.079   1.239   0.045  1.00  0.00    -0.144 N 
HETATM    4  C5  UNL     1      -3.928   0.938  -1.054  1.00  0.00     0.165 C 
HETATM    5  C4  UNL     1      -5.227   0.228  -1.079  1.00  0.00     0.122 C 
HETATM    6  N2  UNL     1      -3.548   1.322  -2.219  1.00  0.00    -0.381 N 
HETATM    7  C3  UNL     1      -5.731  -0.458  -0.080  1.00  0.00     0.116 C 
HETATM    8  N1  UNL     1      -5.946   0.324  -2.292  1.00  0.00    -0.096 NA
HETATM    9  N12 UNL     1      -5.195  -0.694   1.221  1.00  0.00    -0.282 N 
HETATM   10  N11 UNL     1      -4.171  -0.216   1.786  1.00  0.00    -0.224 N 
ATOM     11  H12 UNL     1      -5.725  -1.357   1.787  1.00  0.00     0.188 HD
ATOM     12  H11 UNL     1      -4.010  -0.555   2.734  1.00  0.00     0.210 HD
ATOM     13  H22 UNL     1      -4.157   1.106  -3.008  1.00  0.00     0.157 HD
ATOM     14  H21 UNL     1      -2.653   1.811  -2.202  1.00  0.00     0.157 HD
BRANCH   3  15
HETATM   15  N4  UNL     1      -2.031   2.138  -0.187  1.00  0.00    -0.003 NA
BRANCH  15  16
HETATM   16  N5  UNL     1      -1.910   2.405  -1.537  1.00  0.00    -0.327 N 
ATOM     17  H52 UNL     1      -2.509   1.996  -2.254  1.00  0.00     0.174 HD
ATOM     18  H51 UNL     1      -1.147   3.060  -1.706  1.00  0.00     0.174 HD
ENDBRANCH  15  16
ENDBRANCH   3  15
BRANCH   7  19
HETATM   19  C2  UNL     1      -7.048  -1.099  -0.296  1.00  0.00     0.203 C 
HETATM   20  C1  UNL     1      -6.893  -2.618  -0.129  1.00  0.00     0.086 C 
BRANCH  19  21
HETATM   21  O1  UNL     1      -7.988  -0.633   0.659  1.00  0.00    -0.361 OA
ATOM     22  H1  UNL     1      -8.084   0.306   0.556  1.00  0.00     0.213 HD
ENDBRANCH  19  21
BRANCH  19  23
HETATM   23  O2  UNL     1      -7.620  -0.866  -1.525  1.00  0.00    -0.361 OA
ATOM     24  H2  UNL     1      -7.716   0.073  -1.628  1.00  0.00     0.213 HD
ENDBRANCH  19  23
ENDBRANCH   7  19
ENDBRANCH   1   2
BRANCH   1  25
HETATM   25  C7  UNL     1      -0.855   0.824   1.973  1.00  0.00     0.120 A 
HETATM   26  N7  UNL     1       0.156   1.710   2.018  1.00  0.00    -0.322 N 
HETATM   27  C8  UNL     1       1.274   1.016   1.627  1.00  0.00     0.171 A 
ATOM     28  H7  UNL     1       0.103   2.693   2.287  1.00  0.00     0.169 HD
HETATM   29  S1  UNL     1       2.954   1.093   1.335  1.00  0.00    -0.051 SA
HETATM   30  N9  UNL     1       0.978  -0.248   1.350  1.00  0.00    -0.242 N 
HETATM   31  C9  UNL     1       3.204  -0.526   0.863  1.00  0.00     0.049 A 
HETATM   32  C15 UNL     1       1.941  -1.049   0.961  1.00  0.00     0.137 A 
HETATM   33  N10 UNL     1      -0.359  -0.333   1.577  1.00  0.00    -0.279 N 
ATOM     34  H10 UNL     1      -0.909  -1.183   1.457  1.00  0.00     0.189 HD
BRANCH  31  35
HETATM   35  C10 UNL     1       4.468  -1.230   0.443  1.00  0.00     0.194 C 
BRANCH  35  36
HETATM   36  O3  UNL     1       5.232  -1.388   1.608  1.00  0.00    -0.373 OA
ATOM     37  H3  UNL     1       6.029  -1.832   1.343  1.00  0.00     0.211 HD
ENDBRANCH  35  36
BRANCH  35  38
HETATM   38  C11 UNL     1       4.173  -2.588  -0.105  1.00  0.00     0.217 C 
BRANCH  38  39
HETATM   39  O4  UNL     1       5.356  -3.226  -0.394  1.00  0.00    -0.397 OA
ATOM     40  H4  UNL     1       5.168  -4.090  -0.743  1.00  0.00     0.209 HD
ENDBRANCH  38  39
ENDBRANCH  35  38
BRANCH  35  41
HETATM   41  C12 UNL     1       5.248  -0.423  -0.499  1.00  0.00     0.260 C 
HETATM   42  O5  UNL     1       4.770  -0.138  -1.639  1.00  0.00    -0.270 OA
HETATM   43  N8  UNL     1       6.546   0.077  -0.204  1.00  0.00    -0.357 N 
ATOM     44  H8  UNL     1       6.956  -0.134   0.706  1.00  0.00     0.162 HD
BRANCH  43  45
HETATM   45  C13 UNL     1       7.308   0.872  -1.140  1.00  0.00     0.133 C 
BRANCH  45  46
HETATM   46  C14 UNL     1       8.630   1.229  -0.504  1.00  0.00     0.105 C 
HETATM   47  S2  UNL     1       9.672   2.221  -1.571  1.00  0.00    -0.096 SA
ENDBRANCH  45  46
ENDBRANCH  43  45
ENDBRANCH  35  41
ENDBRANCH  31  35
ENDBRANCH   1  25
TORSDOF 14
