REMARK  3 active torsions:
REMARK  status: ('A' for Active; 'I' for Inactive)
REMARK    1  A    between atoms: C2_2  and  C3_3 
REMARK    2  A    between atoms: C3_3  and  C4_4 
REMARK    3  A    between atoms: N1_10  and  O2_12 
ROOT
HETATM    1  C4  UNL     1       0.233  -0.978   0.950  1.00  0.00     0.135 C 
HETATM    2  O1  UNL     1      -0.862  -1.620   0.327  1.00  0.00    -0.369 OA
HETATM    3  C5  UNL     1      -1.466  -0.727  -0.498  1.00  0.00     0.095 C 
HETATM    4  C6  UNL     1      -1.295  -0.954  -1.954  1.00  0.00     0.052 C 
HETATM    5  C7  UNL     1      -2.956  -0.722  -0.154  1.00  0.00     0.052 C 
HETATM    6  C8  UNL     1      -0.926   0.644  -0.171  1.00  0.00     0.050 C 
HETATM    7  N1  UNL     1      -1.072   1.634  -0.934  1.00  0.00    -0.274 N 
ATOM      8  H1  UNL     1      -1.584   1.446  -1.796  1.00  0.00     0.193 HD
HETATM    9  C9  UNL     1      -0.293   0.394   1.135  1.00  0.00     0.061 C 
HETATM   10  C10 UNL     1       0.620   1.416   1.649  1.00  0.00     0.019 C 
ENDROOT
BRANCH   7  11
HETATM   11  O2  UNL     1      -0.653   2.907  -0.782  1.00  0.00    -0.290 OA
ATOM     12  H2  UNL     1      -0.763   3.654  -1.358  1.00  0.00     0.244 HD
ENDBRANCH   7  11
BRANCH   1  13
HETATM   13  C3  UNL     1       1.394  -1.159   0.048  1.00  0.00     0.059 C 
BRANCH  13  14
HETATM   14  C2  UNL     1       2.665  -0.580   0.474  1.00  0.00    -0.034 C 
HETATM   15  C1  UNL     1       3.334   0.328  -0.211  1.00  0.00     0.007 C 
ENDBRANCH  13  14
ENDBRANCH   1  13
TORSDOF 3
