REMARK  8 active torsions:
REMARK  status: ('A' for Active; 'I' for Inactive)
REMARK       I    between atoms: C1_4  and  N3_6 
REMARK       I    between atoms: N3_6  and  C2_8 
REMARK    1  A    between atoms: C2_8  and  C3_10 
REMARK    2  A    between atoms: C4_11  and  C5_12 
REMARK       I    between atoms: C5_12  and  N4_14 
REMARK    3  A    between atoms: C6_16  and  C7_17 
REMARK    4  A    between atoms: C7_17  and  N5_18 
REMARK    5  A    between atoms: C8_23  and  C9_24 
REMARK    6  A    between atoms: C9_24  and  C10_25 
REMARK    7  A    between atoms: C10_25  and  N7_26 
REMARK    8  A    between atoms: C12_31  and  N8_32 
ROOT
HETATM    1  C3  UNL     1      -0.041  -1.432   0.054  1.00  0.00     0.090 A 
HETATM    2  C4  UNL     1      -0.112  -0.057   0.017  1.00  0.00     0.119 A 
HETATM    3  N6  UNL     1       1.012   0.698  -0.214  1.00  0.00    -0.354 N 
ATOM      4  H6  UNL     1       0.920   1.714  -0.232  1.00  0.00     0.166 HD
HETATM    5  C8  UNL     1       2.209   0.169  -0.415  1.00  0.00     0.013 A 
HETATM    6  C11 UNL     1       2.346  -1.185  -0.392  1.00  0.00     0.055 A 
HETATM    7  C12 UNL     1       1.215  -1.990  -0.156  1.00  0.00     0.045 A 
ENDROOT
BRANCH   1   8
HETATM    8  C2  UNL     1      -1.116  -2.319   0.371  1.00  0.00     0.262 C 
HETATM    9  N3  UNL     1      -1.609  -3.353  -0.470  1.00  0.00    -0.297 N 
HETATM   10  C1  UNL     1      -2.674  -4.179  -0.086  1.00  0.00     0.188 C 
ATOM     11  H3  UNL     1      -1.174  -3.498  -1.381  1.00  0.00     0.171 HD
HETATM   12  N1  UNL     1      -3.092  -5.104  -0.875  1.00  0.00    -0.373 N 
HETATM   13  N2  UNL     1      -3.299  -4.009   1.166  1.00  0.00    -0.064 NA
ATOM     14  H12 UNL     1      -3.867  -5.705  -0.596  1.00  0.00     0.158 HD
ATOM     15  H11 UNL     1      -2.640  -5.227  -1.781  1.00  0.00     0.158 HD
HETATM   16  O1  UNL     1      -1.704  -2.190   1.500  1.00  0.00    -0.267 OA
ENDBRANCH   1   8
BRANCH   2  17
HETATM   17  C5  UNL     1      -1.382   0.613   0.178  1.00  0.00     0.273 C 
HETATM   18  O2  UNL     1      -2.448   0.038   0.356  1.00  0.00    -0.266 OA
HETATM   19  N4  UNL     1      -1.421   2.040   0.130  1.00  0.00    -0.334 N 
HETATM   20  C6  UNL     1      -2.225   2.660  -0.697  1.00  0.00     0.090 C 
ATOM     21  H4  UNL     1      -0.816   2.582   0.747  1.00  0.00     0.168 HD
BRANCH  20  22
HETATM   22  C7  UNL     1      -2.167   4.144  -0.646  1.00  0.00     0.245 C 
BRANCH  22  23
HETATM   23  N5  UNL     1      -2.990   4.564   0.466  1.00  0.00    -0.151 N 
HETATM   24  O3  UNL     1      -2.493   5.209   1.402  1.00  0.00    -0.536 OA
HETATM   25  O4  UNL     1      -4.317   4.235   0.462  1.00  0.00    -0.536 OA
ENDBRANCH  22  23
ENDBRANCH  20  22
ENDBRANCH   2  17
BRANCH   7  26
HETATM   26  N8  UNL     1       1.400  -3.236  -0.116  1.00  0.00    -0.398 N 
ATOM     27  H82 UNL     1       0.581  -3.819   0.055  1.00  0.00     0.156 HD
ATOM     28  H81 UNL     1       2.321  -3.645  -0.270  1.00  0.00     0.156 HD
ENDBRANCH   7  26
BRANCH   5  29
HETATM   29  C9  UNL     1       3.429   0.995  -0.665  1.00  0.00     0.084 C 
BRANCH  29  30
HETATM   30  C10 UNL     1       4.120   1.335   0.638  1.00  0.00     0.235 C 
BRANCH  30  31
HETATM   31  N7  UNL     1       5.286   2.126   0.379  1.00  0.00    -0.079 N 
ATOM     32  H73 UNL     1       5.917   1.673  -0.282  1.00  0.00     0.274 HD
ATOM     33  H72 UNL     1       5.070   2.959  -0.169  1.00  0.00     0.274 HD
ATOM     34  H71 UNL     1       5.752   2.355   1.257  1.00  0.00     0.274 HD
ENDBRANCH  30  31
ENDBRANCH  29  30
ENDBRANCH   5  29
TORSDOF 8
