REMARK  9 active torsions:
REMARK  status: ('A' for Active; 'I' for Inactive)
REMARK    1  A    between atoms: C3_3  and  C4_4 
REMARK       I    between atoms: C4_4  and  N1_6 
REMARK    2  A    between atoms: N1_6  and  N2_8 
REMARK    3  A    between atoms: N3_12  and  O2_13 
REMARK    4  A    between atoms: N4_15  and  C6_16 
REMARK    5  A    between atoms: C6_16  and  C7_17 
REMARK    6  A    between atoms: C7_17  and  C8_18 
REMARK    7  A    between atoms: C8_18  and  N5_19 
REMARK    8  A    between atoms: N5_19  and  C9_21 
REMARK    9  A    between atoms: C11_23  and  C12_24 
ROOT
HETATM    1  C8  UNL     1      -0.561   2.255  -1.128  1.00  0.00     0.064 C 
ENDROOT
BRANCH   1   2
HETATM    2  C7  UNL     1       0.522   1.244  -1.428  1.00  0.00     0.066 C 
BRANCH   2   3
HETATM    3  C6  UNL     1       0.578   0.131  -0.415  1.00  0.00     0.156 C 
BRANCH   3   4
HETATM    4  N4  UNL     1       1.644  -0.784  -0.789  1.00  0.00    -0.270 N 
HETATM    5  C2  UNL     1       2.951  -0.762  -0.437  1.00  0.00     0.044 A 
HETATM    6  C1  UNL     1       3.519   0.270   0.450  1.00  0.00     0.071 C 
HETATM    7  C3  UNL     1       3.634  -1.803  -0.998  1.00  0.00     0.077 A 
HETATM    8  C5  UNL     1       2.653  -2.487  -1.736  1.00  0.00     0.162 A 
HETATM    9  N3  UNL     1       1.505  -1.830  -1.566  1.00  0.00    -0.172 N 
BRANCH   7  10
HETATM   10  C4  UNL     1       5.010  -2.222  -0.957  1.00  0.00     0.273 C 
HETATM   11  O1  UNL     1       5.314  -3.356  -1.473  1.00  0.00    -0.266 OA
HETATM   12  N1  UNL     1       6.087  -1.502  -0.400  1.00  0.00    -0.272 N 
ATOM     13  H1  UNL     1       5.928  -0.589   0.026  1.00  0.00     0.189 HD
BRANCH  12  14
HETATM   14  N2  UNL     1       7.389  -2.053  -0.436  1.00  0.00    -0.342 N 
ATOM     15  H22 UNL     1       7.531  -2.967  -0.866  1.00  0.00     0.176 HD
ATOM     16  H21 UNL     1       8.168  -1.532  -0.033  1.00  0.00     0.176 HD
ENDBRANCH  12  14
ENDBRANCH   7  10
BRANCH   9  17
HETATM   17  O2  UNL     1       0.306  -2.221  -2.151  1.00  0.00    -0.268 OA
ATOM     18  H2  UNL     1      -0.512  -1.753  -2.030  1.00  0.00     0.247 HD
ENDBRANCH   9  17
ENDBRANCH   3   4
ENDBRANCH   2   3
ENDBRANCH   1   2
BRANCH   1  19
HETATM   19  N5  UNL     1      -1.867   1.729  -1.097  1.00  0.00    -0.355 N 
ATOM     20  H5  UNL     1      -2.277   1.589  -2.021  1.00  0.00     0.166 HD
BRANCH  19  21
HETATM   21  C9  UNL     1      -2.624   1.399  -0.151  1.00  0.00     0.122 A 
HETATM   22  C10 UNL     1      -3.889   0.896  -0.378  1.00  0.00     0.082 A 
HETATM   23  C11 UNL     1      -4.731   0.531   0.655  1.00  0.00     0.093 A 
HETATM   24  N8  UNL     1      -4.316   0.665   1.915  1.00  0.00    -0.189 N 
HETATM   25  C13 UNL     1      -3.087   1.153   2.149  1.00  0.00     0.678 A 
ATOM     26  H8  UNL     1      -4.924   0.401   2.690  1.00  0.00     0.184 HD
HETATM   27  N9  UNL     1      -2.702   1.277   3.382  1.00  0.00    -0.234 N 
HETATM   28  N10 UNL     1      -2.247   1.518   1.131  1.00  0.00    -0.177 N 
ATOM     29  H92 UNL     1      -3.328   1.005   4.140  1.00  0.00     0.174 HD
ATOM     30  H91 UNL     1      -1.769   1.648   3.560  1.00  0.00     0.174 HD
ATOM     31  H10 UNL     1      -1.321   1.886   1.351  1.00  0.00     0.185 HD
BRANCH  23  32
HETATM   32  C12 UNL     1      -6.067  -0.001   0.413  1.00  0.00     0.137 C 
HETATM   33  N6  UNL     1      -6.561  -0.172  -0.765  1.00  0.00    -0.386 N 
ATOM     34  H62 UNL     1      -5.961   0.089  -1.547  1.00  0.00     0.157 HD
ATOM     35  H61 UNL     1      -7.495  -0.544  -0.934  1.00  0.00     0.157 HD
HETATM   36  N7  UNL     1      -6.903  -0.365   1.502  1.00  0.00    -0.081 NA
ENDBRANCH  23  32
ENDBRANCH  19  21
ENDBRANCH   1  19
TORSDOF 9
