REMARK  1 active torsions:
REMARK  status: ('A' for Active; 'I' for Inactive)
REMARK    1  A    between atoms: C7_7  and  O1_8 
ROOT
HETATM    1  C1  UNL     1      -1.288   0.777  -0.882  1.00  0.00     0.018 C 
HETATM    2  C2  UNL     1      -0.623   0.296   0.419  1.00  0.00    -0.014 A 
HETATM    3  C3  UNL     1      -1.248  -0.807   1.019  1.00  0.00     0.017 A 
HETATM    4  C4  UNL     1      -0.052  -1.183   0.373  1.00  0.00    -0.003 A 
HETATM    5  C5  UNL     1       0.531  -0.975  -0.958  1.00  0.00     0.008 C 
HETATM    6  C6  UNL     1       1.413   0.252  -0.649  1.00  0.00     0.033 C 
HETATM    7  C7  UNL     1       0.716   0.917   0.559  1.00  0.00     0.126 C 
ENDROOT
BRANCH   7   8
HETATM    8  O1  UNL     1       1.369   0.564   1.728  1.00  0.00    -0.395 OA
ATOM      9  H1  UNL     1       2.227   0.962   1.818  1.00  0.00     0.210 HD
ENDBRANCH   7   8
TORSDOF 1
