REMARK  5 active torsions:
REMARK  status: ('A' for Active; 'I' for Inactive)
REMARK    1  A    between atoms: C2_2  and  C3_3 
REMARK    2  A    between atoms: C3_3  and  N1_4 
REMARK    3  A    between atoms: N1_4  and  C4_6 
REMARK    4  A    between atoms: C4_6  and  N2_8 
REMARK    5  A    between atoms: N2_8  and  C5_10 
ROOT
HETATM    1  N2  UNL     1       0.330   0.296   0.431  1.00  0.00    -0.361 N 
ATOM      2  H2  UNL     1       0.365   1.291   0.651  1.00  0.00     0.162 HD
ENDROOT
BRANCH   1   3
HETATM    3  C4  UNL     1       1.472  -0.347  -0.117  1.00  0.00     0.168 C 
HETATM    4  S1  UNL     1       1.377  -1.946  -0.457  1.00  0.00    -0.041 SA
BRANCH   3   5
HETATM    5  N1  UNL     1       2.656   0.397  -0.357  1.00  0.00    -0.364 N 
ATOM      6  H1  UNL     1       2.694   1.393  -0.139  1.00  0.00     0.162 HD
BRANCH   5   7
HETATM    7  C3  UNL     1       3.803  -0.272  -0.913  1.00  0.00     0.148 C 
BRANCH   7   8
HETATM    8  C2  UNL     1       4.933   0.671  -1.087  1.00  0.00    -0.018 C 
HETATM    9  C1  UNL     1       6.067   0.434  -0.451  1.00  0.00     0.008 C 
ENDBRANCH   7   8
ENDBRANCH   5   7
ENDBRANCH   3   5
ENDBRANCH   1   3
BRANCH   1  10
HETATM   10  C5  UNL     1      -0.871  -0.446   0.676  1.00  0.00     0.116 C 
HETATM   11  C6  UNL     1      -1.455  -1.073  -0.568  1.00  0.00     0.297 C 
HETATM   12  N3  UNL     1      -2.829  -0.696  -0.778  1.00  0.00     0.090 N 
HETATM   13  C7  UNL     1      -2.965   0.733  -0.939  1.00  0.00     0.273 C 
HETATM   14  C11 UNL     1      -3.639  -1.100   0.347  1.00  0.00     0.273 C 
HETATM   15  C8  UNL     1      -2.322   1.461   0.225  1.00  0.00     0.037 C 
HETATM   16  C9  UNL     1      -1.941   0.447   1.270  1.00  0.00     0.013 C 
HETATM   17  C10 UNL     1      -3.114  -0.464   1.616  1.00  0.00     0.037 C 
ENDBRANCH   1  10
TORSDOF 5
