REMARK  1 active torsions:
REMARK  status: ('A' for Active; 'I' for Inactive)
REMARK    1  A    between atoms: N1_8  and  O1_9 
ROOT
HETATM    1  C1  UNL     1       2.492   0.483   0.252  1.00  0.00     0.029 C 
HETATM    2  C2  UNL     1       1.168   0.180  -0.461  1.00  0.00     0.093 C 
HETATM    3  C3  UNL     1       1.185  -1.188  -1.057  1.00  0.00     0.097 C 
HETATM    4  S1  UNL     1      -0.623  -1.445  -1.264  1.00  0.00    -0.140 SA
HETATM    5  C4  UNL     1      -1.085  -0.244   0.049  1.00  0.00     0.079 C 
HETATM    6  C5  UNL     1      -2.039   0.781  -0.456  1.00  0.00     0.046 C 
HETATM    7  C6  UNL     1      -1.697  -1.114   1.156  1.00  0.00     0.046 C 
HETATM    8  N1  UNL     1       0.149   0.254   0.531  1.00  0.00    -0.176 NA
ENDROOT
BRANCH   8   9
HETATM    9  O1  UNL     1       0.072   1.557   0.922  1.00  0.00    -0.311 OA
ATOM     10  H1  UNL     1      -0.608   1.606   1.584  1.00  0.00     0.237 HD
ENDBRANCH   8   9
TORSDOF 1
