REMARK  1 active torsions:
REMARK  status: ('A' for Active; 'I' for Inactive)
REMARK    1  A    between atoms: S2_2  and  C1_3 
ROOT
HETATM    1  C1  UNL     1       0.972  -0.728  -0.489  1.00  0.00     0.091 C 
HETATM    2  C2  UNL     1       0.541   0.455  -1.307  1.00  0.00     0.288 C 
HETATM    3  N1  UNL     1      -0.850   0.747  -0.973  1.00  0.00     0.089 N 
HETATM    4  C3  UNL     1      -0.938   1.347   0.351  1.00  0.00     0.273 C 
HETATM    5  C4  UNL     1      -0.246   0.457   1.349  1.00  0.00     0.036 C 
HETATM    6  C5  UNL     1       0.046  -0.888   0.698  1.00  0.00     0.005 C 
HETATM    7  C6  UNL     1      -1.272  -1.397   0.147  1.00  0.00     0.036 C 
HETATM    8  C7  UNL     1      -1.638  -0.484  -1.012  1.00  0.00     0.273 C 
ENDROOT
BRANCH   1   9
HETATM    9  S2  UNL     1       2.650  -0.601   0.143  1.00  0.00    -0.078 SA
HETATM   10  S1  UNL     1       3.901   0.610  -1.054  1.00  0.00    -0.013 SA
ENDBRANCH   1   9
TORSDOF 1
