REMARK  1 active torsions:
REMARK  status: ('A' for Active; 'I' for Inactive)
REMARK    1  A    between atoms: N1_1  and  C1_5 
ROOT
HETATM    1  C1  UNL     1      -1.656   0.468  -0.455  1.00  0.00     0.188 C 
HETATM    2  C2  UNL     1      -1.955  -0.726   0.436  1.00  0.00     0.033 C 
HETATM    3  C3  UNL     1      -1.022  -1.770  -0.182  1.00  0.00     0.007 C 
HETATM    4  C4  UNL     1       0.179  -0.985  -0.604  1.00  0.00    -0.008 C 
HETATM    5  C5  UNL     1       1.347  -1.223   0.337  1.00  0.00     0.005 C 
HETATM    6  C6  UNL     1       2.446  -0.269  -0.150  1.00  0.00     0.000 C 
HETATM    7  C7  UNL     1       2.025   1.110   0.308  1.00  0.00     0.000 C 
HETATM    8  C8  UNL     1       0.563   1.351   0.241  1.00  0.00     0.007 C 
HETATM    9  C9  UNL     1      -0.191   0.454  -0.674  1.00  0.00     0.020 C 
ENDROOT
BRANCH   1  10
HETATM   10  N1  UNL     1      -2.190   1.694   0.052  1.00  0.00    -0.075 N 
ATOM     11  H13 UNL     1      -3.192   1.611   0.224  1.00  0.00     0.274 HD
ATOM     12  H12 UNL     1      -1.870   1.863   1.006  1.00  0.00     0.274 HD
ATOM     13  H11 UNL     1      -1.989   2.495  -0.546  1.00  0.00     0.274 HD
ENDBRANCH   1  10
TORSDOF 1
