REMARK  0 active torsions:
REMARK  status: ('A' for Active; 'I' for Inactive)
ROOT
HETATM    1  C1  UNL     1      -2.102   0.832   0.125  1.00  0.00     0.000 C 
HETATM    2  C2  UNL     1      -2.174  -0.657   0.165  1.00  0.00     0.000 C 
HETATM    3  C3  UNL     1      -0.968  -1.315  -0.501  1.00  0.00     0.005 C 
HETATM    4  C4  UNL     1       0.228  -0.764   0.191  1.00  0.00    -0.010 C 
HETATM    5  C5  UNL     1       1.536  -1.283  -0.234  1.00  0.00     0.005 C 
HETATM    6  C6  UNL     1       2.503  -0.121  -0.185  1.00  0.00     0.001 C 
HETATM    7  C7  UNL     1       1.685   1.118   0.084  1.00  0.00     0.005 C 
HETATM    8  C8  UNL     1       0.302   0.712  -0.226  1.00  0.00    -0.010 C 
HETATM    9  C9  UNL     1      -0.767   1.384   0.576  1.00  0.00     0.005 C 
ENDROOT
TORSDOF 0
