REMARK  9 active torsions:
REMARK  status: ('A' for Active; 'I' for Inactive)
REMARK       I    between atoms: C2_2  and  N1_4 
REMARK    1  A    between atoms: N1_4  and  C3_6 
REMARK    2  A    between atoms: C3_6  and  C4_7 
REMARK    3  A    between atoms: C3_6  and  C10_18 
REMARK    4  A    between atoms: C4_7  and  O2_8 
REMARK    5  A    between atoms: C4_7  and  N2_10 
REMARK    6  A    between atoms: N2_10  and  C5_12 
REMARK    7  A    between atoms: C5_12  and  C6_13 
REMARK    8  A    between atoms: C6_13  and  C7_14 
REMARK    9  A    between atoms: C7_14  and  N3_15 
ROOT
HETATM    1  C4  UNL     1      -0.533  -0.758   1.012  1.00  0.00     0.135 C 
ENDROOT
BRANCH   1   2
HETATM    2  C3  UNL     1      -1.898  -0.456   0.544  1.00  0.00     0.166 C 
BRANCH   2   3
HETATM    3  N1  UNL     1      -2.446   0.641   1.376  1.00  0.00    -0.349 N 
HETATM    4  C2  UNL     1      -3.584   0.472   2.200  1.00  0.00     0.214 C 
HETATM    5  C1  UNL     1      -4.142   1.556   3.035  1.00  0.00     0.117 C 
HETATM    6  O1  UNL     1      -4.143  -0.656   2.217  1.00  0.00    -0.274 OA
ATOM      7  H1  UNL     1      -1.986   1.551   1.354  1.00  0.00     0.163 HD
ENDBRANCH   2   3
BRANCH   2   8
HETATM    8  C10 UNL     1      -2.036  -0.118  -0.911  1.00  0.00    -0.023 C 
HETATM    9  C11 UNL     1      -1.254   1.123  -1.307  1.00  0.00     0.017 C 
HETATM   10  C12 UNL     1      -1.866  -1.266  -1.854  1.00  0.00     0.017 C 
HETATM   11  C13 UNL     1      -3.519   0.351  -1.123  1.00  0.00     0.017 C 
ENDBRANCH   2   8
ENDBRANCH   1   2
BRANCH   1  12
HETATM   12  O2  UNL     1      -0.317  -0.624   2.291  1.00  0.00    -0.348 OA
ATOM     13  H2  UNL     1       0.563  -0.819   2.593  1.00  0.00     0.219 HD
ENDBRANCH   1  12
BRANCH   1  14
HETATM   14  N2  UNL     1       0.545  -1.168   0.221  1.00  0.00    -0.373 N 
ATOM     15  H2  UNL     1       0.421  -1.281  -0.785  1.00  0.00     0.161 HD
BRANCH  14  16
HETATM   16  C5  UNL     1       1.850  -1.436   0.827  1.00  0.00     0.123 C 
BRANCH  16  17
HETATM   17  C6  UNL     1       2.882  -1.839  -0.193  1.00  0.00     0.050 C 
BRANCH  17  18
HETATM   18  C7  UNL     1       3.107  -0.763  -1.230  1.00  0.00     0.273 C 
BRANCH  18  19
HETATM   19  N3  UNL     1       3.560   0.472  -0.627  1.00  0.00     0.080 N 
HETATM   20  C8  UNL     1       3.767   1.507  -1.587  1.00  0.00     0.309 C 
HETATM   21  C9  UNL     1       4.708   0.296   0.225  1.00  0.00     0.309 C 
ENDBRANCH  18  19
ENDBRANCH  17  18
ENDBRANCH  16  17
ENDBRANCH  14  16
ENDBRANCH   1  14
TORSDOF 9
