REMARK  1 active torsions:
REMARK  status: ('A' for Active; 'I' for Inactive)
REMARK    1  A    between atoms: N2_3  and  N3_5 
ROOT
HETATM    1  N1  UNL     1       3.408   1.418  -0.490  1.00  0.00    -0.171 NA
HETATM    2  C1  UNL     1       2.676   0.528  -0.370  1.00  0.00     0.193 C 
HETATM    3  N2  UNL     1       1.795  -0.541  -0.216  1.00  0.00    -0.256 N 
ATOM      4  H2  UNL     1       2.160  -1.395   0.205  1.00  0.00     0.193 HD
ENDROOT
BRANCH   3   5
HETATM    5  N3  UNL     1       0.464  -0.532  -0.591  1.00  0.00    -0.222 NA
HETATM    6  C2  UNL     1      -0.297  -1.206   0.432  1.00  0.00     0.114 C 
HETATM    7  C3  UNL     1      -1.654  -0.492   0.384  1.00  0.00     0.017 C 
HETATM    8  C4  UNL     1      -1.151   0.956   0.312  1.00  0.00     0.017 C 
HETATM    9  C5  UNL     1      -0.095   0.767  -0.785  1.00  0.00     0.114 C 
ENDBRANCH   3   5
TORSDOF 1
