REMARK  4 active torsions:
REMARK  status: ('A' for Active; 'I' for Inactive)
REMARK    1  A    between atoms: C1_2  and  C2_4 
REMARK    2  A    between atoms: C2_4  and  N2_5 
REMARK       I    between atoms: N2_5  and  C3_7 
REMARK    3  A    between atoms: C3_7  and  C4_9 
REMARK    4  A    between atoms: C5_16  and  O3_17 
ROOT
HETATM    1  N2  UNL     1      -0.255  -0.481  -0.316  1.00  0.00    -0.332 N 
ATOM      2  H2  UNL     1      -0.175  -1.385  -0.782  1.00  0.00     0.164 HD
HETATM    3  C3  UNL     1       0.936   0.100   0.155  1.00  0.00     0.275 C 
HETATM    4  O2  UNL     1       0.946   1.214   0.737  1.00  0.00    -0.266 OA
ENDROOT
BRANCH   1   5
HETATM    5  C2  UNL     1      -1.588   0.085  -0.202  1.00  0.00     0.189 A 
HETATM    6  C6  UNL     1      -2.555  -0.430  -1.259  1.00  0.00     0.188 A 
HETATM    7 CL1  UNL     1      -4.232  -0.780  -0.834  1.00  0.00    -0.095 Cl
HETATM    8 CL2  UNL     1      -1.903  -1.552  -2.490  1.00  0.00    -0.095 Cl
HETATM    9  C7  UNL     1      -2.082   0.988  -1.272  1.00  0.00     0.188 A 
HETATM   10 CL3  UNL     1      -1.002   1.437  -2.610  1.00  0.00    -0.095 Cl
HETATM   11 CL4  UNL     1      -3.282   2.204  -0.810  1.00  0.00    -0.095 Cl
BRANCH   5  12
HETATM   12  C1  UNL     1      -2.067   0.248   1.192  1.00  0.00     0.266 C 
HETATM   13  N1  UNL     1      -3.401   0.500   1.585  1.00  0.00    -0.060 NA
HETATM   14  O1  UNL     1      -1.240   0.161   2.169  1.00  0.00    -0.274 OA
ENDBRANCH   5  12
ENDBRANCH   1   5
BRANCH   3  15
HETATM   15  C4  UNL     1       2.239  -0.541   0.004  1.00  0.00     0.169 A 
HETATM   16  N3  UNL     1       2.422  -1.728  -0.590  1.00  0.00    -0.277 N 
HETATM   17  N4  UNL     1       3.691  -2.009  -0.558  1.00  0.00    -0.240 N 
ATOM     18  H3  UNL     1       1.691  -2.311  -0.997  1.00  0.00     0.189 HD
HETATM   19  N5  UNL     1       4.367  -1.057   0.034  1.00  0.00    -0.263 N 
ATOM     20  H4  UNL     1       4.105  -2.858  -0.943  1.00  0.00     0.208 HD
HETATM   21  C5  UNL     1       3.482  -0.109   0.405  1.00  0.00     0.190 A 
ATOM     22  H5  UNL     1       5.375  -1.036   0.186  1.00  0.00     0.190 HD
BRANCH  21  23
HETATM   23  O3  UNL     1       3.757   1.099   1.073  1.00  0.00    -0.343 OA
ATOM     24  H3  UNL     1       4.615   1.397   1.350  1.00  0.00     0.219 HD
ENDBRANCH  21  23
ENDBRANCH   3  15
TORSDOF 4
