REMARK  6 active torsions:
REMARK  status: ('A' for Active; 'I' for Inactive)
REMARK    1  A    between atoms: C3_5  and  C4_6 
REMARK    2  A    between atoms: C6_12  and  N4_13 
REMARK    3  A    between atoms: N4_13  and  C7_15 
REMARK    4  A    between atoms: C7_15  and  C8_16 
REMARK    5  A    between atoms: C8_16  and  N5_17 
REMARK    6  A    between atoms: C13_25  and  N7_26 
ROOT
HETATM    1  C4  UNL     1       1.935   0.405   0.968  1.00  0.00     0.070 A 
HETATM    2  C5  UNL     1       1.899   1.233   2.107  1.00  0.00     0.126 A 
HETATM    3  N2  UNL     1       0.687   1.160   2.679  1.00  0.00    -0.309 N 
ATOM      4  H2  UNL     1       0.386   1.656   3.518  1.00  0.00     0.186 HD
HETATM    5  N3  UNL     1      -0.036   0.339   1.968  1.00  0.00    -0.285 N 
ATOM      6  H3  UNL     1      -1.005   0.091   2.169  1.00  0.00     0.188 HD
HETATM    7  C6  UNL     1       0.694  -0.143   0.912  1.00  0.00     0.131 A 
ENDROOT
BRANCH   1   8
HETATM    8  C3  UNL     1       3.127   0.283   0.151  1.00  0.00     0.137 A 
HETATM    9  N1  UNL     1       4.260   0.934   0.448  1.00  0.00    -0.331 N 
HETATM   10  C2  UNL     1       5.395   0.851  -0.273  1.00  0.00     0.095 A 
ATOM     11  H1  UNL     1       4.263   1.532   1.274  1.00  0.00     0.168 HD
HETATM   12  C1  UNL     1       6.616   1.595   0.119  1.00  0.00     0.089 C 
HETATM   13  N8  UNL     1       5.359   0.052  -1.360  1.00  0.00    -0.181 N 
HETATM   14  C13 UNL     1       4.258  -0.624  -1.709  1.00  0.00     0.678 A 
ATOM     15  H8  UNL     1       6.197  -0.040  -1.934  1.00  0.00     0.185 HD
HETATM   16  N6  UNL     1       3.146  -0.493  -0.934  1.00  0.00    -0.176 N 
ATOM     17  H6  UNL     1       2.301  -1.004  -1.191  1.00  0.00     0.186 HD
BRANCH  14  18
HETATM   18  N7  UNL     1       4.252  -1.380  -2.755  1.00  0.00    -0.234 N 
ATOM     19  H72 UNL     1       3.413  -1.895  -3.021  1.00  0.00     0.174 HD
ATOM     20  H71 UNL     1       5.085  -1.478  -3.336  1.00  0.00     0.174 HD
ENDBRANCH  14  18
ENDBRANCH   1   8
BRANCH   7  21
HETATM   21  N4  UNL     1       0.290  -0.965   0.025  1.00  0.00    -0.373 N 
ATOM     22  H4  UNL     1       0.941  -1.243  -0.709  1.00  0.00     0.161 HD
BRANCH  21  23
HETATM   23  C7  UNL     1      -1.046  -1.524   0.007  1.00  0.00     0.151 C 
BRANCH  23  24
HETATM   24  C8  UNL     1      -2.048  -0.595  -0.581  1.00  0.00     0.292 C 
BRANCH  24  25
HETATM   25  N5  UNL     1      -3.394  -1.083  -0.656  1.00  0.00     0.094 N 
HETATM   26  C9  UNL     1      -4.016  -1.231   0.608  1.00  0.00     0.298 C 
HETATM   27  C10 UNL     1      -4.375   0.136   1.146  1.00  0.00     0.198 C 
HETATM   28  O1  UNL     1      -5.236   0.811   0.332  1.00  0.00    -0.388 OA
HETATM   29  C11 UNL     1      -5.306   0.435  -0.973  1.00  0.00     0.198 C 
HETATM   30  C12 UNL     1      -4.108  -0.212  -1.563  1.00  0.00     0.298 C 
ENDBRANCH  24  25
ENDBRANCH  23  24
ENDBRANCH  21  23
ENDBRANCH   7  21
TORSDOF 6
