REMARK  6 active torsions:
REMARK  status: ('A' for Active; 'I' for Inactive)
REMARK       I    between atoms: C2_2  and  N1_4 
REMARK    1  A    between atoms: N1_4  and  C3_6 
REMARK    2  A    between atoms: C3_6  and  C5_8 
REMARK       I    between atoms: C5_8  and  N2_10 
REMARK    3  A    between atoms: N2_10  and  N3_12 
REMARK    4  A    between atoms: N3_12  and  C6_14 
REMARK    5  A    between atoms: C6_14  and  C7_18 
REMARK    6  A    between atoms: C8_19  and  C9_20 
ROOT
HETATM    1  C6  UNL     1      -1.249  -1.569  -0.039  1.00  0.00     0.129 C 
HETATM    2  N4  UNL     1      -0.858  -2.278  -1.057  1.00  0.00    -0.384 N 
ATOM      3  H41 UNL     1      -1.533  -2.385  -1.814  1.00  0.00     0.157 HD
ATOM      4  H42 UNL     1       0.102  -2.618  -0.997  1.00  0.00     0.157 HD
ENDROOT
BRANCH   1   5
HETATM    5  N3  UNL     1      -0.324  -1.423   0.999  1.00  0.00    -0.282 N 
ATOM      6  H3  UNL     1      -0.403  -2.108   1.750  1.00  0.00     0.188 HD
BRANCH   5   7
HETATM    7  N2  UNL     1       0.682  -0.488   1.159  1.00  0.00    -0.267 N 
HETATM    8  C5  UNL     1       1.810  -0.241   0.378  1.00  0.00     0.258 C 
HETATM    9  O2  UNL     1       2.093  -0.882  -0.655  1.00  0.00    -0.269 OA
ATOM     10  H2  UNL     1       0.583   0.115   1.976  1.00  0.00     0.190 HD
BRANCH   8  11
HETATM   11  C3  UNL     1       2.782   0.861   0.761  1.00  0.00     0.174 C 
HETATM   12  C4  UNL     1       3.178   0.765   2.193  1.00  0.00     0.042 C 
BRANCH  11  13
HETATM   13  N1  UNL     1       3.887   0.927  -0.141  1.00  0.00    -0.348 N 
HETATM   14  C2  UNL     1       4.075   1.984  -1.084  1.00  0.00     0.214 C 
HETATM   15  C1  UNL     1       5.249   1.994  -1.995  1.00  0.00     0.117 C 
HETATM   16  O1  UNL     1       3.255   2.923  -1.162  1.00  0.00    -0.274 OA
ATOM     17  H1  UNL     1       4.580   0.179  -0.111  1.00  0.00     0.163 HD
ENDBRANCH  11  13
ENDBRANCH   8  11
ENDBRANCH   5   7
ENDBRANCH   1   5
BRANCH   1  18
HETATM   18  C7  UNL     1      -2.616  -1.084  -0.124  1.00  0.00     0.082 A 
HETATM   19  C8  UNL     1      -3.363  -0.326   0.731  1.00  0.00     0.149 A 
HETATM   20  N5  UNL     1      -4.601  -0.219   0.174  1.00  0.00    -0.293 N 
HETATM   21  N6  UNL     1      -4.691  -0.849  -0.967  1.00  0.00    -0.284 N 
ATOM     22  H5  UNL     1      -5.372   0.295   0.600  1.00  0.00     0.187 HD
HETATM   23  C10 UNL     1      -5.866  -0.946  -1.846  1.00  0.00     0.179 C 
HETATM   24  C11 UNL     1      -3.490  -1.395  -1.187  1.00  0.00     0.136 A 
HETATM   25 CL1  UNL     1      -3.141  -2.346  -2.621  1.00  0.00    -0.062 Cl
BRANCH  19  26
HETATM   26  C9  UNL     1      -2.961   0.342   2.017  1.00  0.00     0.435 C 
HETATM   27  F1  UNL     1      -2.055   1.330   1.836  1.00  0.00    -0.165 F 
HETATM   28  F2  UNL     1      -2.603  -0.645   2.896  1.00  0.00    -0.165 F 
HETATM   29  F3  UNL     1      -4.099   0.951   2.565  1.00  0.00    -0.165 F 
ENDBRANCH  19  26
ENDBRANCH   1  18
TORSDOF 6
