REMARK  9 active torsions:
REMARK  status: ('A' for Active; 'I' for Inactive)
REMARK    1  A    between atoms: N1_1  and  C1_4 
REMARK    2  A    between atoms: C2_7  and  C3_8 
REMARK    3  A    between atoms: C4_9  and  C5_10 
REMARK    4  A    between atoms: C5_10  and  O1_11 
REMARK    5  A    between atoms: O1_11  and  C6_12 
REMARK    6  A    between atoms: C6_12  and  C7_13 
REMARK    7  A    between atoms: C7_13  and  C8_14 
REMARK    8  A    between atoms: C8_14  and  C9_15 
REMARK    9  A    between atoms: C9_15  and  N3_16 
ROOT
HETATM    1  C3  UNL     1      -3.104   0.468   0.029  1.00  0.00    -0.043 C 
HETATM    2  C4  UNL     1      -2.121  -0.217  -0.076  1.00  0.00    -0.073 C 
ENDROOT
BRANCH   1   3
HETATM    3  C2  UNL     1      -4.260   1.302   0.164  1.00  0.00     0.144 A 
HETATM    4  N2  UNL     1      -4.353   2.569   0.631  1.00  0.00    -0.181 N 
HETATM    5  C1  UNL     1      -5.622   2.986   0.590  1.00  0.00     0.678 A 
ATOM      6  H2  UNL     1      -3.567   3.126   0.966  1.00  0.00     0.185 HD
HETATM    7  N5  UNL     1      -6.349   1.973   0.089  1.00  0.00    -0.176 N 
HETATM    8  C13 UNL     1      -5.531   0.923  -0.182  1.00  0.00     0.167 A 
ATOM      9  H5  UNL     1      -7.357   1.990  -0.064  1.00  0.00     0.185 HD
HETATM   10  N4  UNL     1      -5.873  -0.344  -0.718  1.00  0.00    -0.079 NA
BRANCH   5  11
HETATM   11  N1  UNL     1      -6.133   4.126   0.942  1.00  0.00    -0.234 N 
ATOM     12  H12 UNL     1      -5.581   4.895   1.322  1.00  0.00     0.174 HD
ATOM     13  H11 UNL     1      -7.102   4.444   0.911  1.00  0.00     0.174 HD
ENDBRANCH   5  11
ENDBRANCH   1   3
BRANCH   2  14
HETATM   14  C5  UNL     1      -0.911  -1.083  -0.191  1.00  0.00     0.261 C 
BRANCH  14  15
HETATM   15  O1  UNL     1       0.045  -0.713   0.708  1.00  0.00    -0.379 OA
BRANCH  15  16
HETATM   16  C6  UNL     1       1.201  -1.423   0.761  1.00  0.00     0.168 C 
BRANCH  16  17
HETATM   17  C7  UNL     1       1.918  -1.365  -0.569  1.00  0.00     0.028 C 
BRANCH  17  18
HETATM   18  C8  UNL     1       3.204  -2.118  -0.499  1.00  0.00     0.022 C 
BRANCH  18  19
HETATM   19  C9  UNL     1       4.209  -1.596   0.455  1.00  0.00     0.128 C 
BRANCH  19  20
HETATM   20  N3  UNL     1       4.665  -0.220   0.114  1.00  0.00    -0.360 N 
HETATM   21  C10 UNL     1       4.114   0.863   0.576  1.00  0.00     0.098 A 
HETATM   22  C11 UNL     1       4.628   2.071   0.172  1.00  0.00     0.068 A 
HETATM   23  S1  UNL     1       5.892   1.591  -0.862  1.00  0.00    -0.095 SA
HETATM   24  C12 UNL     1       5.701  -0.096  -0.727  1.00  0.00     0.140 A 
ENDBRANCH  19  20
ENDBRANCH  18  19
ENDBRANCH  17  18
ENDBRANCH  16  17
ENDBRANCH  15  16
ENDBRANCH  14  15
ENDBRANCH   2  14
TORSDOF 9
