REMARK  8 active torsions:
REMARK  status: ('A' for Active; 'I' for Inactive)
REMARK    1  A    between atoms: C2_2  and  C3_3 
REMARK    2  A    between atoms: N2_6  and  C4_7 
REMARK    3  A    between atoms: C12_17  and  S2_18 
REMARK    4  A    between atoms: S2_18  and  C13_19 
REMARK    5  A    between atoms: C15_21  and  C16_22 
REMARK       I    between atoms: C16_22  and  N3_24 
REMARK    6  A    between atoms: N3_24  and  C17_26 
REMARK    7  A    between atoms: C17_26  and  C18_27 
REMARK    8  A    between atoms: C18_27  and  O3_28 
ROOT
HETATM    1  C3  UNL     1       2.171  -0.804  -0.229  1.00  0.00     0.039 A 
HETATM    2  N1  UNL     1       3.376  -0.756   0.418  1.00  0.00    -0.298 N 
ATOM      3  H1  UNL     1       3.628  -1.511   1.056  1.00  0.00     0.187 HD
HETATM    4  N2  UNL     1       4.204   0.222   0.242  1.00  0.00    -0.248 N 
HETATM    5  C8  UNL     1       3.866   1.216  -0.603  1.00  0.00     0.275 A 
HETATM    6  O1  UNL     1       4.715   2.131  -0.730  1.00  0.00    -0.266 OA
HETATM    7  C9  UNL     1       2.640   1.224  -1.297  1.00  0.00     0.060 A 
HETATM    8  C10 UNL     1       2.289   2.210  -2.175  1.00  0.00    -0.003 A 
HETATM    9  C11 UNL     1       3.047   3.450  -2.576  1.00  0.00     0.057 C 
HETATM   10  S1  UNL     1       0.772   1.738  -2.737  1.00  0.00    -0.086 SA
HETATM   11  C12 UNL     1       0.603   0.269  -1.829  1.00  0.00     0.055 A 
HETATM   12  C21 UNL     1       1.767   0.212  -1.120  1.00  0.00     0.028 A 
ENDROOT
BRANCH  11  13
HETATM   13  S2  UNL     1      -0.828  -0.834  -1.912  1.00  0.00    -0.115 SA
BRANCH  13  14
HETATM   14  C13 UNL     1      -2.139  -0.137  -0.879  1.00  0.00     0.085 C 
HETATM   15  C14 UNL     1      -3.326  -1.077  -0.905  1.00  0.00     0.060 C 
HETATM   16  C15 UNL     1      -3.634  -1.375   0.541  1.00  0.00     0.278 C 
HETATM   17  N4  UNL     1      -2.466  -0.995   1.262  1.00  0.00    -0.057 N 
HETATM   18  C19 UNL     1      -1.834   0.083   0.539  1.00  0.00     0.197 C 
ATOM     19  H42 UNL     1      -2.660  -0.759   2.235  1.00  0.00     0.278 HD
ATOM     20  H41 UNL     1      -1.836  -1.778   1.436  1.00  0.00     0.278 HD
HETATM   21  C20 UNL     1      -2.402   1.392   1.083  1.00  0.00     0.041 C 
BRANCH  16  22
HETATM   22  C16 UNL     1      -4.901  -0.843   1.018  1.00  0.00     0.248 C 
HETATM   23  O2  UNL     1      -4.949  -0.341   2.190  1.00  0.00    -0.271 OA
HETATM   24  N3  UNL     1      -6.105  -0.842   0.255  1.00  0.00    -0.357 N 
ATOM     25  H3  UNL     1      -6.078  -1.241  -0.684  1.00  0.00     0.162 HD
BRANCH  24  26
HETATM   26  C17 UNL     1      -7.346  -0.317   0.725  1.00  0.00     0.148 C 
BRANCH  26  27
HETATM   27  C18 UNL     1      -8.386  -0.445  -0.377  1.00  0.00     0.183 C 
BRANCH  27  28
HETATM   28  O3  UNL     1      -7.931   0.291  -1.496  1.00  0.00    -0.399 OA
ATOM     29  H3  UNL     1      -8.581   0.211  -2.184  1.00  0.00     0.209 HD
ENDBRANCH  27  28
ENDBRANCH  26  27
ENDBRANCH  24  26
ENDBRANCH  16  22
ENDBRANCH  13  14
ENDBRANCH  11  13
BRANCH   1  30
HETATM   30  C2  UNL     1       1.410  -2.042   0.014  1.00  0.00     0.055 C 
HETATM   31  C1  UNL     1       1.655  -2.982  -1.187  1.00  0.00     0.011 C 
ENDBRANCH   1  30
BRANCH   4  32
HETATM   32  C4  UNL     1       5.486   0.268   0.944  1.00  0.00     0.046 C 
HETATM   33  C5  UNL     1       5.584  -0.831   1.947  1.00  0.00     0.040 C 
HETATM   34  C6  UNL     1       6.604   0.130  -0.061  1.00  0.00     0.040 C 
HETATM   35  C7  UNL     1       5.650   1.596   1.662  1.00  0.00     0.040 C 
ENDBRANCH   4  32
TORSDOF 8
