REMARK  7 active torsions:
REMARK  status: ('A' for Active; 'I' for Inactive)
REMARK    1  A    between atoms: C2_2  and  C4_4 
REMARK    2  A    between atoms: C5_5  and  O1_6 
REMARK    3  A    between atoms: C13_16  and  C15_18 
REMARK    4  A    between atoms: C17_23  and  O6_24 
REMARK    5  A    between atoms: O6_24  and  C18_25 
REMARK    6  A    between atoms: C18_25  and  C19_26 
REMARK    7  A    between atoms: C21_28  and  O7_29 
ROOT
HETATM    1  C4  UNL     1       4.308   0.048  -0.797  1.00  0.00     0.054 C 
HETATM    2  C5  UNL     1       4.262  -1.443  -0.688  1.00  0.00     0.196 C 
HETATM    3  C6  UNL     1       3.194  -1.684   0.386  1.00  0.00     0.161 C 
HETATM    4  O2  UNL     1       3.326  -2.514   1.204  1.00  0.00    -0.295 OA
HETATM    5  C7  UNL     1       2.219  -0.665  -0.000  1.00  0.00     0.071 C 
HETATM    6  C8  UNL     1       3.196   0.533   0.145  1.00  0.00     0.008 C 
HETATM    7  C9  UNL     1       2.610   1.827  -0.232  1.00  0.00     0.007 C 
HETATM    8  C10 UNL     1       1.199   1.560  -0.698  1.00  0.00     0.006 C 
HETATM    9  C11 UNL     1       0.416   0.885   0.434  1.00  0.00     0.005 C 
HETATM   10  C12 UNL     1       0.985  -0.457   0.775  1.00  0.00     0.047 C 
HETATM   11  C13 UNL     1       0.031  -1.578   0.808  1.00  0.00     0.150 C 
HETATM   12  C14 UNL     1       0.472  -2.837   0.046  1.00  0.00     0.058 C 
HETATM   13  O5  UNL     1      -1.243  -1.336   0.259  1.00  0.00    -0.360 OA
HETATM   14  C16 UNL     1      -1.766  -0.205   0.757  1.00  0.00     0.163 C 
HETATM   15  C17 UNL     1      -3.278  -0.027   0.600  1.00  0.00     0.179 C 
HETATM   16  C21 UNL     1      -3.620   0.977   1.726  1.00  0.00     0.149 C 
HETATM   17  C22 UNL     1      -2.539   2.005   1.820  1.00  0.00     0.035 C 
HETATM   18  C23 UNL     1      -1.741   2.197   0.557  1.00  0.00     0.015 C 
HETATM   19  C24 UNL     1      -1.040   0.942   0.094  1.00  0.00    -0.011 C 
HETATM   20  C25 UNL     1      -1.153   0.894  -1.419  1.00  0.00     0.018 C 
ENDROOT
BRANCH  11  21
HETATM   21  C15 UNL     1      -0.237  -2.107   2.197  1.00  0.00     0.209 C 
HETATM   22  O3  UNL     1       0.662  -2.323   3.048  1.00  0.00    -0.646 OA
HETATM   23  O4  UNL     1      -1.518  -2.386   2.600  1.00  0.00    -0.646 OA
ENDBRANCH  11  21
BRANCH  15  24
HETATM   24  O6  UNL     1      -3.898  -1.189   0.669  1.00  0.00    -0.381 OA
BRANCH  24  25
HETATM   25  C18 UNL     1      -4.718  -1.684  -0.273  1.00  0.00     0.168 C 
BRANCH  25  26
HETATM   26  C19 UNL     1      -5.982  -0.999  -0.612  1.00  0.00     0.022 C 
HETATM   27  C20 UNL     1      -5.921   0.373  -1.187  1.00  0.00     0.007 C 
ENDBRANCH  25  26
ENDBRANCH  24  25
ENDBRANCH  15  24
BRANCH   2  28
HETATM   28  O1  UNL     1       3.655  -1.945  -1.866  1.00  0.00    -0.387 OA
ATOM     29  H1  UNL     1       3.626  -2.892  -1.797  1.00  0.00     0.210 HD
ENDBRANCH   2  28
BRANCH   1  30
HETATM   30  C2  UNL     1       5.589   0.695  -0.492  1.00  0.00    -0.086 C 
HETATM   31  C1  UNL     1       6.635   0.008  -0.138  1.00  0.00     0.014 C 
HETATM   32  C3  UNL     1       5.735   2.201  -0.586  1.00  0.00     0.043 C 
ENDBRANCH   1  30
BRANCH  16  33
HETATM   33  O7  UNL     1      -3.648   0.257   2.940  1.00  0.00    -0.393 OA
ATOM     34  H7  UNL     1      -3.858   0.874   3.632  1.00  0.00     0.210 HD
ENDBRANCH  16  33
TORSDOF 7
