REMARK  11 active torsions:
REMARK  status: ('A' for Active; 'I' for Inactive)
REMARK    1  A    between atoms: N1_2  and  C2_3 
REMARK    2  A    between atoms: C2_3  and  C3_4 
REMARK    3  A    between atoms: N3_9  and  C6_10 
REMARK    4  A    between atoms: C6_10  and  C7_11 
REMARK    5  A    between atoms: C7_11  and  C8_12 
REMARK    6  A    between atoms: C8_12  and  C9_13 
REMARK    7  A    between atoms: C9_13  and  C10_14 
REMARK    8  A    between atoms: C10_14  and  N4_15 
REMARK    9  A    between atoms: C14_24  and  C15_25 
REMARK   10  A    between atoms: N7_26  and  N8_28 
REMARK   11  A    between atoms: N8_28  and  N9_30 
ROOT
HETATM    1  N4  UNL     1       3.710   1.627  -0.646  1.00  0.00    -0.341 N 
HETATM    2  C11 UNL     1       3.584   2.821  -0.083  1.00  0.00     0.184 A 
HETATM    3  N5  UNL     1       4.682   3.045   0.653  1.00  0.00    -0.346 N 
ATOM      4  H5  UNL     1       4.866   3.884   1.202  1.00  0.00     0.167 HD
HETATM    5  C12 UNL     1       5.511   1.970   0.548  1.00  0.00     0.129 A 
HETATM    6  C13 UNL     1       6.735   1.622   1.051  1.00  0.00     0.275 A 
HETATM    7  O1  UNL     1       7.310   2.458   1.818  1.00  0.00    -0.266 OA
HETATM    8  N6  UNL     1       7.305   0.434   0.741  1.00  0.00    -0.320 N 
ATOM      9  H6  UNL     1       8.218   0.203   1.132  1.00  0.00     0.169 HD
HETATM   10  C14 UNL     1       6.700  -0.443  -0.065  1.00  0.00     0.054 A 
HETATM   11  C16 UNL     1       5.440  -0.136  -0.609  1.00  0.00     0.063 A 
HETATM   12  C17 UNL     1       4.884   1.073  -0.280  1.00  0.00     0.070 A 
ENDROOT
BRANCH   1  13
HETATM   13  C10 UNL     1       2.744   0.997  -1.523  1.00  0.00     0.130 C 
BRANCH  13  14
HETATM   14  C9  UNL     1       1.800   0.192  -0.650  1.00  0.00     0.020 C 
BRANCH  14  15
HETATM   15  C8  UNL     1       0.780  -0.479  -1.521  1.00  0.00     0.003 C 
BRANCH  15  16
HETATM   16  C7  UNL     1      -0.173  -1.275  -0.707  1.00  0.00     0.020 C 
BRANCH  16  17
HETATM   17  C6  UNL     1      -1.001  -0.535   0.277  1.00  0.00     0.130 C 
BRANCH  17  18
HETATM   18  N3  UNL     1      -1.883   0.454  -0.259  1.00  0.00    -0.344 N 
HETATM   19  C3  UNL     1      -3.155   0.269  -0.666  1.00  0.00     0.054 A 
HETATM   20  C4  UNL     1      -3.569   1.514  -1.093  1.00  0.00     0.115 A 
HETATM   21  N2  UNL     1      -2.596   2.423  -0.956  1.00  0.00    -0.360 N 
HETATM   22  C5  UNL     1      -1.552   1.752  -0.436  1.00  0.00     0.183 A 
ATOM     23  H2  UNL     1      -2.637   3.414  -1.195  1.00  0.00     0.166 HD
BRANCH  19  24
HETATM   24  C2  UNL     1      -3.933  -0.960  -0.670  1.00  0.00     0.295 C 
BRANCH  24  25
HETATM   25  N1  UNL     1      -4.825  -1.180   0.435  1.00  0.00    -0.063 N 
HETATM   26  C1  UNL     1      -4.429  -2.488   1.016  1.00  0.00     0.273 C 
HETATM   27  C18 UNL     1      -6.188  -1.487  -0.037  1.00  0.00     0.256 C 
HETATM   28  C19 UNL     1      -6.989  -0.258  -0.301  1.00  0.00     0.142 C 
HETATM   29  N10 UNL     1      -7.106   0.469   0.921  1.00  0.00    -0.418 N 
HETATM   30  C20 UNL     1      -5.893   0.746   1.602  1.00  0.00     0.142 C 
ATOM     31  H10 UNL     1      -8.010   0.772   1.284  1.00  0.00     0.153 HD
HETATM   32  C21 UNL     1      -4.793  -0.235   1.484  1.00  0.00     0.256 C 
ENDBRANCH  24  25
ENDBRANCH  19  24
ENDBRANCH  17  18
ENDBRANCH  16  17
ENDBRANCH  15  16
ENDBRANCH  14  15
ENDBRANCH  13  14
ENDBRANCH   1  13
BRANCH  10  33
HETATM   33  C15 UNL     1       7.309  -1.702  -0.391  1.00  0.00     0.138 C 
HETATM   34  N7  UNL     1       8.397  -2.185  -0.036  1.00  0.00    -0.296 N 
ATOM     35  H7  UNL     1       8.558  -3.109  -0.437  1.00  0.00     0.187 HD
BRANCH  34  36
HETATM   36  N8  UNL     1       9.408  -1.790   0.743  1.00  0.00    -0.250 N 
ATOM     37  H8  UNL     1      10.036  -1.051   0.427  1.00  0.00     0.207 HD
BRANCH  36  38
HETATM   38  N9  UNL     1       9.590  -2.341   1.893  1.00  0.00    -0.331 N 
ATOM     39  H92 UNL     1       8.953  -3.078   2.194  1.00  0.00     0.178 HD
ATOM     40  H91 UNL     1      10.362  -2.039   2.488  1.00  0.00     0.178 HD
ENDBRANCH  36  38
ENDBRANCH  34  36
ENDBRANCH  10  33
TORSDOF 11
