REMARK  12 active torsions:
REMARK  status: ('A' for Active; 'I' for Inactive)
REMARK    1  A    between atoms: C3_5  and  N2_6 
REMARK    2  A    between atoms: C5_12  and  C6_13 
REMARK    3  A    between atoms: C6_13  and  C7_14 
REMARK    4  A    between atoms: C7_14  and  C8_15 
REMARK    5  A    between atoms: C8_15  and  C9_16 
REMARK    6  A    between atoms: N4_20  and  C13_21 
REMARK    7  A    between atoms: C13_21  and  C14_22 
REMARK    8  A    between atoms: C14_22  and  O1_23 
REMARK    9  A    between atoms: C14_22  and  C15_25 
REMARK   10  A    between atoms: N5_28  and  C18_29 
REMARK   11  A    between atoms: C18_29  and  C19_30 
REMARK   12  A    between atoms: C19_30  and  N7_34 
ROOT
HETATM    1  N7  UNL     1       8.051  -0.239   1.697  1.00  0.00    -0.282 N 
ATOM      2  H7  UNL     1       8.342  -0.424   2.657  1.00  0.00     0.179 HD
HETATM    3  C20 UNL     1       7.943  -1.283   0.781  1.00  0.00     0.183 C 
HETATM    4  N8  UNL     1       7.848  -2.170   0.026  1.00  0.00    -0.172 NA
ENDROOT
BRANCH   1   5
HETATM    5  C19 UNL     1       7.753   1.081   1.283  1.00  0.00     0.102 C 
HETATM    6  N6  UNL     1       8.713   1.823   0.860  1.00  0.00    -0.387 N 
ATOM      7  H62 UNL     1       8.498   2.774   0.562  1.00  0.00     0.157 HD
ATOM      8  H61 UNL     1       9.670   1.471   0.824  1.00  0.00     0.157 HD
BRANCH   5   9
HETATM    9  C18 UNL     1       6.367   1.591   1.335  1.00  0.00     0.204 C 
BRANCH   9  10
HETATM   10  N5  UNL     1       5.461   0.820   0.523  1.00  0.00    -0.359 N 
HETATM   11  C17 UNL     1       4.553   0.112   1.105  1.00  0.00     0.091 A 
HETATM   12  C16 UNL     1       3.624  -0.677   0.303  1.00  0.00     0.027 A 
HETATM   13  C15 UNL     1       3.770  -0.621  -1.007  1.00  0.00    -0.025 A 
HETATM   14  C22 UNL     1       4.788   0.174  -1.625  1.00  0.00     0.027 A 
HETATM   15  C21 UNL     1       5.601   0.866  -0.890  1.00  0.00     0.091 A 
BRANCH  13  16
HETATM   16  C14 UNL     1       2.830  -1.422  -1.839  1.00  0.00     0.169 C 
BRANCH  16  17
HETATM   17  C13 UNL     1       1.959  -0.531  -2.680  1.00  0.00     0.164 C 
BRANCH  17  18
HETATM   18  N4  UNL     1       1.045   0.257  -1.852  1.00  0.00    -0.363 N 
HETATM   19  C12 UNL     1       1.359   1.476  -1.409  1.00  0.00     0.090 A 
HETATM   20  C11 UNL     1       0.438   2.169  -0.608  1.00  0.00     0.018 A 
HETATM   21  C10 UNL     1      -0.779   1.613  -0.274  1.00  0.00     0.010 A 
HETATM   22  C9  UNL     1      -1.095   0.354  -0.736  1.00  0.00    -0.043 A 
HETATM   23  C23 UNL     1      -0.164  -0.282  -1.514  1.00  0.00     0.097 A 
BRANCH  22  24
HETATM   24  C8  UNL     1      -2.403  -0.280  -0.398  1.00  0.00     0.040 C 
BRANCH  24  25
HETATM   25  C7  UNL     1      -3.397   0.089  -1.455  1.00  0.00     0.009 C 
BRANCH  25  26
HETATM   26  C6  UNL     1      -4.760  -0.519  -1.190  1.00  0.00     0.030 C 
BRANCH  26  27
HETATM   27  C5  UNL     1      -5.319  -0.069   0.103  1.00  0.00     0.006 C 
HETATM   28  C4  UNL     1      -6.467  -0.517   0.565  1.00  0.00     0.071 A 
HETATM   29  C2  UNL     1      -7.086  -0.178   1.743  1.00  0.00     0.066 A 
HETATM   30  N3  UNL     1      -7.275  -1.422  -0.050  1.00  0.00    -0.190 N 
HETATM   31  C1  UNL     1      -6.653   0.671   2.654  1.00  0.00     0.046 C 
HETATM   32  N1  UNL     1      -8.233  -0.888   1.787  1.00  0.00    -0.191 N 
HETATM   33  C3  UNL     1      -8.355  -1.649   0.697  1.00  0.00     0.676 A 
ATOM     34  H1  UNL     1      -8.912  -0.849   2.547  1.00  0.00     0.184 HD
ATOM     35  H3  UNL     1      -7.083  -1.862  -0.950  1.00  0.00     0.184 HD
BRANCH  33  36
HETATM   36  N2  UNL     1      -9.335  -2.437   0.444  1.00  0.00    -0.234 N 
ATOM     37  H22 UNL     1     -10.162  -2.611   1.016  1.00  0.00     0.174 HD
ATOM     38  H21 UNL     1      -9.428  -3.018  -0.389  1.00  0.00     0.174 HD
ENDBRANCH  33  36
ENDBRANCH  26  27
ENDBRANCH  25  26
ENDBRANCH  24  25
ENDBRANCH  22  24
ENDBRANCH  17  18
ENDBRANCH  16  17
BRANCH  16  39
HETATM   39  O1  UNL     1       3.682  -2.191  -2.688  1.00  0.00    -0.389 OA
ATOM     40  H1  UNL     1       4.232  -2.754  -2.157  1.00  0.00     0.210 HD
ENDBRANCH  16  39
ENDBRANCH  13  16
ENDBRANCH   9  10
ENDBRANCH   5   9
ENDBRANCH   1   5
TORSDOF 12
