REMARK  13 active torsions:
REMARK  status: ('A' for Active; 'I' for Inactive)
REMARK    1  A    between atoms: N1_2  and  C4_5 
REMARK    2  A    between atoms: C4_5  and  C5_6 
REMARK    3  A    between atoms: C5_6  and  C6_7 
REMARK    4  A    between atoms: C6_7  and  C7_8 
REMARK    5  A    between atoms: C7_8  and  C8_9 
REMARK    6  A    between atoms: C8_9  and  O1_10 
REMARK    7  A    between atoms: O1_10  and  C9_11 
REMARK    8  A    between atoms: N2_14  and  C12_15 
REMARK    9  A    between atoms: C12_15  and  C13_16 
REMARK   10  A    between atoms: C16_19  and  C17_20 
REMARK   11  A    between atoms: C17_20  and  N3_21 
REMARK   12  A    between atoms: C19_23  and  N4_24 
REMARK   13  A    between atoms: N4_24  and  N5_25 
REMARK       I    between atoms: N9_36  and  C23_37 
ROOT
HETATM    1  C9  UNL     1      -1.195  -2.275   0.488  1.00  0.00     0.153 A 
HETATM    2  C10 UNL     1      -0.620  -1.965   1.676  1.00  0.00     0.074 A 
HETATM    3  C11 UNL     1       0.762  -1.977   1.831  1.00  0.00     0.096 A 
HETATM    4  N2  UNL     1       1.595  -2.287   0.845  1.00  0.00    -0.348 N 
HETATM    5  C22 UNL     1       0.993  -2.596  -0.349  1.00  0.00     0.196 A 
HETATM    6  N9  UNL     1      -0.326  -2.595  -0.535  1.00  0.00    -0.262 N 
HETATM    7  C23 UNL     1      -0.868  -2.927  -1.820  1.00  0.00     0.195 C 
HETATM    8  N10 UNL     1      -0.158  -3.186  -2.846  1.00  0.00    -0.373 N 
ATOM      9 1H10 UNL     1      -0.544  -3.422  -3.760  1.00  0.00     0.158 HD
ATOM     10 2H10 UNL     1       0.854  -3.151  -2.722  1.00  0.00     0.158 HD
HETATM   11  N11 UNL     1      -2.274  -2.975  -1.993  1.00  0.00    -0.063 NA
ENDROOT
BRANCH   4  12
HETATM   12  C12 UNL     1       3.030  -2.333   0.916  1.00  0.00     0.169 C 
BRANCH  12  13
HETATM   13  C13 UNL     1       3.754  -1.115   0.550  1.00  0.00    -0.016 A 
HETATM   14  C14 UNL     1       4.262  -0.982  -0.755  1.00  0.00     0.011 A 
HETATM   15  C15 UNL     1       4.936   0.138  -1.178  1.00  0.00     0.009 A 
HETATM   16  C16 UNL     1       5.134   1.179  -0.316  1.00  0.00    -0.037 A 
HETATM   17  C20 UNL     1       4.648   1.066   0.955  1.00  0.00     0.036 A 
HETATM   18  C21 UNL     1       3.955  -0.075   1.406  1.00  0.00     0.054 A 
HETATM   19  N8  UNL     1       3.509  -0.098   2.751  1.00  0.00    -0.102 NA
BRANCH  16  20
HETATM   20  C17 UNL     1       5.846   2.429  -0.674  1.00  0.00     0.188 C 
BRANCH  20  21
HETATM   21  N3  UNL     1       7.258   2.345  -0.465  1.00  0.00    -0.280 N 
HETATM   22  C18 UNL     1       8.153   1.930  -1.392  1.00  0.00     0.179 A 
HETATM   23  C19 UNL     1       9.425   1.974  -0.850  1.00  0.00     0.235 A 
HETATM   24  N6  UNL     1       9.243   2.423   0.407  1.00  0.00    -0.257 N 
HETATM   25  N7  UNL     1       7.937   2.641   0.622  1.00  0.00    -0.238 N 
ATOM     26  H6  UNL     1       9.985   2.574   1.091  1.00  0.00     0.191 HD
ATOM     27  H7  UNL     1       7.533   2.983   1.494  1.00  0.00     0.208 HD
BRANCH  23  28
HETATM   28  N4  UNL     1      10.530   1.678  -1.364  1.00  0.00    -0.311 NA
BRANCH  28  29
HETATM   29  N5  UNL     1      11.475   1.364  -2.084  1.00  0.00    -0.278 N 
ATOM     30  H52 UNL     1      10.853   1.293  -2.889  1.00  0.00     0.191 HD
ATOM     31  H51 UNL     1      12.374   1.123  -2.502  1.00  0.00     0.191 HD
ENDBRANCH  28  29
ENDBRANCH  23  28
ENDBRANCH  20  21
ENDBRANCH  16  20
ENDBRANCH  12  13
ENDBRANCH   4  12
BRANCH   1  32
HETATM   32  O1  UNL     1      -2.502  -2.309   0.183  1.00  0.00    -0.335 OA
BRANCH  32  33
HETATM   33  C8  UNL     1      -3.680  -2.068   0.814  1.00  0.00     0.177 C 
BRANCH  33  34
HETATM   34  C7  UNL     1      -3.846  -0.620   1.224  1.00  0.00     0.027 C 
BRANCH  34  35
HETATM   35  C6  UNL     1      -3.822   0.277   0.001  1.00  0.00     0.004 C 
BRANCH  35  36
HETATM   36  C5  UNL     1      -4.867   0.016  -1.006  1.00  0.00     0.028 C 
BRANCH  36  37
HETATM   37  C4  UNL     1      -6.285   0.167  -0.644  1.00  0.00     0.236 C 
BRANCH  37  38
HETATM   38  N1  UNL     1      -6.750   1.456  -0.266  1.00  0.00    -0.079 N 
HETATM   39  C1  UNL     1      -6.580   1.832   1.109  1.00  0.00     0.271 C 
HETATM   40  C2  UNL     1      -6.213   2.521  -1.097  1.00  0.00     0.271 C 
HETATM   41  C3  UNL     1      -8.211   1.512  -0.503  1.00  0.00     0.271 C 
ENDBRANCH  37  38
ENDBRANCH  36  37
ENDBRANCH  35  36
ENDBRANCH  34  35
ENDBRANCH  33  34
ENDBRANCH  32  33
ENDBRANCH   1  32
TORSDOF 13
