REMARK  13 active torsions:
REMARK  status: ('A' for Active; 'I' for Inactive)
REMARK    1  A    between atoms: C3_3  and  C4_4 
REMARK    2  A    between atoms: C4_4  and  N1_5 
REMARK    3  A    between atoms: N1_5  and  C5_6 
REMARK    4  A    between atoms: C5_6  and  C6_7 
REMARK    5  A    between atoms: C6_7  and  N2_8 
REMARK       I    between atoms: N2_8  and  C7_10 
REMARK    6  A    between atoms: N4_12  and  C8_14 
REMARK    7  A    between atoms: C8_14  and  C9_15 
REMARK    8  A    between atoms: C9_15  and  C10_16 
REMARK    9  A    between atoms: C10_16  and  C11_17 
REMARK   10  A    between atoms: C11_17  and  N5_18 
REMARK   11  A    between atoms: N6_25  and  N7_27 
REMARK   12  A    between atoms: C19_33  and  O1_34 
REMARK   13  A    between atoms: C21_37  and  O2_38 
ROOT
HETATM    1  C1  UNL     1      -4.617  -4.664   2.138  1.00  0.00     0.112 C 
HETATM    2  C2  UNL     1      -4.234  -3.758   1.057  1.00  0.00    -0.109 C 
HETATM    3  C3  UNL     1      -3.904  -3.005   0.175  1.00  0.00    -0.079 C 
ENDROOT
BRANCH   3   4
HETATM    4  C4  UNL     1      -3.529  -2.115  -0.895  1.00  0.00     0.331 C 
BRANCH   4   5
HETATM    5  N1  UNL     1      -3.178  -0.764  -0.481  1.00  0.00    -0.048 N 
HETATM    6  C15 UNL     1      -2.680  -0.122  -1.656  1.00  0.00     0.245 C 
HETATM    7  C16 UNL     1      -2.422   1.314  -1.528  1.00  0.00     0.082 C 
HETATM    8  C17 UNL     1      -2.997   1.882  -0.304  1.00  0.00     0.015 C 
HETATM    9  N6  UNL     1      -2.392   2.902   0.222  1.00  0.00    -0.294 N 
HETATM   10  C18 UNL     1      -4.211   1.306   0.290  1.00  0.00     0.095 C 
ATOM     11  H6  UNL     1      -1.555   3.245  -0.250  1.00  0.00     0.187 HD
HETATM   12  C19 UNL     1      -5.443   2.024  -0.275  1.00  0.00     0.132 C 
HETATM   13  C22 UNL     1      -4.406  -0.128   0.003  1.00  0.00     0.232 C 
HETATM   14  C20 UNL     1      -6.480   0.908  -0.380  1.00  0.00     0.066 C 
HETATM   15  C21 UNL     1      -5.588  -0.237  -0.846  1.00  0.00     0.152 C 
BRANCH   5  16
HETATM   16  C5  UNL     1      -2.289  -0.819   0.634  1.00  0.00     0.258 C 
BRANCH  16  17
HETATM   17  C6  UNL     1      -0.841  -0.690   0.442  1.00  0.00     0.150 C 
BRANCH  17  18
HETATM   18  N2  UNL     1      -0.158  -1.673  -0.348  1.00  0.00    -0.363 N 
HETATM   19  C7  UNL     1       1.253  -1.505  -0.581  1.00  0.00     0.184 C 
HETATM   20  N3  UNL     1       1.765  -1.688  -1.873  1.00  0.00    -0.064 NA
HETATM   21  N4  UNL     1       1.991  -1.193   0.405  1.00  0.00    -0.365 N 
ATOM     22  H4  UNL     1       1.550  -1.076   1.317  1.00  0.00     0.162 HD
ATOM     23  H2  UNL     1      -0.660  -2.472  -0.736  1.00  0.00     0.162 HD
BRANCH  21  24
HETATM   24  C8  UNL     1       3.417  -0.995   0.310  1.00  0.00     0.122 C 
BRANCH  24  25
HETATM   25  C9  UNL     1       3.827   0.059   1.313  1.00  0.00     0.021 C 
BRANCH  25  26
HETATM   26  C10 UNL     1       5.296   0.347   1.305  1.00  0.00     0.029 C 
BRANCH  26  27
HETATM   27  C11 UNL     1       5.790   0.843  -0.021  1.00  0.00     0.236 C 
BRANCH  27  28
HETATM   28  N5  UNL     1       7.214   1.115  -0.007  1.00  0.00    -0.079 N 
HETATM   29  C12 UNL     1       7.993  -0.103  -0.115  1.00  0.00     0.271 C 
HETATM   30  C13 UNL     1       7.519   2.020  -1.087  1.00  0.00     0.271 C 
HETATM   31  C14 UNL     1       7.538   1.775   1.264  1.00  0.00     0.271 C 
ENDBRANCH  27  28
ENDBRANCH  26  27
ENDBRANCH  25  26
ENDBRANCH  24  25
ENDBRANCH  21  24
ENDBRANCH  17  18
ENDBRANCH  16  17
ENDBRANCH   5  16
BRANCH   9  32
HETATM   32  N7  UNL     1      -2.788   3.559   1.365  1.00  0.00    -0.249 N 
HETATM   33  N8  UNL     1      -2.507   3.130   2.514  1.00  0.00    -0.331 N 
ATOM     34  H82 UNL     1      -1.968   2.267   2.583  1.00  0.00     0.178 HD
ATOM     35  H81 UNL     1      -2.800   3.617   3.361  1.00  0.00     0.178 HD
ATOM     36  H7  UNL     1      -3.326   4.421   1.278  1.00  0.00     0.207 HD
ENDBRANCH   9  32
BRANCH  12  37
HETATM   37  O1  UNL     1      -5.848   3.048   0.542  1.00  0.00    -0.395 OA
ATOM     38  H1  UNL     1      -6.611   3.493   0.192  1.00  0.00     0.210 HD
ENDBRANCH  12  37
BRANCH  15  39
HETATM   39  O2  UNL     1      -6.387  -1.372  -0.653  1.00  0.00    -0.393 OA
ATOM     40  H2  UNL     1      -5.831  -2.086  -0.943  1.00  0.00     0.210 HD
ENDBRANCH  15  39
ENDBRANCH   4   5
ENDBRANCH   3   4
TORSDOF 13
