REMARK  12 active torsions:
REMARK  status: ('A' for Active; 'I' for Inactive)
REMARK    1  A    between atoms: C3_3  and  N1_4 
REMARK    2  A    between atoms: N1_4  and  C4_5 
REMARK       I    between atoms: N1_4  and  C20_36 
REMARK    3  A    between atoms: C4_5  and  C5_6 
REMARK    4  A    between atoms: C5_6  and  N2_7 
REMARK    5  A    between atoms: N2_7  and  C6_8 
REMARK    6  A    between atoms: C6_8  and  C7_9 
REMARK    7  A    between atoms: C7_9  and  N3_10 
REMARK    8  A    between atoms: N3_10  and  C8_12 
REMARK    9  A    between atoms: C9_17  and  N6_18 
REMARK   10  A    between atoms: N6_18  and  C10_20 
REMARK   11  A    between atoms: C10_20  and  C11_21 
REMARK   12  A    between atoms: C11_21  and  N7_22 
ROOT
HETATM    1  C1  UNL     1      -8.257  -3.613   0.796  1.00  0.00     0.014 C 
HETATM    2  C2  UNL     1      -7.984  -2.451   0.926  1.00  0.00    -0.098 C 
HETATM    3  C3  UNL     1      -7.669  -1.011   1.073  1.00  0.00     0.219 C 
ENDROOT
BRANCH   3   4
HETATM    4  N1  UNL     1      -7.106  -0.592  -0.196  1.00  0.00    -0.340 N 
HETATM    5  C20 UNL     1      -7.958  -0.100  -1.217  1.00  0.00     0.216 C 
HETATM    6  C21 UNL     1      -9.418   0.019  -1.077  1.00  0.00     0.117 C 
HETATM    7  O2  UNL     1      -7.428   0.252  -2.301  1.00  0.00    -0.274 OA
BRANCH   4   8
HETATM    8  C4  UNL     1      -5.661  -0.686  -0.398  1.00  0.00     0.154 C 
BRANCH   8   9
HETATM    9  C5  UNL     1      -5.085   0.609   0.047  1.00  0.00     0.257 C 
BRANCH   9  10
HETATM   10  N2  UNL     1      -3.652   0.745  -0.058  1.00  0.00    -0.064 N 
HETATM   11  C17 UNL     1      -3.098   0.938   1.255  1.00  0.00     0.239 C 
HETATM   12  C18 UNL     1      -3.577   2.378   1.209  1.00  0.00     0.056 C 
HETATM   13  C19 UNL     1      -3.387   2.170  -0.292  1.00  0.00     0.239 C 
BRANCH  10  14
HETATM   14  C6  UNL     1      -3.046  -0.175  -0.925  1.00  0.00     0.257 C 
BRANCH  14  15
HETATM   15  C7  UNL     1      -1.626  -0.548  -0.715  1.00  0.00     0.166 C 
BRANCH  15  16
HETATM   16  N3  UNL     1      -0.682   0.547  -0.796  1.00  0.00    -0.223 N 
ATOM     17  H3  UNL     1      -0.982   1.445  -1.176  1.00  0.00     0.177 HD
BRANCH  16  18
HETATM   18  C8  UNL     1       0.524   0.401  -0.396  1.00  0.00     0.707 A 
HETATM   19  N4  UNL     1       1.106  -0.686   0.127  1.00  0.00    -0.117 N 
HETATM   20  N5  UNL     1       2.386  -0.385   0.403  1.00  0.00    -0.117 N 
ATOM     21  H4  UNL     1       0.655  -1.587   0.288  1.00  0.00     0.206 HD
HETATM   22  C9  UNL     1       2.631   0.895   0.059  1.00  0.00     0.707 A 
ATOM     23  H5  UNL     1       3.067  -1.026   0.810  1.00  0.00     0.206 HD
HETATM   24  N9  UNL     1       1.475   1.358  -0.429  1.00  0.00    -0.020 N 
ATOM     25  H9  UNL     1       1.332   2.305  -0.779  1.00  0.00     0.203 HD
BRANCH  22  26
HETATM   26  N6  UNL     1       3.765   1.541   0.181  1.00  0.00    -0.223 N 
ATOM     27  H6  UNL     1       3.828   2.515  -0.117  1.00  0.00     0.177 HD
BRANCH  26  28
HETATM   28  C10 UNL     1       4.930   0.881   0.736  1.00  0.00     0.166 C 
BRANCH  28  29
HETATM   29  C11 UNL     1       5.648   0.208  -0.385  1.00  0.00     0.257 C 
BRANCH  29  30
HETATM   30  N7  UNL     1       6.842  -0.498   0.005  1.00  0.00    -0.060 N 
HETATM   31  C12 UNL     1       6.480  -1.916   0.085  1.00  0.00     0.273 C 
HETATM   32  C13 UNL     1       7.353  -0.130   1.287  1.00  0.00     0.257 C 
HETATM   33  C14 UNL     1       8.379   1.001   1.237  1.00  0.00     0.150 C 
HETATM   34  N8  UNL     1       9.519   0.452   0.524  1.00  0.00    -0.358 N 
HETATM   35  C15 UNL     1       9.206  -0.378  -0.588  1.00  0.00     0.243 C 
ATOM     36  H8  UNL     1      10.480   0.649   0.802  1.00  0.00     0.162 HD
HETATM   37  O1  UNL     1      10.062  -1.091  -1.157  1.00  0.00    -0.272 OA
HETATM   38  C16 UNL     1       7.801  -0.369  -1.060  1.00  0.00     0.339 C 
ENDBRANCH  29  30
ENDBRANCH  28  29
ENDBRANCH  26  28
ENDBRANCH  22  26
ENDBRANCH  16  18
ENDBRANCH  15  16
ENDBRANCH  14  15
ENDBRANCH  10  14
ENDBRANCH   9  10
ENDBRANCH   8   9
ENDBRANCH   4   8
ENDBRANCH   3   4
TORSDOF 12
