REMARK  14 active torsions:
REMARK  status: ('A' for Active; 'I' for Inactive)
REMARK    1  A    between atoms: N1_5  and  C5_6 
REMARK    2  A    between atoms: C5_6  and  C6_7 
REMARK    3  A    between atoms: C6_7  and  C7_8 
REMARK    4  A    between atoms: C7_8  and  N2_9 
REMARK    5  A    between atoms: C12_14  and  C13_15 
REMARK    6  A    between atoms: C13_15  and  C14_16 
REMARK    7  A    between atoms: C14_16  and  N3_17 
REMARK       I    between atoms: N3_17  and  C15_19 
REMARK    8  A    between atoms: C15_19  and  C16_21 
REMARK    9  A    between atoms: C16_21  and  C17_22 
REMARK   10  A    between atoms: C21_26  and  N4_27 
REMARK   11  A    between atoms: N4_27  and  N5_29 
REMARK   12  A    between atoms: C22_32  and  C23_33 
REMARK   13  A    between atoms: C24_35  and  C25_36 
REMARK   14  A    between atoms: C25_36  and  O2_37 
ROOT
HETATM    1  N3  UNL     1       0.198  -1.891  -0.612  1.00  0.00    -0.360 N 
ATOM      2  H3  UNL     1      -0.476  -1.399  -0.025  1.00  0.00     0.162 HD
HETATM    3  C15 UNL     1       1.583  -1.656  -0.448  1.00  0.00     0.221 C 
HETATM    4  O1  UNL     1       2.391  -2.271  -1.181  1.00  0.00    -0.273 OA
ENDROOT
BRANCH   1   5
HETATM    5  C14 UNL     1      -0.264  -2.830  -1.614  1.00  0.00     0.128 C 
BRANCH   5   6
HETATM    6  C13 UNL     1      -1.772  -2.903  -1.585  1.00  0.00     0.077 C 
BRANCH   6   7
HETATM    7  C12 UNL     1      -2.292  -3.396  -0.285  1.00  0.00     0.012 A 
HETATM    8  N2  UNL     1      -3.602  -3.369   0.006  1.00  0.00    -0.360 N 
HETATM    9  C8  UNL     1      -4.031  -3.922   1.144  1.00  0.00     0.091 A 
HETATM   10  C9  UNL     1      -3.169  -4.517   2.029  1.00  0.00     0.017 A 
HETATM   11  C10 UNL     1      -1.830  -4.558   1.762  1.00  0.00     0.003 A 
HETATM   12  C11 UNL     1      -1.373  -3.990   0.584  1.00  0.00     0.025 A 
BRANCH   8  13
HETATM   13  C7  UNL     1      -4.563  -2.706  -0.805  1.00  0.00     0.130 C 
BRANCH  13  14
HETATM   14  C6  UNL     1      -5.022  -1.368  -0.371  1.00  0.00     0.040 C 
BRANCH  14  15
HETATM   15  C5  UNL     1      -4.013  -0.287  -0.222  1.00  0.00     0.130 C 
BRANCH  15  16
HETATM   16  N1  UNL     1      -4.601   0.966   0.229  1.00  0.00    -0.360 N 
HETATM   17  C4  UNL     1      -4.705   1.230   1.548  1.00  0.00     0.091 A 
HETATM   18  C3  UNL     1      -5.258   2.407   2.020  1.00  0.00     0.024 A 
HETATM   19  C2  UNL     1      -5.725   3.356   1.136  1.00  0.00    -0.059 A 
HETATM   20  C1  UNL     1      -6.329   4.639   1.597  1.00  0.00     0.048 C 
HETATM   21  C28 UNL     1      -5.617   3.080  -0.208  1.00  0.00     0.031 A 
HETATM   22  C26 UNL     1      -5.047   1.870  -0.633  1.00  0.00     0.007 A 
HETATM   23  C27 UNL     1      -4.963   1.646  -2.081  1.00  0.00     0.068 C 
ENDBRANCH  15  16
ENDBRANCH  14  15
ENDBRANCH  13  14
ENDBRANCH   8  13
ENDBRANCH   6   7
ENDBRANCH   5   6
ENDBRANCH   1   5
BRANCH   3  24
HETATM   24  C16 UNL     1       2.067  -0.678   0.595  1.00  0.00     0.131 C 
BRANCH  24  25
HETATM   25  C17 UNL     1       3.545  -0.637   0.565  1.00  0.00    -0.006 C 
HETATM   26  C18 UNL     1       4.249   0.419   0.282  1.00  0.00    -0.030 A 
HETATM   27  C19 UNL     1       3.547   1.652  -0.029  1.00  0.00     0.014 A 
HETATM   28  C24 UNL     1       5.743   0.354   0.296  1.00  0.00    -0.011 A 
HETATM   29  C20 UNL     1       4.256   2.732  -0.303  1.00  0.00     0.033 A 
HETATM   30  C21 UNL     1       5.699   2.715  -0.302  1.00  0.00     0.059 A 
HETATM   31  C22 UNL     1       6.430   1.437   0.019  1.00  0.00     0.014 A 
BRANCH  30  32
HETATM   32  N4  UNL     1       6.391   3.768  -0.564  1.00  0.00    -0.306 N 
ATOM     33  H4  UNL     1       7.410   3.721  -0.553  1.00  0.00     0.186 HD
BRANCH  32  34
HETATM   34  N5  UNL     1       5.756   4.972  -0.862  1.00  0.00    -0.345 N 
ATOM     35  H52 UNL     1       4.736   5.002  -0.868  1.00  0.00     0.176 HD
ATOM     36  H51 UNL     1       6.304   5.807  -1.070  1.00  0.00     0.176 HD
ENDBRANCH  32  34
ENDBRANCH  30  32
BRANCH  31  37
HETATM   37  C23 UNL     1       7.892   1.515  -0.089  1.00  0.00     0.114 C 
HETATM   38  N6  UNL     1       8.700   0.388   0.058  1.00  0.00    -0.114 NA
ENDBRANCH  31  37
BRANCH  28  39
HETATM   39  C25 UNL     1       6.308  -0.925   0.710  1.00  0.00     0.204 C 
BRANCH  39  40
HETATM   40  O2  UNL     1       6.042  -1.996  -0.146  1.00  0.00    -0.396 OA
ATOM     41  H2  UNL     1       6.410  -2.829   0.124  1.00  0.00     0.209 HD
ENDBRANCH  39  40
ENDBRANCH  28  39
ENDBRANCH  24  25
ENDBRANCH   3  24
TORSDOF 14
