REMARK  14 active torsions:
REMARK  status: ('A' for Active; 'I' for Inactive)
REMARK    1  A    between atoms: N1_2  and  C2_4 
REMARK    2  A    between atoms: C2_4  and  N2_6 
REMARK    3  A    between atoms: C3_8  and  C4_9 
REMARK    4  A    between atoms: C3_8  and  N4_16 
REMARK    5  A    between atoms: C4_9  and  C5_10 
REMARK    6  A    between atoms: C5_10  and  C6_11 
REMARK    7  A    between atoms: C6_11  and  N3_12 
REMARK    8  A    between atoms: N4_16  and  C10_18 
REMARK    9  A    between atoms: C10_18  and  C11_19 
REMARK   10  A    between atoms: C10_18  and  C13_31 
REMARK       I    between atoms: C11_19  and  N5_21 
REMARK   11  A    between atoms: C12_23  and  N6_24 
REMARK   12  A    between atoms: N6_24  and  N7_26 
REMARK   13  A    between atoms: C15_33  and  S2_34 
REMARK   14  A    between atoms: S2_34  and  N9_37 
ROOT
HETATM    1  C10 UNL     1      -1.999   0.947  -0.564  1.00  0.00     0.205 C 
ENDROOT
BRANCH   1   2
HETATM    2  N4  UNL     1      -1.010   1.827   0.003  1.00  0.00    -0.363 N 
ATOM      3  H4  UNL     1      -1.372   2.639   0.504  1.00  0.00     0.162 HD
BRANCH   2   4
HETATM    4  C3  UNL     1       0.385   1.711  -0.045  1.00  0.00     0.080 C 
HETATM    5  N2  UNL     1       1.171   2.755  -0.110  1.00  0.00    -0.323 N 
ATOM      6  H2  UNL     1       2.176   2.583  -0.134  1.00  0.00     0.169 HD
BRANCH   5   7
HETATM    7  C2  UNL     1       0.747   4.091  -0.150  1.00  0.00     0.172 C 
HETATM    8  S1  UNL     1       0.459   4.908  -1.533  1.00  0.00    -0.041 SA
BRANCH   7   9
HETATM    9  N1  UNL     1       0.565   4.763   1.083  1.00  0.00    -0.371 N 
HETATM   10  C1  UNL     1       0.805   4.100   2.357  1.00  0.00     0.148 C 
ATOM     11  H1  UNL     1       0.258   5.736   1.079  1.00  0.00     0.161 HD
ENDBRANCH   7   9
ENDBRANCH   5   7
BRANCH   4  12
HETATM   12  C4  UNL     1       1.032   0.383  -0.011  1.00  0.00     0.078 C 
BRANCH  12  13
HETATM   13  C5  UNL     1       2.504   0.593  -0.256  1.00  0.00     0.035 C 
BRANCH  13  14
HETATM   14  C6  UNL     1       3.352  -0.612  -0.254  1.00  0.00     0.236 C 
BRANCH  14  15
HETATM   15  N3  UNL     1       3.456  -1.411   0.890  1.00  0.00    -0.079 N 
HETATM   16  C7  UNL     1       3.142  -0.824   2.144  1.00  0.00     0.271 C 
HETATM   17  C8  UNL     1       2.591  -2.585   0.729  1.00  0.00     0.271 C 
HETATM   18  C9  UNL     1       4.810  -1.990   0.990  1.00  0.00     0.271 C 
ENDBRANCH  14  15
ENDBRANCH  13  14
ENDBRANCH  12  13
ENDBRANCH   4  12
ENDBRANCH   2   4
ENDBRANCH   1   2
BRANCH   1  19
HETATM   19  C11 UNL     1      -1.778   0.792  -2.007  1.00  0.00     0.249 C 
HETATM   20  O1  UNL     1      -0.777   1.394  -2.530  1.00  0.00    -0.270 OA
HETATM   21  N5  UNL     1      -2.559   0.044  -2.909  1.00  0.00    -0.320 N 
HETATM   22  C12 UNL     1      -3.487   0.567  -3.644  1.00  0.00     0.201 C 
ATOM     23  H5  UNL     1      -2.385  -0.958  -2.987  1.00  0.00     0.169 HD
BRANCH  22  24
HETATM   24  N6  UNL     1      -3.794   1.954  -3.597  1.00  0.00    -0.282 N 
ATOM     25  H6  UNL     1      -3.157   2.605  -4.056  1.00  0.00     0.189 HD
BRANCH  24  26
HETATM   26  N7  UNL     1      -4.919   2.473  -2.957  1.00  0.00    -0.248 N 
HETATM   27  N8  UNL     1      -5.814   1.680  -2.496  1.00  0.00    -0.331 N 
ATOM     28  H82 UNL     1      -5.688   0.674  -2.605  1.00  0.00     0.178 HD
ATOM     29  H81 UNL     1      -6.637   2.060  -2.028  1.00  0.00     0.178 HD
ATOM     30  H7  UNL     1      -5.029   3.482  -2.856  1.00  0.00     0.207 HD
ENDBRANCH  24  26
ENDBRANCH  22  24
ENDBRANCH   1  19
BRANCH   1  31
HETATM   31  C13 UNL     1      -2.255  -0.281   0.204  1.00  0.00    -0.040 C 
HETATM   32  C14 UNL     1      -2.578  -0.142   1.683  1.00  0.00     0.047 C 
HETATM   33  C15 UNL     1      -2.208  -1.506  -0.254  1.00  0.00     0.136 C 
BRANCH  33  34
HETATM   34  S2  UNL     1      -2.518  -2.966   0.660  1.00  0.00     0.248 S 
HETATM   35  O2  UNL     1      -2.876  -2.738   2.072  1.00  0.00    -0.201 OA
HETATM   36  O3  UNL     1      -3.682  -3.735   0.037  1.00  0.00    -0.201 OA
BRANCH  34  37
HETATM   37  N9  UNL     1      -1.184  -4.056   0.604  1.00  0.00    -0.321 N 
HETATM   38  C16 UNL     1      -0.969  -4.429  -0.773  1.00  0.00     0.159 C 
ATOM     39  H9  UNL     1      -0.641  -4.381   1.404  1.00  0.00     0.171 HD
ENDBRANCH  34  37
ENDBRANCH  33  34
ENDBRANCH   1  31
TORSDOF 14
