REMARK  7 active torsions:
REMARK  status: ('A' for Active; 'I' for Inactive)
REMARK    1  A    between atoms: N1_3  and  N2_5 
REMARK    2  A    between atoms: C3_6  and  C4_7 
REMARK    3  A    between atoms: C7_10  and  O1_11 
REMARK    4  A    between atoms: N3_13  and  C8_14 
REMARK    5  A    between atoms: C8_14  and  C9_15 
REMARK    6  A    between atoms: C9_15  and  C10_16 
REMARK    7  A    between atoms: N4_20  and  O3_21 
ROOT
HETATM    1  C4  UNL     1      -0.787   0.248  -0.479  1.00  0.00     0.088 A 
HETATM    2  C5  UNL     1      -0.592  -0.900   0.268  1.00  0.00    -0.005 A 
HETATM    3  C6  UNL     1       0.570  -1.084   0.959  1.00  0.00     0.115 A 
HETATM    4  C7  UNL     1       1.532  -0.086   0.881  1.00  0.00     0.175 A 
HETATM    5  N3  UNL     1       1.370   1.036   0.166  1.00  0.00    -0.292 N 
HETATM    6  C12 UNL     1       0.209   1.182  -0.503  1.00  0.00     0.264 A 
HETATM    7  O2  UNL     1       0.005   2.215  -1.190  1.00  0.00    -0.267 OA
HETATM    8  N4  UNL     1       0.753  -2.254   1.711  1.00  0.00    -0.256 N 
HETATM    9  C13 UNL     1       0.069  -3.458   1.383  1.00  0.00     0.165 C 
HETATM   10  C14 UNL     1      -1.006  -3.313   0.368  1.00  0.00    -0.025 C 
HETATM   11  C15 UNL     1      -2.107  -4.323   0.671  1.00  0.00     0.017 C 
HETATM   12  C16 UNL     1      -0.480  -3.639  -1.016  1.00  0.00     0.017 C 
HETATM   13  C17 UNL     1      -1.638  -1.949   0.336  1.00  0.00     0.052 C 
ENDROOT
BRANCH   1  14
HETATM   14  C3  UNL     1      -2.047   0.392  -1.197  1.00  0.00     0.161 A 
HETATM   15  N2  UNL     1      -3.129   0.972  -0.653  1.00  0.00    -0.211 N 
HETATM   16  C18 UNL     1      -4.121   0.951  -1.558  1.00  0.00     0.214 A 
HETATM   17  N6  UNL     1      -3.614   0.350  -2.648  1.00  0.00    -0.273 N 
HETATM   18  S1  UNL     1      -5.648   1.535  -1.387  1.00  0.00    -0.037 SA
HETATM   19  N5  UNL     1      -2.360   0.007  -2.442  1.00  0.00    -0.281 N 
ATOM     20  H6  UNL     1      -4.128   0.183  -3.513  1.00  0.00     0.189 HD
ATOM     21  H5  UNL     1      -1.743  -0.463  -3.105  1.00  0.00     0.188 HD
BRANCH  15  22
HETATM   22  N1  UNL     1      -3.249   1.525   0.647  1.00  0.00    -0.305 N 
HETATM   23  C2  UNL     1      -3.073   2.783   0.855  1.00  0.00     0.076 C 
HETATM   24  C1  UNL     1      -3.180   3.424   2.170  1.00  0.00     0.056 C 
ATOM     25  H1  UNL     1      -3.479   0.915   1.431  1.00  0.00     0.186 HD
ENDBRANCH  15  22
ENDBRANCH   1  14
BRANCH   5  26
HETATM   26  C8  UNL     1       2.380   2.075   0.089  1.00  0.00     0.134 C 
BRANCH  26  27
HETATM   27  C9  UNL     1       3.312   1.795  -1.080  1.00  0.00     0.020 C 
BRANCH  27  28
HETATM   28  C10 UNL     1       4.333   2.926  -1.086  1.00  0.00    -0.003 C 
HETATM   29  C11 UNL     1       5.278   2.692  -2.227  1.00  0.00     0.005 C 
ENDBRANCH  27  28
ENDBRANCH  26  27
ENDBRANCH   5  26
BRANCH   4  30
HETATM   30  O1  UNL     1       2.713  -0.284   1.591  1.00  0.00    -0.344 OA
ATOM     31  H1  UNL     1       3.371   0.399   1.538  1.00  0.00     0.219 HD
ENDBRANCH   4  30
BRANCH   8  32
HETATM   32  O3  UNL     1       1.599  -2.227   2.760  1.00  0.00    -0.287 OA
ATOM     33  H3  UNL     1       1.723  -3.019   3.269  1.00  0.00     0.244 HD
ENDBRANCH   8  32
TORSDOF 7
