REMARK  4 active torsions:
REMARK  status: ('A' for Active; 'I' for Inactive)
REMARK    1  A    between atoms: C2_2  and  O1_3 
REMARK    2  A    between atoms: O1_3  and  C3_4 
REMARK       I    between atoms: C3_4  and  N1_6 
REMARK    3  A    between atoms: C4_7  and  C5_8 
REMARK    4  A    between atoms: C9_12  and  N2_13 
ROOT
HETATM    1  C5  UNL     1       0.005  -0.883  -0.212  1.00  0.00     0.015 A 
HETATM    2  C6  UNL     1       1.097  -1.440   0.475  1.00  0.00     0.047 A 
HETATM    3  C7  UNL     1       2.186  -0.691   0.862  1.00  0.00     0.058 A 
HETATM    4  C8  UNL     1       2.255   0.672   0.588  1.00  0.00     0.088 A 
HETATM    5  C9  UNL     1       1.218   1.238  -0.072  1.00  0.00     0.132 A 
HETATM    6  C10 UNL     1       0.111   0.439  -0.459  1.00  0.00     0.053 A 
HETATM    7  N3  UNL     1       3.428   1.353   1.000  1.00  0.00    -0.385 N 
ATOM      8  H3  UNL     1       3.388   2.372   1.037  1.00  0.00     0.159 HD
HETATM    9  C11 UNL     1       4.672   0.728   1.371  1.00  0.00     0.139 C 
HETATM   10  C12 UNL     1       4.500  -0.651   1.914  1.00  0.00     0.139 C 
HETATM   11  N4  UNL     1       3.278  -1.279   1.563  1.00  0.00    -0.386 N 
ATOM     12  H4  UNL     1       3.169  -2.254   1.842  1.00  0.00     0.159 HD
ENDROOT
BRANCH   1  13
HETATM   13  C4  UNL     1      -1.026  -1.814  -0.642  1.00  0.00     0.144 A 
HETATM   14  N1  UNL     1      -2.331  -1.683  -0.781  1.00  0.00    -0.215 N 
HETATM   15  C3  UNL     1      -3.208  -0.620  -0.463  1.00  0.00     0.375 C 
HETATM   16  C13 UNL     1      -2.854  -2.898  -1.185  1.00  0.00     0.203 A 
HETATM   17  O2  UNL     1      -4.412  -0.707  -0.801  1.00  0.00    -0.237 OA
HETATM   18  N6  UNL     1      -1.840  -3.750  -1.278  1.00  0.00    -0.274 N 
HETATM   19  S1  UNL     1      -4.386  -3.277  -1.500  1.00  0.00    -0.038 SA
HETATM   20  N5  UNL     1      -0.749  -3.131  -0.960  1.00  0.00    -0.282 N 
ATOM     21  H6  UNL     1      -1.909  -4.729  -1.554  1.00  0.00     0.189 HD
ATOM     22  H5  UNL     1       0.180  -3.553  -0.946  1.00  0.00     0.188 HD
BRANCH  15  23
HETATM   23  O1  UNL     1      -2.832   0.494   0.197  1.00  0.00    -0.304 OA
BRANCH  23  24
HETATM   24  C2  UNL     1      -3.638   1.588   0.557  1.00  0.00     0.176 C 
HETATM   25  C1  UNL     1      -4.196   2.222  -0.670  1.00  0.00     0.034 C 
ENDBRANCH  23  24
ENDBRANCH  15  23
ENDBRANCH   1  13
BRANCH   5  26
HETATM   26  N2  UNL     1       1.203   2.605  -0.409  1.00  0.00    -0.113 N 
HETATM   27  O3  UNL     1       0.591   2.977  -1.467  1.00  0.00    -0.532 OA
HETATM   28  O4  UNL     1       1.790   3.583   0.294  1.00  0.00    -0.532 OA
ENDBRANCH   5  26
TORSDOF 4
