REMARK  10 active torsions:
REMARK  status: ('A' for Active; 'I' for Inactive)
REMARK    1  A    between atoms: C2_2  and  C5_8 
REMARK    2  A    between atoms: C3_3  and  C4_4 
REMARK    3  A    between atoms: C4_4  and  N1_5 
REMARK    4  A    between atoms: C5_8  and  C6_9 
REMARK    5  A    between atoms: C6_9  and  C7_10 
REMARK    6  A    between atoms: C7_10  and  C8_11 
REMARK    7  A    between atoms: C9_12  and  O1_13 
REMARK    8  A    between atoms: C11_16  and  O2_17 
REMARK    9  A    between atoms: O2_17  and  S1_18 
REMARK   10  A    between atoms: C13_24  and  C14_25 
ROOT
HETATM    1  C8  UNL     1       0.266  -1.130   1.288  1.00  0.00     0.069 C 
HETATM    2  C9  UNL     1      -0.131  -2.571   1.010  1.00  0.00     0.131 C 
HETATM    3  C10 UNL     1      -1.109  -2.678  -0.136  1.00  0.00     0.068 C 
HETATM    4  C11 UNL     1      -2.371  -1.887   0.104  1.00  0.00     0.179 C 
HETATM    5  C12 UNL     1      -2.044  -0.580   0.752  1.00  0.00     0.185 C 
HETATM    6  O6  UNL     1      -2.646   0.514   0.186  1.00  0.00    -0.346 OA
HETATM    7  C13 UNL     1      -1.857   1.564   0.654  1.00  0.00     0.302 C 
HETATM    8  O7  UNL     1      -0.559   1.081   0.773  1.00  0.00    -0.348 OA
HETATM    9  C18 UNL     1      -0.579  -0.260   0.415  1.00  0.00     0.166 C 
ENDROOT
BRANCH   1  10
HETATM   10  C7  UNL     1       1.709  -0.907   1.117  1.00  0.00    -0.017 C 
BRANCH  10  11
HETATM   11  C6  UNL     1       2.231  -0.033   0.281  1.00  0.00    -0.003 C 
BRANCH  11  12
HETATM   12  C5  UNL     1       3.669   0.125   0.173  1.00  0.00     0.007 C 
BRANCH  12  13
HETATM   13  C2  UNL     1       4.178   1.020  -0.682  1.00  0.00    -0.053 C 
HETATM   14  C1  UNL     1       3.283   1.839  -1.509  1.00  0.00     0.049 C 
HETATM   15  C3  UNL     1       5.613   1.151  -0.765  1.00  0.00     0.081 C 
BRANCH  15  16
HETATM   16  C4  UNL     1       6.278   1.515   0.286  1.00  0.00    -0.048 C 
BRANCH  16  17
HETATM   17  N1  UNL     1       6.927   1.694   1.384  1.00  0.00    -0.366 N 
ATOM     18  H12 UNL     1       6.795   0.697   1.555  1.00  0.00     0.165 HD
ATOM     19  H11 UNL     1       7.450   1.981   2.211  1.00  0.00     0.165 HD
ENDBRANCH  16  17
ENDBRANCH  15  16
ENDBRANCH  12  13
ENDBRANCH  11  12
ENDBRANCH  10  11
ENDBRANCH   1  10
BRANCH   2  20
HETATM   20  O1  UNL     1      -0.578  -3.230   2.138  1.00  0.00    -0.395 OA
ATOM     21  H1  UNL     1      -0.826  -4.130   1.964  1.00  0.00     0.210 HD
ENDBRANCH   2  20
BRANCH   4  22
HETATM   22  O2  UNL     1      -3.133  -2.627   1.029  1.00  0.00    -0.249 OA
BRANCH  22  23
HETATM   23  S1  UNL     1      -4.585  -3.121   0.363  1.00  0.00     0.252 S 
HETATM   24  O3  UNL     1      -5.396  -3.740   1.472  1.00  0.00    -0.572 OA
HETATM   25  O4  UNL     1      -5.363  -1.921  -0.115  1.00  0.00    -0.572 OA
HETATM   26  O5  UNL     1      -4.380  -4.244  -0.853  1.00  0.00    -0.572 OA
ENDBRANCH  22  23
ENDBRANCH   4  22
BRANCH   7  27
HETATM   27  C14 UNL     1      -1.785   2.665  -0.381  1.00  0.00     0.037 A 
HETATM   28  C15 UNL     1      -2.816   3.189  -1.110  1.00  0.00     0.020 A 
HETATM   29  C16 UNL     1      -2.523   4.170  -1.982  1.00  0.00     0.008 A 
HETATM   30  C17 UNL     1      -1.214   4.560  -2.064  1.00  0.00     0.050 A 
HETATM   31  S2  UNL     1      -0.438   3.552  -0.930  1.00  0.00    -0.102 SA
ENDBRANCH   7  27
TORSDOF 10
