REMARK  6 active torsions:
REMARK  status: ('A' for Active; 'I' for Inactive)
REMARK    1  A    between atoms: O1_2  and  C2_3 
REMARK    2  A    between atoms: C6_7  and  C7_8 
REMARK    3  A    between atoms: C7_8  and  C8_9 
REMARK    4  A    between atoms: C8_9  and  N1_10 
REMARK    5  A    between atoms: C8_9  and  C9_14 
REMARK    6  A    between atoms: C9_14  and  N2_15 
REMARK       I    between atoms: N2_15  and  C10_17 
REMARK       I    between atoms: C10_17  and  N4_21 
ROOT
HETATM    1  C8  UNL     1      -0.242  -0.403   0.045  1.00  0.00     0.206 C 
ENDROOT
BRANCH   1   2
HETATM    2  C7  UNL     1       0.782  -1.522   0.009  1.00  0.00     0.073 C 
BRANCH   2   3
HETATM    3  C6  UNL     1       2.128  -1.074  -0.383  1.00  0.00    -0.053 A 
HETATM    4  C5  UNL     1       2.497  -1.058  -1.710  1.00  0.00     0.007 A 
HETATM    5  C4  UNL     1       3.749  -0.650  -2.125  1.00  0.00     0.003 A 
HETATM    6  C3  UNL     1       4.668  -0.244  -1.180  1.00  0.00     0.037 A 
HETATM    7  C2  UNL     1       4.325  -0.250   0.165  1.00  0.00     0.068 A 
HETATM    8  C13 UNL     1       3.054  -0.667   0.550  1.00  0.00     0.044 A 
BRANCH   7   9
HETATM    9  O1  UNL     1       5.252   0.158   1.091  1.00  0.00    -0.356 OA
HETATM   10  C1  UNL     1       6.548   0.589   0.782  1.00  0.00     0.210 C 
ENDBRANCH   7   9
ENDBRANCH   2   3
ENDBRANCH   1   2
BRANCH   1  11
HETATM   11  N1  UNL     1       0.131   0.631   0.990  1.00  0.00    -0.073 N 
ATOM     12  H13 UNL     1       0.294   0.245   1.920  1.00  0.00     0.274 HD
ATOM     13  H12 UNL     1       1.067   0.989   0.801  1.00  0.00     0.274 HD
ATOM     14  H11 UNL     1      -0.557   1.383   1.014  1.00  0.00     0.274 HD
ENDBRANCH   1  11
BRANCH   1  15
HETATM   15  C9  UNL     1      -1.530  -1.033   0.509  1.00  0.00     0.171 C 
BRANCH  15  16
HETATM   16  N2  UNL     1      -2.648  -0.180   0.626  1.00  0.00    -0.225 N 
HETATM   17  C10 UNL     1      -3.335   0.416  -0.448  1.00  0.00     0.668 C 
HETATM   18  N3  UNL     1      -2.746   0.609  -1.576  1.00  0.00    -0.235 N 
HETATM   19  N4  UNL     1      -4.696   0.831  -0.355  1.00  0.00    -0.227 N 
ATOM     20  H32 UNL     1      -1.772   0.312  -1.643  1.00  0.00     0.174 HD
ATOM     21  H31 UNL     1      -3.244   1.041  -2.354  1.00  0.00     0.174 HD
HETATM   22  C11 UNL     1      -5.735  -0.140  -0.215  1.00  0.00     0.168 C 
HETATM   23  C12 UNL     1      -5.020   2.233  -0.403  1.00  0.00     0.168 C 
ATOM     24  H2  UNL     1      -2.986   0.021   1.567  1.00  0.00     0.177 HD
ENDBRANCH  15  16
ENDBRANCH   1  15
TORSDOF 6
