REMARK  4 active torsions:
REMARK  status: ('A' for Active; 'I' for Inactive)
REMARK    1  A    between atoms: O1_2  and  C2_3 
REMARK    2  A    between atoms: C4_5  and  C5_6 
REMARK    3  A    between atoms: C12_19  and  O4_20 
REMARK    4  A    between atoms: C14_22  and  O5_23 
ROOT
HETATM    1  C2  UNL     1      -2.335  -0.165  -1.099  1.00  0.00     0.105 A 
HETATM    2  C3  UNL     1      -1.070  -0.741  -0.935  1.00  0.00     0.051 A 
HETATM    3  C4  UNL     1      -0.372  -0.523   0.250  1.00  0.00    -0.030 A 
HETATM    4  C11 UNL     1      -0.944   0.258   1.241  1.00  0.00     0.051 A 
HETATM    5  C12 UNL     1      -2.212   0.829   1.061  1.00  0.00     0.105 A 
HETATM    6  C14 UNL     1      -2.901   0.610  -0.115  1.00  0.00     0.135 A 
ENDROOT
BRANCH   3   7
HETATM    7  C5  UNL     1       0.939  -1.098   0.469  1.00  0.00     0.034 C 
HETATM    8  C6  UNL     1       2.086  -0.521   0.128  1.00  0.00     0.101 A 
HETATM    9  C7  UNL     1       2.175   0.783  -0.517  1.00  0.00     0.263 A 
HETATM   10  C10 UNL     1       3.368  -1.196   0.392  1.00  0.00     0.265 A 
HETATM   11  O2  UNL     1       1.111   1.419  -0.772  1.00  0.00    -0.267 OA
HETATM   12  N1  UNL     1       3.457   1.348  -0.863  1.00  0.00    -0.299 N 
HETATM   13  C8  UNL     1       4.647   0.628  -0.572  1.00  0.00     0.183 A 
ATOM     14  H1  UNL     1       3.509   2.261  -1.315  1.00  0.00     0.171 HD
HETATM   15  S1  UNL     1       6.107   1.288  -0.974  1.00  0.00    -0.040 SA
HETATM   16  N2  UNL     1       4.609  -0.644   0.055  1.00  0.00    -0.294 N 
HETATM   17  C9  UNL     1       5.880  -1.322   0.320  1.00  0.00     0.162 C 
HETATM   18  O3  UNL     1       3.341  -2.332   0.951  1.00  0.00    -0.267 OA
ENDBRANCH   3   7
BRANCH   1  19
HETATM   19  O1  UNL     1      -3.052  -0.364  -2.267  1.00  0.00    -0.353 OA
HETATM   20  C1  UNL     1      -2.493  -1.156  -3.293  1.00  0.00     0.210 C 
ENDBRANCH   1  19
BRANCH   5  21
HETATM   21  O4  UNL     1      -2.800   1.615   2.043  1.00  0.00    -0.353 OA
HETATM   22  C13 UNL     1      -2.092   1.828   3.233  1.00  0.00     0.210 C 
ENDBRANCH   5  21
BRANCH   6  23
HETATM   23  O5  UNL     1      -4.144   1.153  -0.325  1.00  0.00    -0.351 OA
HETATM   24  C15 UNL     1      -5.370   0.570  -0.006  1.00  0.00     0.210 C 
ENDBRANCH   6  23
TORSDOF 4
