REMARK  4 active torsions:
REMARK  status: ('A' for Active; 'I' for Inactive)
REMARK    1  A    between atoms: C2_2  and  C3_3 
REMARK    2  A    between atoms: C8_11  and  C9_12 
REMARK    3  A    between atoms: C13_18  and  O3_19 
REMARK    4  A    between atoms: N2_23  and  O4_25 
ROOT
HETATM    1  C3  UNL     1       2.635   1.406   0.707  1.00  0.00     0.019 C 
HETATM    2  N1  UNL     1       1.944   0.785  -0.171  1.00  0.00    -0.382 N 
ATOM      3  H1  UNL     1       2.038   0.926  -1.177  1.00  0.00     0.160 HD
HETATM    4  C4  UNL     1       1.018  -0.137   0.430  1.00  0.00     0.045 C 
HETATM    5  C5  UNL     1       0.886   0.361   1.836  1.00  0.00     0.054 C 
HETATM    6  C6  UNL     1       2.254   0.967   2.075  1.00  0.00     0.109 C 
HETATM    7 BR1  UNL     1       2.196   2.446   3.300  1.00  0.00    -0.085 Br
HETATM    8  C7  UNL     1       1.625  -1.498   0.432  1.00  0.00     0.048 C 
HETATM    9  C8  UNL     1       0.565  -2.464  -0.002  1.00  0.00     0.098 C 
HETATM   10  C10 UNL     1      -0.665  -1.662  -0.397  1.00  0.00    -0.013 C 
HETATM   11  C11 UNL     1      -1.062  -2.072  -1.804  1.00  0.00     0.017 C 
HETATM   12  C12 UNL     1      -1.769  -2.100   0.511  1.00  0.00     0.043 C 
HETATM   13  C13 UNL     1      -2.890  -1.152   0.699  1.00  0.00     0.124 C 
HETATM   14  C14 UNL     1      -2.354   0.146   1.253  1.00  0.00     0.087 C 
HETATM   15  C15 UNL     1      -1.329   0.644   0.305  1.00  0.00     0.024 C 
HETATM   16  N2  UNL     1      -1.363   1.903   0.017  1.00  0.00    -0.275 N 
ATOM     17  H2  UNL     1      -0.667   2.268  -0.633  1.00  0.00     0.193 HD
HETATM   18  C17 UNL     1      -0.299  -0.223  -0.305  1.00  0.00     0.030 C 
HETATM   19  C18 UNL     1      -0.038   0.350  -1.694  1.00  0.00     0.025 C 
ENDROOT
BRANCH   1  20
HETATM   20  C2  UNL     1       3.655   2.403   0.378  1.00  0.00     0.015 C 
HETATM   21  C1  UNL     1       3.923   2.727  -0.876  1.00  0.00     0.013 C 
ENDBRANCH   1  20
BRANCH   9  22
HETATM   22  C9  UNL     1       1.075  -3.339  -1.066  1.00  0.00     0.177 C 
HETATM   23  O1  UNL     1       1.097  -4.609  -0.936  1.00  0.00    -0.648 OA
HETATM   24  O2  UNL     1       1.567  -2.881  -2.284  1.00  0.00    -0.648 OA
ENDBRANCH   9  22
BRANCH  16  25
HETATM   25  O4  UNL     1      -2.279   2.770   0.535  1.00  0.00    -0.285 OA
HETATM   26  C16 UNL     1      -2.618   3.969  -0.137  1.00  0.00     0.237 C 
ENDBRANCH  16  25
BRANCH  13  27
HETATM   27  O3  UNL     1      -3.733  -0.982  -0.369  1.00  0.00    -0.395 OA
ATOM     28  H3  UNL     1      -4.453  -0.374  -0.248  1.00  0.00     0.210 HD
ENDBRANCH  13  27
TORSDOF 4
