REMARK  2 active torsions:
REMARK  status: ('A' for Active; 'I' for Inactive)
REMARK    1  A    between atoms: C4_6  and  C6_8 
REMARK    2  A    between atoms: C6_8  and  O3_9 
ROOT
HETATM    1  C1  UNL     1      -1.861   0.923  -1.062  1.00  0.00     0.061 C 
HETATM    2  C2  UNL     1      -1.388  -0.101  -0.093  1.00  0.00     0.140 C 
HETATM    3  C3  UNL     1      -2.439  -0.822   0.647  1.00  0.00     0.061 C 
HETATM    4  O1  UNL     1      -0.437  -0.982  -0.672  1.00  0.00    -0.217 OA
HETATM    5  O2  UNL     1       0.560  -0.281  -1.080  1.00  0.00    -0.215 OA
HETATM    6  C4  UNL     1       1.261   0.214   0.028  1.00  0.00     0.164 C 
HETATM    7  C5  UNL     1       2.038   1.439  -0.291  1.00  0.00     0.064 C 
HETATM    8  S1  UNL     1      -0.192   0.730   1.044  1.00  0.00    -0.086 SA
ENDROOT
BRANCH   6   9
HETATM    9  C6  UNL     1       2.056  -0.836   0.733  1.00  0.00     0.216 C 
BRANCH   9  10
HETATM   10  O3  UNL     1       1.257  -1.859   1.204  1.00  0.00    -0.397 OA
ATOM     11  H3  UNL     1       1.763  -2.527   1.652  1.00  0.00     0.209 HD
ENDBRANCH   9  10
ENDBRANCH   6   9
TORSDOF 2
