REMARK  11 active torsions:
REMARK  status: ('A' for Active; 'I' for Inactive)
REMARK    1  A    between atoms: O1_2  and  C2_3 
REMARK    2  A    between atoms: C2_3  and  C3_4 
REMARK    3  A    between atoms: C6_8  and  C7_9 
REMARK    4  A    between atoms: C7_9  and  N2_10 
REMARK    5  A    between atoms: N2_10  and  C8_11 
REMARK    6  A    between atoms: N2_10  and  C9_13 
REMARK    7  A    between atoms: C9_13  and  C10_14 
REMARK    8  A    between atoms: C10_14  and  C11_15 
REMARK    9  A    between atoms: C11_15  and  C12_16 
REMARK   10  A    between atoms: C14_18  and  C15_19 
REMARK   11  A    between atoms: C16_20  and  C17_21 
ROOT
HETATM    1  C12 UNL     1       2.017  -2.194  -1.452  1.00  0.00    -0.028 A 
HETATM    2  C13 UNL     1       2.883  -1.141  -1.119  1.00  0.00     0.030 A 
HETATM    3  C14 UNL     1       3.891  -1.267  -0.202  1.00  0.00     0.019 A 
HETATM    4  C23 UNL     1       4.026  -2.500   0.397  1.00  0.00     0.036 A 
HETATM    5  C24 UNL     1       3.201  -3.565   0.102  1.00  0.00     0.011 A 
HETATM    6  C25 UNL     1       3.122  -4.880   0.522  1.00  0.00     0.120 A 
HETATM    7  N5  UNL     1       2.119  -5.508  -0.111  1.00  0.00    -0.311 N 
ATOM      8  H5  UNL     1       1.838  -6.481   0.008  1.00  0.00     0.186 HD
HETATM    9  N6  UNL     1       1.571  -4.626  -0.913  1.00  0.00    -0.300 N 
ATOM     10  H6  UNL     1       0.779  -4.823  -1.525  1.00  0.00     0.187 HD
HETATM   11  C26 UNL     1       2.190  -3.415  -0.827  1.00  0.00     0.066 A 
ENDROOT
BRANCH   1  12
HETATM   12  C11 UNL     1       0.930  -1.994  -2.414  1.00  0.00     0.042 C 
BRANCH  12  13
HETATM   13  C10 UNL     1      -0.405  -1.618  -1.856  1.00  0.00     0.025 C 
BRANCH  13  14
HETATM   14  C9  UNL     1      -1.031  -2.555  -0.899  1.00  0.00     0.125 C 
BRANCH  14  15
HETATM   15  N2  UNL     1      -2.357  -2.109  -0.435  1.00  0.00    -0.357 N 
BRANCH  15  16
HETATM   16  C7  UNL     1      -2.512  -1.376   0.765  1.00  0.00     0.165 C 
BRANCH  16  17
HETATM   17  C6  UNL     1      -2.500   0.145   0.668  1.00  0.00     0.269 C 
HETATM   18  N1  UNL     1      -3.483   0.687  -0.131  1.00  0.00     0.104 N 
HETATM   19  C5  UNL     1      -3.119   1.147  -1.462  1.00  0.00     0.274 C 
HETATM   20  C31 UNL     1      -4.097   1.885   0.370  1.00  0.00     0.233 C 
HETATM   21  C4  UNL     1      -4.455   1.708  -1.950  1.00  0.00     0.039 C 
HETATM   22  C3  UNL     1      -5.015   2.364  -0.707  1.00  0.00     0.045 C 
HETATM   23  C30 UNL     1      -4.750   1.562   1.687  1.00  0.00     0.063 C 
HETATM   24  C29 UNL     1      -3.520   1.350   2.582  1.00  0.00    -0.020 C 
HETATM   25  C27 UNL     1      -2.497   0.690   2.068  1.00  0.00    -0.053 C 
HETATM   26  C28 UNL     1      -1.264   0.462   2.914  1.00  0.00     0.045 C 
BRANCH  22  27
HETATM   27  C2  UNL     1      -6.456   2.031  -0.479  1.00  0.00     0.173 C 
BRANCH  27  28
HETATM   28  O1  UNL     1      -6.691   0.677  -0.324  1.00  0.00    -0.396 OA
HETATM   29  C1  UNL     1      -8.063   0.509  -0.120  1.00  0.00     0.201 C 
ENDBRANCH  27  28
ENDBRANCH  22  27
ENDBRANCH  16  17
ENDBRANCH  15  16
BRANCH  15  30
HETATM   30  C8  UNL     1      -3.472  -2.495  -1.215  1.00  0.00     0.350 C 
HETATM   31  O2  UNL     1      -4.617  -2.185  -0.838  1.00  0.00    -0.284 OA
ENDBRANCH  15  30
ENDBRANCH  14  15
ENDBRANCH  13  14
ENDBRANCH  12  13
ENDBRANCH   1  12
BRANCH   3  32
HETATM   32  C15 UNL     1       4.764  -0.160   0.115  1.00  0.00    -0.061 C 
HETATM   33  C16 UNL     1       5.509   0.756   0.366  1.00  0.00    -0.057 C 
BRANCH  33  34
HETATM   34  C17 UNL     1       6.413   1.833   0.649  1.00  0.00     0.069 A 
HETATM   35  C18 UNL     1       7.583   2.024  -0.090  1.00  0.00    -0.015 A 
HETATM   36  C19 UNL     1       7.834   1.049  -1.188  1.00  0.00     0.052 C 
HETATM   37  C20 UNL     1       8.447   3.058   0.186  1.00  0.00     0.080 A 
HETATM   38 CL1  UNL     1       9.902   3.280  -0.748  1.00  0.00    -0.080 Cl
HETATM   39  C21 UNL     1       8.167   3.930   1.209  1.00  0.00     0.127 A 
HETATM   40 CL2  UNL     1       9.271   5.266   1.577  1.00  0.00    -0.063 Cl
HETATM   41  N3  UNL     1       7.045   3.751   1.923  1.00  0.00    -0.331 N 
HETATM   42  C22 UNL     1       6.191   2.740   1.660  1.00  0.00     0.119 A 
ATOM     43  H3  UNL     1       6.832   4.396   2.684  1.00  0.00     0.168 HD
HETATM   44  N4  UNL     1       5.105   2.590   2.372  1.00  0.00    -0.384 N 
ATOM     45  H42 UNL     1       4.459   1.826   2.173  1.00  0.00     0.157 HD
ATOM     46  H41 UNL     1       4.940   3.262   3.121  1.00  0.00     0.157 HD
ENDBRANCH  33  34
ENDBRANCH   3  32
TORSDOF 11
