REMARK  9 active torsions:
REMARK  status: ('A' for Active; 'I' for Inactive)
REMARK    1  A    between atoms: N1_1  and  C1_4 
REMARK    2  A    between atoms: N4_13  and  C5_14 
REMARK    3  A    between atoms: C5_14  and  C6_15 
REMARK    4  A    between atoms: N6_20  and  C8_21 
REMARK    5  A    between atoms: C10_23  and  N7_24 
REMARK    6  A    between atoms: C11_31  and  C12_32 
REMARK    7  A    between atoms: C11_31  and  O5_35 
REMARK    8  A    between atoms: C12_32  and  O4_33 
REMARK    9  A    between atoms: O5_35  and  C13_36 
ROOT
HETATM    1  C1  UNL     1      -3.930  -1.314  -1.609  1.00  0.00     0.680 A 
HETATM    2  N2  UNL     1      -2.897  -2.130  -1.915  1.00  0.00    -0.154 N 
ATOM      3  H2  UNL     1      -3.027  -2.953  -2.504  1.00  0.00     0.187 HD
HETATM    4  C2  UNL     1      -1.683  -1.810  -1.408  1.00  0.00     0.290 A 
HETATM    5  O1  UNL     1      -0.703  -2.543  -1.670  1.00  0.00    -0.265 OA
HETATM    6  C3  UNL     1      -1.472  -0.705  -0.610  1.00  0.00     0.155 A 
HETATM    7  C4  UNL     1      -2.538   0.103  -0.317  1.00  0.00     0.160 A 
HETATM    8  N3  UNL     1      -3.754  -0.229  -0.833  1.00  0.00    -0.174 N 
ATOM      9  H3  UNL     1      -4.557   0.364  -0.624  1.00  0.00     0.186 HD
HETATM   10  N4  UNL     1      -2.123   1.105   0.460  1.00  0.00    -0.274 N 
HETATM   11  C7  UNL     1      -0.814   0.915   0.644  1.00  0.00     0.333 A 
HETATM   12  O3  UNL     1      -0.063   1.661   1.328  1.00  0.00    -0.246 OA
HETATM   13  N6  UNL     1      -0.404  -0.190  -0.006  1.00  0.00    -0.263 N 
ENDROOT
BRANCH  13  14
HETATM   14  C8  UNL     1       0.926  -0.705  -0.037  1.00  0.00     0.242 C 
HETATM   15  C9  UNL     1       1.168  -1.747   1.057  1.00  0.00     0.117 C 
HETATM   16  C10 UNL     1       2.646  -1.781   1.305  1.00  0.00     0.391 C 
HETATM   17  N8  UNL     1       3.395  -1.399   0.162  1.00  0.00     0.014 N 
HETATM   18  C11 UNL     1       3.044  -0.046  -0.335  1.00  0.00     0.371 C 
ATOM     19  H82 UNL     1       4.396  -1.473   0.341  1.00  0.00     0.286 HD
ATOM     20  H81 UNL     1       3.307  -2.094  -0.580  1.00  0.00     0.286 HD
HETATM   21  O7  UNL     1       1.849   0.329   0.261  1.00  0.00    -0.305 OA
BRANCH  16  22
HETATM   22  N7  UNL     1       3.019  -1.113   2.535  1.00  0.00    -0.050 N 
ATOM     23  H73 UNL     1       2.666  -0.156   2.554  1.00  0.00     0.276 HD
ATOM     24  H72 UNL     1       2.505  -1.494   3.329  1.00  0.00     0.276 HD
ATOM     25  H71 UNL     1       4.025  -1.136   2.704  1.00  0.00     0.276 HD
ENDBRANCH  16  22
BRANCH  18  26
HETATM   26  C12 UNL     1       4.201   0.805   0.109  1.00  0.00     0.266 C 
BRANCH  26  27
HETATM   27  O4  UNL     1       4.113   2.143  -0.224  1.00  0.00    -0.394 OA
ATOM     28  H4  UNL     1       4.844   2.681   0.057  1.00  0.00     0.209 HD
ENDBRANCH  26  27
ENDBRANCH  18  26
BRANCH  18  29
HETATM   29  O5  UNL     1       2.859  -0.224  -1.685  1.00  0.00    -0.241 OA
BRANCH  29  30
HETATM   30  C13 UNL     1       2.493   0.655  -2.642  1.00  0.00     0.376 C 
HETATM   31  N9  UNL     1       2.341   0.353  -4.024  1.00  0.00    -0.032 NA
HETATM   32  O6  UNL     1       2.268   1.832  -2.298  1.00  0.00    -0.242 OA
ENDBRANCH  29  30
ENDBRANCH  18  29
ENDBRANCH  13  14
BRANCH  10  33
HETATM   33  C5  UNL     1      -2.952   2.172   0.983  1.00  0.00     0.235 C 
BRANCH  33  34
HETATM   34  C6  UNL     1      -3.533   1.815   2.303  1.00  0.00     0.249 C 
HETATM   35  N5  UNL     1      -4.369   2.748   2.953  1.00  0.00    -0.061 NA
HETATM   36  O2  UNL     1      -3.281   0.708   2.820  1.00  0.00    -0.275 OA
ENDBRANCH  33  34
ENDBRANCH  10  33
BRANCH   1  37
HETATM   37  N1  UNL     1      -5.083  -1.623  -2.093  1.00  0.00    -0.234 N 
ATOM     38  H12 UNL     1      -5.216  -2.446  -2.681  1.00  0.00     0.174 HD
ATOM     39  H11 UNL     1      -5.863  -1.007  -1.862  1.00  0.00     0.174 HD
ENDBRANCH   1  37
TORSDOF 9
