REMARK  12 active torsions:
REMARK  status: ('A' for Active; 'I' for Inactive)
REMARK    1  A    between atoms: N1_1  and  C1_4 
REMARK    2  A    between atoms: N6_15  and  C4_16 
REMARK    3  A    between atoms: C4_16  and  C5_17 
REMARK    4  A    between atoms: C6_18  and  O1_19 
REMARK    5  A    between atoms: C7_21  and  O2_22 
REMARK    6  A    between atoms: N7_25  and  C9_26 
REMARK    7  A    between atoms: C10_29  and  N9_30 
REMARK    8  A    between atoms: N9_30  and  C11_32 
REMARK    9  A    between atoms: C11_32  and  C12_33 
REMARK   10  A    between atoms: C12_33  and  O3_34 
REMARK   11  A    between atoms: C13_38  and  N11_39 
REMARK   12  A    between atoms: N11_39  and  N12_41 
ROOT
HETATM    1  C5  UNL     1      -1.004   0.225  -1.236  1.00  0.00     0.153 C 
HETATM    2  C6  UNL     1      -2.095  -0.725  -1.605  1.00  0.00     0.173 C 
HETATM    3  C7  UNL     1      -1.520  -1.240  -2.965  1.00  0.00     0.167 C 
HETATM    4  C8  UNL     1      -0.071  -1.426  -2.611  1.00  0.00     0.176 C 
HETATM    5  N7  UNL     1       0.159  -0.634  -1.378  1.00  0.00    -0.205 N 
ENDROOT
BRANCH   5   6
HETATM    6  C9  UNL     1       1.299  -0.777  -0.578  1.00  0.00     0.710 A 
HETATM    7  N8  UNL     1       1.527  -0.124   0.577  1.00  0.00    -0.021 N 
HETATM    8  C10 UNL     1       2.623  -0.264   1.335  1.00  0.00     0.707 A 
ATOM      9  H8  UNL     1       0.811   0.527   0.900  1.00  0.00     0.203 HD
HETATM   10  N10 UNL     1       3.552  -1.109   0.912  1.00  0.00    -0.020 N 
HETATM   11  C13 UNL     1       3.406  -1.816  -0.251  1.00  0.00     0.725 A 
ATOM     12  H10 UNL     1       4.398  -1.236   1.468  1.00  0.00     0.203 HD
HETATM   13  N13 UNL     1       2.295  -1.638  -0.965  1.00  0.00    -0.020 N 
ATOM     14  H13 UNL     1       2.181  -2.162  -1.833  1.00  0.00     0.203 HD
BRANCH   8  15
HETATM   15  N9  UNL     1       2.682   0.435   2.410  1.00  0.00    -0.223 N 
ATOM     16  H9  UNL     1       1.889   1.045   2.608  1.00  0.00     0.177 HD
BRANCH  15  17
HETATM   17  C11 UNL     1       3.748   0.440   3.352  1.00  0.00     0.164 C 
BRANCH  17  18
HETATM   18  C12 UNL     1       4.644   1.649   3.127  1.00  0.00     0.184 C 
BRANCH  18  19
HETATM   19  O3  UNL     1       5.154   1.562   1.823  1.00  0.00    -0.399 OA
ATOM     20  H3  UNL     1       5.713   2.317   1.683  1.00  0.00     0.209 HD
ENDBRANCH  18  19
ENDBRANCH  17  18
ENDBRANCH  15  17
ENDBRANCH   8  15
BRANCH  11  21
HETATM   21  N11 UNL     1       4.324  -2.611  -0.618  1.00  0.00    -0.138 N 
ATOM     22  H11 UNL     1       5.153  -2.703  -0.031  1.00  0.00     0.205 HD
BRANCH  21  23
HETATM   23  N12 UNL     1       4.251  -3.352  -1.769  1.00  0.00    -0.331 N 
ATOM     24 2H12 UNL     1       3.415  -3.248  -2.344  1.00  0.00     0.177 HD
ATOM     25 1H12 UNL     1       4.989  -3.991  -2.064  1.00  0.00     0.177 HD
ENDBRANCH  21  23
ENDBRANCH  11  21
ENDBRANCH   5   6
BRANCH   1  26
HETATM   26  C4  UNL     1      -1.110   0.973   0.039  1.00  0.00     0.179 C 
BRANCH  26  27
HETATM   27  N6  UNL     1      -2.282   1.767   0.033  1.00  0.00    -0.269 N 
HETATM   28  N5  UNL     1      -2.326   2.883  -0.730  1.00  0.00    -0.238 N 
HETATM   29  N4  UNL     1      -3.503   3.419  -0.671  1.00  0.00    -0.269 N 
ATOM     30  H5  UNL     1      -1.545   3.249  -1.274  1.00  0.00     0.208 HD
HETATM   31  C3  UNL     1      -4.302   2.675   0.145  1.00  0.00     0.154 A 
ATOM     32  H4  UNL     1      -3.788   4.267  -1.160  1.00  0.00     0.190 HD
HETATM   33  N3  UNL     1      -5.564   2.786   0.556  1.00  0.00    -0.335 N 
HETATM   34  C14 UNL     1      -3.465   1.631   0.569  1.00  0.00     0.141 A 
HETATM   35  C2  UNL     1      -6.038   1.862   1.405  1.00  0.00     0.183 A 
ATOM     36  H3  UNL     1      -6.154   3.553   0.234  1.00  0.00     0.168 HD
HETATM   37  N2  UNL     1      -5.283   0.856   1.837  1.00  0.00    -0.337 N 
HETATM   38  C1  UNL     1      -3.996   0.723   1.432  1.00  0.00     0.132 A 
ATOM     39  H2  UNL     1      -5.679   0.173   2.484  1.00  0.00     0.168 HD
BRANCH  38  40
HETATM   40  N1  UNL     1      -3.283  -0.218   1.894  1.00  0.00    -0.383 N 
ATOM     41  H12 UNL     1      -3.681  -0.899   2.541  1.00  0.00     0.157 HD
ATOM     42  H11 UNL     1      -2.315  -0.318   1.589  1.00  0.00     0.157 HD
ENDBRANCH  38  40
ENDBRANCH  26  27
ENDBRANCH   1  26
BRANCH   2  43
HETATM   43  O1  UNL     1      -2.146  -1.885  -0.838  1.00  0.00    -0.391 OA
ATOM     44  H1  UNL     1      -2.840  -2.490  -1.073  1.00  0.00     0.210 HD
ENDBRANCH   2  43
BRANCH   3  45
HETATM   45  O2  UNL     1      -1.742  -0.180  -3.842  1.00  0.00    -0.391 OA
ATOM     46  H2  UNL     1      -1.393  -0.493  -4.668  1.00  0.00     0.210 HD
ENDBRANCH   3  45
TORSDOF 12
