REMARK  2 active torsions:
REMARK  status: ('A' for Active; 'I' for Inactive)
REMARK    1  A    between atoms: N1_1  and  C1_5 
REMARK    2  A    between atoms: C1_5  and  C2_6 
REMARK       I    between atoms: C2_6  and  N2_8 
ROOT
HETATM    1  C2  UNL     1       1.299  -1.031   0.585  1.00  0.00     0.259 C 
HETATM    2  O1  UNL     1       1.833  -2.208   0.634  1.00  0.00    -0.271 OA
HETATM    3  N2  UNL     1      -0.042  -0.955   0.128  1.00  0.00    -0.213 N 
HETATM    4  C3  UNL     1      -0.792  -1.973  -0.354  1.00  0.00     0.336 A 
HETATM    5  O2  UNL     1      -0.335  -3.143  -0.483  1.00  0.00    -0.246 OA
HETATM    6  N3  UNL     1      -2.026  -1.569  -0.658  1.00  0.00    -0.291 N 
ATOM      7  H3  UNL     1      -2.779  -2.143  -1.038  1.00  0.00     0.172 HD
HETATM    8  C4  UNL     1      -2.083  -0.262  -0.367  1.00  0.00     0.156 A 
HETATM    9  N4  UNL     1      -2.930   0.771  -0.386  1.00  0.00    -0.335 N 
ATOM     10  H4  UNL     1      -3.900   0.759  -0.701  1.00  0.00     0.168 HD
HETATM   11  C5  UNL     1      -2.257   1.823   0.089  1.00  0.00     0.183 A 
HETATM   12  N5  UNL     1      -0.993   1.434   0.400  1.00  0.00    -0.335 N 
ATOM     13  H5  UNL     1      -0.265   2.037   0.783  1.00  0.00     0.168 HD
HETATM   14  C6  UNL     1      -0.857   0.127   0.121  1.00  0.00     0.164 A 
ENDROOT
BRANCH   1  15
HETATM   15  C1  UNL     1       2.138   0.075   1.002  1.00  0.00     0.333 C 
BRANCH  15  16
HETATM   16  N1  UNL     1       2.312   1.063  -0.044  1.00  0.00    -0.071 N 
ATOM     17  H13 UNL     1       2.667   0.634  -0.899  1.00  0.00     0.274 HD
ATOM     18  H12 UNL     1       1.411   1.395  -0.389  1.00  0.00     0.274 HD
ATOM     19  H11 UNL     1       2.902   1.841   0.249  1.00  0.00     0.274 HD
ENDBRANCH  15  16
ENDBRANCH   1  15
TORSDOF 2
