REMARK  14 active torsions:
REMARK  status: ('A' for Active; 'I' for Inactive)
REMARK    1  A    between atoms: C1_2  and  C2_4 
REMARK    2  A    between atoms: C2_4  and  C3_5 
REMARK    3  A    between atoms: C3_5  and  O3_6 
REMARK    4  A    between atoms: C3_5  and  C4_8 
REMARK    5  A    between atoms: C4_8  and  C5_9 
REMARK    6  A    between atoms: C4_8  and  C12_16 
REMARK    7  A    between atoms: C5_9  and  C6_10 
REMARK       I    between atoms: C12_16  and  N1_18 
REMARK    8  A    between atoms: N1_18  and  C13_20 
REMARK    9  A    between atoms: C13_20  and  C14_21 
REMARK   10  A    between atoms: C14_21  and  C15_22 
REMARK   11  A    between atoms: C14_21  and  N2_25 
REMARK   12  A    between atoms: N2_25  and  C16_26 
REMARK   13  A    between atoms: N2_25  and  C18_30 
REMARK   14  A    between atoms: C16_26  and  C17_27 
ROOT
HETATM    1  C12 UNL     1       0.438   0.610  -0.434  1.00  0.00     0.224 C 
HETATM    2  O4  UNL     1      -0.001   0.625   0.736  1.00  0.00    -0.273 OA
HETATM    3  N1  UNL     1      -0.289  -0.114  -1.439  1.00  0.00    -0.358 N 
ATOM      4  H1  UNL     1       0.081  -0.107  -2.389  1.00  0.00     0.162 HD
ENDROOT
BRANCH   3   5
HETATM    5  C13 UNL     1      -1.486  -0.838  -1.203  1.00  0.00     0.159 C 
BRANCH   5   6
HETATM    6  C14 UNL     1      -2.629   0.027  -0.808  1.00  0.00     0.204 C 
BRANCH   6   7
HETATM    7  C15 UNL     1      -3.067   1.000  -1.817  1.00  0.00     0.198 C 
HETATM    8  O5  UNL     1      -2.294   1.732  -2.458  1.00  0.00    -0.646 OA
HETATM    9  O6  UNL     1      -4.436   1.171  -2.130  1.00  0.00    -0.646 OA
ENDBRANCH   6   7
BRANCH   6  10
HETATM   10  N2  UNL     1      -3.745  -0.847  -0.395  1.00  0.00    -0.349 N 
BRANCH  10  11
HETATM   11  C16 UNL     1      -4.261  -1.775  -1.332  1.00  0.00     0.237 C 
BRANCH  11  12
HETATM   12  C17 UNL     1      -5.395  -2.603  -0.902  1.00  0.00     0.191 C 
HETATM   13  O7  UNL     1      -5.918  -3.474  -1.644  1.00  0.00    -0.647 OA
HETATM   14  O8  UNL     1      -5.939  -2.456   0.351  1.00  0.00    -0.647 OA
ENDBRANCH  11  12
ENDBRANCH  10  11
BRANCH  10  15
HETATM   15  C18 UNL     1      -4.204  -0.660   0.953  1.00  0.00     0.074 A 
HETATM   16  C19 UNL     1      -3.747  -1.267   2.094  1.00  0.00     0.039 A 
HETATM   17  C20 UNL     1      -4.335  -0.915   3.254  1.00  0.00     0.034 A 
HETATM   18  C21 UNL     1      -5.334   0.015   3.193  1.00  0.00     0.076 A 
HETATM   19 CL1  UNL     1      -6.284   0.669   4.544  1.00  0.00    -0.076 Cl
HETATM   20  S1  UNL     1      -5.428   0.373   1.531  1.00  0.00    -0.060 SA
ENDBRANCH  10  15
ENDBRANCH   6  10
ENDBRANCH   5   6
ENDBRANCH   3   5
BRANCH   1  21
HETATM   21  C4  UNL     1       1.674   1.324  -0.739  1.00  0.00     0.107 C 
BRANCH  21  22
HETATM   22  C3  UNL     1       1.376   2.795  -0.402  1.00  0.00     0.141 C 
BRANCH  22  23
HETATM   23  C2  UNL     1       2.514   3.705  -0.733  1.00  0.00     0.145 C 
BRANCH  23  24
HETATM   24  C1  UNL     1       2.867   3.810  -2.145  1.00  0.00     0.175 C 
HETATM   25  O1  UNL     1       2.351   3.245  -3.115  1.00  0.00    -0.648 OA
HETATM   26  O2  UNL     1       3.942   4.676  -2.436  1.00  0.00    -0.648 OA
ENDBRANCH  23  24
ENDBRANCH  22  23
BRANCH  22  27
HETATM   27  O3  UNL     1       0.238   3.189  -1.012  1.00  0.00    -0.394 OA
ATOM     28  H3  UNL     1      -0.486   2.610  -0.802  1.00  0.00     0.210 HD
ENDBRANCH  22  27
ENDBRANCH  21  22
BRANCH  21  29
HETATM   29  C5  UNL     1       2.848   0.871   0.013  1.00  0.00     0.021 C 
BRANCH  29  30
HETATM   30  C6  UNL     1       3.392  -0.497  -0.126  1.00  0.00    -0.014 C 
HETATM   31  C7  UNL     1       4.686  -0.588   0.749  1.00  0.00     0.005 C 
HETATM   32  C8  UNL     1       4.888  -1.951   1.308  1.00  0.00     0.000 C 
HETATM   33  C9  UNL     1       3.775  -2.340   2.273  1.00  0.00     0.000 C 
HETATM   34  C10 UNL     1       2.459  -1.724   1.813  1.00  0.00     0.000 C 
HETATM   35  C11 UNL     1       2.536  -1.644   0.301  1.00  0.00     0.005 C 
ENDBRANCH  29  30
ENDBRANCH  21  29
ENDBRANCH   1  21
TORSDOF 14
