REMARK  5 active torsions:
REMARK  status: ('A' for Active; 'I' for Inactive)
REMARK    1  A    between atoms: C3_3  and  C4_4 
REMARK    2  A    between atoms: N1_5  and  N2_7 
REMARK       I    between atoms: N2_7  and  C5_9 
REMARK       I    between atoms: C5_9  and  N3_11 
REMARK    3  A    between atoms: N3_11  and  C6_13 
REMARK    4  A    between atoms: C8_17  and  N4_18 
REMARK    5  A    between atoms: C9_21  and  O4_22 
ROOT
HETATM    1  C1  UNL     1      -1.393  -2.298  -1.101  1.00  0.00     0.051 C 
HETATM    2  C2  UNL     1      -1.916  -0.948  -0.767  1.00  0.00    -0.026 A 
HETATM    3  C3  UNL     1      -1.123  -0.131   0.012  1.00  0.00    -0.009 A 
HETATM    4  C7  UNL     1      -1.617   1.109   0.312  1.00  0.00     0.052 A 
HETATM    5  C8  UNL     1      -2.878   1.551  -0.143  1.00  0.00     0.138 A 
HETATM    6  C9  UNL     1      -3.616   0.692  -0.913  1.00  0.00     0.121 A 
HETATM    7  C10 UNL     1      -3.137  -0.583  -1.236  1.00  0.00     0.076 A 
HETATM    8 CL1  UNL     1      -4.123  -1.632  -2.219  1.00  0.00    -0.081 Cl
ENDROOT
BRANCH   3   9
HETATM    9  C4  UNL     1       0.182  -0.553   0.501  1.00  0.00     0.119 C 
HETATM   10  N1  UNL     1       0.857   0.270   1.219  1.00  0.00    -0.307 N 
ATOM     11  H1  UNL     1       0.478   1.192   1.435  1.00  0.00     0.186 HD
BRANCH  10  12
HETATM   12  N2  UNL     1       2.105  -0.102   1.700  1.00  0.00    -0.252 N 
HETATM   13  C5  UNL     1       3.204  -0.022   0.792  1.00  0.00     0.338 C 
HETATM   14  O1  UNL     1       3.040   0.370  -0.390  1.00  0.00    -0.245 OA
HETATM   15  N3  UNL     1       4.488  -0.391   1.241  1.00  0.00    -0.286 N 
ATOM     16  H3  UNL     1       4.629  -0.711   2.199  1.00  0.00     0.169 HD
ATOM     17  H2  UNL     1       2.231  -0.419   2.661  1.00  0.00     0.191 HD
BRANCH  15  18
HETATM   18  C6  UNL     1       5.617  -0.309   0.312  1.00  0.00     0.462 C 
HETATM   19  F1  UNL     1       6.578   0.533   0.813  1.00  0.00    -0.191 F 
HETATM   20  F2  UNL     1       6.129  -1.586   0.164  1.00  0.00    -0.191 F 
ENDBRANCH  15  18
ENDBRANCH  10  12
ENDBRANCH   3   9
BRANCH   5  21
HETATM   21  N4  UNL     1      -3.318   2.847   0.206  1.00  0.00    -0.113 N 
HETATM   22  O2  UNL     1      -4.457   3.209   0.434  1.00  0.00    -0.532 OA
HETATM   23  O3  UNL     1      -2.326   3.822   0.331  1.00  0.00    -0.532 OA
ENDBRANCH   5  21
BRANCH   6  24
HETATM   24  O4  UNL     1      -4.852   1.011  -1.415  1.00  0.00    -0.357 OA
ATOM     25  H4  UNL     1      -5.364   0.415  -1.949  1.00  0.00     0.218 HD
ENDBRANCH   6  24
TORSDOF 5
