REMARK  8 active torsions:
REMARK  status: ('A' for Active; 'I' for Inactive)
REMARK    1  A    between atoms: C2_2  and  C3_6 
REMARK    2  A    between atoms: C3_6  and  C4_7 
REMARK    3  A    between atoms: N3_10  and  C5_11 
REMARK    4  A    between atoms: N8_24  and  C9_25 
REMARK    5  A    between atoms: C11_27  and  N9_28 
REMARK    6  A    between atoms: C14_35  and  O2_36 
REMARK    7  A    between atoms: O2_36  and  C15_37 
REMARK    8  A    between atoms: C15_37  and  C16_38 
ROOT
HETATM    1  C5  UNL     1       1.117   1.552  -1.305  1.00  0.00     0.164 A 
HETATM    2  N4  UNL     1       1.409   0.967  -2.480  1.00  0.00    -0.315 N 
ATOM      3  H4  UNL     1       0.874   1.231  -3.307  1.00  0.00     0.170 HD
HETATM    4  C6  UNL     1       2.385   0.042  -2.604  1.00  0.00     0.182 A 
HETATM    5 CL1  UNL     1       2.715  -0.687  -4.172  1.00  0.00    -0.045 Cl
HETATM    6  N5  UNL     1       3.107  -0.334  -1.546  1.00  0.00    -0.315 N 
ATOM      7  H5  UNL     1       3.840  -1.035  -1.656  1.00  0.00     0.170 HD
HETATM    8  C7  UNL     1       2.878   0.197  -0.355  1.00  0.00     0.160 A 
HETATM    9  C8  UNL     1       1.869   1.158  -0.219  1.00  0.00     0.141 A 
HETATM   10  N6  UNL     1       1.896   1.487   1.091  1.00  0.00    -0.279 N 
ATOM     11  H6  UNL     1       1.283   2.168   1.540  1.00  0.00     0.189 HD
HETATM   12  N7  UNL     1       2.837   0.792   1.700  1.00  0.00    -0.236 N 
ATOM     13  H7  UNL     1       3.059   0.858   2.693  1.00  0.00     0.208 HD
HETATM   14  N8  UNL     1       3.455  -0.008   0.835  1.00  0.00    -0.230 N 
ENDROOT
BRANCH   1  15
HETATM   15  N3  UNL     1       0.108   2.528  -1.121  1.00  0.00    -0.213 N 
HETATM   16  N2  UNL     1       0.098   3.839  -0.982  1.00  0.00    -0.290 N 
HETATM   17  C4  UNL     1      -1.241   3.857  -0.873  1.00  0.00     0.084 A 
ATOM     18  H2  UNL     1       0.822   4.557  -0.964  1.00  0.00     0.187 HD
HETATM   19  C14 UNL     1      -1.255   2.483  -1.016  1.00  0.00     0.190 A 
BRANCH  17  20
HETATM   20  C3  UNL     1      -2.207   4.947  -0.674  1.00  0.00     0.114 C 
BRANCH  20  21
HETATM   21  C2  UNL     1      -2.633   5.007   0.746  1.00  0.00    -0.018 C 
HETATM   22  C1  UNL     1      -3.652   6.036   1.178  1.00  0.00     0.063 C 
HETATM   23  N1  UNL     1      -2.186   4.240   1.660  1.00  0.00    -0.406 N 
ATOM     24  H12 UNL     1      -2.479   4.281   2.636  1.00  0.00     0.155 HD
ATOM     25  H11 UNL     1      -1.498   3.545   1.368  1.00  0.00     0.155 HD
ENDBRANCH  20  21
ENDBRANCH  17  20
BRANCH  19  26
HETATM   26  O2  UNL     1      -2.208   1.485  -1.046  1.00  0.00    -0.333 OA
BRANCH  26  27
HETATM   27  C15 UNL     1      -2.533   0.756   0.087  1.00  0.00     0.182 C 
BRANCH  27  28
HETATM   28  C16 UNL     1      -3.587  -0.293  -0.136  1.00  0.00     0.010 C 
HETATM   29  C17 UNL     1      -3.835  -1.002   1.180  1.00  0.00     0.007 C 
HETATM   30  C18 UNL     1      -5.115  -1.802   1.006  1.00  0.00     0.005 C 
HETATM   31  C19 UNL     1      -5.013  -2.759  -0.131  1.00  0.00    -0.019 C 
HETATM   32  C20 UNL     1      -4.301  -4.015   0.333  1.00  0.00     0.010 C 
HETATM   33  C21 UNL     1      -4.437  -2.194  -1.384  1.00  0.00     0.005 C 
HETATM   34  C22 UNL     1      -3.205  -1.333  -1.141  1.00  0.00     0.007 C 
ENDBRANCH  27  28
ENDBRANCH  26  27
ENDBRANCH  19  26
ENDBRANCH   1  15
BRANCH  14  35
HETATM   35  C9  UNL     1       4.536  -0.913   1.130  1.00  0.00     0.250 C 
HETATM   36  C10 UNL     1       4.285  -2.329   0.731  1.00  0.00     0.091 C 
HETATM   37  C11 UNL     1       5.700  -2.924   0.740  1.00  0.00     0.216 C 
HETATM   38  C12 UNL     1       6.539  -1.670   0.800  1.00  0.00     0.150 C 
HETATM   39  C13 UNL     1       7.797  -1.728   0.005  1.00  0.00     0.042 C 
HETATM   40  O1  UNL     1       5.702  -0.614   0.403  1.00  0.00    -0.358 OA
BRANCH  37  41
HETATM   41  N9  UNL     1       5.989  -3.679  -0.437  1.00  0.00    -0.072 N 
ATOM     42  H93 UNL     1       5.288  -4.405  -0.587  1.00  0.00     0.274 HD
ATOM     43  H92 UNL     1       5.832  -3.122  -1.277  1.00  0.00     0.274 HD
ATOM     44  H91 UNL     1       6.929  -4.074  -0.431  1.00  0.00     0.274 HD
ENDBRANCH  37  41
ENDBRANCH  14  35
TORSDOF 8
