REMARK  17 active torsions:
REMARK  status: ('A' for Active; 'I' for Inactive)
REMARK    1  A    between atoms: C2_2  and  C3_3 
REMARK    2  A    between atoms: C2_2  and  C14_18 
REMARK    3  A    between atoms: C2_2  and  C21_25 
REMARK    4  A    between atoms: C3_3  and  C4_4 
REMARK    5  A    between atoms: C4_4  and  C5_5 
REMARK    6  A    between atoms: C5_5  and  C6_6 
REMARK    7  A    between atoms: C6_6  and  N1_7 
REMARK       I    between atoms: N1_7  and  C7_9 
REMARK    8  A    between atoms: C7_9  and  C8_11 
REMARK    9  A    between atoms: C8_11  and  N2_12 
REMARK   10  A    between atoms: C14_18  and  C15_19 
REMARK       I    between atoms: C21_25  and  N3_27 
REMARK   11  A    between atoms: N3_27  and  N4_29 
REMARK   12  A    between atoms: N4_29  and  C22_31 
REMARK   13  A    between atoms: C22_31  and  N5_33 
REMARK   14  A    between atoms: N5_33  and  C23_35 
REMARK   15  A    between atoms: C23_35  and  C24_36 
REMARK   16  A    between atoms: C24_36  and  C25_37 
REMARK   17  A    between atoms: C25_37  and  N6_38 
ROOT
HETATM    1  C1  UNL     1      -1.225   1.650   2.785  1.00  0.00     0.030 C 
HETATM    2  C2  UNL     1      -1.054   1.763   1.247  1.00  0.00     0.057 C 
ENDROOT
BRANCH   2   3
HETATM    3  C3  UNL     1      -1.884   0.849   0.458  1.00  0.00    -0.012 C 
BRANCH   3   4
HETATM    4  C4  UNL     1      -1.826  -0.595   0.567  1.00  0.00    -0.028 C 
BRANCH   4   5
HETATM    5  C5  UNL     1      -2.165  -1.317   1.804  1.00  0.00     0.046 C 
BRANCH   5   6
HETATM    6  C6  UNL     1      -3.538  -1.141   2.324  1.00  0.00     0.126 C 
BRANCH   6   7
HETATM    7  N1  UNL     1      -4.575  -1.538   1.407  1.00  0.00    -0.359 N 
HETATM    8  C7  UNL     1      -4.712  -2.852   0.954  1.00  0.00     0.246 C 
HETATM    9  O1  UNL     1      -3.938  -3.800   1.317  1.00  0.00    -0.272 OA
ATOM     10  H1  UNL     1      -5.234  -0.833   1.076  1.00  0.00     0.162 HD
BRANCH   8  11
HETATM   11  C8  UNL     1      -5.771  -3.241   0.014  1.00  0.00     0.374 C 
BRANCH  11  12
HETATM   12  N2  UNL     1      -6.676  -2.239  -0.406  1.00  0.00     0.097 N 
HETATM   13  C9  UNL     1      -7.603  -1.744   0.559  1.00  0.00     0.273 C 
HETATM   14  C10 UNL     1      -9.036  -2.098   0.139  1.00  0.00     0.030 C 
HETATM   15  C11 UNL     1      -9.070  -3.546  -0.272  1.00  0.00     0.003 C 
HETATM   16  C12 UNL     1      -8.130  -3.842  -1.397  1.00  0.00     0.030 C 
HETATM   17  C13 UNL     1      -7.300  -2.594  -1.665  1.00  0.00     0.273 C 
ENDBRANCH  11  12
ENDBRANCH   8  11
ENDBRANCH   6   7
ENDBRANCH   5   6
ENDBRANCH   4   5
ENDBRANCH   3   4
ENDBRANCH   2   3
BRANCH   2  18
HETATM   18  C14 UNL     1      -1.396   3.219   1.024  1.00  0.00     0.027 C 
BRANCH  18  19
HETATM   19  C15 UNL     1      -1.410   3.797  -0.312  1.00  0.00    -0.013 C 
HETATM   20  C16 UNL     1      -1.823   5.281  -0.095  1.00  0.00     0.005 C 
HETATM   21  C17 UNL     1      -0.625   6.147   0.170  1.00  0.00     0.000 C 
HETATM   22  C18 UNL     1       0.086   6.298  -1.179  1.00  0.00     0.000 C 
HETATM   23  C19 UNL     1      -0.242   5.094  -2.028  1.00  0.00     0.000 C 
HETATM   24  C20 UNL     1      -0.174   3.845  -1.123  1.00  0.00     0.005 C 
ENDBRANCH  18  19
ENDBRANCH   2  18
BRANCH   2  25
HETATM   25  C21 UNL     1       0.400   1.599   1.065  1.00  0.00     0.248 C 
HETATM   26  O2  UNL     1       1.173   1.991   1.981  1.00  0.00    -0.271 OA
HETATM   27  N3  UNL     1       0.992   1.028  -0.079  1.00  0.00    -0.267 N 
ATOM     28  H3  UNL     1       0.381   0.704  -0.829  1.00  0.00     0.190 HD
BRANCH  27  29
HETATM   29  N4  UNL     1       2.366   0.883  -0.238  1.00  0.00    -0.274 N 
ATOM     30  H4  UNL     1       2.955   1.657   0.068  1.00  0.00     0.189 HD
BRANCH  29  31
HETATM   31  C22 UNL     1       3.017  -0.247  -0.788  1.00  0.00     0.186 C 
HETATM   32  S1  UNL     1       2.255  -1.572  -1.328  1.00  0.00    -0.040 SA
BRANCH  31  33
HETATM   33  N5  UNL     1       4.471  -0.248  -0.890  1.00  0.00    -0.366 N 
ATOM     34  H5  UNL     1       4.971  -1.045  -1.283  1.00  0.00     0.161 HD
BRANCH  33  35
HETATM   35  C23 UNL     1       5.169   0.900  -0.423  1.00  0.00     0.123 C 
BRANCH  35  36
HETATM   36  C24 UNL     1       6.646   0.926  -0.480  1.00  0.00     0.050 C 
BRANCH  36  37
HETATM   37  C25 UNL     1       7.320  -0.110   0.320  1.00  0.00     0.274 C 
BRANCH  37  38
HETATM   38  N6  UNL     1       7.122  -1.488  -0.070  1.00  0.00     0.090 N 
HETATM   39  C26 UNL     1       7.755  -2.279   0.987  1.00  0.00     0.274 C 
HETATM   40  C27 UNL     1       7.892  -3.721   0.666  1.00  0.00     0.056 C 
HETATM   41  C28 UNL     1       7.543  -4.119  -0.727  1.00  0.00     0.169 C 
HETATM   42  O3  UNL     1       8.637  -3.840  -1.548  1.00  0.00    -0.389 OA
HETATM   43  C29 UNL     1       9.061  -2.555  -1.191  1.00  0.00     0.198 C 
HETATM   44  C30 UNL     1       7.896  -1.641  -1.310  1.00  0.00     0.298 C 
ENDBRANCH  37  38
ENDBRANCH  36  37
ENDBRANCH  35  36
ENDBRANCH  33  35
ENDBRANCH  31  33
ENDBRANCH  29  31
ENDBRANCH  27  29
ENDBRANCH   2  25
TORSDOF 17
