REMARK  16 active torsions:
REMARK  status: ('A' for Active; 'I' for Inactive)
REMARK    1  A    between atoms: N1_2  and  C2_5 
REMARK    2  A    between atoms: C2_5  and  C3_6 
REMARK    3  A    between atoms: C2_5  and  C26_42 
REMARK       I    between atoms: C3_6  and  N2_8 
REMARK    4  A    between atoms: N2_8  and  C4_10 
REMARK    5  A    between atoms: C4_10  and  C5_11 
REMARK    6  A    between atoms: C4_10  and  C22_37 
REMARK       I    between atoms: C5_11  and  N3_13 
REMARK    7  A    between atoms: N3_13  and  C6_15 
REMARK    8  A    between atoms: C6_15  and  C7_16 
REMARK    9  A    between atoms: C6_15  and  C11_20 
REMARK   10  A    between atoms: C7_16  and  C8_17 
REMARK       I    between atoms: C11_20  and  N4_22 
REMARK   11  A    between atoms: N4_22  and  C12_24 
REMARK   12  A    between atoms: C12_24  and  C13_25 
REMARK   13  A    between atoms: C12_24  and  C19_34 
REMARK   14  A    between atoms: C13_25  and  O4_26 
REMARK   15  A    between atoms: C13_25  and  N5_28 
REMARK   16  A    between atoms: C22_37  and  C23_39 
ROOT
HETATM    1  C5  UNL     1      -1.469  -1.946   0.585  1.00  0.00     0.248 C 
HETATM    2  O2  UNL     1      -0.944  -1.444   1.636  1.00  0.00    -0.271 OA
HETATM    3  N3  UNL     1      -0.696  -2.448  -0.468  1.00  0.00    -0.346 N 
ATOM      4  H3  UNL     1      -1.168  -2.836  -1.285  1.00  0.00     0.163 HD
ENDROOT
BRANCH   3   5
HETATM    5  C6  UNL     1       0.777  -2.435  -0.436  1.00  0.00     0.177 C 
BRANCH   5   6
HETATM    6  C7  UNL     1       1.223  -3.719  -1.071  1.00  0.00     0.038 C 
BRANCH   6   7
HETATM    7  C8  UNL     1       2.701  -3.945  -1.150  1.00  0.00    -0.020 C 
HETATM    8  C9  UNL     1       2.890  -5.328  -1.830  1.00  0.00     0.009 C 
HETATM    9  C10 UNL     1       3.272  -4.106   0.238  1.00  0.00     0.009 C 
ENDBRANCH   6   7
ENDBRANCH   5   6
BRANCH   5  10
HETATM   10  C11 UNL     1       1.239  -1.228  -1.193  1.00  0.00     0.241 C 
HETATM   11  O3  UNL     1       0.352  -0.598  -1.849  1.00  0.00    -0.271 OA
HETATM   12  N4  UNL     1       2.561  -0.753  -1.218  1.00  0.00    -0.347 N 
ATOM     13  H4  UNL     1       3.305  -1.228  -0.707  1.00  0.00     0.163 HD
BRANCH  12  14
HETATM   14  C12 UNL     1       2.837   0.490  -2.032  1.00  0.00     0.162 C 
BRANCH  14  15
HETATM   15  C13 UNL     1       3.011   1.556  -1.064  1.00  0.00     0.137 C 
BRANCH  15  16
HETATM   16  O4  UNL     1       2.054   1.523  -0.105  1.00  0.00    -0.348 OA
ATOM     17  H4  UNL     1       2.168   2.221   0.529  1.00  0.00     0.219 HD
ENDBRANCH  15  16
BRANCH  15  18
HETATM   18  N5  UNL     1       3.885   2.611  -0.828  1.00  0.00    -0.363 N 
HETATM   19  C14 UNL     1       3.615   3.524   0.318  1.00  0.00     0.125 C 
HETATM   20  C15 UNL     1       4.628   4.587   0.223  1.00  0.00     0.026 C 
HETATM   21  C16 UNL     1       5.810   3.901  -0.409  1.00  0.00     0.001 C 
HETATM   22  C17 UNL     1       6.699   4.885  -1.132  1.00  0.00     0.011 C 
HETATM   23  C18 UNL     1       5.107   3.035  -1.454  1.00  0.00     0.129 C 
ENDBRANCH  15  18
ENDBRANCH  14  15
BRANCH  14  24
HETATM   24  C19 UNL     1       3.704   0.199  -3.152  1.00  0.00     0.008 C 
HETATM   25  C20 UNL     1       3.953   1.350  -4.059  1.00  0.00     0.012 C 
HETATM   26  C21 UNL     1       4.974  -0.582  -2.854  1.00  0.00     0.012 C 
ENDBRANCH  14  24
ENDBRANCH  12  14
ENDBRANCH   5  10
ENDBRANCH   3   5
BRANCH   1  27
HETATM   27  C4  UNL     1      -2.941  -1.956   0.557  1.00  0.00     0.247 C 
BRANCH  27  28
HETATM   28  N2  UNL     1      -3.339  -0.621   1.101  1.00  0.00    -0.340 N 
HETATM   29  C3  UNL     1      -4.353   0.121   0.488  1.00  0.00     0.249 C 
HETATM   30  O1  UNL     1      -4.916  -0.422  -0.529  1.00  0.00    -0.271 OA
ATOM     31  H2  UNL     1      -2.867  -0.249   1.925  1.00  0.00     0.163 HD
BRANCH  29  32
HETATM   32  C2  UNL     1      -4.864   1.438   0.852  1.00  0.00     0.280 C 
BRANCH  32  33
HETATM   33  N1  UNL     1      -6.336   1.336   0.803  1.00  0.00    -0.066 N 
HETATM   34  C1  UNL     1      -6.830   0.390   1.756  1.00  0.00     0.267 C 
ATOM     35  H12 UNL     1      -6.664   1.122  -0.139  1.00  0.00     0.277 HD
ATOM     36  H11 UNL     1      -6.777   2.248   0.920  1.00  0.00     0.277 HD
ENDBRANCH  32  33
BRANCH  32  37
HETATM   37  C26 UNL     1      -4.466   2.019   2.149  1.00  0.00     0.025 C 
HETATM   38  C27 UNL     1      -2.993   2.243   2.305  1.00  0.00     0.007 C 
HETATM   39  C28 UNL     1      -2.721   3.733   2.364  1.00  0.00     0.000 C 
HETATM   40  C29 UNL     1      -3.346   4.462   1.191  1.00  0.00     0.000 C 
HETATM   41  C30 UNL     1      -4.839   4.380   1.338  1.00  0.00     0.000 C 
HETATM   42  C31 UNL     1      -5.184   3.327   2.364  1.00  0.00     0.007 C 
ENDBRANCH  32  37
ENDBRANCH  29  32
ENDBRANCH  27  28
BRANCH  27  43
HETATM   43  C22 UNL     1      -3.448  -3.000   1.479  1.00  0.00     0.162 C 
HETATM   44  O5  UNL     1      -4.077  -2.666   2.502  1.00  0.00    -0.295 OA
BRANCH  43  45
HETATM   45  C23 UNL     1      -3.244  -4.427   1.245  1.00  0.00     0.050 C 
HETATM   46  C24 UNL     1      -1.849  -4.932   1.314  1.00  0.00     0.017 C 
HETATM   47  C25 UNL     1      -4.133  -5.258   2.181  1.00  0.00     0.017 C 
ENDBRANCH  43  45
ENDBRANCH  27  43
ENDBRANCH   1  27
TORSDOF 16
