REMARK  7 active torsions:
REMARK  status: ('A' for Active; 'I' for Inactive)
REMARK    1  A    between atoms: N2_3  and  C2_5 
REMARK    2  A    between atoms: C2_5  and  O2_10 
REMARK    3  A    between atoms: N3_6  and  O1_8 
REMARK    4  A    between atoms: O2_10  and  C3_11 
REMARK    5  A    between atoms: C3_11  and  C4_12 
REMARK    6  A    between atoms: C6_17  and  C7_18 
REMARK    7  A    between atoms: C7_18  and  O3_19 
ROOT
HETATM    1  N1  UNL     1       5.575   1.321  -0.039  1.00  0.00    -0.172 NA
HETATM    2  C1  UNL     1       4.692   0.570  -0.080  1.00  0.00     0.185 C 
HETATM    3  N2  UNL     1       3.619  -0.346  -0.142  1.00  0.00    -0.257 N 
ATOM      4  H2  UNL     1       3.602  -1.062  -0.869  1.00  0.00     0.181 HD
ENDROOT
BRANCH   3   5
HETATM    5  C2  UNL     1       2.573  -0.273   0.798  1.00  0.00     0.252 C 
HETATM    6  N3  UNL     1       2.225  -1.308   1.467  1.00  0.00    -0.232 N 
ATOM      7  H3  UNL     1       1.461  -1.191   2.132  1.00  0.00     0.198 HD
BRANCH   6   8
HETATM    8  O1  UNL     1       2.771  -2.537   1.377  1.00  0.00    -0.287 OA
ATOM      9  H1  UNL     1       2.513  -3.305   1.873  1.00  0.00     0.244 HD
ENDBRANCH   6   8
BRANCH   5  10
HETATM   10  O2  UNL     1       1.897   0.880   1.035  1.00  0.00    -0.319 OA
BRANCH  10  11
HETATM   11  C3  UNL     1       0.504   1.010   1.004  1.00  0.00     0.202 C 
BRANCH  11  12
HETATM   12  C4  UNL     1      -0.142   0.738  -0.267  1.00  0.00     0.128 C 
HETATM   13  N4  UNL     1       0.063  -0.638  -0.707  1.00  0.00    -0.140 NA
HETATM   14  N5  UNL     1      -0.719  -0.724  -1.888  1.00  0.00    -0.131 NA
HETATM   15  C5  UNL     1      -1.902   0.075  -1.620  1.00  0.00     0.175 C 
HETATM   16  S1  UNL     1      -3.263  -1.029  -1.256  1.00  0.00    -0.072 SA
HETATM   17  C6  UNL     1      -1.577   1.009  -0.468  1.00  0.00     0.063 C 
BRANCH  17  18
HETATM   18  C7  UNL     1      -2.486   0.684   0.661  1.00  0.00     0.173 C 
BRANCH  18  19
HETATM   19  O3  UNL     1      -3.792   1.013   0.271  1.00  0.00    -0.400 OA
ATOM     20  H3  UNL     1      -4.373   0.805   0.993  1.00  0.00     0.209 HD
ENDBRANCH  18  19
ENDBRANCH  17  18
ENDBRANCH  11  12
ENDBRANCH  10  11
ENDBRANCH   5  10
ENDBRANCH   3   5
TORSDOF 7
