REMARK  9 active torsions:
REMARK  status: ('A' for Active; 'I' for Inactive)
REMARK    1  A    between atoms: C5_7  and  C6_8 
REMARK    2  A    between atoms: N2_9  and  C7_11 
REMARK    3  A    between atoms: C7_11  and  C8_12 
REMARK    4  A    between atoms: C8_12  and  C9_13 
REMARK    5  A    between atoms: C9_13  and  N3_14 
REMARK    6  A    between atoms: N4_23  and  C18_25 
REMARK    7  A    between atoms: C18_25  and  C19_26 
REMARK    8  A    between atoms: C19_26  and  C20_27 
REMARK    9  A    between atoms: C20_27  and  O1_28 
ROOT
HETATM    1  C1  UNL     1       4.566  -5.587   1.034  1.00  0.00     0.056 C 
HETATM    2  C2  UNL     1       4.314  -4.152   0.628  1.00  0.00    -0.018 A 
HETATM    3  C3  UNL     1       3.106  -3.510   0.610  1.00  0.00     0.045 A 
HETATM    4  C4  UNL     1       3.098  -2.218   0.209  1.00  0.00     0.053 A 
HETATM    5  N1  UNL     1       2.022  -1.370   0.106  1.00  0.00    -0.354 N 
ATOM      6  H1  UNL     1       1.104  -1.736   0.359  1.00  0.00     0.166 HD
HETATM    7  C5  UNL     1       2.092  -0.108  -0.299  1.00  0.00     0.050 A 
HETATM    8  C16 UNL     1       3.320   0.466  -0.663  1.00  0.00     0.061 A 
HETATM    9  C17 UNL     1       4.418  -0.344  -0.574  1.00  0.00     0.049 A 
HETATM   10  N4  UNL     1       5.607   0.044  -0.874  1.00  0.00    -0.389 N 
ATOM     11  H4  UNL     1       6.378  -0.617  -0.782  1.00  0.00     0.159 HD
HETATM   12  C21 UNL     1       4.301  -1.674  -0.141  1.00  0.00     0.058 A 
HETATM   13  S1  UNL     1       5.400  -2.962   0.094  1.00  0.00    -0.091 SA
ENDROOT
BRANCH   7  14
HETATM   14  C6  UNL     1       0.903   0.742  -0.404  1.00  0.00     0.116 C 
HETATM   15  N2  UNL     1      -0.259   0.474  -0.172  1.00  0.00    -0.377 N 
ATOM     16  H2  UNL     1      -0.791   1.324  -0.362  1.00  0.00     0.164 HD
BRANCH  15  17
HETATM   17  C7  UNL     1      -1.173  -0.468   0.233  1.00  0.00     0.062 C 
BRANCH  17  18
HETATM   18  C8  UNL     1      -2.630  -0.039   0.094  1.00  0.00     0.074 C 
BRANCH  18  19
HETATM   19  C9  UNL     1      -3.486  -1.158   0.573  1.00  0.00     0.277 C 
BRANCH  19  20
HETATM   20  N3  UNL     1      -4.903  -0.916   0.496  1.00  0.00     0.089 N 
HETATM   21  C10 UNL     1      -5.340  -0.878  -0.869  1.00  0.00     0.272 C 
HETATM   22  C11 UNL     1      -6.696  -0.244  -1.056  1.00  0.00     0.031 C 
HETATM   23  C12 UNL     1      -6.784   1.131  -0.434  1.00  0.00     0.007 C 
HETATM   24  C13 UNL     1      -5.488   1.451   0.246  1.00  0.00     0.010 C 
HETATM   25  C14 UNL     1      -5.643   2.714   1.059  1.00  0.00     0.011 C 
HETATM   26  C15 UNL     1      -5.176   0.321   1.204  1.00  0.00     0.276 C 
ENDBRANCH  19  20
ENDBRANCH  18  19
ENDBRANCH  17  18
ENDBRANCH  15  17
ENDBRANCH   7  14
BRANCH  10  27
HETATM   27  C18 UNL     1       5.890   1.388  -1.338  1.00  0.00     0.122 C 
BRANCH  27  28
HETATM   28  C19 UNL     1       6.067   2.264  -0.119  1.00  0.00     0.045 C 
BRANCH  28  29
HETATM   29  C20 UNL     1       6.362   3.699  -0.500  1.00  0.00     0.165 C 
BRANCH  29  30
HETATM   30  O1  UNL     1       6.508   4.429   0.663  1.00  0.00    -0.401 OA
ATOM     31  H1  UNL     1       6.693   5.330   0.424  1.00  0.00     0.209 HD
ENDBRANCH  29  30
ENDBRANCH  28  29
ENDBRANCH  27  28
ENDBRANCH  10  27
TORSDOF 9
