REMARK  12 active torsions:
REMARK  status: ('A' for Active; 'I' for Inactive)
REMARK    1  A    between atoms: C2_2  and  C3_3 
REMARK    2  A    between atoms: C3_3  and  N1_4 
REMARK    3  A    between atoms: C3_3  and  C19_28 
REMARK       I    between atoms: N1_4  and  C4_5 
REMARK    4  A    between atoms: C4_5  and  C5_7 
REMARK    5  A    between atoms: C5_7  and  C6_8 
REMARK    6  A    between atoms: C6_8  and  N2_10 
REMARK       I    between atoms: N2_10  and  C8_12 
REMARK    7  A    between atoms: C8_12  and  C9_14 
REMARK    8  A    between atoms: C9_14  and  C10_15 
REMARK    9  A    between atoms: C9_14  and  N3_19 
REMARK   10  A    between atoms: C10_15  and  C11_16 
REMARK       I    between atoms: N3_19  and  C14_21 
REMARK   11  A    between atoms: C14_21  and  O4_23 
REMARK   12  A    between atoms: O4_23  and  C15_24 
REMARK       I    between atoms: C19_28  and  N4_30 
ROOT
HETATM    1  C6  UNL     1      -0.451   0.750   0.032  1.00  0.00     0.090 C 
HETATM    2  C7  UNL     1       0.003   0.405   1.452  1.00  0.00     0.032 C 
ENDROOT
BRANCH   1   3
HETATM    3  C5  UNL     1       0.644   0.354  -0.890  1.00  0.00     0.143 C 
BRANCH   3   4
HETATM    4  C4  UNL     1       1.938   1.125  -0.632  1.00  0.00     0.289 C 
HETATM    5  N1  UNL     1       3.147   0.627  -0.908  1.00  0.00    -0.400 NA
HETATM    6  O1  UNL     1       1.694   2.275  -0.126  1.00  0.00    -0.258 OA
BRANCH   5   7
HETATM    7  C3  UNL     1       4.418   0.105  -1.197  1.00  0.00     0.258 C 
BRANCH   7   8
HETATM    8  C2  UNL     1       4.219  -1.145  -2.045  1.00  0.00     0.045 C 
HETATM    9  C1  UNL     1       3.499  -0.762  -3.319  1.00  0.00     0.009 C 
ENDBRANCH   7   8
BRANCH   7  10
HETATM   10  C19 UNL     1       5.022  -0.387   0.108  1.00  0.00     0.255 C 
HETATM   11  O5  UNL     1       4.318  -0.345   1.147  1.00  0.00    -0.270 OA
HETATM   12  N4  UNL     1       6.340  -0.877   0.188  1.00  0.00    -0.349 N 
HETATM   13  C20 UNL     1       6.860  -1.310   1.473  1.00  0.00     0.126 C 
HETATM   14  C24 UNL     1       7.259  -0.981  -0.924  1.00  0.00     0.126 C 
HETATM   15  C21 UNL     1       7.807  -0.173   1.907  1.00  0.00     0.029 C 
HETATM   16  C22 UNL     1       8.380   0.474   0.679  1.00  0.00    -0.037 A 
HETATM   17  C23 UNL     1       8.636  -0.537  -0.410  1.00  0.00     0.029 C 
HETATM   18  C25 UNL     1       9.092   1.761   0.709  1.00  0.00     0.010 A 
HETATM   19  C26 UNL     1       7.670   1.744   0.181  1.00  0.00     0.010 A 
ENDBRANCH   7  10
ENDBRANCH   5   7
ENDBRANCH   3   4
ENDBRANCH   1   3
BRANCH   1  20
HETATM   20  N2  UNL     1      -1.680   0.083  -0.270  1.00  0.00    -0.355 N 
HETATM   21  C8  UNL     1      -2.958   0.443   0.287  1.00  0.00     0.240 C 
HETATM   22  O2  UNL     1      -2.998   1.389   1.138  1.00  0.00    -0.271 OA
ATOM     23  H2  UNL     1      -1.649  -0.700  -0.923  1.00  0.00     0.162 HD
BRANCH  21  24
HETATM   24  C9  UNL     1      -4.202  -0.217  -0.085  1.00  0.00     0.179 C 
BRANCH  24  25
HETATM   25  C10 UNL     1      -4.255  -1.679  -0.262  1.00  0.00     0.038 C 
BRANCH  25  26
HETATM   26  C11 UNL     1      -3.986  -2.596   0.848  1.00  0.00    -0.020 C 
HETATM   27  C12 UNL     1      -2.637  -2.524   1.483  1.00  0.00     0.009 C 
HETATM   28  C13 UNL     1      -4.164  -4.057   0.359  1.00  0.00     0.009 C 
ENDBRANCH  25  26
ENDBRANCH  24  25
BRANCH  24  29
HETATM   29  N3  UNL     1      -5.317   0.276   0.723  1.00  0.00    -0.324 N 
HETATM   30  C14 UNL     1      -6.387   0.953   0.156  1.00  0.00     0.362 C 
HETATM   31  O3  UNL     1      -6.554   1.238  -1.039  1.00  0.00    -0.238 OA
ATOM     32  H3  UNL     1      -5.308   0.118   1.731  1.00  0.00     0.165 HD
BRANCH  30  33
HETATM   33  O4  UNL     1      -7.413   1.372   1.007  1.00  0.00    -0.294 OA
BRANCH  33  34
HETATM   34  C15 UNL     1      -8.543   2.049   0.594  1.00  0.00     0.061 C 
HETATM   35  C16 UNL     1      -8.279   3.366  -0.070  1.00  0.00     0.046 C 
HETATM   36  C17 UNL     1      -9.478   2.223   1.774  1.00  0.00     0.046 C 
HETATM   37  C18 UNL     1      -9.280   1.172  -0.415  1.00  0.00     0.046 C 
ENDBRANCH  33  34
ENDBRANCH  30  33
ENDBRANCH  24  29
ENDBRANCH  21  24
ENDBRANCH   1  20
TORSDOF 12
