REMARK  3 active torsions:
REMARK  status: ('A' for Active; 'I' for Inactive)
REMARK    1  A    between atoms: C5_6  and  O2_7 
REMARK    2  A    between atoms: O2_7  and  C6_8 
REMARK    3  A    between atoms: C14_17  and  O4_18 
ROOT
HETATM    1  C1  UNL     1      -4.495   1.645  -0.581  1.00  0.00     0.017 C 
HETATM    2  C2  UNL     1      -3.616   0.940   0.114  1.00  0.00    -0.058 C 
HETATM    3  C3  UNL     1      -2.313   1.569   0.243  1.00  0.00     0.069 C 
HETATM    4  C4  UNL     1      -1.225   1.006  -0.689  1.00  0.00     0.142 C 
HETATM    5  O1  UNL     1      -0.077   1.299  -0.048  1.00  0.00    -0.326 OA
HETATM    6  C5  UNL     1       1.128   0.769  -0.511  1.00  0.00     0.290 C 
HETATM    7  C8  UNL     1       0.777   0.177  -1.889  1.00  0.00     0.103 C 
HETATM    8  C9  UNL     1      -0.141  -0.971  -1.593  1.00  0.00     0.022 C 
HETATM    9  C10 UNL     1      -1.469  -0.456  -1.008  1.00  0.00     0.010 C 
HETATM   10  C11 UNL     1      -2.471  -0.621  -2.116  1.00  0.00     0.020 C 
HETATM   11  C12 UNL     1      -1.773  -1.150   0.267  1.00  0.00     0.145 C 
HETATM   12  C13 UNL     1      -3.223  -1.515   0.464  1.00  0.00     0.069 C 
HETATM   13  C14 UNL     1      -4.138  -0.350   0.631  1.00  0.00     0.149 C 
HETATM   14  O5  UNL     1      -1.027  -2.334   0.475  1.00  0.00    -0.315 OA
HETATM   15  C15 UNL     1      -0.201  -2.604   1.525  1.00  0.00     0.259 C 
HETATM   16  O6  UNL     1      -0.221  -3.780   2.028  1.00  0.00    -0.265 OA
HETATM   17  C16 UNL     1       0.747  -1.641   2.158  1.00  0.00     0.114 C 
HETATM   18  C17 UNL     1       2.156  -1.850   1.682  1.00  0.00     0.051 C 
HETATM   19  C18 UNL     1       2.580  -0.793   0.630  1.00  0.00     0.098 C 
HETATM   20  C19 UNL     1       3.881  -0.211   1.088  1.00  0.00     0.044 C 
HETATM   21  C20 UNL     1       4.431  -0.436  -0.316  1.00  0.00     0.043 C 
HETATM   22  C21 UNL     1       3.429  -1.562  -0.402  1.00  0.00     0.204 C 
HETATM   23  F1  UNL     1       4.018  -2.717   0.111  1.00  0.00    -0.246 F 
HETATM   24  O7  UNL     1       1.527  -0.149   0.292  1.00  0.00    -0.318 OA
ENDROOT
BRANCH   6  25
HETATM   25  O2  UNL     1       1.897   1.910  -0.820  1.00  0.00    -0.258 OA
BRANCH  25  26
HETATM   26  C6  UNL     1       2.248   2.910   0.059  1.00  0.00     0.259 C 
HETATM   27  C7  UNL     1       3.058   4.082  -0.329  1.00  0.00     0.126 C 
HETATM   28  O3  UNL     1       1.864   2.825   1.246  1.00  0.00    -0.266 OA
ENDBRANCH  25  26
ENDBRANCH   6  25
BRANCH  13  29
HETATM   29  O4  UNL     1      -4.427  -0.113   1.997  1.00  0.00    -0.391 OA
ATOM     30  H4  UNL     1      -4.761  -0.939   2.328  1.00  0.00     0.210 HD
ENDBRANCH  13  29
TORSDOF 3
