REMARK  6 active torsions:
REMARK  status: ('A' for Active; 'I' for Inactive)
REMARK    1  A    between atoms: C1_2  and  C2_3 
REMARK       I    between atoms: C1_2  and  N2_10 
REMARK    2  A    between atoms: C2_3  and  N1_4 
REMARK    3  A    between atoms: N2_10  and  C7_12 
REMARK    4  A    between atoms: C10_16  and  O4_17 
REMARK    5  A    between atoms: O4_17  and  C11_18 
REMARK    6  A    between atoms: C14_23  and  C15_24 
ROOT
HETATM    1  C7  UNL     1       1.264   0.153  -1.792  1.00  0.00     0.093 A 
HETATM    2  C8  UNL     1       0.803  -0.260  -3.022  1.00  0.00     0.173 A 
HETATM    3  O3  UNL     1       1.827  -0.363  -3.826  1.00  0.00    -0.330 OA
HETATM    4  C9  UNL     1       2.926  -0.053  -3.231  1.00  0.00     0.181 A 
HETATM    5  C10 UNL     1       2.642   0.299  -1.894  1.00  0.00     0.127 A 
ENDROOT
BRANCH   1   6
HETATM    6  N2  UNL     1       0.447   0.335  -0.653  1.00  0.00    -0.322 N 
HETATM    7  C1  UNL     1      -0.954   0.270  -0.589  1.00  0.00     0.239 C 
HETATM    8  O1  UNL     1      -1.620   0.031  -1.616  1.00  0.00    -0.271 OA
ATOM      9  H2  UNL     1       0.930   0.537   0.222  1.00  0.00     0.169 HD
BRANCH   7  10
HETATM   10  C2  UNL     1      -1.624   0.489   0.714  1.00  0.00     0.220 C 
BRANCH  10  11
HETATM   11  N1  UNL     1      -3.035   0.417   0.708  1.00  0.00    -0.400 N 
HETATM   12  C3  UNL     1      -3.734   1.446   0.039  1.00  0.00     0.143 C 
HETATM   13  C4  UNL     1      -5.251   1.191   0.025  1.00  0.00     0.187 C 
HETATM   14  O2  UNL     1      -5.409  -0.033  -0.629  1.00  0.00    -0.388 OA
HETATM   15  C5  UNL     1      -4.967  -1.021   0.224  1.00  0.00     0.187 C 
HETATM   16  C6  UNL     1      -3.510  -0.907   0.595  1.00  0.00     0.143 C 
ENDBRANCH  10  11
ENDBRANCH   7  10
ENDBRANCH   1   6
BRANCH   5  17
HETATM   17  O4  UNL     1       3.571   0.663  -1.038  1.00  0.00    -0.303 OA
BRANCH  17  18
HETATM   18  C11 UNL     1       4.011   0.343   0.238  1.00  0.00     0.122 A 
HETATM   19  C12 UNL     1       3.717   1.216   1.262  1.00  0.00     0.076 A 
HETATM   20 CL1  UNL     1       2.845   2.779   1.031  1.00  0.00    -0.081 Cl
HETATM   21  C13 UNL     1       4.138   0.904   2.509  1.00  0.00     0.077 A 
HETATM   22  S1  UNL     1       4.934  -0.566   2.300  1.00  0.00    -0.091 SA
HETATM   23  C14 UNL     1       4.719  -0.777   0.590  1.00  0.00     0.117 A 
BRANCH  23  24
HETATM   24  C15 UNL     1       5.229  -1.899  -0.194  1.00  0.00     0.219 C 
HETATM   25  O5  UNL     1       5.083  -1.981  -1.401  1.00  0.00    -0.643 OA
HETATM   26  O6  UNL     1       5.906  -2.907   0.472  1.00  0.00    -0.643 OA
ENDBRANCH  23  24
ENDBRANCH  17  18
ENDBRANCH   5  17
TORSDOF 6
