REMARK  11 active torsions:
REMARK  status: ('A' for Active; 'I' for Inactive)
REMARK    1  A    between atoms: C4_7  and  N4_8 
REMARK    2  A    between atoms: N4_8  and  C5_10 
REMARK    3  A    between atoms: C6_13  and  N6_14 
REMARK    4  A    between atoms: C9_23  and  C10_24 
REMARK    5  A    between atoms: C10_24  and  C11_26 
REMARK    6  A    between atoms: C11_26  and  C12_27 
REMARK    7  A    between atoms: C11_26  and  N10_32 
REMARK    8  A    between atoms: C12_27  and  N9_28 
REMARK    9  A    between atoms: N10_32  and  N11_34 
REMARK   10  A    between atoms: C13_36  and  C14_37 
REMARK   11  A    between atoms: C17_40  and  N12_41 
ROOT
HETATM    1  C5  UNL     1      -3.371  -1.122  -0.682  1.00  0.00     0.133 A 
HETATM    2  N5  UNL     1      -4.256  -1.689  -1.517  1.00  0.00    -0.176 N 
ATOM      3  H5  UNL     1      -5.239  -1.703  -1.245  1.00  0.00     0.186 HD
HETATM    4  C6  UNL     1      -3.908  -2.246  -2.707  1.00  0.00     0.679 A 
HETATM    5  N7  UNL     1      -2.624  -2.239  -3.080  1.00  0.00    -0.176 N 
ATOM      6  H7  UNL     1      -2.360  -2.657  -3.972  1.00  0.00     0.186 HD
HETATM    7  C7  UNL     1      -1.668  -1.689  -2.297  1.00  0.00     0.135 A 
HETATM    8  N8  UNL     1      -0.388  -1.691  -2.696  1.00  0.00    -0.350 N 
ATOM      9  H8  UNL     1      -0.134  -2.111  -3.590  1.00  0.00     0.166 HD
HETATM   10  C8  UNL     1       0.575  -1.133  -1.909  1.00  0.00     0.105 A 
HETATM   11  C9  UNL     1       0.271  -0.562  -0.711  1.00  0.00     0.028 A 
HETATM   12  C18 UNL     1      -1.061  -0.574  -0.321  1.00  0.00     0.035 A 
HETATM   13  C19 UNL     1      -2.037  -1.131  -1.102  1.00  0.00     0.054 A 
ENDROOT
BRANCH  11  14
HETATM   14  C10 UNL     1       1.255   0.065   0.137  1.00  0.00     0.186 C 
HETATM   15  O1  UNL     1       0.931   0.496   1.296  1.00  0.00    -0.290 OA
BRANCH  14  16
HETATM   16  C11 UNL     1       2.662   0.239  -0.280  1.00  0.00     0.199 C 
BRANCH  16  17
HETATM   17  C12 UNL     1       2.660   1.342  -1.360  1.00  0.00     0.264 C 
BRANCH  17  18
HETATM   18  N9  UNL     1       4.004   1.580  -1.836  1.00  0.00    -0.077 N 
ATOM     19  H93 UNL     1       4.645   1.796  -1.073  1.00  0.00     0.274 HD
ATOM     20  H92 UNL     1       4.447   0.723  -2.168  1.00  0.00     0.274 HD
ATOM     21  H91 UNL     1       4.003   2.309  -2.550  1.00  0.00     0.274 HD
ENDBRANCH  17  18
ENDBRANCH  16  17
BRANCH  16  22
HETATM   22  N10 UNL     1       3.472   0.740   0.844  1.00  0.00    -0.323 N 
ATOM     23  H10 UNL     1       3.014   0.913   1.739  1.00  0.00     0.181 HD
BRANCH  22  24
HETATM   24  N11 UNL     1       4.827   0.985   0.734  1.00  0.00    -0.314 N 
HETATM   25  C13 UNL     1       5.704   0.092   0.469  1.00  0.00     0.125 C 
ATOM     26  H11 UNL     1       5.150   1.942   0.873  1.00  0.00     0.185 HD
BRANCH  25  27
HETATM   27  C14 UNL     1       7.108   0.486   0.380  1.00  0.00     0.024 A 
HETATM   28  C15 UNL     1       8.203  -0.300   0.113  1.00  0.00     0.023 A 
HETATM   29  C16 UNL     1       9.394   0.300   0.085  1.00  0.00     0.045 A 
HETATM   30  C17 UNL     1       9.442   1.645   0.323  1.00  0.00     0.144 A 
HETATM   31  S1  UNL     1       7.803   2.038   0.581  1.00  0.00    -0.065 SA
BRANCH  30  32
HETATM   32  N12 UNL     1      10.580   2.495   0.348  1.00  0.00    -0.108 N 
HETATM   33  O2  UNL     1      11.700   2.020   0.140  1.00  0.00    -0.531 OA
HETATM   34  O3  UNL     1      10.442   3.822   0.601  1.00  0.00    -0.531 OA
ENDBRANCH  30  32
ENDBRANCH  25  27
ENDBRANCH  22  24
ENDBRANCH  16  22
ENDBRANCH  14  16
ENDBRANCH  11  14
BRANCH   1  35
HETATM   35  N4  UNL     1      -3.634  -0.584   0.442  1.00  0.00    -0.343 N 
ATOM     36  H4  UNL     1      -2.844  -0.197   0.958  1.00  0.00     0.164 HD
BRANCH  35  37
HETATM   37  C4  UNL     1      -4.912  -0.466   1.053  1.00  0.00     0.286 C 
HETATM   38  N3  UNL     1      -4.791  -0.589   2.506  1.00  0.00    -0.195 NA
HETATM   39  N2  UNL     1      -6.031  -0.422   3.092  1.00  0.00    -0.217 NA
HETATM   40  C3  UNL     1      -5.534  -1.717   3.095  1.00  0.00     0.221 A 
HETATM   41  C2  UNL     1      -7.074  -0.038   2.186  1.00  0.00     0.218 C 
HETATM   42  N1  UNL     1      -6.624   1.119   1.401  1.00  0.00    -0.221 NA
HETATM   43  C1  UNL     1      -6.543   2.216   2.367  1.00  0.00     0.133 C 
HETATM   44  N13 UNL     1      -5.408   0.886   0.784  1.00  0.00    -0.121 NA
ENDBRANCH  35  37
ENDBRANCH   1  35
BRANCH   4  45
HETATM   45  N6  UNL     1      -4.827  -2.771  -3.448  1.00  0.00    -0.234 N 
ATOM     46  H62 UNL     1      -5.806  -2.776  -3.163  1.00  0.00     0.174 HD
ATOM     47  H61 UNL     1      -4.566  -3.189  -4.341  1.00  0.00     0.174 HD
ENDBRANCH   4  45
TORSDOF 11
