REMARK  14 active torsions:
REMARK  status: ('A' for Active; 'I' for Inactive)
REMARK    1  A    between atoms: N1_2  and  C2_3 
REMARK    2  A    between atoms: N1_2  and  N9_32 
REMARK    3  A    between atoms: C2_3  and  C3_4 
REMARK    4  A    between atoms: C3_4  and  N2_5 
REMARK    5  A    between atoms: N2_5  and  C4_7 
REMARK    6  A    between atoms: C7_12  and  N5_13 
REMARK    7  A    between atoms: N5_13  and  C8_15 
REMARK    8  A    between atoms: C8_15  and  N6_17 
REMARK    9  A    between atoms: N6_17  and  C9_19 
REMARK   10  A    between atoms: C12_22  and  N7_23 
REMARK   11  A    between atoms: C17_34  and  O4_35 
REMARK   12  A    between atoms: C17_34  and  C18_37 
REMARK   13  A    between atoms: C18_37  and  N10_38 
REMARK   14  A    between atoms: C18_37  and  C19_42 
ROOT
HETATM    1  C4  UNL     1      -0.001  -1.433  -0.251  1.00  0.00     0.689 A 
HETATM    2  N3  UNL     1      -0.985  -2.006  -1.051  1.00  0.00    -0.172 N 
HETATM    3  C5  UNL     1      -0.681  -2.151  -2.466  1.00  0.00     0.177 C 
HETATM    4  C6  UNL     1      -2.152  -2.412  -0.594  1.00  0.00     0.166 A 
HETATM    5  N4  UNL     1      -3.157  -3.004  -1.446  1.00  0.00    -0.079 NA
HETATM    6  C7  UNL     1      -2.418  -2.268   0.734  1.00  0.00     0.146 A 
HETATM    7  C15 UNL     1      -1.464  -1.707   1.543  1.00  0.00     0.291 A 
HETATM    8  O3  UNL     1      -1.670  -1.551   2.798  1.00  0.00    -0.265 OA
HETATM    9  N8  UNL     1      -0.267  -1.293   1.059  1.00  0.00    -0.149 N 
HETATM   10  C16 UNL     1       0.701  -0.700   1.998  1.00  0.00     0.179 C 
ENDROOT
BRANCH   1  11
HETATM   11  N2  UNL     1       1.062  -1.084  -0.774  1.00  0.00    -0.203 N 
ATOM     12  H2  UNL     1       0.956  -1.321  -1.760  1.00  0.00     0.183 HD
BRANCH  11  13
HETATM   13  C3  UNL     1       2.298  -0.542  -0.682  1.00  0.00     0.100 C 
BRANCH  13  14
HETATM   14  C2  UNL     1       2.404   0.915  -1.134  1.00  0.00     0.187 C 
BRANCH  14  15
HETATM   15  N1  UNL     1       3.763   1.349  -0.980  1.00  0.00    -0.326 N 
HETATM   16  C1  UNL     1       4.117   2.695  -1.343  1.00  0.00     0.171 C 
BRANCH  15  17
HETATM   17  N9  UNL     1       4.729   0.490  -0.489  1.00  0.00    -0.284 N 
HETATM   18  C17 UNL     1       5.644   0.865   0.348  1.00  0.00     0.168 C 
ATOM     19  H9  UNL     1       4.721  -0.482  -0.799  1.00  0.00     0.188 HD
BRANCH  18  20
HETATM   20  O4  UNL     1       5.722   2.179   0.818  1.00  0.00    -0.346 OA
ATOM     21  H4  UNL     1       6.393   2.454   1.432  1.00  0.00     0.219 HD
ENDBRANCH  18  20
BRANCH  18  22
HETATM   22  C18 UNL     1       6.648  -0.095   0.837  1.00  0.00     0.322 C 
BRANCH  22  23
HETATM   23  N10 UNL     1       6.419  -1.388   0.255  1.00  0.00    -0.061 N 
ATOM     24 3H10 UNL     1       5.467  -1.716   0.416  1.00  0.00     0.275 HD
ATOM     25 2H10 UNL     1       6.393  -1.349  -0.764  1.00  0.00     0.275 HD
ATOM     26 1H10 UNL     1       7.114  -2.053   0.594  1.00  0.00     0.275 HD
ENDBRANCH  22  23
BRANCH  22  27
HETATM   27  C19 UNL     1       8.043   0.350   0.587  1.00  0.00     0.125 C 
HETATM   28  N11 UNL     1       8.863  -0.340  -0.132  1.00  0.00    -0.389 N 
ATOM     29 2H11 UNL     1       8.515  -1.214  -0.527  1.00  0.00     0.157 HD
ATOM     30 1H11 UNL     1       9.821  -0.034  -0.304  1.00  0.00     0.157 HD
HETATM   31  N12 UNL     1       8.528   1.568   1.138  1.00  0.00    -0.085 NA
ENDBRANCH  22  27
ENDBRANCH  18  22
ENDBRANCH  15  17
ENDBRANCH  14  15
ENDBRANCH  13  14
ENDBRANCH  11  13
ENDBRANCH   1  11
BRANCH   6  32
HETATM   32  N5  UNL     1      -3.669  -2.693   1.281  1.00  0.00    -0.326 N 
ATOM     33  H5  UNL     1      -3.755  -3.649   1.626  1.00  0.00     0.168 HD
BRANCH  32  34
HETATM   34  C8  UNL     1      -4.799  -1.829   1.362  1.00  0.00     0.177 C 
HETATM   35  S1  UNL     1      -6.154  -2.402   2.031  1.00  0.00    -0.041 SA
BRANCH  34  36
HETATM   36  N6  UNL     1      -4.680  -0.509   0.886  1.00  0.00    -0.333 N 
ATOM     37  H6  UNL     1      -3.762  -0.258   0.520  1.00  0.00     0.168 HD
BRANCH  36  38
HETATM   38  C9  UNL     1      -5.644   0.512   0.843  1.00  0.00     0.034 A 
HETATM   39  C10 UNL     1      -5.224   1.844   0.900  1.00  0.00     0.032 A 
HETATM   40  C11 UNL     1      -6.105   2.894   0.835  1.00  0.00     0.038 A 
HETATM   41  C12 UNL     1      -7.444   2.673   0.710  1.00  0.00     0.103 A 
HETATM   42  C13 UNL     1      -7.879   1.371   0.651  1.00  0.00     0.038 A 
HETATM   43  C14 UNL     1      -6.973   0.300   0.718  1.00  0.00     0.032 A 
BRANCH  41  44
HETATM   44  N7  UNL     1      -8.381   3.744   0.640  1.00  0.00    -0.116 N 
HETATM   45  O1  UNL     1      -7.990   4.925   0.693  1.00  0.00    -0.532 OA
HETATM   46  O2  UNL     1      -9.715   3.514   0.515  1.00  0.00    -0.532 OA
ENDBRANCH  41  44
ENDBRANCH  36  38
ENDBRANCH  34  36
ENDBRANCH  32  34
ENDBRANCH   6  32
TORSDOF 14
