REMARK  11 active torsions:
REMARK  status: ('A' for Active; 'I' for Inactive)
REMARK    1  A    between atoms: C1_2  and  C2_4 
REMARK    2  A    between atoms: C4_6  and  C5_7 
REMARK    3  A    between atoms: C5_7  and  O2_8 
REMARK    4  A    between atoms: C6_10  and  O3_11 
REMARK    5  A    between atoms: C7_13  and  N2_14 
REMARK    6  A    between atoms: C8_17  and  N3_18 
REMARK    7  A    between atoms: N3_18  and  N4_20 
REMARK    8  A    between atoms: N4_20  and  C9_22 
REMARK    9  A    between atoms: C10_23  and  N5_24 
REMARK   10  A    between atoms: C12_28  and  N6_29 
REMARK   11  A    between atoms: C14_34  and  C15_35 
ROOT
HETATM    1  N3  UNL     1       0.190  -1.383  -0.963  1.00  0.00    -0.297 N 
ATOM      2  H3  UNL     1       0.364  -1.916  -1.815  1.00  0.00     0.187 HD
ENDROOT
BRANCH   1   3
HETATM    3  C8  UNL     1       1.317  -0.700  -0.479  1.00  0.00     0.099 A 
HETATM    4  C2  UNL     1       2.266  -1.469   0.191  1.00  0.00     0.060 A 
HETATM    5  C3  UNL     1       3.432  -0.881   0.670  1.00  0.00     0.031 A 
HETATM    6  C4  UNL     1       3.692   0.449   0.508  1.00  0.00     0.002 A 
HETATM    7  C6  UNL     1       2.761   1.201  -0.148  1.00  0.00     0.109 A 
HETATM    8  C7  UNL     1       1.588   0.628  -0.634  1.00  0.00     0.165 A 
BRANCH   4   9
HETATM    9  C1  UNL     1       2.140  -2.896   0.390  1.00  0.00     0.267 C 
HETATM   10  N1  UNL     1       3.117  -3.618   1.108  1.00  0.00    -0.057 NA
HETATM   11  O1  UNL     1       1.154  -3.500  -0.075  1.00  0.00    -0.271 OA
ENDBRANCH   4   9
BRANCH   6  12
HETATM   12  C5  UNL     1       4.954   1.083   1.017  1.00  0.00     0.205 C 
BRANCH  12  13
HETATM   13  O2  UNL     1       5.715   0.091   1.629  1.00  0.00    -0.396 OA
ATOM     14  H2  UNL     1       6.514   0.492   1.951  1.00  0.00     0.209 HD
ENDBRANCH  12  13
ENDBRANCH   6  12
BRANCH   7  15
HETATM   15  O3  UNL     1       3.003   2.545  -0.324  1.00  0.00    -0.357 OA
ATOM     16  H3  UNL     1       2.355   3.068  -0.781  1.00  0.00     0.217 HD
ENDBRANCH   7  15
BRANCH   8  17
HETATM   17  N2  UNL     1       0.658   1.462  -1.307  1.00  0.00    -0.110 N 
HETATM   18  O4  UNL     1       0.070   2.333  -0.626  1.00  0.00    -0.532 OA
HETATM   19  O5  UNL     1       0.455   1.292  -2.655  1.00  0.00    -0.532 OA
ENDBRANCH   8  17
ENDBRANCH   1   3
BRANCH   1  20
HETATM   20  N4  UNL     1      -1.090  -1.469  -0.512  1.00  0.00    -0.297 N 
ATOM     21  H4  UNL     1      -1.441  -2.425  -0.450  1.00  0.00     0.187 HD
BRANCH  20  22
HETATM   22  C9  UNL     1      -2.020  -0.498  -0.116  1.00  0.00     0.100 A 
HETATM   23  C10 UNL     1      -2.087  -0.139   1.232  1.00  0.00     0.134 A 
HETATM   24  C11 UNL     1      -3.010   0.826   1.649  1.00  0.00     0.076 A 
HETATM   25  C12 UNL     1      -3.848   1.416   0.737  1.00  0.00     0.130 A 
HETATM   26  C13 UNL     1      -3.792   1.067  -0.589  1.00  0.00     0.098 A 
HETATM   27  N7  UNL     1      -4.674   1.668  -1.538  1.00  0.00    -0.099 NA
HETATM   28  C14 UNL     1      -2.864   0.097  -1.011  1.00  0.00     0.098 A 
BRANCH  23  29
HETATM   29  N5  UNL     1      -1.250  -0.757   2.193  1.00  0.00    -0.113 N 
HETATM   30  O6  UNL     1      -0.900  -1.933   2.091  1.00  0.00    -0.532 OA
HETATM   31  O7  UNL     1      -0.843  -0.023   3.274  1.00  0.00    -0.532 OA
ENDBRANCH  23  29
BRANCH  25  32
HETATM   32  N6  UNL     1      -4.788   2.407   1.155  1.00  0.00    -0.114 N 
HETATM   33  O8  UNL     1      -5.216   2.374   2.302  1.00  0.00    -0.532 OA
HETATM   34  O9  UNL     1      -5.192   3.362   0.265  1.00  0.00    -0.532 OA
ENDBRANCH  25  32
BRANCH  28  35
HETATM   35  C15 UNL     1      -2.861  -0.222  -2.416  1.00  0.00     0.213 C 
HETATM   36  O10 UNL     1      -3.667   0.361  -3.202  1.00  0.00    -0.644 OA
HETATM   37  O11 UNL     1      -1.998  -1.153  -2.925  1.00  0.00    -0.644 OA
ENDBRANCH  28  35
ENDBRANCH  20  22
ENDBRANCH   1  20
TORSDOF 11
