REMARK  8 active torsions:
REMARK  status: ('A' for Active; 'I' for Inactive)
REMARK    1  A    between atoms: C2_9  and  N4_10 
REMARK    2  A    between atoms: N4_10  and  S1_12 
REMARK    3  A    between atoms: S1_12  and  C3_15 
REMARK    4  A    between atoms: C3_15  and  C4_16 
REMARK    5  A    between atoms: C4_16  and  N5_17 
REMARK       I    between atoms: N5_17  and  C5_19 
REMARK    6  A    between atoms: C5_19  and  C6_21 
REMARK       I    between atoms: C6_21  and  N6_23 
REMARK    7  A    between atoms: N6_23  and  C7_25 
REMARK    8  A    between atoms: C7_25  and  C8_26 
ROOT
HETATM    1  S1  UNL     1      -2.643  -2.281  -0.138  1.00  0.00     0.245 S 
HETATM    2  O1  UNL     1      -2.407  -3.122   1.098  1.00  0.00    -0.205 OA
HETATM    3  O2  UNL     1      -2.215  -3.135  -1.338  1.00  0.00    -0.205 OA
ENDROOT
BRANCH   1   4
HETATM    4  N4  UNL     1      -4.233  -1.851  -0.370  1.00  0.00    -0.115 N 
ATOM      5  H4  UNL     1      -4.853  -2.661  -0.369  1.00  0.00     0.197 HD
BRANCH   4   6
HETATM    6  C2  UNL     1      -4.858  -0.783  -0.545  1.00  0.00     0.721 A 
HETATM    7  N3  UNL     1      -4.469   0.490  -0.619  1.00  0.00    -0.117 N 
HETATM    8  N2  UNL     1      -5.528   1.296  -0.822  1.00  0.00    -0.118 N 
ATOM      9  H3  UNL     1      -3.504   0.809  -0.534  1.00  0.00     0.206 HD
HETATM   10  C1  UNL     1      -6.600   0.495  -0.875  1.00  0.00     0.705 A 
ATOM     11  H2  UNL     1      -5.516   2.312  -0.916  1.00  0.00     0.206 HD
HETATM   12  N1  UNL     1      -7.823   0.895  -1.060  1.00  0.00    -0.233 N 
HETATM   13  N8  UNL     1      -6.215  -0.762  -0.711  1.00  0.00    -0.019 N 
ATOM     14  H12 UNL     1      -8.119   1.863  -1.186  1.00  0.00     0.174 HD
ATOM     15  H11 UNL     1      -8.639   0.285  -1.100  1.00  0.00     0.174 HD
ATOM     16  H8  UNL     1      -6.828  -1.577  -0.709  1.00  0.00     0.203 HD
ENDBRANCH   4   6
ENDBRANCH   1   4
BRANCH   1  17
HETATM   17  C3  UNL     1      -1.548  -0.897  -0.109  1.00  0.00     0.183 C 
BRANCH  17  18
HETATM   18  C4  UNL     1      -0.127  -1.407   0.108  1.00  0.00     0.140 C 
BRANCH  18  19
HETATM   19  N5  UNL     1       0.810  -0.309   0.140  1.00  0.00    -0.352 N 
HETATM   20  C5  UNL     1       2.191  -0.578   0.334  1.00  0.00     0.309 C 
HETATM   21  O3  UNL     1       2.598  -1.750   0.476  1.00  0.00    -0.262 OA
ATOM     22  H5  UNL     1       0.483   0.650   0.024  1.00  0.00     0.162 HD
BRANCH  20  23
HETATM   23  C6  UNL     1       3.183   0.496   0.374  1.00  0.00     0.309 C 
HETATM   24  O4  UNL     1       2.766   1.672   0.230  1.00  0.00    -0.262 OA
HETATM   25  N6  UNL     1       4.562   0.239   0.567  1.00  0.00    -0.345 N 
ATOM     26  H6  UNL     1       4.900  -0.716   0.684  1.00  0.00     0.163 HD
BRANCH  25  27
HETATM   27  C7  UNL     1       5.478   1.345   0.595  1.00  0.00     0.222 C 
BRANCH  27  28
HETATM   28  C8  UNL     1       6.876   0.908   0.804  1.00  0.00     0.248 C 
HETATM   29  N7  UNL     1       7.887   1.902   0.853  1.00  0.00    -0.061 NA
HETATM   30  O5  UNL     1       7.217  -0.288   0.940  1.00  0.00    -0.275 OA
ENDBRANCH  27  28
ENDBRANCH  25  27
ENDBRANCH  20  23
ENDBRANCH  18  19
ENDBRANCH  17  18
ENDBRANCH   1  17
TORSDOF 8
