REMARK  8 active torsions:
REMARK  status: ('A' for Active; 'I' for Inactive)
REMARK       I    between atoms: C1_4  and  N2_5 
REMARK       I    between atoms: C1_4  and  N6_22 
REMARK    1  A    between atoms: N2_5  and  C2_7 
REMARK    2  A    between atoms: C2_7  and  C3_8 
REMARK    3  A    between atoms: C3_8  and  C4_9 
REMARK    4  A    between atoms: C4_9  and  C5_11 
REMARK       I    between atoms: C5_11  and  N4_13 
REMARK    5  A    between atoms: N4_13  and  C6_15 
REMARK    6  A    between atoms: N6_22  and  N7_24 
REMARK       I    between atoms: N7_24  and  C11_26 
REMARK       I    between atoms: C11_26  and  N8_28 
REMARK    7  A    between atoms: N8_28  and  N9_30 
REMARK    8  A    between atoms: N9_30  and  O4_31 
ROOT
HETATM    1  N1  UNL     1       2.167  -3.438   1.073  1.00  0.00    -0.234 N 
ATOM      2  H11 UNL     1       2.953  -3.960   0.685  1.00  0.00     0.174 HD
ATOM      3  H12 UNL     1       1.185  -3.706   1.145  1.00  0.00     0.174 HD
HETATM    4  C1  UNL     1       2.440  -2.216   1.511  1.00  0.00     0.686 C 
HETATM    5  N2  UNL     1       1.369  -1.505   2.040  1.00  0.00    -0.222 N 
ATOM      6  H2  UNL     1       0.661  -2.046   2.538  1.00  0.00     0.178 HD
HETATM    7  N6  UNL     1       3.806  -1.843   1.411  1.00  0.00    -0.129 N 
ATOM      8  H6  UNL     1       4.506  -2.389   1.913  1.00  0.00     0.205 HD
ENDROOT
BRANCH   5   9
HETATM    9  C2  UNL     1       1.158  -0.094   1.958  1.00  0.00     0.167 C 
BRANCH   9  10
HETATM   10  C3  UNL     1       0.844   0.486   0.650  1.00  0.00     0.025 C 
BRANCH  10  11
HETATM   11  C4  UNL     1      -0.386   0.164  -0.082  1.00  0.00     0.111 C 
HETATM   12  N3  UNL     1      -0.668  -1.179  -0.425  1.00  0.00    -0.097 NA
BRANCH  11  13
HETATM   13  C5  UNL     1      -1.588   0.961   0.244  1.00  0.00     0.267 C 
HETATM   14  O1  UNL     1      -1.563   1.737   1.208  1.00  0.00    -0.266 OA
HETATM   15  N4  UNL     1      -2.735   0.824  -0.571  1.00  0.00    -0.326 N 
ATOM     16  H4  UNL     1      -2.705   0.150  -1.336  1.00  0.00     0.165 HD
BRANCH  15  17
HETATM   17  C6  UNL     1      -3.960   1.594  -0.379  1.00  0.00     0.173 A 
HETATM   18  C7  UNL     1      -5.085   1.354  -1.351  1.00  0.00     0.059 C 
HETATM   19  C8  UNL     1      -6.125   0.492  -0.609  1.00  0.00     0.019 C 
HETATM   20  C9  UNL     1      -5.236  -0.037   0.552  1.00  0.00     0.102 C 
HETATM   21  N5  UNL     1      -4.670   1.273   0.925  1.00  0.00    -0.215 NA
HETATM   22  C10 UNL     1      -3.963   2.533   0.724  1.00  0.00     0.246 A 
HETATM   23  O2  UNL     1      -3.593   3.671   1.173  1.00  0.00    -0.275 OA
ENDBRANCH  15  17
ENDBRANCH  11  13
ENDBRANCH  10  11
ENDBRANCH   9  10
ENDBRANCH   5   9
BRANCH   7  24
HETATM   24  N7  UNL     1       4.216  -0.759   0.652  1.00  0.00    -0.236 N 
HETATM   25  C11 UNL     1       4.781  -0.769  -0.624  1.00  0.00     0.352 C 
HETATM   26  O3  UNL     1       4.981  -1.836  -1.253  1.00  0.00    -0.244 OA
HETATM   27  N8  UNL     1       5.161   0.450  -1.287  1.00  0.00    -0.228 N 
ATOM     28  H8  UNL     1       5.012   1.331  -0.794  1.00  0.00     0.189 HD
ATOM     29  H7  UNL     1       4.089   0.159   1.078  1.00  0.00     0.192 HD
BRANCH  27  30
HETATM   30  N9  UNL     1       5.719   0.499  -2.559  1.00  0.00     0.022 NA
BRANCH  30  31
HETATM   31  O4  UNL     1       5.690   1.782  -3.026  1.00  0.00    -0.277 OA
ATOM     32  H4  UNL     1       6.071   1.815  -3.895  1.00  0.00     0.240 HD
ENDBRANCH  30  31
ENDBRANCH  27  30
ENDBRANCH   7  24
TORSDOF 8
