REMARK  8 active torsions:
REMARK  status: ('A' for Active; 'I' for Inactive)
REMARK    1  A    between atoms: N2_4  and  N3_6 
REMARK       I    between atoms: C1_8  and  N5_10 
REMARK    2  A    between atoms: C2_11  and  O1_12 
REMARK    3  A    between atoms: C5_22  and  C6_23 
REMARK    4  A    between atoms: C5_22  and  C7_28 
REMARK    5  A    between atoms: C6_23  and  N8_24 
REMARK    6  A    between atoms: C7_28  and  C8_29 
REMARK    7  A    between atoms: C8_29  and  C9_30 
REMARK    8  A    between atoms: C9_30  and  N9_31 
ROOT
HETATM    1  N3  UNL     1      -1.529   2.453  -0.804  1.00  0.00    -0.259 N 
ATOM      2  H3  UNL     1      -1.285   2.154  -1.748  1.00  0.00     0.191 HD
HETATM    3  C1  UNL     1      -1.930   1.557   0.009  1.00  0.00     0.210 C 
HETATM    4  N4  UNL     1      -2.286   1.881   1.332  1.00  0.00    -0.062 NA
HETATM    5  N5  UNL     1      -2.024   0.215  -0.420  1.00  0.00    -0.290 N 
HETATM    6  C2  UNL     1      -3.252  -0.105  -1.090  1.00  0.00     0.336 C 
HETATM    7  N6  UNL     1      -3.988  -1.208  -0.471  1.00  0.00    -0.299 N 
ATOM      8  H6  UNL     1      -4.897  -1.391  -0.896  1.00  0.00     0.168 HD
HETATM    9  C3  UNL     1      -3.671  -2.071   0.613  1.00  0.00     0.326 C 
HETATM   10  O2  UNL     1      -4.660  -2.727   1.042  1.00  0.00    -0.247 OA
HETATM   11  N7  UNL     1      -2.419  -2.255   1.228  1.00  0.00    -0.277 N 
ATOM     12  H7  UNL     1      -2.314  -3.081   1.817  1.00  0.00     0.173 HD
HETATM   13  C4  UNL     1      -1.274  -1.396   1.109  1.00  0.00     0.256 C 
HETATM   14  O3  UNL     1      -0.592  -1.348   2.154  1.00  0.00    -0.270 OA
HETATM   15  C5  UNL     1      -0.850  -0.592  -0.096  1.00  0.00     0.144 C 
ENDROOT
BRANCH  15  16
HETATM   16  C6  UNL     1      -0.436  -1.540  -1.159  1.00  0.00     0.270 C 
BRANCH  16  17
HETATM   17  N8  UNL     1      -1.370  -2.531  -1.560  1.00  0.00    -0.076 N 
ATOM     18  H83 UNL     1      -1.675  -3.057  -0.741  1.00  0.00     0.274 HD
ATOM     19  H82 UNL     1      -2.243  -2.079  -1.834  1.00  0.00     0.274 HD
ATOM     20  H81 UNL     1      -1.085  -3.183  -2.291  1.00  0.00     0.274 HD
ENDBRANCH  16  17
ENDBRANCH  15  16
BRANCH  15  21
HETATM   21  C7  UNL     1       0.306   0.248   0.283  1.00  0.00     0.045 C 
BRANCH  21  22
HETATM   22  C8  UNL     1       1.592  -0.458   0.600  1.00  0.00     0.023 C 
BRANCH  22  23
HETATM   23  C9  UNL     1       2.569   0.693   0.939  1.00  0.00     0.122 C 
BRANCH  23  24
HETATM   24  N9  UNL     1       3.859   0.130   1.264  1.00  0.00    -0.367 N 
HETATM   25  C10 UNL     1       4.872   0.324   0.503  1.00  0.00     0.196 C 
HETATM   26  N10 UNL     1       6.149  -0.217   0.801  1.00  0.00    -0.067 NA
HETATM   27  N11 UNL     1       4.704   1.105  -0.668  1.00  0.00    -0.067 NA
ATOM     28  H9  UNL     1       3.965  -0.429   2.110  1.00  0.00     0.161 HD
ENDBRANCH  23  24
ENDBRANCH  22  23
ENDBRANCH  21  22
ENDBRANCH  15  21
BRANCH   6  29
HETATM   29  O1  UNL     1      -3.122  -0.268  -2.468  1.00  0.00    -0.359 OA
ATOM     30  H1  UNL     1      -3.935  -0.480  -2.912  1.00  0.00     0.214 HD
ENDBRANCH   6  29
BRANCH   1  31
HETATM   31  N2  UNL     1      -1.397   3.800  -0.510  1.00  0.00    -0.247 N 
HETATM   32  N1  UNL     1      -0.710   4.168   0.493  1.00  0.00    -0.331 N 
ATOM     33  H12 UNL     1      -0.262   3.458   1.072  1.00  0.00     0.178 HD
ATOM     34  H11 UNL     1      -0.613   5.160   0.710  1.00  0.00     0.178 HD
ATOM     35  H2  UNL     1      -1.852   4.497  -1.099  1.00  0.00     0.207 HD
ENDBRANCH   1  31
TORSDOF 8
