REMARK  0 active torsions:
REMARK  status: ('A' for Active; 'I' for Inactive)
ROOT
HETATM    1  S1  UNL     1      -3.745  -0.673   0.211  1.00  0.00    -0.081 SA
HETATM    2  C1  UNL     1      -1.981  -1.075  -0.071  1.00  0.00     0.122 C 
HETATM    3  C2  UNL     1      -1.532  -0.274  -1.246  1.00  0.00     0.052 C 
HETATM    4  C3  UNL     1      -0.119   0.175  -1.000  1.00  0.00     0.092 C 
HETATM    5  N1  UNL     1       0.711  -0.982  -0.928  1.00  0.00    -0.416 N 
ATOM      6  H1  UNL     1       0.509  -1.829  -1.459  1.00  0.00     0.153 HD
HETATM    7  C4  UNL     1       1.838  -0.879  -0.068  1.00  0.00     0.114 C 
HETATM    8  C5  UNL     1       2.291   0.512   0.221  1.00  0.00     0.020 C 
HETATM    9  C6  UNL     1       1.161   1.267   0.866  1.00  0.00     0.019 C 
HETATM   10  C7  UNL     1      -0.174   0.949   0.316  1.00  0.00     0.071 C 
HETATM   11  S2  UNL     1      -1.064  -0.306   1.324  1.00  0.00    -0.146 SA
ENDROOT
TORSDOF 0
