REMARK  11 active torsions:
REMARK  status: ('A' for Active; 'I' for Inactive)
REMARK    1  A    between atoms: C6_6  and  C7_7 
REMARK    2  A    between atoms: C7_7  and  C8_8 
REMARK    3  A    between atoms: C8_8  and  O1_9 
REMARK    4  A    between atoms: C8_8  and  C9_11 
REMARK    5  A    between atoms: C9_11  and  O2_12 
REMARK    6  A    between atoms: O2_12  and  C10_13 
REMARK    7  A    between atoms: C19_22  and  O3_23 
REMARK    8  A    between atoms: C20_25  and  O4_26 
REMARK    9  A    between atoms: C25_32  and  N1_33 
REMARK       I    between atoms: N1_33  and  C26_35 
REMARK   10  A    between atoms: C26_35  and  C27_37 
REMARK   11  A    between atoms: C27_37  and  O6_38 
ROOT
HETATM    1  C10 UNL     1      -0.760   0.860  -0.347  1.00  0.00     0.144 C 
HETATM    2  C11 UNL     1      -1.979   0.521  -1.216  1.00  0.00     0.044 C 
HETATM    3  C12 UNL     1      -3.197   0.242  -0.403  1.00  0.00    -0.030 C 
HETATM    4  C13 UNL     1      -4.119   1.425  -0.503  1.00  0.00     0.016 C 
HETATM    5  C14 UNL     1      -2.860   0.104   1.088  1.00  0.00    -0.004 C 
HETATM    6  C15 UNL     1      -4.196   0.057   1.844  1.00  0.00     0.006 C 
HETATM    7  C16 UNL     1      -4.841  -1.255   1.470  1.00  0.00     0.006 C 
HETATM    8  C17 UNL     1      -5.070  -1.362   0.004  1.00  0.00    -0.003 C 
HETATM    9  C18 UNL     1      -5.606  -2.725  -0.310  1.00  0.00     0.039 C 
HETATM   10  C19 UNL     1      -4.593  -3.766  -0.019  1.00  0.00     0.147 C 
HETATM   11  C20 UNL     1      -3.378  -3.541  -0.824  1.00  0.00     0.147 C 
HETATM   12  C21 UNL     1      -2.921  -2.159  -1.029  1.00  0.00     0.044 C 
HETATM   13  C22 UNL     1      -3.884  -1.053  -0.852  1.00  0.00    -0.030 C 
HETATM   14  C23 UNL     1      -4.446  -0.706  -2.243  1.00  0.00     0.016 C 
HETATM   15  C24 UNL     1      -2.116   1.273   1.620  1.00  0.00     0.033 C 
HETATM   16  C25 UNL     1      -1.155   1.908   0.658  1.00  0.00     0.114 C 
ENDROOT
BRANCH   1  17
HETATM   17  O2  UNL     1       0.314   1.189  -1.116  1.00  0.00    -0.381 OA
BRANCH  17  18
HETATM   18  C9  UNL     1       1.382   0.312  -1.010  1.00  0.00     0.199 C 
BRANCH  18  19
HETATM   19  C8  UNL     1       2.508   0.787  -1.908  1.00  0.00     0.142 C 
BRANCH  19  20
HETATM   20  C7  UNL     1       3.661  -0.184  -1.897  1.00  0.00     0.039 C 
BRANCH  20  21
HETATM   21  C6  UNL     1       4.328  -0.328  -0.579  1.00  0.00    -0.007 C 
HETATM   22  C5  UNL     1       5.474  -1.347  -0.739  1.00  0.00     0.010 C 
HETATM   23  C4  UNL     1       6.601  -0.508  -0.207  1.00  0.00    -0.006 C 
HETATM   24  C2  UNL     1       5.994   0.201   0.976  1.00  0.00    -0.040 C 
HETATM   25  C29 UNL     1       6.357   0.811  -0.957  1.00  0.00     0.011 C 
HETATM   26  C1  UNL     1       5.268  -0.653   1.963  1.00  0.00     0.015 C 
HETATM   27  C3  UNL     1       6.876   1.265   1.597  1.00  0.00     0.015 C 
HETATM   28  C28 UNL     1       5.092   0.839  -0.096  1.00  0.00    -0.002 C 
ENDBRANCH  20  21
ENDBRANCH  19  20
BRANCH  19  29
HETATM   29  O1  UNL     1       1.997   0.802  -3.215  1.00  0.00    -0.393 OA
ATOM     30  H1  UNL     1       1.270   1.414  -3.222  1.00  0.00     0.210 HD
ENDBRANCH  19  29
ENDBRANCH  18  19
ENDBRANCH  17  18
ENDBRANCH   1  17
BRANCH  16  31
HETATM   31  N1  UNL     1       0.039   2.318   1.368  1.00  0.00    -0.352 N 
HETATM   32  C26 UNL     1       0.464   3.666   1.269  1.00  0.00     0.241 C 
HETATM   33  O5  UNL     1      -0.163   4.512   0.585  1.00  0.00    -0.271 OA
ATOM     34  H1  UNL     1       0.565   1.648   1.929  1.00  0.00     0.163 HD
BRANCH  32  35
HETATM   35  C27 UNL     1       1.681   4.114   1.983  1.00  0.00     0.266 C 
BRANCH  35  36
HETATM   36  O6  UNL     1       1.941   5.461   1.774  1.00  0.00    -0.392 OA
ATOM     37  H6  UNL     1       2.722   5.748   2.232  1.00  0.00     0.210 HD
ENDBRANCH  35  36
ENDBRANCH  32  35
ENDBRANCH  16  31
BRANCH  11  38
HETATM   38  O4  UNL     1      -2.325  -4.253  -0.192  1.00  0.00    -0.393 OA
ATOM     39  H4  UNL     1      -1.542  -4.108  -0.711  1.00  0.00     0.210 HD
ENDBRANCH  11  38
BRANCH  10  40
HETATM   40  O3  UNL     1      -5.160  -5.010  -0.392  1.00  0.00    -0.393 OA
ATOM     41  H3  UNL     1      -4.510  -5.678  -0.205  1.00  0.00     0.210 HD
ENDBRANCH  10  40
TORSDOF 11
