REMARK  11 active torsions:
REMARK  status: ('A' for Active; 'I' for Inactive)
REMARK    1  A    between atoms: C2_2  and  O1_3 
REMARK    2  A    between atoms: C2_2  and  C3_5 
REMARK    3  A    between atoms: C3_5  and  N1_6 
REMARK    4  A    between atoms: N1_6  and  C4_7 
REMARK    5  A    between atoms: N1_6  and  C8_12 
REMARK    6  A    between atoms: C4_7  and  C5_8 
REMARK    7  A    between atoms: C5_8  and  N2_9 
REMARK    8  A    between atoms: C22_26  and  O2_27 
REMARK    9  A    between atoms: C23_29  and  C25_31 
REMARK   10  A    between atoms: C25_31  and  O3_32 
REMARK   11  A    between atoms: C26_34  and  O4_35 
ROOT
HETATM    1  C8  UNL     1      -2.536  -0.331  -0.078  1.00  0.00     0.050 C 
HETATM    2  C9  UNL     1      -2.674  -1.434   0.990  1.00  0.00     0.043 C 
HETATM    3  C10 UNL     1      -1.645  -1.073  -1.085  1.00  0.00     0.007 C 
HETATM    4  C11 UNL     1      -0.405  -0.825  -1.331  1.00  0.00    -0.070 C 
HETATM    5  C12 UNL     1       0.222  -1.722  -2.388  1.00  0.00     0.036 C 
HETATM    6  C13 UNL     1       1.169  -2.549  -1.551  1.00  0.00     0.016 C 
HETATM    7  C14 UNL     1       2.300  -1.547  -1.254  1.00  0.00    -0.011 C 
HETATM    8  C15 UNL     1       2.972  -1.301  -2.551  1.00  0.00     0.018 C 
HETATM    9  C16 UNL     1       3.272  -2.385  -0.405  1.00  0.00     0.012 C 
HETATM   10  C17 UNL     1       4.145  -1.565   0.454  1.00  0.00     0.007 C 
HETATM   11  C18 UNL     1       4.279  -0.109   0.036  1.00  0.00     0.005 C 
HETATM   12  C19 UNL     1       2.996   0.568  -0.330  1.00  0.00     0.027 C 
HETATM   13  C20 UNL     1       2.719   1.798   0.502  1.00  0.00     0.010 C 
HETATM   14  C21 UNL     1       4.057   2.575   0.478  1.00  0.00     0.033 C 
HETATM   15  C22 UNL     1       4.853   1.886   1.524  1.00  0.00     0.128 C 
HETATM   16  C23 UNL     1       5.199   0.518   1.007  1.00  0.00     0.007 C 
HETATM   17  C24 UNL     1       5.394  -0.287   2.302  1.00  0.00     0.020 C 
HETATM   18  C26 UNL     1       1.834  -0.383  -0.459  1.00  0.00     0.080 C 
HETATM   19  C27 UNL     1       0.492   0.187  -0.713  1.00  0.00     0.011 C 
HETATM   20  C28 UNL     1       0.395   1.381  -1.603  1.00  0.00     0.023 C 
HETATM   21  C29 UNL     1      -0.257   0.470   0.577  1.00  0.00     0.019 C 
HETATM   22  C30 UNL     1      -1.722   0.795   0.401  1.00  0.00     0.036 C 
ENDROOT
BRANCH   1  23
HETATM   23  N1  UNL     1      -3.794  -0.061  -0.699  1.00  0.00    -0.357 N 
BRANCH  23  24
HETATM   24  C3  UNL     1      -4.315  -0.958  -1.628  1.00  0.00     0.095 C 
BRANCH  24  25
HETATM   25  C2  UNL     1      -5.386  -1.942  -1.381  1.00  0.00     0.152 C 
HETATM   26  C1  UNL     1      -6.811  -1.403  -1.247  1.00  0.00     0.045 C 
BRANCH  25  27
HETATM   27  O1  UNL     1      -5.534  -2.759  -2.588  1.00  0.00    -0.391 OA
ATOM     28  H1  UNL     1      -4.649  -3.094  -2.671  1.00  0.00     0.210 HD
ENDBRANCH  25  27
ENDBRANCH  24  25
ENDBRANCH  23  24
BRANCH  23  29
HETATM   29  C4  UNL     1      -4.611   0.994  -0.403  1.00  0.00     0.094 C 
BRANCH  29  30
HETATM   30  C5  UNL     1      -4.546   1.868   0.779  1.00  0.00     0.316 C 
BRANCH  30  31
HETATM   31  N2  UNL     1      -4.747   1.210   2.045  1.00  0.00     0.084 N 
HETATM   32  C6  UNL     1      -6.106   0.699   2.214  1.00  0.00     0.309 C 
HETATM   33  C7  UNL     1      -4.559   2.195   3.098  1.00  0.00     0.309 C 
ENDBRANCH  30  31
ENDBRANCH  29  30
ENDBRANCH  23  29
ENDBRANCH   1  23
BRANCH  18  34
HETATM   34  O4  UNL     1       1.713  -0.905   0.875  1.00  0.00    -0.388 OA
ATOM     35  H4  UNL     1       1.415  -0.160   1.384  1.00  0.00     0.210 HD
ENDBRANCH  18  34
BRANCH  16  36
HETATM   36  C25 UNL     1       6.635   0.657   0.471  1.00  0.00     0.176 C 
BRANCH  36  37
HETATM   37  O3  UNL     1       7.205  -0.542   0.150  1.00  0.00    -0.400 OA
ATOM     38  H3  UNL     1       8.091  -0.456  -0.181  1.00  0.00     0.209 HD
ENDBRANCH  36  37
ENDBRANCH  16  36
BRANCH  15  39
HETATM   39  O2  UNL     1       5.967   2.648   1.834  1.00  0.00    -0.395 OA
ATOM     40  H2  UNL     1       6.477   2.207   2.504  1.00  0.00     0.210 HD
ENDBRANCH  15  39
TORSDOF 11
