REMARK  1 active torsions:
REMARK  status: ('A' for Active; 'I' for Inactive)
REMARK    1  A    between atoms: C17_22  and  C18_23 
ROOT
HETATM    1  C1  UNL     1      -4.903  -2.027  -2.033  1.00  0.00     0.018 C 
HETATM    2  C2  UNL     1      -3.689  -1.990  -1.093  1.00  0.00     0.050 C 
HETATM    3  C3  UNL     1      -3.363  -0.571  -0.771  1.00  0.00     0.047 C 
HETATM    4  C4  UNL     1      -4.064  -0.003   0.406  1.00  0.00     0.223 C 
HETATM    5  C5  UNL     1      -5.392   0.633   0.124  1.00  0.00     0.037 C 
HETATM    6  C6  UNL     1      -5.623   1.433   1.393  1.00  0.00     0.032 C 
HETATM    7  C7  UNL     1      -4.224   1.788   1.830  1.00  0.00     0.273 C 
HETATM    8  N1  UNL     1      -3.306   1.111   0.941  1.00  0.00     0.093 N 
HETATM    9  C8  UNL     1      -2.831   2.030  -0.042  1.00  0.00     0.273 C 
HETATM   10  C9  UNL     1      -1.726   2.875   0.554  1.00  0.00     0.031 C 
HETATM   11  C10 UNL     1      -0.641   3.177  -0.448  1.00  0.00     0.011 C 
HETATM   12  C11 UNL     1       0.341   2.062  -0.635  1.00  0.00     0.105 C 
HETATM   13  C12 UNL     1       1.374   2.011   0.434  1.00  0.00     0.238 C 
HETATM   14  O1  UNL     1       0.968   1.608   1.567  1.00  0.00    -0.272 OA
HETATM   15  N2  UNL     1       2.723   2.358   0.317  1.00  0.00    -0.256 N 
HETATM   16  C13 UNL     1       3.570   3.107   1.261  1.00  0.00     0.154 C 
HETATM   17  C14 UNL     1       4.132   4.121   0.290  1.00  0.00     0.044 C 
HETATM   18  C15 UNL     1       4.468   3.261  -0.900  1.00  0.00     0.154 C 
HETATM   19  N3  UNL     1       3.594   2.080  -0.757  1.00  0.00    -0.255 N 
HETATM   20  C16 UNL     1       3.602   0.899  -1.543  1.00  0.00     0.269 C 
HETATM   21  O2  UNL     1       3.584   1.117  -2.819  1.00  0.00    -0.269 OA
HETATM   22  C17 UNL     1       3.629  -0.500  -1.122  1.00  0.00     0.282 C 
HETATM   23  N4  UNL     1       2.580  -0.940  -0.261  1.00  0.00    -0.062 N 
ATOM     24  H41 UNL     1       1.792  -0.293  -0.290  1.00  0.00     0.278 HD
ATOM     25  H42 UNL     1       2.847  -0.836   0.718  1.00  0.00     0.278 HD
HETATM   26  C21 UNL     1       2.142  -2.300  -0.536  1.00  0.00     0.233 C 
HETATM   27  C22 UNL     1       1.864  -3.020   0.737  1.00  0.00     0.027 C 
HETATM   28  C23 UNL     1       0.558  -3.770   0.763  1.00  0.00     0.003 C 
HETATM   29  C24 UNL     1      -0.592  -2.943   0.241  1.00  0.00     0.020 C 
HETATM   30  C25 UNL     1      -1.657  -2.900   1.273  1.00  0.00     0.121 C 
HETATM   31  N5  UNL     1      -2.912  -3.503   0.849  1.00  0.00    -0.380 N 
ATOM     32  H5  UNL     1      -3.084  -4.469   1.126  1.00  0.00     0.160 HD
HETATM   33  C26 UNL     1      -3.913  -2.858   0.084  1.00  0.00     0.074 C 
HETATM   34  N6  UNL     1      -5.147  -3.032   0.424  1.00  0.00    -0.389 N 
ATOM     35  H61 UNL     1      -5.301  -3.630   1.235  1.00  0.00     0.157 HD
ATOM     36  H62 UNL     1      -5.868  -2.567  -0.127  1.00  0.00     0.157 HD
ENDROOT
BRANCH  22  37
HETATM   37  C18 UNL     1       4.953  -0.957  -0.545  1.00  0.00     0.017 C 
HETATM   38  C19 UNL     1       6.085  -0.811  -1.535  1.00  0.00     0.012 C 
HETATM   39  C20 UNL     1       5.328  -0.422   0.765  1.00  0.00     0.012 C 
ENDBRANCH  22  37
TORSDOF 1
