REMARK  3 active torsions:
REMARK  status: ('A' for Active; 'I' for Inactive)
REMARK    1  A    between atoms: N1_1  and  N2_4 
REMARK       I    between atoms: N2_4  and  C1_6 
REMARK    2  A    between atoms: C1_6  and  C2_8 
REMARK    3  A    between atoms: C2_8  and  N3_9 
ROOT
HETATM    1  C2  UNL     1      -0.378  -0.099  -0.141  1.00  0.00     0.362 C 
HETATM    2  N4  UNL     1      -1.486  -0.986   0.039  1.00  0.00    -0.294 N 
ATOM      3  H4  UNL     1      -1.498  -1.984  -0.174  1.00  0.00     0.167 HD
HETATM    4  C3  UNL     1      -2.570  -0.228   0.568  1.00  0.00     0.325 C 
HETATM    5  O2  UNL     1      -3.810  -0.509   0.536  1.00  0.00    -0.247 OA
HETATM    6  N5  UNL     1      -1.995   0.948   1.162  1.00  0.00    -0.275 N 
ATOM      7  H5  UNL     1      -2.503   1.699   1.628  1.00  0.00     0.173 HD
HETATM    8  C4  UNL     1      -0.586   0.870   0.979  1.00  0.00     0.292 C 
HETATM    9  O3  UNL     1       0.260   1.510   1.652  1.00  0.00    -0.268 OA
ENDROOT
BRANCH   1  10
HETATM   10  C1  UNL     1       0.932  -0.721  -0.075  1.00  0.00     0.302 C 
HETATM   11  N2  UNL     1       2.132   0.014  -0.233  1.00  0.00    -0.272 N 
ATOM     12  H2  UNL     1       2.070   1.018  -0.400  1.00  0.00     0.189 HD
HETATM   13  O1  UNL     1       1.037  -1.953   0.128  1.00  0.00    -0.266 OA
BRANCH  11  14
HETATM   14  N1  UNL     1       3.396  -0.575  -0.171  1.00  0.00    -0.342 N 
ATOM     15  H12 UNL     1       3.439  -1.580  -0.004  1.00  0.00     0.176 HD
ATOM     16  H11 UNL     1       4.260  -0.046  -0.285  1.00  0.00     0.176 HD
ENDBRANCH  11  14
ENDBRANCH   1  10
BRANCH   1  17
HETATM   17  N3  UNL     1      -0.608   0.620  -1.398  1.00  0.00    -0.034 N 
ATOM     18  H33 UNL     1       0.129   1.305  -1.566  1.00  0.00     0.278 HD
ATOM     19  H32 UNL     1      -0.454   0.009  -2.200  1.00  0.00     0.278 HD
ATOM     20  H31 UNL     1      -1.528   1.057  -1.444  1.00  0.00     0.278 HD
ENDBRANCH   1  17
TORSDOF 3
