REMARK  6 active torsions:
REMARK  status: ('A' for Active; 'I' for Inactive)
REMARK    1  A    between atoms: C2_2  and  C4_4 
REMARK    2  A    between atoms: C4_4  and  O2_6 
REMARK    3  A    between atoms: O2_6  and  C5_7 
REMARK    4  A    between atoms: C11_14  and  O4_15 
REMARK    5  A    between atoms: C13_18  and  C14_19 
REMARK    6  A    between atoms: C14_19  and  C15_20 
ROOT
HETATM    1  C5  UNL     1       1.124  -0.737   0.480  1.00  0.00     0.143 C 
HETATM    2  C6  UNL     1       1.586  -2.167   0.092  1.00  0.00     0.068 C 
HETATM    3  C7  UNL     1       0.741  -3.166   0.787  1.00  0.00     0.154 A 
HETATM    4  O3  UNL     1      -0.049  -3.999   0.025  1.00  0.00    -0.374 OA
HETATM    5  C8  UNL     1      -0.632  -2.848   0.768  1.00  0.00     0.162 A 
HETATM    6  C9  UNL     1      -1.106  -1.730  -0.110  1.00  0.00     0.020 C 
HETATM    7  C10 UNL     1      -1.236  -2.213  -1.550  1.00  0.00     0.021 C 
HETATM    8  C11 UNL     1      -2.544  -1.442   0.335  1.00  0.00     0.130 C 
HETATM    9  C12 UNL     1      -3.040  -0.146  -0.231  1.00  0.00     0.037 C 
HETATM   10  C13 UNL     1      -2.291   0.945   0.493  1.00  0.00    -0.001 C 
HETATM   11  C16 UNL     1      -0.855   0.637   0.722  1.00  0.00     0.018 C 
HETATM   12  C17 UNL     1      -0.261  -0.485  -0.070  1.00  0.00    -0.005 C 
HETATM   13  C18 UNL     1       0.016   0.025  -1.501  1.00  0.00     0.019 C 
ENDROOT
BRANCH   1  14
HETATM   14  O2  UNL     1       2.123   0.069  -0.133  1.00  0.00    -0.315 OA
BRANCH  14  15
HETATM   15  C4  UNL     1       3.092   0.782   0.544  1.00  0.00     0.262 C 
HETATM   16  O1  UNL     1       2.978   0.611   1.819  1.00  0.00    -0.265 OA
BRANCH  15  17
HETATM   17  C2  UNL     1       4.145   1.634   0.047  1.00  0.00     0.077 C 
HETATM   18  C1  UNL     1       5.037   1.045  -1.021  1.00  0.00     0.020 C 
HETATM   19  C3  UNL     1       3.724   3.004  -0.425  1.00  0.00     0.020 C 
ENDBRANCH  15  17
ENDBRANCH  14  15
ENDBRANCH   1  14
BRANCH   8  20
HETATM   20  O4  UNL     1      -3.358  -2.516   0.096  1.00  0.00    -0.395 OA
ATOM     21  H4  UNL     1      -4.249  -2.337   0.372  1.00  0.00     0.210 HD
ENDBRANCH   8  20
BRANCH  10  22
HETATM   22  C14 UNL     1      -2.511   2.305  -0.185  1.00  0.00     0.117 C 
BRANCH  22  23
HETATM   23  C15 UNL     1      -3.966   2.539  -0.160  1.00  0.00     0.172 C 
HETATM   24  O5  UNL     1      -4.636   2.434  -1.211  1.00  0.00    -0.648 OA
HETATM   25  O6  UNL     1      -4.615   2.875   1.017  1.00  0.00    -0.648 OA
ENDBRANCH  22  23
ENDBRANCH  10  22
TORSDOF 6
