REMARK  8 active torsions:
REMARK  status: ('A' for Active; 'I' for Inactive)
REMARK    1  A    between atoms: C5_5  and  O1_6 
REMARK    2  A    between atoms: O1_6  and  C6_7 
REMARK    3  A    between atoms: C6_7  and  O2_8 
REMARK    4  A    between atoms: C7_10  and  S1_11 
REMARK    5  A    between atoms: S1_11  and  C8_12 
REMARK    6  A    between atoms: C9_15  and  N2_16 
REMARK    7  A    between atoms: C12_24  and  C13_25 
REMARK    8  A    between atoms: C13_25  and  O3_27 
ROOT
HETATM    1  C6  UNL     1       0.957   0.134  -0.421  1.00  0.00     0.185 C 
HETATM    2  C7  UNL     1       2.172  -0.370  -0.978  1.00  0.00     0.115 C 
ENDROOT
BRANCH   1   3
HETATM    3  O1  UNL     1      -0.323  -0.120  -0.324  1.00  0.00    -0.319 OA
BRANCH   3   4
HETATM    4  C5  UNL     1      -1.402   0.551   0.273  1.00  0.00     0.186 C 
HETATM    5  C4  UNL     1      -1.759  -0.180   1.514  1.00  0.00     0.005 C 
HETATM    6  C3  UNL     1      -2.696  -1.096   1.502  1.00  0.00     0.004 C 
HETATM    7  C2  UNL     1      -3.369  -1.351   0.187  1.00  0.00     0.205 C 
HETATM    8  C1  UNL     1      -4.614  -2.168   0.313  1.00  0.00     0.044 C 
HETATM    9  N4  UNL     1      -3.763  -0.004  -0.260  1.00  0.00    -0.059 N 
HETATM   10  C12 UNL     1      -2.576   0.773  -0.607  1.00  0.00     0.247 C 
ATOM     11  H42 UNL     1      -4.436  -0.037  -1.026  1.00  0.00     0.278 HD
ATOM     12  H41 UNL     1      -4.345   0.473   0.429  1.00  0.00     0.278 HD
BRANCH  10  13
HETATM   13  C13 UNL     1      -3.035   2.237  -0.512  1.00  0.00     0.147 C 
HETATM   14  C14 UNL     1      -4.306   2.455  -1.331  1.00  0.00     0.041 C 
BRANCH  13  15
HETATM   15  O3  UNL     1      -3.371   2.452   0.832  1.00  0.00    -0.394 OA
ATOM     16  H3  UNL     1      -3.655   3.357   0.891  1.00  0.00     0.210 HD
ENDBRANCH  13  15
ENDBRANCH  10  13
ENDBRANCH   3   4
ENDBRANCH   1   3
BRANCH   1  17
HETATM   17  O2  UNL     1       1.220   1.325   0.275  1.00  0.00    -0.341 OA
ATOM     18  H2  UNL     1       2.149   1.509   0.205  1.00  0.00     0.220 HD
ENDBRANCH   1  17
BRANCH   2  19
HETATM   19  S1  UNL     1       3.038  -1.720  -0.260  1.00  0.00    -0.077 SA
BRANCH  19  20
HETATM   20  C8  UNL     1       4.715  -1.282   0.194  1.00  0.00     0.109 A 
HETATM   21  N1  UNL     1       5.193  -0.002   0.176  1.00  0.00    -0.184 N 
HETATM   22  C9  UNL     1       6.502   0.251   0.389  1.00  0.00     0.676 A 
ATOM     23  H1  UNL     1       4.553   0.772  -0.001  1.00  0.00     0.185 HD
HETATM   24  N3  UNL     1       7.422  -0.727   0.633  1.00  0.00    -0.201 N 
HETATM   25  C10 UNL     1       6.979  -1.978   0.653  1.00  0.00     0.128 A 
ATOM     26  H3  UNL     1       8.405  -0.507   0.793  1.00  0.00     0.183 HD
HETATM   27  C11 UNL     1       5.646  -2.264   0.439  1.00  0.00     0.061 A 
HETATM   28 BR1  UNL     1       5.143  -4.103   0.515  1.00  0.00    -0.047 Br
BRANCH  22  29
HETATM   29  N2  UNL     1       6.998   1.441   0.346  1.00  0.00    -0.234 N 
ATOM     30  H22 UNL     1       6.310   2.172   0.164  1.00  0.00     0.174 HD
ATOM     31  H21 UNL     1       7.987   1.632   0.507  1.00  0.00     0.174 HD
ENDBRANCH  22  29
ENDBRANCH  19  20
ENDBRANCH   2  19
TORSDOF 8
