REMARK  2 active torsions:
REMARK  status: ('A' for Active; 'I' for Inactive)
REMARK    1  A    between atoms: C1_2  and  C2_4 
REMARK    2  A    between atoms: C2_4  and  N2_5 
ROOT
HETATM    1  C2  UNL     1      -0.358  -0.399   0.201  1.00  0.00     0.367 C 
HETATM    2  N3  UNL     1       0.530  -1.420  -0.175  1.00  0.00    -0.281 N 
ATOM      3  H3  UNL     1       0.268  -2.403  -0.106  1.00  0.00     0.184 HD
HETATM    4  N4  UNL     1       1.764  -1.041  -0.639  1.00  0.00    -0.253 N 
ATOM      5  H4  UNL     1       2.241  -1.663  -1.292  1.00  0.00     0.191 HD
HETATM    6  C3  UNL     1       2.410   0.148  -0.272  1.00  0.00     0.341 C 
HETATM    7  O2  UNL     1       3.646   0.360  -0.472  1.00  0.00    -0.245 OA
HETATM    8  N5  UNL     1       1.644   1.170   0.357  1.00  0.00    -0.274 N 
ATOM      9  H5  UNL     1       2.062   2.055   0.646  1.00  0.00     0.173 HD
HETATM   10  C4  UNL     1       0.264   0.890   0.561  1.00  0.00     0.293 C 
HETATM   11  O3  UNL     1      -0.480   1.776   1.073  1.00  0.00    -0.268 OA
ENDROOT
BRANCH   1  12
HETATM   12  C1  UNL     1      -1.395  -0.097  -0.839  1.00  0.00     0.299 C 
HETATM   13  N1  UNL     1      -2.366   0.915  -0.601  1.00  0.00    -0.058 NA
HETATM   14  O1  UNL     1      -1.452  -0.706  -1.938  1.00  0.00    -0.271 OA
ENDBRANCH   1  12
BRANCH   1  15
HETATM   15  N2  UNL     1      -1.096  -0.872   1.378  1.00  0.00    -0.033 N 
ATOM     16  H23 UNL     1      -1.816  -0.223   1.696  1.00  0.00     0.278 HD
ATOM     17  H22 UNL     1      -1.717  -1.657   1.182  1.00  0.00     0.278 HD
ATOM     18  H21 UNL     1      -0.391  -1.077   2.085  1.00  0.00     0.278 HD
ENDBRANCH   1  15
TORSDOF 2
