REMARK  7 active torsions:
REMARK  status: ('A' for Active; 'I' for Inactive)
REMARK       I    between atoms: C1_4  and  N3_6 
REMARK    1  A    between atoms: C3_11  and  C4_12 
REMARK    2  A    between atoms: C4_12  and  O1_13 
REMARK    3  A    between atoms: C4_12  and  N5_15 
REMARK    4  A    between atoms: N5_15  and  N6_16 
REMARK    5  A    between atoms: C7_22  and  C8_23 
REMARK    6  A    between atoms: C8_23  and  C9_24 
REMARK    7  A    between atoms: C9_24  and  C10_26 
ROOT
HETATM    1  N1  UNL     1      -2.293  -3.392  -2.178  1.00  0.00    -0.373 N 
ATOM      2  H11 UNL     1      -1.521  -3.849  -1.693  1.00  0.00     0.158 HD
ATOM      3  H12 UNL     1      -3.127  -3.947  -2.371  1.00  0.00     0.158 HD
HETATM    4  C1  UNL     1      -2.228  -2.168  -2.535  1.00  0.00     0.200 C 
HETATM    5  N2  UNL     1      -3.310  -1.527  -3.214  1.00  0.00    -0.063 NA
HETATM    6  N3  UNL     1      -1.081  -1.404  -2.269  1.00  0.00    -0.164 N 
ATOM      7  H3  UNL     1      -0.328  -1.437  -2.956  1.00  0.00     0.187 HD
HETATM    8  C2  UNL     1      -0.902  -0.674  -1.242  1.00  0.00     0.685 A 
HETATM    9  N4  UNL     1      -1.866  -0.542  -0.216  1.00  0.00    -0.187 N 
ATOM     10  H4  UNL     1      -2.740  -1.058  -0.313  1.00  0.00     0.184 HD
HETATM   11  C3  UNL     1      -1.712   0.179   0.819  1.00  0.00     0.124 A 
HETATM   12  C5  UNL     1      -0.489   0.917   0.978  1.00  0.00     0.225 A 
HETATM   13  O2  UNL     1      -0.315   1.636   1.993  1.00  0.00    -0.284 OA
HETATM   14  C6  UNL     1       0.607   0.871  -0.020  1.00  0.00     0.098 A 
HETATM   15  C7  UNL     1       1.705   1.564   0.170  1.00  0.00     0.015 C 
HETATM   16  N8  UNL     1       0.346   0.042  -1.139  1.00  0.00    -0.188 N 
ATOM     17  H8  UNL     1       1.045  -0.049  -1.876  1.00  0.00     0.184 HD
ENDROOT
BRANCH  11  18
HETATM   18  C4  UNL     1      -2.807   0.235   1.834  1.00  0.00     0.285 C 
BRANCH  18  19
HETATM   19  O1  UNL     1      -3.847  -0.580   1.404  1.00  0.00    -0.372 OA
ATOM     20  H1  UNL     1      -4.543  -0.544   2.049  1.00  0.00     0.212 HD
ENDBRANCH  18  19
BRANCH  18  21
HETATM   21  N5  UNL     1      -2.308  -0.150   3.147  1.00  0.00    -0.110 NA
BRANCH  21  22
HETATM   22  N6  UNL     1      -3.326  -0.095   4.082  1.00  0.00    -0.346 N 
ATOM     23  H62 UNL     1      -4.285   0.178   3.867  1.00  0.00     0.172 HD
ATOM     24  H61 UNL     1      -2.977  -0.365   5.002  1.00  0.00     0.172 HD
ENDBRANCH  21  22
ENDBRANCH  18  21
ENDBRANCH  11  18
BRANCH  15  25
HETATM   25  C8  UNL     1       2.842   1.585  -0.756  1.00  0.00     0.118 C 
BRANCH  25  26
HETATM   26  C9  UNL     1       4.100   1.094  -0.096  1.00  0.00     0.217 C 
HETATM   27  O3  UNL     1       4.014   0.750   1.100  1.00  0.00    -0.287 OA
BRANCH  26  28
HETATM   28  C10 UNL     1       5.340   1.033  -0.835  1.00  0.00     0.300 C 
HETATM   29  N7  UNL     1       6.524   0.572  -0.216  1.00  0.00    -0.054 NA
HETATM   30  O4  UNL     1       5.375   1.388  -2.028  1.00  0.00    -0.268 OA
ENDBRANCH  26  28
ENDBRANCH  25  26
ENDBRANCH  15  25
TORSDOF 7
