REMARK  3 active torsions:
REMARK  status: ('A' for Active; 'I' for Inactive)
REMARK       I    between atoms: C1_2  and  N2_4 
REMARK       I    between atoms: N2_4  and  C2_6 
REMARK    1  A    between atoms: C2_6  and  C3_8 
REMARK    2  A    between atoms: N5_17  and  N6_19 
REMARK       I    between atoms: C5_21  and  N8_23 
REMARK    3  A    between atoms: N8_23  and  N9_25 
ROOT
HETATM    1  C3  UNL     1       1.736  -0.951  -1.037  1.00  0.00     0.256 C 
HETATM    2  N3  UNL     1       1.747  -1.878  -2.208  1.00  0.00    -0.281 N 
ATOM      3  H3  UNL     1       1.931  -2.877  -2.295  1.00  0.00     0.175 HD
HETATM    4  S1  UNL     1       1.328  -0.632  -3.392  1.00  0.00     0.321 S 
HETATM    5  O3  UNL     1       0.673  -1.217  -4.578  1.00  0.00    -0.182 OA
HETATM    6  O4  UNL     1       2.585   0.098  -3.678  1.00  0.00    -0.182 OA
HETATM    7  N4  UNL     1       0.247   0.249  -2.377  1.00  0.00    -0.253 N 
ATOM      8  H4  UNL     1      -0.320   1.061  -2.620  1.00  0.00     0.181 HD
HETATM    9  C4  UNL     1       0.327  -0.413  -1.130  1.00  0.00     0.140 C 
HETATM   10  N5  UNL     1      -0.613  -0.555  -0.239  1.00  0.00    -0.284 N 
ATOM     11  H5  UNL     1      -0.420  -1.073   0.618  1.00  0.00     0.188 HD
ENDROOT
BRANCH   1  12
HETATM   12  C2  UNL     1       1.997  -1.647   0.195  1.00  0.00     0.256 C 
HETATM   13  N2  UNL     1       2.217  -0.978   1.413  1.00  0.00    -0.280 N 
HETATM   14  C1  UNL     1       2.304   0.413   1.614  1.00  0.00     0.335 C 
ATOM     15  H2  UNL     1       2.325  -1.564   2.241  1.00  0.00     0.173 HD
HETATM   16  N1  UNL     1       2.540   0.935   2.914  1.00  0.00    -0.040 NA
HETATM   17  O1  UNL     1       2.183   1.242   0.686  1.00  0.00    -0.251 OA
HETATM   18  O2  UNL     1       2.032  -2.911   0.195  1.00  0.00    -0.270 OA
ENDBRANCH   1  12
BRANCH  10  19
HETATM   19  N6  UNL     1      -1.879  -0.009  -0.441  1.00  0.00    -0.271 N 
HETATM   20  C5  UNL     1      -2.403   0.762   0.430  1.00  0.00     0.226 C 
HETATM   21  N7  UNL     1      -1.672   1.063   1.623  1.00  0.00    -0.060 NA
HETATM   22  N8  UNL     1      -3.705   1.317   0.212  1.00  0.00    -0.212 N 
ATOM     23  H8  UNL     1      -3.813   2.112  -0.418  1.00  0.00     0.196 HD
ATOM     24  H6  UNL     1      -2.392  -0.228  -1.295  1.00  0.00     0.189 HD
BRANCH  22  25
HETATM   25  N9  UNL     1      -4.826   0.787   0.847  1.00  0.00    -0.036 N 
HETATM   26  O5  UNL     1      -4.662  -0.171   1.625  1.00  0.00    -0.516 OA
HETATM   27  O6  UNL     1      -6.059   1.317   0.608  1.00  0.00    -0.516 OA
ENDBRANCH  22  25
ENDBRANCH  10  19
TORSDOF 3
