REMARK  7 active torsions:
REMARK  status: ('A' for Active; 'I' for Inactive)
REMARK    1  A    between atoms: C3_4  and  C4_5 
REMARK    2  A    between atoms: C4_5  and  O2_6 
REMARK    3  A    between atoms: C5_8  and  C6_9 
REMARK    4  A    between atoms: C6_9  and  O3_10 
REMARK    5  A    between atoms: C7_13  and  O5_14 
REMARK    6  A    between atoms: C7_13  and  O6_16 
REMARK    7  A    between atoms: O6_16  and  C8_17 
ROOT
HETATM    1  C1  UNL     1       0.384   2.553  -0.152  1.00  0.00     0.048 C 
HETATM    2  C2  UNL     1       0.569   1.442  -1.172  1.00  0.00     0.211 C 
HETATM    3  O1  UNL     1       1.848   1.109  -1.429  1.00  0.00    -0.368 OA
HETATM    4  C3  UNL     1       2.451   0.147  -0.660  1.00  0.00     0.177 C 
HETATM    5  C5  UNL     1       1.511  -0.972  -0.429  1.00  0.00     0.182 C 
HETATM    6  O4  UNL     1       0.336  -0.508   0.113  1.00  0.00    -0.321 OA
HETATM    7  C7  UNL     1      -0.346   0.269  -0.794  1.00  0.00     0.308 C 
ENDROOT
BRANCH   7   8
HETATM    8  O5  UNL     1      -0.681  -0.361  -1.967  1.00  0.00    -0.341 OA
ATOM      9  H5  UNL     1      -1.247  -1.087  -1.733  1.00  0.00     0.215 HD
ENDBRANCH   7   8
BRANCH   7  10
HETATM   10  O6  UNL     1      -1.479   0.863  -0.276  1.00  0.00    -0.321 OA
BRANCH  10  11
HETATM   11  C8  UNL     1      -2.440   0.048   0.203  1.00  0.00     0.056 C 
HETATM   12  C9  UNL     1      -3.575   0.957   0.712  1.00  0.00     0.045 C 
HETATM   13  C10 UNL     1      -3.053  -0.912  -0.749  1.00  0.00     0.045 C 
HETATM   14  C11 UNL     1      -2.008  -0.743   1.439  1.00  0.00     0.045 C 
ENDBRANCH  10  11
ENDBRANCH   7  10
BRANCH   5  15
HETATM   15  C6  UNL     1       2.017  -2.094   0.430  1.00  0.00     0.199 C 
BRANCH  15  16
HETATM   16  O3  UNL     1       3.204  -2.645  -0.010  1.00  0.00    -0.398 OA
ATOM     17  H3  UNL     1       3.524  -3.355   0.534  1.00  0.00     0.209 HD
ENDBRANCH  15  16
ENDBRANCH   5  15
BRANCH   4  18
HETATM   18  C4  UNL     1       3.079   0.754   0.546  1.00  0.00     0.198 C 
BRANCH  18  19
HETATM   19  O2  UNL     1       3.718  -0.120   1.387  1.00  0.00    -0.398 OA
ATOM     20  H2  UNL     1       4.119   0.267   2.156  1.00  0.00     0.209 HD
ENDBRANCH  18  19
ENDBRANCH   4  18
TORSDOF 7
