REMARK  1 active torsions:
REMARK  status: ('A' for Active; 'I' for Inactive)
REMARK    1  A    between atoms: C2_2  and  N1_4 
ROOT
HETATM    1  N1  UNL     1       1.000  -0.332  -0.671  1.00  0.00    -0.367 N 
ATOM      2  H1  UNL     1       1.170  -0.868  -1.522  1.00  0.00     0.162 HD
HETATM    3  C4  UNL     1      -0.073   0.357  -0.557  1.00  0.00     0.140 C 
HETATM    4  N2  UNL     1      -1.206   0.606  -1.368  1.00  0.00    -0.353 N 
ATOM      5  H2  UNL     1      -1.361   0.781  -2.361  1.00  0.00     0.163 HD
HETATM    6  C5  UNL     1      -2.038   0.510  -0.220  1.00  0.00     0.081 C 
HETATM    7  C6  UNL     1      -3.392   1.132  -0.283  1.00  0.00     0.051 C 
HETATM    8  C7  UNL     1      -2.143  -0.909   0.349  1.00  0.00     0.051 C 
HETATM    9  S1  UNL     1      -0.787   1.425   0.712  1.00  0.00    -0.064 SA
ENDROOT
BRANCH   1  10
HETATM   10  C2  UNL     1       1.970  -0.354   0.397  1.00  0.00     0.075 C 
HETATM   11  C1  UNL     1       2.908   0.839   0.308  1.00  0.00     0.032 C 
HETATM   12  C3  UNL     1       2.824  -1.600   0.282  1.00  0.00     0.032 C 
ENDBRANCH   1  10
TORSDOF 1
