REMARK  3 active torsions:
REMARK  status: ('A' for Active; 'I' for Inactive)
REMARK    1  A    between atoms: O1_2  and  C2_3 
REMARK    2  A    between atoms: C3_5  and  C4_6 
REMARK    3  A    between atoms: C9_11  and  N1_12 
ROOT
HETATM    1  C2  UNL     1       1.700   0.436   0.282  1.00  0.00     0.289 C 
HETATM    2  O2  UNL     1       0.556   0.095   1.004  1.00  0.00    -0.353 OA
HETATM    3  C3  UNL     1      -0.367   0.055  -0.016  1.00  0.00     0.134 C 
HETATM    4  C8  UNL     1       0.262  -0.915  -0.986  1.00  0.00     0.070 C 
HETATM    5  C9  UNL     1       1.741  -0.512  -0.875  1.00  0.00     0.240 C 
ENDROOT
BRANCH   3   6
HETATM    6  C4  UNL     1      -1.750  -0.298   0.377  1.00  0.00    -0.025 C 
HETATM    7  C5  UNL     1      -2.394   0.613   1.357  1.00  0.00     0.017 C 
HETATM    8  C6  UNL     1      -1.786  -1.708   0.958  1.00  0.00     0.017 C 
HETATM    9  C7  UNL     1      -2.605  -0.332  -0.875  1.00  0.00     0.017 C 
ENDBRANCH   3   6
BRANCH   1  10
HETATM   10  O1  UNL     1       2.839   0.507   1.020  1.00  0.00    -0.364 OA
HETATM   11  C1  UNL     1       3.441   1.734   1.081  1.00  0.00     0.204 C 
ENDBRANCH   1  10
BRANCH   5  12
HETATM   12  N1  UNL     1       2.076   0.197  -2.117  1.00  0.00    -0.070 N 
ATOM     13  H13 UNL     1       1.441   0.977  -2.290  1.00  0.00     0.274 HD
ATOM     14  H12 UNL     1       2.945   0.723  -2.029  1.00  0.00     0.274 HD
ATOM     15  H11 UNL     1       2.104  -0.449  -2.906  1.00  0.00     0.274 HD
ENDBRANCH   5  12
TORSDOF 3
