REMARK  3 active torsions:
REMARK  status: ('A' for Active; 'I' for Inactive)
REMARK    1  A    between atoms: C8_8  and  N1_9 
REMARK    2  A    between atoms: C9_10  and  N2_11 
REMARK    3  A    between atoms: C11_16  and  N3_17 
ROOT
HETATM    1  N1  UNL     1       0.786   0.734  -0.750  1.00  0.00    -0.307 N 
HETATM    2  C9  UNL     1       1.148   1.463  -1.790  1.00  0.00     0.147 A 
HETATM    3  S1  UNL     1       2.848   1.353  -1.809  1.00  0.00    -0.047 SA
HETATM    4  C10 UNL     1       3.031   0.341  -0.434  1.00  0.00     0.096 A 
HETATM    5  C11 UNL     1       4.138  -0.221   0.228  1.00  0.00     0.121 A 
HETATM    6  N4  UNL     1       3.971  -0.998   1.316  1.00  0.00    -0.338 N 
ATOM      7  H4  UNL     1       4.752  -1.419   1.818  1.00  0.00     0.168 HD
HETATM    8  C12 UNL     1       2.682  -1.174   1.688  1.00  0.00     0.183 A 
HETATM    9  N5  UNL     1       1.633  -0.660   1.085  1.00  0.00    -0.337 N 
ATOM     10  H5  UNL     1       0.705  -0.863   1.457  1.00  0.00     0.168 HD
HETATM   11  C13 UNL     1       1.740   0.147  -0.036  1.00  0.00     0.132 A 
ENDROOT
BRANCH   1  12
HETATM   12  C8  UNL     1      -0.647   0.587  -0.403  1.00  0.00     0.097 C 
HETATM   13  C2  UNL     1      -1.076  -0.849  -0.508  1.00  0.00     0.005 C 
HETATM   14  C1  UNL     1      -0.579  -1.415  -1.842  1.00  0.00     0.012 C 
HETATM   15  C3  UNL     1      -2.556  -0.990  -0.498  1.00  0.00     0.006 C 
HETATM   16  C4  UNL     1      -3.292   0.177   0.109  1.00  0.00     0.000 C 
HETATM   17  C5  UNL     1      -3.025   0.360   1.569  1.00  0.00     0.000 C 
HETATM   18  C6  UNL     1      -1.568   0.320   1.932  1.00  0.00     0.002 C 
HETATM   19  C7  UNL     1      -0.794   1.152   0.971  1.00  0.00     0.026 C 
ENDBRANCH   1  12
BRANCH   2  20
HETATM   20  N2  UNL     1       0.374   2.128  -2.628  1.00  0.00    -0.379 N 
ATOM     21  H22 UNL     1      -0.644   2.194  -2.617  1.00  0.00     0.158 HD
ATOM     22  H21 UNL     1       0.654   2.691  -3.431  1.00  0.00     0.158 HD
ENDBRANCH   2  20
BRANCH   5  23
HETATM   23  N3  UNL     1       5.297   0.041  -0.248  1.00  0.00    -0.384 N 
ATOM     24  H32 UNL     1       5.423   0.629  -1.072  1.00  0.00     0.157 HD
ATOM     25  H31 UNL     1       6.100  -0.366   0.232  1.00  0.00     0.157 HD
ENDBRANCH   5  23
TORSDOF 3
