REMARK  5 active torsions:
REMARK  status: ('A' for Active; 'I' for Inactive)
REMARK    1  A    between atoms: C2_2  and  C3_3 
REMARK    2  A    between atoms: C5_7  and  C6_8 
REMARK    3  A    between atoms: N2_10  and  C8_11 
REMARK    4  A    between atoms: N4_19  and  N5_20 
REMARK    5  A    between atoms: N5_20  and  O1_22 
ROOT
HETATM    1  C3  UNL     1      -4.097  -0.376  -0.730  1.00  0.00     0.121 C 
HETATM    2  N1  UNL     1      -3.033  -0.976  -0.376  1.00  0.00    -0.325 N 
ATOM      3  H1  UNL     1      -3.084  -1.986  -0.245  1.00  0.00     0.169 HD
HETATM    4  C4  UNL     1      -1.768  -0.343  -0.147  1.00  0.00     0.129 C 
HETATM    5  C5  UNL     1      -0.721  -1.055   0.171  1.00  0.00     0.065 C 
HETATM    6  N4  UNL     1      -1.746   1.065  -0.345  1.00  0.00    -0.228 N 
HETATM    7  C14 UNL     1      -3.009   1.801  -0.271  1.00  0.00     0.251 C 
HETATM    8  C15 UNL     1      -2.949   3.153  -0.888  1.00  0.00     0.065 C 
HETATM    9  O2  UNL     1      -4.034   1.016  -0.907  1.00  0.00    -0.312 OA
ENDROOT
BRANCH   5  10
HETATM   10  C6  UNL     1       0.618  -0.619   0.448  1.00  0.00     0.008 A 
HETATM   11  C7  UNL     1       1.788  -0.876  -0.279  1.00  0.00     0.124 A 
HETATM   12  N2  UNL     1       2.840  -0.342   0.356  1.00  0.00    -0.294 N 
HETATM   13  N3  UNL     1       2.397   0.241   1.452  1.00  0.00    -0.302 N 
HETATM   14  C12 UNL     1       1.047   0.089   1.539  1.00  0.00     0.034 A 
ATOM     15  H3  UNL     1       2.978   0.732   2.132  1.00  0.00     0.186 HD
HETATM   16  C13 UNL     1       0.288   0.607   2.678  1.00  0.00     0.070 C 
BRANCH  12  17
HETATM   17  C8  UNL     1       4.243  -0.355  -0.021  1.00  0.00     0.042 C 
HETATM   18  C9  UNL     1       4.875   1.003   0.198  1.00  0.00     0.039 C 
HETATM   19  C10 UNL     1       4.400  -0.818  -1.452  1.00  0.00     0.039 C 
HETATM   20  C11 UNL     1       4.945  -1.336   0.891  1.00  0.00     0.039 C 
ENDBRANCH  12  17
ENDBRANCH   5  10
BRANCH   6  21
HETATM   21  N5  UNL     1      -0.605   1.780  -0.646  1.00  0.00    -0.204 N 
ATOM     22  H5  UNL     1       0.113   1.390  -1.257  1.00  0.00     0.216 HD
BRANCH  21  23
HETATM   23  O1  UNL     1      -0.475   2.936  -0.141  1.00  0.00    -0.274 OA
ATOM     24  H1  UNL     1       0.311   3.428  -0.348  1.00  0.00     0.246 HD
ENDBRANCH  21  23
ENDBRANCH   6  21
BRANCH   1  25
HETATM   25  C2  UNL     1      -5.380  -1.114  -0.952  1.00  0.00     0.080 C 
HETATM   26  C1  UNL     1      -5.110  -2.575  -0.701  1.00  0.00     0.013 C 
ENDBRANCH   1  25
TORSDOF 5
