REMARK  14 active torsions:
REMARK  status: ('A' for Active; 'I' for Inactive)
REMARK    1  A    between atoms: C2_2  and  C5_12 
REMARK    2  A    between atoms: N1_3  and  N2_5 
REMARK       I    between atoms: N2_5  and  C3_7 
REMARK    3  A    between atoms: C3_7  and  C4_9 
REMARK    4  A    between atoms: C8_20  and  C9_21 
REMARK    5  A    between atoms: C9_21  and  N5_22 
REMARK    6  A    between atoms: N5_22  and  N6_23 
REMARK    7  A    between atoms: C10_24  and  O5_25 
REMARK    8  A    between atoms: C11_27  and  O6_28 
REMARK    9  A    between atoms: C12_30  and  O7_31 
REMARK   10  A    between atoms: C13_33  and  O8_34 
REMARK   11  A    between atoms: C14_36  and  O9_37 
REMARK   12  A    between atoms: C14_36  and  C15_39 
REMARK   13  A    between atoms: C15_39  and  O10_40 
REMARK   14  A    between atoms: C15_39  and  O11_42 
ROOT
HETATM    1  N5  UNL     1      -1.122  -1.438   0.306  1.00  0.00    -0.134 NA
ENDROOT
BRANCH   1   2
HETATM    2  C9  UNL     1       0.123  -0.809  -0.170  1.00  0.00     0.180 C 
BRANCH   2   3
HETATM    3  C8  UNL     1       1.042  -1.806  -0.793  1.00  0.00     0.045 A 
HETATM    4  C5  UNL     1       2.255  -1.364  -1.222  1.00  0.00     0.046 A 
HETATM    5  S1  UNL     1       3.214  -2.624  -1.985  1.00  0.00    -0.026 SA
HETATM    6  C6  UNL     1       2.435  -4.116  -2.027  1.00  0.00     0.291 A 
HETATM    7  O3  UNL     1       2.954  -5.167  -2.535  1.00  0.00    -0.260 OA
HETATM    8  N4  UNL     1       1.216  -4.132  -1.483  1.00  0.00    -0.284 N 
HETATM    9  C7  UNL     1       0.598  -3.106  -0.936  1.00  0.00     0.257 A 
ATOM     10  H4  UNL     1       0.717  -5.022  -1.492  1.00  0.00     0.172 HD
HETATM   11  O4  UNL     1      -0.571  -3.365  -0.484  1.00  0.00    -0.267 OA
BRANCH   4  12
HETATM   12  C2  UNL     1       2.833  -0.046  -1.119  1.00  0.00     0.040 C 
HETATM   13  C1  UNL     1       2.267   1.128  -0.499  1.00  0.00     0.071 C 
HETATM   14  N1  UNL     1       4.043   0.127  -1.643  1.00  0.00    -0.301 N 
ATOM     15  H1  UNL     1       4.484  -0.675  -2.094  1.00  0.00     0.186 HD
BRANCH  14  16
HETATM   16  N2  UNL     1       4.736   1.303  -1.619  1.00  0.00    -0.262 N 
HETATM   17  C3  UNL     1       5.893   1.558  -0.841  1.00  0.00     0.325 C 
HETATM   18  O1  UNL     1       6.327   0.637  -0.112  1.00  0.00    -0.261 OA
ATOM     19  H2  UNL     1       4.393   2.061  -2.210  1.00  0.00     0.190 HD
BRANCH  17  20
HETATM   20  C4  UNL     1       6.591   2.827  -0.852  1.00  0.00     0.324 C 
HETATM   21  N3  UNL     1       7.745   3.072  -0.075  1.00  0.00    -0.053 NA
HETATM   22  O2  UNL     1       6.156   3.750  -1.582  1.00  0.00    -0.266 OA
ENDBRANCH  17  20
ENDBRANCH  14  16
ENDBRANCH   4  12
ENDBRANCH   2   3
ENDBRANCH   1   2
BRANCH   1  23
HETATM   23  N6  UNL     1      -2.011  -0.470   0.739  1.00  0.00    -0.259 N 
HETATM   24  C10 UNL     1      -1.541   0.769   1.115  1.00  0.00     0.267 C 
HETATM   25  C11 UNL     1      -2.592   1.835   1.259  1.00  0.00     0.199 C 
HETATM   26  C12 UNL     1      -3.665   1.267   2.161  1.00  0.00     0.185 C 
HETATM   27  C13 UNL     1      -4.303   0.123   1.413  1.00  0.00     0.211 C 
HETATM   28  C14 UNL     1      -3.345  -0.873   0.860  1.00  0.00     0.226 C 
BRANCH  24  29
HETATM   29  O5  UNL     1      -0.931   0.674   2.389  1.00  0.00    -0.373 OA
ATOM     30  H5  UNL     1      -0.607   1.529   2.648  1.00  0.00     0.212 HD
ENDBRANCH  24  29
BRANCH  25  31
HETATM   31  O6  UNL     1      -2.034   2.924   1.943  1.00  0.00    -0.388 OA
ATOM     32  H6  UNL     1      -2.698   3.597   2.034  1.00  0.00     0.210 HD
ENDBRANCH  25  31
BRANCH  26  33
HETATM   33  O7  UNL     1      -4.644   2.199   2.462  1.00  0.00    -0.390 OA
ATOM     34  H7  UNL     1      -5.318   1.842   3.029  1.00  0.00     0.210 HD
ENDBRANCH  26  33
BRANCH  27  35
HETATM   35  O8  UNL     1      -5.119   0.699   0.430  1.00  0.00    -0.388 OA
ATOM     36  H8  UNL     1      -5.521  -0.021  -0.041  1.00  0.00     0.210 HD
ENDBRANCH  27  35
BRANCH  28  37
HETATM   37  O9  UNL     1      -3.341  -1.945   1.803  1.00  0.00    -0.364 OA
ATOM     38  H9  UNL     1      -4.247  -2.219   1.885  1.00  0.00     0.213 HD
ENDBRANCH  28  37
BRANCH  28  39
HETATM   39  C15 UNL     1      -3.892  -1.551  -0.403  1.00  0.00     0.314 C 
BRANCH  39  40
HETATM   40  O10 UNL     1      -5.232  -1.910  -0.168  1.00  0.00    -0.367 OA
ATOM     41  H10 UNL     1      -5.571  -2.330  -0.950  1.00  0.00     0.212 HD
ENDBRANCH  39  40
BRANCH  39  42
HETATM   42  O11 UNL     1      -3.805  -0.773  -1.513  1.00  0.00    -0.367 OA
ATOM     43  H11 UNL     1      -4.144  -1.193  -2.295  1.00  0.00     0.212 HD
ENDBRANCH  39  42
ENDBRANCH  28  39
ENDBRANCH   1  23
TORSDOF 14
