REMARK  3 active torsions:
REMARK  status: ('A' for Active; 'I' for Inactive)
REMARK    1  A    between atoms: C5_5  and  C6_6 
REMARK    2  A    between atoms: C6_6  and  S1_7 
REMARK    3  A    between atoms: S1_7  and  C7_8 
ROOT
HETATM    1  C6  UNL     1       0.493   0.202  -0.374  1.00  0.00     0.087 C 
ENDROOT
BRANCH   1   2
HETATM    2  C5  UNL     1      -0.986   0.246  -0.051  1.00  0.00    -0.005 C 
HETATM    3  C4  UNL     1      -1.722   0.357  -1.367  1.00  0.00     0.005 C 
HETATM    4  C3  UNL     1      -3.059   0.997  -1.242  1.00  0.00     0.000 C 
HETATM    5  C2  UNL     1      -3.692   0.843   0.104  1.00  0.00     0.000 C 
HETATM    6  C1  UNL     1      -3.884  -0.541   0.568  1.00  0.00     0.000 C 
HETATM    7  C11 UNL     1      -2.765  -1.485   0.347  1.00  0.00     0.000 C 
HETATM    8  C10 UNL     1      -1.411  -0.963   0.703  1.00  0.00     0.005 C 
ENDBRANCH   1   2
BRANCH   1   9
HETATM    9  S1  UNL     1       1.522   0.071   1.084  1.00  0.00    -0.094 SA
BRANCH   9  10
HETATM   10  C7  UNL     1       3.233   0.027   0.578  1.00  0.00     0.136 C 
HETATM   11  N1  UNL     1       3.659   0.081  -0.633  1.00  0.00    -0.369 N 
HETATM   12  C8  UNL     1       5.099   0.023  -0.705  1.00  0.00     0.141 C 
ATOM     13  H1  UNL     1       3.050   0.156  -1.448  1.00  0.00     0.161 HD
HETATM   14  C9  UNL     1       5.517   0.342   0.705  1.00  0.00     0.141 C 
HETATM   15  N2  UNL     1       4.368  -0.074   1.468  1.00  0.00    -0.369 N 
ATOM     16  H2  UNL     1       4.357  -0.379   2.441  1.00  0.00     0.161 HD
ENDBRANCH   9  10
ENDBRANCH   1   9
TORSDOF 3
