REMARK  17 active torsions:
REMARK  status: ('A' for Active; 'I' for Inactive)
REMARK    1  A    between atoms: C1_2  and  C2_4 
REMARK    2  A    between atoms: C2_4  and  N1_5 
REMARK    3  A    between atoms: N1_5  and  C3_7 
REMARK    4  A    between atoms: C3_7  and  C4_8 
REMARK    5  A    between atoms: C3_7  and  C28_42 
REMARK       I    between atoms: C4_8  and  N2_10 
REMARK    6  A    between atoms: C7_13  and  C8_14 
REMARK    7  A    between atoms: C8_14  and  C9_16 
REMARK    8  A    between atoms: C9_16  and  N3_17 
REMARK    9  A    between atoms: N3_17  and  C10_20 
REMARK   10  A    between atoms: C10_20  and  C11_22 
REMARK   11  A    between atoms: C11_22  and  O5_23 
REMARK   12  A    between atoms: O5_23  and  C12_24 
REMARK   13  A    between atoms: C15_27  and  C16_28 
REMARK   14  A    between atoms: C16_28  and  N4_29 
REMARK   15  A    between atoms: N4_29  and  C17_30 
REMARK   16  A    between atoms: N4_29  and  C23_36 
REMARK   17  A    between atoms: C17_30  and  C18_31 
ROOT
HETATM    1  N3  UNL     1      -0.565  -2.691  -0.845  1.00  0.00    -0.035 N 
ATOM      2  H31 UNL     1      -1.108  -3.354  -0.292  1.00  0.00     0.281 HD
ATOM      3  H32 UNL     1      -0.399  -1.988  -0.124  1.00  0.00     0.281 HD
ENDROOT
BRANCH   1   4
HETATM    4  C9  UNL     1      -1.340  -2.153  -1.951  1.00  0.00     0.316 C 
BRANCH   4   5
HETATM    5  C8  UNL     1      -2.614  -1.575  -1.464  1.00  0.00     0.175 C 
HETATM    6  O4  UNL     1      -2.873  -1.615  -0.275  1.00  0.00    -0.294 OA
BRANCH   5   7
HETATM    7  C7  UNL     1      -3.528  -0.964  -2.460  1.00  0.00     0.160 C 
HETATM    8  N2  UNL     1      -4.780  -0.463  -1.982  1.00  0.00    -0.335 N 
HETATM    9  C4  UNL     1      -5.837  -0.867  -1.109  1.00  0.00     0.267 C 
HETATM   10  C5  UNL     1      -4.552   0.732  -2.806  1.00  0.00     0.129 C 
HETATM   11  O3  UNL     1      -5.718  -1.969  -0.561  1.00  0.00    -0.266 OA
HETATM   12  C6  UNL     1      -3.084   0.491  -2.668  1.00  0.00     0.053 C 
BRANCH   9  13
HETATM   13  C3  UNL     1      -7.000  -0.005  -0.888  1.00  0.00     0.082 C 
BRANCH  13  14
HETATM   14  N1  UNL     1      -8.275  -0.481  -0.833  1.00  0.00    -0.359 N 
ATOM     15  H1  UNL     1      -8.885  -0.065  -1.537  1.00  0.00     0.165 HD
BRANCH  14  16
HETATM   16  C2  UNL     1      -8.918  -1.392  -0.044  1.00  0.00     0.173 C 
BRANCH  16  17
HETATM   17  C1  UNL     1      -8.647  -2.839  -0.217  1.00  0.00     0.214 C 
HETATM   18  O1  UNL     1      -8.516  -3.318  -1.356  1.00  0.00    -0.643 OA
HETATM   19  O2  UNL     1      -8.542  -3.640   0.891  1.00  0.00    -0.643 OA
ENDBRANCH  16  17
ENDBRANCH  14  16
ENDBRANCH  13  14
BRANCH  13  20
HETATM   20  C28 UNL     1      -6.547   1.026   0.147  1.00  0.00     0.041 C 
HETATM   21  C29 UNL     1      -6.572   0.620   1.552  1.00  0.00     0.011 C 
HETATM   22  C30 UNL     1      -7.092   1.797   2.397  1.00  0.00     0.001 C 
HETATM   23  C31 UNL     1      -8.567   1.922   2.099  1.00  0.00     0.000 C 
HETATM   24  C32 UNL     1      -8.665   2.326   0.631  1.00  0.00     0.001 C 
HETATM   25  C33 UNL     1      -7.327   2.305  -0.059  1.00  0.00     0.011 C 
ENDBRANCH  13  20
ENDBRANCH   9  13
ENDBRANCH   5   7
ENDBRANCH   4   5
ENDBRANCH   1   4
BRANCH   1  26
HETATM   26  C10 UNL     1       0.679  -3.278  -1.319  1.00  0.00     0.392 C 
HETATM   27  F1  UNL     1       0.283  -4.453  -1.984  1.00  0.00    -0.217 F 
BRANCH  26  28
HETATM   28  C11 UNL     1       1.445  -3.726  -0.110  1.00  0.00     0.242 C 
BRANCH  28  29
HETATM   29  O5  UNL     1       1.789  -2.783   0.814  1.00  0.00    -0.344 OA
BRANCH  29  30
HETATM   30  C12 UNL     1       2.592  -1.686   0.735  1.00  0.00     0.107 A 
HETATM   31  C13 UNL     1       3.298  -1.258  -0.359  1.00  0.00     0.040 A 
HETATM   32  C14 UNL     1       4.101  -0.127  -0.366  1.00  0.00     0.012 A 
HETATM   33  C15 UNL     1       4.209   0.619   0.775  1.00  0.00    -0.027 A 
HETATM   34  C26 UNL     1       3.512   0.214   1.887  1.00  0.00     0.054 A 
HETATM   35  C27 UNL     1       2.722  -0.899   1.895  1.00  0.00     0.150 A 
HETATM   36  F2  UNL     1       2.058  -1.247   3.032  1.00  0.00    -0.203 F 
BRANCH  33  37
HETATM   37  C16 UNL     1       5.038   1.828   0.835  1.00  0.00     0.311 C 
BRANCH  37  38
HETATM   38  N4  UNL     1       6.459   1.471   0.540  1.00  0.00     0.097 N 
BRANCH  38  39
HETATM   39  C17 UNL     1       6.867   0.531   1.512  1.00  0.00     0.278 C 
BRANCH  39  40
HETATM   40  C18 UNL     1       8.204  -0.082   1.458  1.00  0.00     0.014 C 
HETATM   41  C19 UNL     1       8.498  -0.811   0.161  1.00  0.00     0.006 C 
HETATM   42  C20 UNL     1       9.917  -0.396  -0.176  1.00  0.00     0.000 C 
HETATM   43  C21 UNL     1      10.569  -0.004   1.106  1.00  0.00     0.000 C 
HETATM   44  C22 UNL     1       9.404   0.656   1.877  1.00  0.00     0.006 C 
ENDBRANCH  39  40
ENDBRANCH  38  39
BRANCH  38  45
HETATM   45  C23 UNL     1       7.199   2.694   0.552  1.00  0.00     0.223 A 
HETATM   46  C24 UNL     1       6.840   3.776  -0.428  1.00  0.00     0.038 A 
HETATM   47  C25 UNL     1       8.056   2.993  -0.660  1.00  0.00     0.038 A 
ENDBRANCH  38  45
ENDBRANCH  37  38
ENDBRANCH  33  37
ENDBRANCH  29  30
ENDBRANCH  28  29
ENDBRANCH  26  28
ENDBRANCH   1  26
TORSDOF 17
