REMARK  17 active torsions:
REMARK  status: ('A' for Active; 'I' for Inactive)
REMARK    1  A    between atoms: C3_5  and  C4_6 
REMARK    2  A    between atoms: C4_6  and  O1_7 
REMARK    3  A    between atoms: C4_6  and  C5_9 
REMARK    4  A    between atoms: C5_9  and  C6_10 
REMARK    5  A    between atoms: C5_9  and  C16_27 
REMARK    6  A    between atoms: C6_10  and  C7_11 
REMARK    7  A    between atoms: C7_11  and  C8_12 
REMARK    8  A    between atoms: C11_15  and  N2_16 
REMARK       I    between atoms: N2_16  and  C12_18 
REMARK    9  A    between atoms: C12_18  and  C13_20 
REMARK   10  A    between atoms: C13_20  and  C14_21 
REMARK   11  A    between atoms: C14_21  and  C15_22 
REMARK   12  A    between atoms: C15_22  and  N3_23 
REMARK   13  A    between atoms: C16_27  and  N4_28 
REMARK   14  A    between atoms: N4_28  and  C18_30 
REMARK   15  A    between atoms: C18_30  and  C19_31 
REMARK   16  A    between atoms: C19_31  and  C20_32 
REMARK   17  A    between atoms: C20_32  and  N5_33 
ROOT
HETATM    1  C5  UNL     1       0.371   1.264   1.098  1.00  0.00    -0.015 C 
ENDROOT
BRANCH   1   2
HETATM    2  C4  UNL     1       0.188   2.544   0.437  1.00  0.00     0.115 C 
BRANCH   2   3
HETATM    3  C3  UNL     1       1.035   3.653   0.161  1.00  0.00     0.161 A 
HETATM    4  N1  UNL     1       0.690   4.813  -0.507  1.00  0.00    -0.321 N 
HETATM    5  C2  UNL     1       1.778   5.595  -0.506  1.00  0.00     0.144 A 
ATOM      6  H1  UNL     1      -0.217   5.031  -0.920  1.00  0.00     0.169 HD
HETATM    7  C1  UNL     1       1.887   6.951  -1.113  1.00  0.00     0.100 C 
HETATM    8  O4  UNL     1       2.747   5.001   0.107  1.00  0.00    -0.223 OA
HETATM    9  N6  UNL     1       2.299   3.870   0.490  1.00  0.00    -0.241 N 
ATOM     10  H6  UNL     1       2.864   3.193   1.004  1.00  0.00     0.196 HD
ENDBRANCH   2   3
BRANCH   2  11
HETATM   11  O1  UNL     1      -1.042   2.700  -0.006  1.00  0.00    -0.357 OA
ATOM     12  H1  UNL     1      -1.608   1.959   0.178  1.00  0.00     0.218 HD
ENDBRANCH   2  11
ENDBRANCH   1   2
BRANCH   1  13
HETATM   13  C6  UNL     1       1.215   0.208   0.501  1.00  0.00     0.039 C 
BRANCH  13  14
HETATM   14  C7  UNL     1       2.689   0.433   0.332  1.00  0.00     0.011 C 
BRANCH  14  15
HETATM   15  C8  UNL     1       3.310   0.603   1.697  1.00  0.00     0.009 C 
HETATM   16  C9  UNL     1       3.107  -0.620   2.602  1.00  0.00     0.009 C 
HETATM   17  C10 UNL     1       4.476  -0.305   3.166  1.00  0.00     0.026 C 
HETATM   18  C11 UNL     1       4.792   0.312   1.789  1.00  0.00     0.088 C 
BRANCH  18  19
HETATM   19  N2  UNL     1       5.296  -0.751   0.951  1.00  0.00    -0.356 N 
HETATM   20  C12 UNL     1       6.589  -0.683   0.381  1.00  0.00     0.217 C 
HETATM   21  O2  UNL     1       7.285   0.348   0.634  1.00  0.00    -0.274 OA
ATOM     22  H2  UNL     1       4.709  -1.565   0.767  1.00  0.00     0.162 HD
BRANCH  20  23
HETATM   23  C13 UNL     1       7.193  -1.704  -0.476  1.00  0.00     0.104 C 
BRANCH  23  24
HETATM   24  C14 UNL     1       8.606  -1.334  -0.892  1.00  0.00     0.036 C 
BRANCH  24  25
HETATM   25  C15 UNL     1       9.217  -2.397  -1.770  1.00  0.00     0.230 C 
BRANCH  25  26
HETATM   26  N3  UNL     1       8.373  -2.519  -2.945  1.00  0.00    -0.079 N 
ATOM     27  H33 UNL     1       7.395  -2.701  -2.718  1.00  0.00     0.274 HD
ATOM     28  H32 UNL     1       8.232  -1.633  -3.430  1.00  0.00     0.274 HD
ATOM     29  H31 UNL     1       8.786  -3.238  -3.539  1.00  0.00     0.274 HD
ENDBRANCH  25  26
ENDBRANCH  24  25
ENDBRANCH  23  24
ENDBRANCH  20  23
ENDBRANCH  18  19
ENDBRANCH  14  15
ENDBRANCH  13  14
ENDBRANCH   1  13
BRANCH   1  30
HETATM   30  C16 UNL     1      -0.744   0.857   1.991  1.00  0.00     0.309 C 
BRANCH  30  31
HETATM   31  N4  UNL     1      -2.087   0.730   1.470  1.00  0.00     0.088 N 
HETATM   32  C17 UNL     1      -2.861   0.464   2.714  1.00  0.00     0.310 C 
BRANCH  31  33
HETATM   33  C18 UNL     1      -2.186  -0.331   0.565  1.00  0.00     0.283 C 
BRANCH  33  34
HETATM   34  C19 UNL     1      -3.414  -0.585  -0.253  1.00  0.00     0.002 C 
HETATM   35  C26 UNL     1      -3.115  -1.910  -0.975  1.00  0.00     0.013 C 
HETATM   36  C27 UNL     1      -2.030  -1.789  -2.018  1.00  0.00     0.001 C 
HETATM   37  C28 UNL     1      -2.587  -0.838  -3.063  1.00  0.00     0.000 C 
HETATM   38  C29 UNL     1      -2.689   0.507  -2.396  1.00  0.00     0.001 C 
HETATM   39  C30 UNL     1      -3.676   0.504  -1.252  1.00  0.00     0.013 C 
BRANCH  34  40
HETATM   40  C20 UNL     1      -4.607  -0.835   0.588  1.00  0.00     0.137 C 
BRANCH  40  41
HETATM   41  N5  UNL     1      -5.861  -1.104  -0.063  1.00  0.00    -0.351 N 
HETATM   42  C21 UNL     1      -6.330  -2.446  -0.445  1.00  0.00     0.126 C 
HETATM   43  C22 UNL     1      -7.806  -2.450  -0.051  1.00  0.00     0.020 C 
HETATM   44  C23 UNL     1      -8.561  -1.650  -1.074  1.00  0.00     0.011 C 
HETATM   45  C24 UNL     1      -7.879  -0.341  -1.341  1.00  0.00     0.103 C 
HETATM   46  C25 UNL     1      -6.791  -0.074  -0.373  1.00  0.00     0.219 C 
HETATM   47  O3  UNL     1      -6.711   1.051   0.153  1.00  0.00    -0.273 OA
ENDBRANCH  40  41
ENDBRANCH  34  40
ENDBRANCH  33  34
ENDBRANCH  31  33
ENDBRANCH  30  31
ENDBRANCH   1  30
TORSDOF 17
