REMARK  17 active torsions:
REMARK  status: ('A' for Active; 'I' for Inactive)
REMARK    1  A    between atoms: C2_2  and  O1_3 
REMARK    2  A    between atoms: O1_3  and  N1_4 
REMARK    3  A    between atoms: N1_4  and  C3_5 
REMARK    4  A    between atoms: N1_4  and  C4_7 
REMARK    5  A    between atoms: C4_7  and  C5_8 
REMARK    6  A    between atoms: C4_7  and  C9_16 
REMARK    7  A    between atoms: C5_8  and  C6_9 
REMARK    8  A    between atoms: C6_9  and  C7_10 
REMARK    9  A    between atoms: C7_10  and  N2_11 
REMARK   10  A    between atoms: C17_24  and  C18_25 
REMARK   11  A    between atoms: C18_25  and  C19_26 
REMARK   12  A    between atoms: C20_27  and  C21_28 
REMARK   13  A    between atoms: C21_28  and  O3_29 
REMARK   14  A    between atoms: O3_29  and  C22_30 
REMARK   15  A    between atoms: C22_30  and  C23_31 
REMARK   16  A    between atoms: C23_31  and  N5_32 
REMARK   17  A    between atoms: C30_42  and  O5_43 
ROOT
HETATM    1  C9  UNL     1      -3.561   0.086   0.540  1.00  0.00    -0.004 C 
HETATM    2  C10 UNL     1      -3.290   1.534   0.483  1.00  0.00     0.041 C 
HETATM    3  C11 UNL     1      -2.589   2.102  -0.683  1.00  0.00     0.004 C 
HETATM    4  C12 UNL     1      -1.844   3.367  -0.466  1.00  0.00     0.000 C 
HETATM    5  C13 UNL     1      -1.169   3.605   0.830  1.00  0.00     0.000 C 
HETATM    6  C14 UNL     1       0.229   3.002   0.938  1.00  0.00     0.004 C 
HETATM    7  C15 UNL     1       0.308   2.051   2.099  1.00  0.00     0.027 C 
HETATM    8  C16 UNL     1       1.541   1.341   2.345  1.00  0.00    -0.024 C 
HETATM    9  C17 UNL     1       1.923   0.096   1.654  1.00  0.00    -0.079 C 
HETATM   10  C28 UNL     1       0.933  -0.978   1.507  1.00  0.00     0.053 C 
HETATM   11  C29 UNL     1      -0.122  -0.845   0.450  1.00  0.00     0.126 C 
HETATM   12  N6  UNL     1      -1.407  -1.370   0.855  1.00  0.00    -0.370 N 
ATOM     13  H6  UNL     1      -1.461  -2.388   0.838  1.00  0.00     0.161 HD
HETATM   14  C30 UNL     1      -2.576  -0.756   1.261  1.00  0.00     0.140 C 
ENDROOT
BRANCH   1  15
HETATM   15  C4  UNL     1      -4.154  -0.549  -0.691  1.00  0.00     0.150 C 
BRANCH  15  16
HETATM   16  N1  UNL     1      -4.346  -1.984  -0.417  1.00  0.00    -0.224 N 
BRANCH  16  17
HETATM   17  O1  UNL     1      -4.910  -2.335   0.746  1.00  0.00    -0.276 OA
BRANCH  17  18
HETATM   18  C2  UNL     1      -5.892  -3.281   0.702  1.00  0.00     0.197 C 
HETATM   19  C1  UNL     1      -6.443  -3.587   2.092  1.00  0.00     0.036 C 
ENDBRANCH  17  18
ENDBRANCH  16  17
BRANCH  16  20
HETATM   20  C3  UNL     1      -3.925  -2.995  -1.313  1.00  0.00     0.377 C 
HETATM   21  O2  UNL     1      -3.387  -2.741  -2.425  1.00  0.00    -0.281 OA
ENDBRANCH  16  20
ENDBRANCH  15  16
BRANCH  15  22
HETATM   22  C5  UNL     1      -5.556   0.014  -0.917  1.00  0.00     0.034 C 
BRANCH  22  23
HETATM   23  C6  UNL     1      -6.289  -0.587  -2.059  1.00  0.00     0.022 C 
BRANCH  23  24
HETATM   24  C7  UNL     1      -7.681   0.037  -2.201  1.00  0.00     0.122 C 
BRANCH  24  25
HETATM   25  N2  UNL     1      -8.435  -0.187  -1.000  1.00  0.00    -0.367 N 
HETATM   26  C8  UNL     1      -8.744   0.754  -0.181  1.00  0.00     0.196 C 
HETATM   27  N3  UNL     1      -9.489   0.434   0.976  1.00  0.00    -0.067 NA
HETATM   28  N4  UNL     1      -8.359   2.097  -0.403  1.00  0.00    -0.067 NA
ATOM     29  H2  UNL     1      -8.740  -1.137  -0.787  1.00  0.00     0.161 HD
ENDBRANCH  24  25
ENDBRANCH  23  24
ENDBRANCH  22  23
ENDBRANCH  15  22
ENDBRANCH   1  15
BRANCH  14  30
HETATM   30  O5  UNL     1      -2.840  -0.976   2.531  1.00  0.00    -0.346 OA
ATOM     31  H5  UNL     1      -2.209  -1.515   2.993  1.00  0.00     0.219 HD
ENDBRANCH  14  30
BRANCH   9  32
HETATM   32  C18 UNL     1       2.768   0.448   0.466  1.00  0.00     0.060 C 
BRANCH  32  33
HETATM   33  C19 UNL     1       3.287  -0.707  -0.308  1.00  0.00    -0.024 C 
HETATM   34  C20 UNL     1       4.580  -0.970  -0.485  1.00  0.00    -0.005 C 
BRANCH  34  35
HETATM   35  C21 UNL     1       5.711  -0.195   0.033  1.00  0.00     0.194 C 
BRANCH  35  36
HETATM   36  O3  UNL     1       6.545  -0.957   0.884  1.00  0.00    -0.386 OA
BRANCH  36  37
HETATM   37  C22 UNL     1       7.163  -2.005   0.276  1.00  0.00     0.198 C 
BRANCH  37  38
HETATM   38  C23 UNL     1       8.179  -1.598  -0.732  1.00  0.00     0.298 C 
BRANCH  38  39
HETATM   39  N5  UNL     1       9.295  -0.893  -0.255  1.00  0.00     0.094 N 
HETATM   40  C24 UNL     1       9.197   0.409   0.265  1.00  0.00     0.298 C 
HETATM   41  C25 UNL     1       9.130   1.519  -0.771  1.00  0.00     0.198 C 
HETATM   42  O4  UNL     1       9.703   1.166  -1.971  1.00  0.00    -0.388 OA
HETATM   43  C26 UNL     1      10.807   0.358  -1.721  1.00  0.00     0.198 C 
HETATM   44  C27 UNL     1      10.408  -1.006  -1.187  1.00  0.00     0.298 C 
ENDBRANCH  38  39
ENDBRANCH  37  38
ENDBRANCH  36  37
ENDBRANCH  35  36
ENDBRANCH  34  35
ENDBRANCH  32  33
ENDBRANCH   9  32
TORSDOF 17
