REMARK  3 active torsions:
REMARK  status: ('A' for Active; 'I' for Inactive)
REMARK       I    between atoms: C1_4  and  N2_5 
REMARK       I    between atoms: C1_4  and  N3_11 
REMARK    1  A    between atoms: C9_15  and  C10_16 
REMARK       I    between atoms: C10_16  and  N4_18 
REMARK    2  A    between atoms: N4_18  and  C11_20 
REMARK    3  A    between atoms: C11_20  and  C12_21 
ROOT
HETATM    1  N1  UNL     1      -0.920  -1.310   1.934  1.00  0.00    -0.235 N 
ATOM      2  H11 UNL     1      -0.166  -1.965   2.143  1.00  0.00     0.174 HD
ATOM      3  H12 UNL     1      -1.555  -1.047   2.688  1.00  0.00     0.174 HD
HETATM    4  C1  UNL     1      -1.047  -0.838   0.754  1.00  0.00     0.672 C 
HETATM    5  N2  UNL     1      -2.088   0.066   0.466  1.00  0.00    -0.214 N 
HETATM    6  C2  UNL     1      -1.863   1.162  -0.491  1.00  0.00     0.167 C 
HETATM    7  C3  UNL     1      -3.239   1.553  -0.991  1.00  0.00     0.188 C 
HETATM    8  O1  UNL     1      -4.006   2.132   0.013  1.00  0.00    -0.388 OA
HETATM    9  C4  UNL     1      -3.925   1.445   1.210  1.00  0.00     0.188 C 
HETATM   10  C5  UNL     1      -3.416   0.031   1.032  1.00  0.00     0.167 C 
HETATM   11  N3  UNL     1      -0.166  -1.203  -0.292  1.00  0.00    -0.205 N 
HETATM   12  C6  UNL     1      -0.474  -2.320  -1.200  1.00  0.00     0.142 C 
HETATM   13  C7  UNL     1       0.874  -2.851  -1.624  1.00  0.00     0.023 C 
HETATM   14  C8  UNL     1       1.897  -1.995  -0.904  1.00  0.00     0.037 C 
HETATM   15  C9  UNL     1       1.098  -0.693  -0.740  1.00  0.00     0.194 C 
ENDROOT
BRANCH  15  16
HETATM   16  C10 UNL     1       1.765   0.248   0.149  1.00  0.00     0.241 C 
HETATM   17  O2  UNL     1       1.277   0.589   1.244  1.00  0.00    -0.271 OA
HETATM   18  N4  UNL     1       3.015   0.816  -0.213  1.00  0.00    -0.359 N 
ATOM     19  H4  UNL     1       3.412   0.538  -1.111  1.00  0.00     0.162 HD
BRANCH  18  20
HETATM   20  C11 UNL     1       3.764   1.744   0.573  1.00  0.00     0.133 C 
BRANCH  20  21
HETATM   21  C12 UNL     1       4.173   1.213   1.914  1.00  0.00     0.104 C 
HETATM   22 BR1  UNL     1       5.183   2.627   2.811  1.00  0.00    -0.095 Br
ENDBRANCH  20  21
ENDBRANCH  18  20
ENDBRANCH  15  16
TORSDOF 3
