REMARK  3 active torsions:
REMARK  status: ('A' for Active; 'I' for Inactive)
REMARK       I    between atoms: C1_2  and  N3_7 
REMARK    1  A    between atoms: N2_3  and  C2_5 
REMARK    2  A    between atoms: N3_7  and  C3_9 
REMARK    3  A    between atoms: C3_9  and  C4_10 
ROOT
HETATM    1  C4  UNL     1       0.270  -0.294   0.204  1.00  0.00     0.075 C 
HETATM    2 BR2  UNL     1       1.100   1.335   0.726  1.00  0.00    -0.081 Br
HETATM    3  C5  UNL     1      -0.084  -0.324  -1.277  1.00  0.00     0.168 C 
HETATM    4  N4  UNL     1      -1.377  -1.033  -1.252  1.00  0.00    -0.034 NA
HETATM    5  N5  UNL     1      -2.064  -0.305  -0.236  1.00  0.00     0.068 N 
HETATM    6  C6  UNL     1      -3.271  -1.013   0.096  1.00  0.00     0.230 C 
HETATM    7  C7  UNL     1      -4.284  -0.354   0.624  1.00  0.00     0.020 C 
HETATM    8  C8  UNL     1      -4.150   1.099   0.860  1.00  0.00     0.149 C 
HETATM    9  N6  UNL     1      -3.499   1.660  -0.288  1.00  0.00    -0.375 N 
ATOM     10  H6  UNL     1      -3.865   2.484  -0.765  1.00  0.00     0.160 HD
HETATM   11  C9  UNL     1      -2.314   1.003  -0.725  1.00  0.00     0.318 C 
HETATM   12  C10 UNL     1      -1.106  -0.404   0.830  1.00  0.00     0.297 C 
ENDROOT
BRANCH   1  13
HETATM   13  C3  UNL     1       1.147  -1.450   0.506  1.00  0.00     0.146 C 
BRANCH  13  14
HETATM   14  N3  UNL     1       2.390  -1.353  -0.213  1.00  0.00    -0.363 N 
HETATM   15  C1  UNL     1       3.425  -0.424   0.010  1.00  0.00     0.184 C 
HETATM   16  N1  UNL     1       4.086  -0.404   1.265  1.00  0.00    -0.064 NA
HETATM   17  N2  UNL     1       3.822   0.413  -0.888  1.00  0.00    -0.355 N 
ATOM     18  H2  UNL     1       3.355   0.408  -1.795  1.00  0.00     0.162 HD
ATOM     19  H3  UNL     1       2.537  -2.028  -0.963  1.00  0.00     0.162 HD
BRANCH  17  20
HETATM   20  C2  UNL     1       4.886   1.349  -0.675  1.00  0.00     0.207 C 
HETATM   21 BR1  UNL     1       4.975   2.464  -2.271  1.00  0.00    -0.075 Br
ENDBRANCH  17  20
ENDBRANCH  13  14
ENDBRANCH   1  13
TORSDOF 3
