REMARK  5 active torsions:
REMARK  status: ('A' for Active; 'I' for Inactive)
REMARK    1  A    between atoms: C3_3  and  N1_4 
REMARK    2  A    between atoms: N1_4  and  C4_6 
REMARK    3  A    between atoms: C5_9  and  C6_10 
REMARK    4  A    between atoms: C6_10  and  N3_11 
REMARK    5  A    between atoms: C11_21  and  N6_22 
ROOT
HETATM    1  C1  UNL     1       5.040  -0.066   2.226  1.00  0.00     0.014 C 
HETATM    2  C2  UNL     1       4.285  -0.896   1.774  1.00  0.00    -0.097 C 
HETATM    3  C3  UNL     1       3.343  -1.892   1.220  1.00  0.00     0.231 C 
ENDROOT
BRANCH   3   4
HETATM    4  N1  UNL     1       1.984  -1.451   1.346  1.00  0.00    -0.215 N 
ATOM      5  H1  UNL     1       1.418  -1.857   2.091  1.00  0.00     0.178 HD
BRANCH   4   6
HETATM    6  C4  UNL     1       1.438  -0.583   0.586  1.00  0.00     0.694 A 
HETATM    7  N2  UNL     1       0.141  -0.213   0.767  1.00  0.00    -0.178 N 
HETATM    8  C5  UNL     1      -0.452   0.715  -0.042  1.00  0.00     0.135 A 
ATOM      9  H2  UNL     1      -0.399  -0.637   1.521  1.00  0.00     0.185 HD
HETATM   10  N5  UNL     1       0.285   1.244  -1.010  1.00  0.00    -0.174 N 
HETATM   11  C10 UNL     1      -0.214   2.241  -1.891  1.00  0.00     0.177 C 
HETATM   12  C11 UNL     1       1.591   0.876  -1.198  1.00  0.00     0.693 A 
HETATM   13  N7  UNL     1       2.167  -0.036  -0.401  1.00  0.00    -0.022 N 
ATOM     14  H7  UNL     1       3.140  -0.309  -0.542  1.00  0.00     0.203 HD
BRANCH   8  15
HETATM   15  C6  UNL     1      -1.842   1.116   0.191  1.00  0.00     0.227 C 
BRANCH  15  16
HETATM   16  N3  UNL     1      -2.801   0.056   0.192  1.00  0.00    -0.277 N 
HETATM   17  N4  UNL     1      -3.121  -0.663   1.287  1.00  0.00    -0.307 N 
HETATM   18  C7  UNL     1      -4.033  -1.592   1.001  1.00  0.00     0.129 A 
ATOM     19  H4  UNL     1      -2.718  -0.515   2.212  1.00  0.00     0.186 HD
HETATM   20  C8  UNL     1      -4.315  -1.467  -0.334  1.00  0.00     0.063 A 
HETATM   21 BR1  UNL     1      -5.529  -2.477  -1.402  1.00  0.00    -0.046 Br
HETATM   22  C9  UNL     1      -3.526  -0.428  -0.801  1.00  0.00     0.116 A 
HETATM   23 BR2  UNL     1      -3.540   0.173  -2.603  1.00  0.00    -0.028 Br
ENDBRANCH  15  16
ENDBRANCH   8  15
BRANCH  12  24
HETATM   24  N6  UNL     1       2.284   1.404  -2.146  1.00  0.00    -0.234 N 
ATOM     25  H62 UNL     1       1.846   2.098  -2.752  1.00  0.00     0.174 HD
ATOM     26  H61 UNL     1       3.256   1.130  -2.286  1.00  0.00     0.174 HD
ENDBRANCH  12  24
ENDBRANCH   4   6
ENDBRANCH   3   4
TORSDOF 5
