REMARK  2 active torsions:
REMARK  status: ('A' for Active; 'I' for Inactive)
REMARK    1  A    between atoms: N1_2  and  C3_4 
REMARK       I    between atoms: N1_2  and  C8_13 
REMARK    2  A    between atoms: C3_4  and  C4_5 
REMARK       I    between atoms: C8_13  and  N3_15 
ROOT
HETATM    1  C1  UNL     1      -0.599  -1.674   0.932  1.00  0.00     0.285 C 
HETATM    2  N1  UNL     1      -0.362  -1.033  -0.339  1.00  0.00     0.010 N 
HETATM    3  C2  UNL     1      -1.074  -1.758  -1.364  1.00  0.00     0.285 C 
HETATM    4  C8  UNL     1       1.038  -1.094  -0.690  1.00  0.00     0.421 C 
HETATM    5  O1  UNL     1       1.318  -1.079  -1.903  1.00  0.00    -0.239 OA
HETATM    6  N3  UNL     1       2.017  -1.164   0.329  1.00  0.00    -0.272 N 
ATOM      7  H3  UNL     1       2.021  -1.935   0.997  1.00  0.00     0.173 HD
HETATM    8  C9  UNL     1       2.903  -0.232   0.394  1.00  0.00     0.213 C 
HETATM    9  N4  UNL     1       3.960  -0.133   1.343  1.00  0.00    -0.256 N 
ATOM     10  H4  UNL     1       4.006  -0.567   2.265  1.00  0.00     0.187 HD
HETATM   11  N5  UNL     1       4.925   0.688   0.742  1.00  0.00    -0.006 NA
HETATM   12  N6  UNL     1       4.219   1.561  -0.087  1.00  0.00    -0.006 NA
HETATM   13  N7  UNL     1       3.048   0.914  -0.453  1.00  0.00    -0.256 N 
ATOM     14  H7  UNL     1       2.406   1.202  -1.192  1.00  0.00     0.187 HD
ENDROOT
BRANCH   2  15
HETATM   15  C3  UNL     1      -0.679   0.368  -0.322  1.00  0.00     0.290 C 
BRANCH  15  16
HETATM   16  C4  UNL     1      -2.078   0.705  -0.038  1.00  0.00     0.004 A 
HETATM   17  C5  UNL     1      -3.127  -0.133   0.212  1.00  0.00     0.099 A 
HETATM   18  N2  UNL     1      -4.204   0.664   0.412  1.00  0.00    -0.358 N 
HETATM   19  C6  UNL     1      -3.889   1.960   0.300  1.00  0.00     0.097 A 
ATOM     20  H2  UNL     1      -5.140   0.319   0.622  1.00  0.00     0.166 HD
HETATM   21 BR1  UNL     1      -5.086   3.459   0.500  1.00  0.00    -0.030 Br
HETATM   22  C7  UNL     1      -2.543   2.010   0.014  1.00  0.00     0.054 A 
HETATM   23 BR2  UNL     1      -1.571   3.630  -0.248  1.00  0.00    -0.047 Br
ENDBRANCH  15  16
ENDBRANCH   2  15
TORSDOF 2
