REMARK  12 active torsions:
REMARK  status: ('A' for Active; 'I' for Inactive)
REMARK    1  A    between atoms: N1_1  and  C1_4 
REMARK    2  A    between atoms: C2_7  and  O1_8 
REMARK    3  A    between atoms: C3_10  and  C4_11 
REMARK    4  A    between atoms: C4_11  and  C5_12 
REMARK    5  A    between atoms: C7_17  and  N5_18 
REMARK    6  A    between atoms: N5_18  and  C8_20 
REMARK    7  A    between atoms: C8_20  and  S1_21 
REMARK    8  A    between atoms: S1_21  and  C9_22 
REMARK    9  A    between atoms: C9_22  and  C10_23 
REMARK   10  A    between atoms: C10_23  and  N6_24 
REMARK   11  A    between atoms: C10_23  and  C11_28 
REMARK   12  A    between atoms: C13_38  and  N10_39 
ROOT
HETATM    1  C5  UNL     1      -2.318   0.430   0.446  1.00  0.00     0.030 A 
HETATM    2  C6  UNL     1      -2.223  -0.887   0.068  1.00  0.00     0.123 A 
HETATM    3  N3  UNL     1      -0.933  -1.231   0.144  1.00  0.00    -0.288 N 
ATOM      4  H3  UNL     1      -0.560  -2.154  -0.079  1.00  0.00     0.187 HD
HETATM    5  N4  UNL     1      -0.213  -0.203   0.550  1.00  0.00    -0.067 N 
HETATM    6  C7  UNL     1       1.128  -0.090   0.769  1.00  0.00     0.717 A 
HETATM    7  N7  UNL     1       1.566   1.098   1.183  1.00  0.00    -0.116 N 
ATOM      8  H7  UNL     1       2.565   1.210   1.354  1.00  0.00     0.207 HD
HETATM    9  N8  UNL     1       0.788   2.126   1.382  1.00  0.00    -0.227 N 
ATOM     10  H8  UNL     1       1.183   3.010   1.701  1.00  0.00     0.209 HD
HETATM   11  N9  UNL     1      -0.512   2.022   1.170  1.00  0.00    -0.268 N 
ATOM     12  H9  UNL     1      -1.123   2.824   1.323  1.00  0.00     0.190 HD
HETATM   13  C12 UNL     1      -1.032   0.832   0.744  1.00  0.00     0.172 A 
ENDROOT
BRANCH   1  14
HETATM   14  C4  UNL     1      -3.395   1.198   0.525  1.00  0.00     0.036 C 
BRANCH  14  15
HETATM   15  C3  UNL     1      -4.719   0.703   0.194  1.00  0.00     0.060 A 
HETATM   16  C2  UNL     1      -5.071   0.321  -1.092  1.00  0.00     0.169 A 
HETATM   17  N2  UNL     1      -6.308  -0.134  -1.362  1.00  0.00    -0.170 N 
HETATM   18  C1  UNL     1      -7.256  -0.235  -0.386  1.00  0.00     0.679 A 
ATOM     19  H2  UNL     1      -6.542  -0.409  -2.316  1.00  0.00     0.186 HD
HETATM   20  N11 UNL     1      -6.938   0.130   0.869  1.00  0.00    -0.176 N 
HETATM   21  C13 UNL     1      -5.704   0.586   1.153  1.00  0.00     0.129 A 
ATOM     22  H11 UNL     1      -7.636   0.061   1.610  1.00  0.00     0.186 HD
BRANCH  16  23
HETATM   23  O1  UNL     1      -4.129   0.410  -2.115  1.00  0.00    -0.345 OA
ATOM     24  H1  UNL     1      -3.256   0.731  -1.924  1.00  0.00     0.219 HD
ENDBRANCH  16  23
BRANCH  18  25
HETATM   25  N1  UNL     1      -8.446  -0.668  -0.627  1.00  0.00    -0.234 N 
ATOM     26  H12 UNL     1      -8.687  -0.945  -1.579  1.00  0.00     0.174 HD
ATOM     27  H11 UNL     1      -9.155  -0.744   0.103  1.00  0.00     0.174 HD
ENDBRANCH  18  25
BRANCH  21  28
HETATM   28  N10 UNL     1      -5.446   0.923   2.372  1.00  0.00    -0.384 N 
ATOM     29 2H10 UNL     1      -4.511   1.269   2.587  1.00  0.00     0.157 HD
ATOM     30 1H10 UNL     1      -6.174   0.837   3.081  1.00  0.00     0.157 HD
ENDBRANCH  21  28
ENDBRANCH  14  15
ENDBRANCH   1  14
BRANCH   6  31
HETATM   31  N5  UNL     1       1.862  -1.116   0.566  1.00  0.00    -0.214 N 
ATOM     32  H5  UNL     1       1.420  -1.979   0.248  1.00  0.00     0.178 HD
BRANCH  31  33
HETATM   33  C8  UNL     1       3.290  -1.103   0.768  1.00  0.00     0.212 C 
BRANCH  33  34
HETATM   34  S1  UNL     1       3.972   0.444   0.160  1.00  0.00    -0.146 SA
BRANCH  34  35
HETATM   35  C9  UNL     1       5.748   0.533   0.374  1.00  0.00     0.119 C 
BRANCH  35  36
HETATM   36  C10 UNL     1       6.475  -0.496  -0.494  1.00  0.00     0.292 C 
BRANCH  36  37
HETATM   37  N6  UNL     1       6.131  -0.200  -1.873  1.00  0.00    -0.065 N 
ATOM     38  H63 UNL     1       5.125  -0.173  -2.039  1.00  0.00     0.275 HD
ATOM     39  H62 UNL     1       6.332   0.764  -2.139  1.00  0.00     0.275 HD
ATOM     40  H61 UNL     1       6.616  -0.886  -2.452  1.00  0.00     0.275 HD
ENDBRANCH  36  37
BRANCH  36  41
HETATM   41  C11 UNL     1       7.935  -0.435  -0.272  1.00  0.00     0.205 C 
HETATM   42  O2  UNL     1       8.391  -0.667   0.871  1.00  0.00    -0.646 OA
HETATM   43  O3  UNL     1       8.811  -0.128  -1.298  1.00  0.00    -0.646 OA
ENDBRANCH  36  41
ENDBRANCH  35  36
ENDBRANCH  34  35
ENDBRANCH  33  34
ENDBRANCH  31  33
ENDBRANCH   6  31
TORSDOF 12
