REMARK  4 active torsions:
REMARK  status: ('A' for Active; 'I' for Inactive)
REMARK    1  A    between atoms: N1_1  and  C1_4 
REMARK    2  A    between atoms: C2_7  and  N3_8 
REMARK    3  A    between atoms: N3_8  and  N4_10 
REMARK    4  A    between atoms: C3_17  and  C4_18 
ROOT
HETATM    1  C1  UNL     1      -0.321  -1.229   0.864  1.00  0.00     0.148 A 
HETATM    2  N2  UNL     1       1.001  -0.996   0.847  1.00  0.00    -0.172 N 
ATOM      3  H2  UNL     1       1.624  -1.672   1.289  1.00  0.00     0.186 HD
HETATM    4  C2  UNL     1       1.534   0.092   0.271  1.00  0.00     0.712 A 
HETATM    5  N5  UNL     1       0.746   0.998  -0.318  1.00  0.00    -0.130 N 
ATOM      6  H5  UNL     1       1.140   1.829  -0.760  1.00  0.00     0.205 HD
HETATM    7  N6  UNL     1      -0.565   0.784  -0.311  1.00  0.00    -0.278 N 
ATOM      8  H6  UNL     1      -1.174   1.469  -0.758  1.00  0.00     0.188 HD
HETATM    9  C3  UNL     1      -1.119  -0.290   0.256  1.00  0.00     0.158 A 
ENDROOT
BRANCH   4  10
HETATM   10  N3  UNL     1       2.811   0.288   0.271  1.00  0.00    -0.137 N 
ATOM     11  H3  UNL     1       3.427  -0.393   0.715  1.00  0.00     0.205 HD
BRANCH  10  12
HETATM   12  N4  UNL     1       3.349   1.414  -0.327  1.00  0.00    -0.331 N 
ATOM     13  H42 UNL     1       2.719   2.085  -0.767  1.00  0.00     0.177 HD
ATOM     14  H41 UNL     1       4.357   1.569  -0.327  1.00  0.00     0.177 HD
ENDBRANCH  10  12
ENDBRANCH   4  10
BRANCH   1  15
HETATM   15  N1  UNL     1      -0.823  -2.295   1.431  1.00  0.00    -0.383 N 
ATOM     16  H12 UNL     1      -0.231  -2.992   1.882  1.00  0.00     0.157 HD
ATOM     17  H11 UNL     1      -1.827  -2.472   1.444  1.00  0.00     0.157 HD
ENDBRANCH   1  15
BRANCH   9  18
HETATM   18  C4  UNL     1      -2.546  -0.470   0.233  1.00  0.00     0.286 C 
HETATM   19  N7  UNL     1      -3.382   0.489  -0.390  1.00  0.00    -0.056 NA
HETATM   20  O1  UNL     1      -3.049  -1.481   0.768  1.00  0.00    -0.269 OA
ENDBRANCH   9  18
TORSDOF 4
