REMARK  15 active torsions:
REMARK  status: ('A' for Active; 'I' for Inactive)
REMARK    1  A    between atoms: O1_2  and  C2_3 
REMARK    2  A    between atoms: C2_3  and  O2_4 
REMARK    3  A    between atoms: C2_3  and  C3_6 
REMARK    4  A    between atoms: C4_8  and  C5_9 
REMARK    5  A    between atoms: C5_9  and  O3_10 
REMARK    6  A    between atoms: C5_9  and  N1_12 
REMARK    7  A    between atoms: N1_12  and  C6_14 
REMARK    8  A    between atoms: C6_14  and  N2_15 
REMARK    9  A    between atoms: C6_14  and  C14_33 
REMARK       I    between atoms: N2_15  and  C7_17 
REMARK   10  A    between atoms: C7_17  and  C8_19 
REMARK   11  A    between atoms: C11_24  and  N3_25 
REMARK   12  A    between atoms: C12_28  and  O9_29 
REMARK   13  A    between atoms: C14_33  and  O11_34 
REMARK   14  A    between atoms: C14_33  and  C15_36 
REMARK   15  A    between atoms: C17_40  and  N4_41 
REMARK       I    between atoms: N4_41  and  C18_43 
ROOT
HETATM    1  C6  UNL     1      -1.011  -1.619   0.495  1.00  0.00     0.222 C 
ENDROOT
BRANCH   1   2
HETATM    2  N1  UNL     1       0.219  -0.904   0.500  1.00  0.00    -0.369 N 
ATOM      3  H1  UNL     1       0.671  -0.638   1.375  1.00  0.00     0.158 HD
BRANCH   2   4
HETATM    4  C5  UNL     1       0.795  -0.574  -0.752  1.00  0.00     0.256 C 
BRANCH   4   5
HETATM    5  C4  UNL     1       2.078   0.179  -0.444  1.00  0.00     0.033 A 
HETATM    6  S1  UNL     1       2.297   1.791   0.005  1.00  0.00    -0.083 SA
HETATM    7  C3  UNL     1       4.021   1.814   0.153  1.00  0.00     0.090 A 
HETATM    8  C17 UNL     1       4.374   0.528  -0.162  1.00  0.00     0.058 A 
HETATM    9  C16 UNL     1       3.352  -0.317  -0.472  1.00  0.00     0.050 A 
BRANCH   7  10
HETATM   10  C2  UNL     1       4.817   2.976   0.529  1.00  0.00     0.197 C 
BRANCH  10  11
HETATM   11  O1  UNL     1       6.173   2.976   0.638  1.00  0.00    -0.335 OA
HETATM   12  C1  UNL     1       6.847   4.168   1.012  1.00  0.00     0.212 C 
ENDBRANCH  10  11
BRANCH  10  13
HETATM   13  O2  UNL     1       4.153   4.069   0.767  1.00  0.00    -0.340 OA
ATOM     14  H2  UNL     1       3.206   4.069   0.691  1.00  0.00     0.220 HD
ENDBRANCH  10  13
ENDBRANCH   7  10
BRANCH   8  15
HETATM   15  N4  UNL     1       5.767   0.109  -0.157  1.00  0.00    -0.326 N 
HETATM   16  C18 UNL     1       6.277  -1.148  -0.462  1.00  0.00     0.218 C 
HETATM   17  C19 UNL     1       7.763  -1.355  -0.390  1.00  0.00     0.117 C 
HETATM   18  O14 UNL     1       5.600  -2.122  -0.792  1.00  0.00    -0.274 OA
ATOM     19  H4  UNL     1       6.450   0.821   0.101  1.00  0.00     0.169 HD
ENDBRANCH   8  15
ENDBRANCH   4   5
BRANCH   4  20
HETATM   20  O3  UNL     1       0.026   0.245  -1.569  1.00  0.00    -0.372 OA
ATOM     21  H3  UNL     1      -0.776  -0.226  -1.762  1.00  0.00     0.212 HD
ENDBRANCH   4  20
ENDBRANCH   2   4
ENDBRANCH   1   2
BRANCH   1  22
HETATM   22  N2  UNL     1      -2.153  -0.883   0.016  1.00  0.00    -0.333 N 
HETATM   23  C7  UNL     1      -3.252  -0.523   0.845  1.00  0.00     0.259 C 
HETATM   24  O4  UNL     1      -3.190  -0.882   2.057  1.00  0.00    -0.267 OA
ATOM     25  H2  UNL     1      -2.175  -0.606  -0.966  1.00  0.00     0.165 HD
BRANCH  23  26
HETATM   26  C8  UNL     1      -4.391   0.205   0.386  1.00  0.00     0.107 C 
HETATM   27  C9  UNL     1      -4.212   1.186  -0.572  1.00  0.00     0.167 C 
HETATM   28  O5  UNL     1      -5.100   1.890  -1.222  1.00  0.00    -0.285 OA
HETATM   29  C10 UNL     1      -6.347   2.124  -0.937  1.00  0.00     0.324 C 
HETATM   30  O6  UNL     1      -6.996   2.827  -1.761  1.00  0.00    -0.257 OA
HETATM   31  C11 UNL     1      -7.084   1.708   0.161  1.00  0.00     0.215 C 
HETATM   32  C12 UNL     1      -6.792   0.601   0.940  1.00  0.00     0.157 C 
HETATM   33  C13 UNL     1      -5.611  -0.142   0.953  1.00  0.00     0.225 C 
HETATM   34  O10 UNL     1      -5.647  -1.255   1.546  1.00  0.00    -0.284 OA
BRANCH  31  35
HETATM   35  N3  UNL     1      -8.220   2.471   0.515  1.00  0.00    -0.106 N 
HETATM   36  O7  UNL     1      -8.517   3.468  -0.158  1.00  0.00    -0.531 OA
HETATM   37  O8  UNL     1      -8.999   2.133   1.582  1.00  0.00    -0.531 OA
ENDBRANCH  31  35
BRANCH  32  38
HETATM   38  O9  UNL     1      -7.783   0.192   1.796  1.00  0.00    -0.355 OA
ATOM     39  H9  UNL     1      -7.583  -0.567   2.330  1.00  0.00     0.218 HD
ENDBRANCH  32  38
ENDBRANCH  23  26
ENDBRANCH   1  22
BRANCH   1  40
HETATM   40  C14 UNL     1      -0.902  -2.988  -0.146  1.00  0.00     0.260 C 
BRANCH  40  41
HETATM   41  O11 UNL     1       0.019  -3.789   0.526  1.00  0.00    -0.381 OA
ATOM     42  H11 UNL     1       0.087  -4.647   0.124  1.00  0.00     0.210 HD
ENDBRANCH  40  41
BRANCH  40  43
HETATM   43  C15 UNL     1      -2.194  -3.692  -0.183  1.00  0.00     0.206 C 
HETATM   44  O12 UNL     1      -3.187  -3.183  -0.742  1.00  0.00    -0.646 OA
HETATM   45  O13 UNL     1      -2.331  -4.932   0.402  1.00  0.00    -0.646 OA
ENDBRANCH  40  43
ENDBRANCH   1  40
TORSDOF 15
