REMARK  11 active torsions:
REMARK  status: ('A' for Active; 'I' for Inactive)
REMARK       I    between atoms: N1_2  and  C2_4 
REMARK    1  A    between atoms: C2_4  and  C3_6 
REMARK    2  A    between atoms: C3_6  and  C4_7 
REMARK    3  A    between atoms: C4_7  and  C5_8 
REMARK       I    between atoms: C5_8  and  N2_10 
REMARK    4  A    between atoms: N2_10  and  C6_12 
REMARK    5  A    between atoms: C6_12  and  C7_13 
REMARK    6  A    between atoms: C6_12  and  C14_20 
REMARK    7  A    between atoms: C7_13  and  C8_14 
REMARK    8  A    between atoms: C14_20  and  C15_21 
REMARK    9  A    between atoms: C14_20  and  N3_25 
REMARK   10  A    between atoms: C15_21  and  C16_22 
REMARK       I    between atoms: N3_25  and  C19_26 
REMARK   11  A    between atoms: C19_26  and  C20_28 
ROOT
HETATM    1  C6  UNL     1      -1.462  -0.172   0.386  1.00  0.00     0.049 C 
ENDROOT
BRANCH   1   2
HETATM    2  N2  UNL     1      -0.437  -0.211   1.323  1.00  0.00    -0.328 N 
HETATM    3  C5  UNL     1      -0.659  -0.586   2.717  1.00  0.00     0.222 C 
HETATM    4  O2  UNL     1      -1.875  -0.915   2.995  1.00  0.00    -0.273 OA
ATOM      5  H2  UNL     1       0.508   0.032   1.026  1.00  0.00     0.168 HD
BRANCH   3   6
HETATM    6  C4  UNL     1       0.307  -0.610   3.789  1.00  0.00     0.112 C 
BRANCH   6   7
HETATM    7  C3  UNL     1       1.714  -0.202   3.472  1.00  0.00     0.112 C 
BRANCH   7   8
HETATM    8  C2  UNL     1       2.366  -1.137   2.531  1.00  0.00     0.217 C 
HETATM    9  N1  UNL     1       3.541  -0.845   1.796  1.00  0.00    -0.365 N 
HETATM   10  C1  UNL     1       4.110  -1.792   0.886  1.00  0.00     0.149 C 
ATOM     11  H1  UNL     1       3.992   0.062   1.918  1.00  0.00     0.161 HD
HETATM   12  O1  UNL     1       1.819  -2.260   2.392  1.00  0.00    -0.274 OA
ENDBRANCH   7   8
ENDBRANCH   6   7
ENDBRANCH   3   6
ENDBRANCH   1   2
BRANCH   1  13
HETATM   13  C7  UNL     1      -1.869   1.249  -0.038  1.00  0.00     0.065 C 
BRANCH  13  14
HETATM   14  C8  UNL     1      -0.759   2.118  -0.490  1.00  0.00    -0.009 C 
HETATM   15  C9  UNL     1      -1.440   3.391  -1.038  1.00  0.00     0.005 C 
HETATM   16  C10 UNL     1      -0.538   4.573  -1.020  1.00  0.00     0.000 C 
HETATM   17  C11 UNL     1       0.925   4.190  -1.072  1.00  0.00     0.000 C 
HETATM   18  C12 UNL     1       1.249   3.400   0.162  1.00  0.00     0.000 C 
HETATM   19  C13 UNL     1      -0.017   2.750   0.713  1.00  0.00     0.005 C 
ENDBRANCH  13  14
ENDBRANCH   1  13
BRANCH   1  20
HETATM   20  C14 UNL     1      -1.519  -1.113  -0.769  1.00  0.00     0.111 C 
BRANCH  20  21
HETATM   21  C15 UNL     1      -0.520  -1.057  -1.831  1.00  0.00     0.079 C 
BRANCH  21  22
HETATM   22  C16 UNL     1       0.907  -1.382  -1.559  1.00  0.00    -0.016 C 
HETATM   23  C17 UNL     1       1.080  -2.840  -1.167  1.00  0.00     0.010 C 
HETATM   24  C18 UNL     1       1.742  -1.092  -2.809  1.00  0.00     0.010 C 
ENDBRANCH  21  22
ENDBRANCH  20  21
BRANCH  20  25
HETATM   25  N3  UNL     1      -2.736  -1.738  -0.920  1.00  0.00    -0.372 NA
HETATM   26  C19 UNL     1      -3.950  -2.358  -1.070  1.00  0.00     0.305 C 
HETATM   27  O3  UNL     1      -5.101  -1.920  -0.773  1.00  0.00    -0.256 OA
BRANCH  26  28
HETATM   28  C20 UNL     1      -4.011  -3.758  -1.662  1.00  0.00     0.233 C 
HETATM   29 CL1  UNL     1      -4.320  -4.838  -0.266  1.00  0.00    -0.119 Cl
ENDBRANCH  26  28
ENDBRANCH  20  25
ENDBRANCH   1  20
TORSDOF 11
