REMARK  3 active torsions:
REMARK  status: ('A' for Active; 'I' for Inactive)
REMARK    1  A    between atoms: C2_2  and  C4_4 
REMARK    2  A    between atoms: C6_6  and  O1_7 
REMARK    3  A    between atoms: N1_14  and  O3_16 
ROOT
HETATM    1  C4  UNL     1      -1.930   0.244   0.530  1.00  0.00     0.016 C 
HETATM    2  C5  UNL     1      -2.044   1.522  -0.318  1.00  0.00     0.042 C 
HETATM    3  C6  UNL     1      -0.613   1.992  -0.427  1.00  0.00     0.135 C 
HETATM    4  C7  UNL     1       0.297   1.018  -1.125  1.00  0.00     0.061 C 
HETATM    5  C8  UNL     1       0.278   1.439  -2.609  1.00  0.00     0.027 C 
HETATM    6  C9  UNL     1       1.663   1.336  -0.638  1.00  0.00     0.213 C 
HETATM    7  O2  UNL     1       2.343   2.191  -1.244  1.00  0.00    -0.288 OA
HETATM    8  C10 UNL     1       2.180   0.652   0.528  1.00  0.00     0.215 C 
HETATM    9  N1  UNL     1       2.883   1.284   1.386  1.00  0.00    -0.242 N 
ATOM     10  H1  UNL     1       3.056   2.273   1.209  1.00  0.00     0.196 HD
HETATM   11  O4  UNL     1       1.852  -0.715   0.625  1.00  0.00    -0.293 OA
HETATM   12  C12 UNL     1       1.069  -1.254  -0.411  1.00  0.00     0.062 C 
HETATM   13  C13 UNL     1       1.299  -2.472  -0.866  1.00  0.00    -0.057 C 
HETATM   14  C14 UNL     1       2.385  -3.306  -0.301  1.00  0.00     0.045 C 
HETATM   15  C15 UNL     1       0.481  -3.035  -1.960  1.00  0.00     0.045 C 
HETATM   16  C16 UNL     1      -0.046  -0.422  -1.001  1.00  0.00     0.062 C 
HETATM   17  C17 UNL     1      -1.348  -0.776  -0.386  1.00  0.00     0.021 C 
ENDROOT
BRANCH   9  18
HETATM   18  O3  UNL     1       3.419   0.753   2.512  1.00  0.00    -0.283 OA
HETATM   19  C11 UNL     1       4.369   1.497   3.252  1.00  0.00     0.237 C 
ENDBRANCH   9  18
BRANCH   3  20
HETATM   20  O1  UNL     1      -0.531   3.205  -1.107  1.00  0.00    -0.394 OA
ATOM     21  H1  UNL     1       0.369   3.501  -1.176  1.00  0.00     0.210 HD
ENDBRANCH   3  20
BRANCH   1  22
HETATM   22  C2  UNL     1      -3.205  -0.141   1.114  1.00  0.00    -0.089 C 
HETATM   23  C1  UNL     1      -3.756  -1.301   0.832  1.00  0.00     0.014 C 
HETATM   24  C3  UNL     1      -3.904   0.782   2.043  1.00  0.00     0.043 C 
ENDBRANCH   1  22
TORSDOF 3
