REMARK  3 active torsions:
REMARK  status: ('A' for Active; 'I' for Inactive)
REMARK    1  A    between atoms: C4_4  and  C5_5 
REMARK    2  A    between atoms: C5_5  and  N1_6 
REMARK    3  A    between atoms: N1_6  and  C6_8 
ROOT
HETATM    1  N1  UNL     1       1.176  -0.220  -0.747  1.00  0.00    -0.362 N 
ATOM      2  H1  UNL     1       0.807  -0.104  -1.691  1.00  0.00     0.162 HD
ENDROOT
BRANCH   1   3
HETATM    3  C5  UNL     1       0.293  -0.472   0.363  1.00  0.00     0.127 C 
BRANCH   3   4
HETATM    4  C4  UNL     1      -1.155  -0.534  -0.061  1.00  0.00     0.003 C 
HETATM    5  C3  UNL     1      -1.958  -0.805   1.220  1.00  0.00     0.006 C 
HETATM    6  C2  UNL     1      -3.365  -1.082   0.703  1.00  0.00     0.000 C 
HETATM    7  C1  UNL     1      -3.922   0.197   0.188  1.00  0.00     0.000 C 
HETATM    8  C10 UNL     1      -3.054   0.989  -0.699  1.00  0.00     0.000 C 
HETATM    9  C9  UNL     1      -1.604   0.749  -0.654  1.00  0.00     0.006 C 
ENDBRANCH   3   4
ENDBRANCH   1   3
BRANCH   1  10
HETATM   10  C6  UNL     1       2.575  -0.136  -0.496  1.00  0.00     0.171 C 
HETATM   11  N2  UNL     1       3.258  -0.824   0.358  1.00  0.00    -0.361 N 
HETATM   12  C7  UNL     1       4.660  -0.458   0.327  1.00  0.00     0.142 C 
ATOM     13  H2  UNL     1       2.862  -1.533   0.975  1.00  0.00     0.162 HD
HETATM   14  C8  UNL     1       4.617   0.897  -0.346  1.00  0.00     0.142 C 
HETATM   15  N3  UNL     1       3.445   0.764  -1.189  1.00  0.00    -0.361 N 
ATOM     16  H3  UNL     1       3.276   1.217  -2.087  1.00  0.00     0.162 HD
ENDBRANCH   1  10
TORSDOF 3
