REMARK  16 active torsions:
REMARK  status: ('A' for Active; 'I' for Inactive)
REMARK    1  A    between atoms: C5_5  and  N1_6 
REMARK    2  A    between atoms: N1_6  and  C6_8 
REMARK    3  A    between atoms: C9_16  and  N4_17 
REMARK    4  A    between atoms: N4_17  and  C10_19 
REMARK    5  A    between atoms: C10_19  and  N5_21 
REMARK    6  A    between atoms: N5_21  and  C11_23 
REMARK    7  A    between atoms: C11_23  and  C12_24 
REMARK    8  A    between atoms: C12_24  and  C13_25 
REMARK    9  A    between atoms: C13_25  and  C14_26 
REMARK   10  A    between atoms: C14_26  and  C15_27 
REMARK   11  A    between atoms: C15_27  and  C16_28 
REMARK   12  A    between atoms: C16_28  and  C17_29 
REMARK   13  A    between atoms: C17_29  and  C18_30 
REMARK   14  A    between atoms: N6_32  and  N7_34 
REMARK   15  A    between atoms: C19_39  and  C20_40 
REMARK   16  A    between atoms: C21_41  and  N9_42 
ROOT
HETATM    1  C6  UNL     1      -3.250   0.234   1.415  1.00  0.00     0.151 A 
HETATM    2  N2  UNL     1      -4.210  -0.686   1.610  1.00  0.00    -0.332 N 
ATOM      3  H2  UNL     1      -5.030  -0.727   1.004  1.00  0.00     0.168 HD
HETATM    4  C7  UNL     1      -4.056  -1.553   2.631  1.00  0.00     0.096 A 
HETATM    5 BR1  UNL     1      -5.366  -2.886   2.977  1.00  0.00    -0.030 Br
HETATM    6  C8  UNL     1      -2.939  -1.497   3.456  1.00  0.00     0.127 A 
HETATM    7  N3  UNL     1      -1.977  -0.575   3.261  1.00  0.00    -0.346 N 
ATOM      8  H3  UNL     1      -1.157  -0.532   3.866  1.00  0.00     0.167 HD
HETATM    9  C9  UNL     1      -2.138   0.298   2.227  1.00  0.00     0.152 A 
ENDROOT
BRANCH   9  10
HETATM   10  N4  UNL     1      -1.244   1.208   1.994  1.00  0.00    -0.316 N 
ATOM     11  H4  UNL     1      -1.373   1.859   1.220  1.00  0.00     0.170 HD
BRANCH  10  12
HETATM   12  C10 UNL     1      -0.080   1.304   2.815  1.00  0.00     0.177 C 
HETATM   13  S1  UNL     1      -0.090   2.205   4.167  1.00  0.00    -0.040 SA
BRANCH  12  14
HETATM   14  N5  UNL     1       1.152   0.604   2.473  1.00  0.00    -0.343 N 
ATOM     15  H5  UNL     1       1.208   0.018   1.640  1.00  0.00     0.167 HD
BRANCH  14  16
HETATM   16  C11 UNL     1       2.244   0.756   3.310  1.00  0.00     0.087 C 
BRANCH  16  17
HETATM   17  C12 UNL     1       3.535   0.098   3.195  1.00  0.00    -0.004 C 
BRANCH  17  18
HETATM   18  C13 UNL     1       4.399   0.223   2.019  1.00  0.00     0.082 C 
BRANCH  18  19
HETATM   19  C14 UNL     1       4.024  -0.420   0.757  1.00  0.00     0.008 C 
HETATM   20  N6  UNL     1       3.200  -1.395   0.748  1.00  0.00    -0.295 N 
ATOM     21  H6  UNL     1       2.797  -1.732   1.622  1.00  0.00     0.187 HD
BRANCH  19  22
HETATM   22  C15 UNL     1       4.700   0.017  -0.541  1.00  0.00     0.054 C 
BRANCH  22  23
HETATM   23  C16 UNL     1       6.162  -0.193  -0.453  1.00  0.00     0.006 C 
BRANCH  23  24
HETATM   24  C17 UNL     1       7.004   0.234  -1.585  1.00  0.00     0.011 C 
BRANCH  24  25
HETATM   25  C18 UNL     1       6.753  -0.363  -2.908  1.00  0.00     0.085 C 
HETATM   26 BR2  UNL     1       5.044   0.084  -3.628  1.00  0.00    -0.097 Br
ENDBRANCH  24  25
ENDBRANCH  23  24
ENDBRANCH  22  23
ENDBRANCH  19  22
BRANCH  20  27
HETATM   27  N7  UNL     1       2.853  -1.996  -0.457  1.00  0.00    -0.249 N 
HETATM   28  N8  UNL     1       1.780  -1.681  -1.081  1.00  0.00    -0.331 N 
ATOM     29  H82 UNL     1       1.176  -0.969  -0.670  1.00  0.00     0.178 HD
ATOM     30  H81 UNL     1       1.525  -2.122  -1.965  1.00  0.00     0.178 HD
ATOM     31  H7  UNL     1       3.469  -2.706  -0.854  1.00  0.00     0.207 HD
ENDBRANCH  20  27
ENDBRANCH  18  19
ENDBRANCH  17  18
ENDBRANCH  16  17
ENDBRANCH  14  16
ENDBRANCH  12  14
ENDBRANCH  10  12
ENDBRANCH   9  10
BRANCH   1  32
HETATM   32  N1  UNL     1      -3.362   1.084   0.454  1.00  0.00    -0.338 N 
ATOM     33  H1  UNL     1      -2.611   1.765   0.341  1.00  0.00     0.167 HD
BRANCH  32  34
HETATM   34  C5  UNL     1      -4.431   1.149  -0.448  1.00  0.00     0.052 A 
HETATM   35  C4  UNL     1      -5.465   2.024  -0.194  1.00  0.00     0.031 A 
HETATM   36  C3  UNL     1      -6.541   2.122  -1.056  1.00  0.00     0.009 A 
HETATM   37  C2  UNL     1      -6.552   1.311  -2.190  1.00  0.00    -0.060 A 
HETATM   38  C1  UNL     1      -7.710   1.424  -3.105  1.00  0.00     0.048 C 
HETATM   39  C22 UNL     1      -5.529   0.429  -2.463  1.00  0.00     0.029 A 
HETATM   40  C19 UNL     1      -4.473   0.367  -1.571  1.00  0.00     0.046 A 
BRANCH  40  41
HETATM   41  C20 UNL     1      -3.419  -0.573  -1.895  1.00  0.00    -0.042 C 
HETATM   42  C21 UNL     1      -2.559  -1.368  -2.160  1.00  0.00     0.009 C 
BRANCH  42  43
HETATM   43  N9  UNL     1      -1.573  -2.304  -2.488  1.00  0.00    -0.359 N 
ATOM     44  H92 UNL     1      -2.507  -2.083  -2.833  1.00  0.00     0.166 HD
ATOM     45  H91 UNL     1      -0.842  -2.979  -2.713  1.00  0.00     0.166 HD
ENDBRANCH  42  43
ENDBRANCH  40  41
ENDBRANCH  32  34
ENDBRANCH   1  32
TORSDOF 16
