REMARK  7 active torsions:
REMARK  status: ('A' for Active; 'I' for Inactive)
REMARK    1  A    between atoms: C2_2  and  O2_4 
REMARK    2  A    between atoms: O2_4  and  C3_5 
REMARK    3  A    between atoms: C4_6  and  C5_7 
REMARK    4  A    between atoms: C5_7  and  O3_8 
REMARK    5  A    between atoms: C16_22  and  O5_23 
REMARK    6  A    between atoms: O5_23  and  C17_24 
REMARK    7  A    between atoms: C17_24  and  C18_26 
ROOT
HETATM    1  C3  UNL     1      -0.987   1.649  -1.132  1.00  0.00     0.171 C 
HETATM    2  C4  UNL     1      -0.051   2.381  -2.032  1.00  0.00     0.065 C 
HETATM    3  C6  UNL     1       1.264   1.695  -2.241  1.00  0.00    -0.003 C 
HETATM    4  C7  UNL     1       1.664   0.705  -1.500  1.00  0.00    -0.017 C 
HETATM    5  S1  UNL     1       3.119  -0.308  -1.471  1.00  0.00    -0.128 SA
HETATM    6  C8  UNL     1       2.282  -1.755  -0.681  1.00  0.00     0.068 C 
HETATM    7  C9  UNL     1       3.250  -2.624   0.027  1.00  0.00     0.050 C 
HETATM    8  C10 UNL     1       4.044  -1.855   1.013  1.00  0.00    -0.079 C 
HETATM    9  C11 UNL     1       5.481  -2.172   1.162  1.00  0.00     0.043 C 
HETATM   10  C12 UNL     1       3.394  -0.932   1.692  1.00  0.00     0.053 C 
HETATM   11  C13 UNL     1       1.981  -0.678   1.492  1.00  0.00     0.155 C 
HETATM   12  O4  UNL     1       1.278  -0.171   2.384  1.00  0.00    -0.293 OA
HETATM   13  C14 UNL     1       1.315  -1.023   0.186  1.00  0.00     0.085 C 
HETATM   14  C15 UNL     1       0.813   0.210  -0.415  1.00  0.00     0.070 C 
HETATM   15  C16 UNL     1      -0.602   0.197  -0.944  1.00  0.00     0.171 C 
ENDROOT
BRANCH  15  16
HETATM   16  O5  UNL     1      -1.506  -0.358   0.016  1.00  0.00    -0.312 OA
BRANCH  16  17
HETATM   17  C17 UNL     1      -2.268  -1.480  -0.285  1.00  0.00     0.262 C 
HETATM   18  O6  UNL     1      -2.103  -1.960  -1.452  1.00  0.00    -0.265 OA
BRANCH  17  19
HETATM   19  C18 UNL     1      -3.217  -2.094   0.670  1.00  0.00     0.077 C 
HETATM   20  C19 UNL     1      -4.308  -1.106   1.089  1.00  0.00     0.020 C 
HETATM   21  C20 UNL     1      -2.520  -2.512   1.955  1.00  0.00     0.020 C 
ENDBRANCH  17  19
ENDBRANCH  16  17
ENDBRANCH  15  16
BRANCH   1  22
HETATM   22  O2  UNL     1      -0.869   2.251   0.168  1.00  0.00    -0.313 OA
BRANCH  22  23
HETATM   23  C2  UNL     1      -1.988   2.816   0.765  1.00  0.00     0.255 C 
HETATM   24  C1  UNL     1      -1.833   3.430   2.109  1.00  0.00     0.126 C 
HETATM   25  O1  UNL     1      -3.065   2.772   0.130  1.00  0.00    -0.266 OA
ENDBRANCH  22  23
ENDBRANCH   1  22
BRANCH   2  26
HETATM   26  C5  UNL     1      -0.699   2.652  -3.375  1.00  0.00     0.175 C 
BRANCH  26  27
HETATM   27  O3  UNL     1      -1.845   3.433  -3.145  1.00  0.00    -0.400 OA
ATOM     28  H3  UNL     1      -2.251   3.603  -3.987  1.00  0.00     0.209 HD
ENDBRANCH  26  27
ENDBRANCH   2  26
TORSDOF 7
