REMARK  6 active torsions:
REMARK  status: ('A' for Active; 'I' for Inactive)
REMARK    1  A    between atoms: C2_2  and  C3_3 
REMARK    2  A    between atoms: C3_3  and  O1_4 
REMARK    3  A    between atoms: O1_4  and  C4_5 
REMARK       I    between atoms: C4_5  and  N1_7 
REMARK    4  A    between atoms: N1_7  and  C5_9 
REMARK    5  A    between atoms: C5_9  and  C7_11 
REMARK    6  A    between atoms: C17_26  and  O8_27 
ROOT
HETATM    1  C7  UNL     1      -0.126   1.291  -0.772  1.00  0.00     0.179 C 
HETATM    2  O3  UNL     1      -0.644   0.831  -1.947  1.00  0.00    -0.350 OA
HETATM    3  C8  UNL     1      -1.050  -0.460  -2.024  1.00  0.00     0.276 C 
HETATM    4  O4  UNL     1      -2.355  -0.645  -2.526  1.00  0.00    -0.324 OA
HETATM    5  C9  UNL     1      -2.731  -1.576  -1.545  1.00  0.00     0.174 C 
HETATM    6  C10 UNL     1      -2.592  -3.012  -1.925  1.00  0.00     0.080 C 
HETATM    7  O5  UNL     1      -3.875  -1.288  -0.853  1.00  0.00    -0.352 OA
HETATM    8  C11 UNL     1      -3.783  -1.465   0.526  1.00  0.00     0.206 C 
HETATM    9  C12 UNL     1      -2.910  -0.362   1.155  1.00  0.00     0.187 C 
HETATM   10  O6  UNL     1      -3.779   0.714   1.362  1.00  0.00    -0.345 OA
HETATM   11  C13 UNL     1      -3.748   1.504   0.243  1.00  0.00     0.158 C 
HETATM   12  C14 UNL     1      -5.068   1.576  -0.489  1.00  0.00     0.078 C 
HETATM   13  C15 UNL     1      -3.419   2.925   0.698  1.00  0.00     0.078 C 
HETATM   14  O7  UNL     1      -2.798   1.009  -0.627  1.00  0.00    -0.339 OA
HETATM   15  C16 UNL     1      -2.025   0.111   0.089  1.00  0.00     0.134 C 
HETATM   16  C17 UNL     1      -0.763   0.819   0.499  1.00  0.00     0.190 C 
HETATM   17  C19 UNL     1      -1.564  -1.054  -0.748  1.00  0.00     0.143 C 
ENDROOT
BRANCH   1  18
HETATM   18  C5  UNL     1       1.378   1.367  -0.753  1.00  0.00     0.114 C 
HETATM   19  C6  UNL     1       1.849   2.338  -1.867  1.00  0.00     0.035 C 
BRANCH  18  20
HETATM   20  N1  UNL     1       2.062   0.140  -0.989  1.00  0.00    -0.330 N 
HETATM   21  C4  UNL     1       3.175  -0.207  -0.197  1.00  0.00     0.360 C 
HETATM   22  O2  UNL     1       3.584   0.549   0.721  1.00  0.00    -0.239 OA
ATOM     23  H1  UNL     1       1.747  -0.486  -1.730  1.00  0.00     0.165 HD
BRANCH  21  24
HETATM   24  O1  UNL     1       3.838  -1.390  -0.419  1.00  0.00    -0.304 OA
BRANCH  24  25
HETATM   25  C3  UNL     1       4.953  -1.842   0.293  1.00  0.00     0.180 C 
BRANCH  25  26
HETATM   26  C2  UNL     1       6.112  -0.908   0.149  1.00  0.00     0.022 C 
HETATM   27  C1  UNL     1       7.295  -1.475   0.952  1.00  0.00     0.007 C 
ENDBRANCH  25  26
ENDBRANCH  24  25
ENDBRANCH  21  24
ENDBRANCH  18  20
ENDBRANCH   1  18
BRANCH  16  28
HETATM   28  O8  UNL     1       0.069  -0.132   1.079  1.00  0.00    -0.385 OA
HETATM   29  C18 UNL     1       0.378   0.187   2.402  1.00  0.00     0.202 C 
ENDBRANCH  16  28
TORSDOF 6
