REMARK  10 active torsions:
REMARK  status: ('A' for Active; 'I' for Inactive)
REMARK    1  A    between atoms: N1_1  and  C1_5 
REMARK    2  A    between atoms: C1_5  and  C2_6 
REMARK    3  A    between atoms: C3_7  and  C4_8 
REMARK    4  A    between atoms: C4_8  and  C5_9 
REMARK    5  A    between atoms: C5_9  and  C6_10 
REMARK    6  A    between atoms: C6_10  and  C7_11 
REMARK    7  A    between atoms: N3_20  and  C14_21 
REMARK    8  A    between atoms: C14_21  and  C15_22 
REMARK    9  A    between atoms: C15_22  and  C16_23 
REMARK   10  A    between atoms: C16_23  and  N4_24 
ROOT
HETATM    1  C2  UNL     1       0.037   0.467  -0.834  1.00  0.00     0.060 A 
HETATM    2  C3  UNL     1       1.131   0.371   0.045  1.00  0.00     0.034 A 
HETATM    3  N2  UNL     1       0.574   0.237   1.272  1.00  0.00    -0.354 N 
ATOM      4  H2  UNL     1       1.108   0.143   2.136  1.00  0.00     0.166 HD
HETATM    5  C13 UNL     1      -0.758   0.243   1.213  1.00  0.00     0.183 A 
HETATM    6  N3  UNL     1      -1.069   0.386  -0.094  1.00  0.00    -0.343 N 
ENDROOT
BRANCH   2   7
HETATM    7  C4  UNL     1       2.585   0.373  -0.265  1.00  0.00     0.059 C 
BRANCH   7   8
HETATM    8  C5  UNL     1       3.048  -0.995  -0.664  1.00  0.00     0.011 C 
BRANCH   8   9
HETATM    9  C6  UNL     1       4.517  -1.063  -1.007  1.00  0.00     0.039 C 
BRANCH   9  10
HETATM   10  C7  UNL     1       5.377  -0.662   0.107  1.00  0.00    -0.058 A 
HETATM   11  C8  UNL     1       5.785  -1.587   1.030  1.00  0.00     0.007 A 
HETATM   12  C9  UNL     1       6.600  -1.167   2.052  1.00  0.00     0.001 A 
HETATM   13  C10 UNL     1       7.014   0.141   2.175  1.00  0.00     0.000 A 
HETATM   14  C11 UNL     1       6.579   1.044   1.222  1.00  0.00     0.001 A 
HETATM   15  C12 UNL     1       5.768   0.664   0.191  1.00  0.00     0.007 A 
ENDBRANCH   9  10
ENDBRANCH   8   9
ENDBRANCH   7   8
ENDBRANCH   2   7
BRANCH   1  16
HETATM   16  C1  UNL     1       0.257   0.648  -2.294  1.00  0.00     0.288 C 
BRANCH  16  17
HETATM   17  N1  UNL     1      -0.919   0.745  -3.090  1.00  0.00    -0.074 N 
ATOM     18  H13 UNL     1      -1.517  -0.065  -2.927  1.00  0.00     0.274 HD
ATOM     19  H12 UNL     1      -1.519   1.489  -2.734  1.00  0.00     0.274 HD
ATOM     20  H11 UNL     1      -0.768   0.869  -4.091  1.00  0.00     0.274 HD
ENDBRANCH  16  17
ENDBRANCH   1  16
BRANCH   6  21
HETATM   21  C14 UNL     1      -2.424   0.443  -0.594  1.00  0.00     0.131 C 
BRANCH  21  22
HETATM   22  C15 UNL     1      -2.983  -0.867  -0.974  1.00  0.00     0.040 C 
BRANCH  22  23
HETATM   23  C16 UNL     1      -4.372  -0.735  -1.528  1.00  0.00     0.129 C 
BRANCH  23  24
HETATM   24  N4  UNL     1      -5.254  -0.158  -0.566  1.00  0.00    -0.366 N 
HETATM   25  C17 UNL     1      -5.896  -0.947   0.308  1.00  0.00     0.090 A 
HETATM   26  C18 UNL     1      -6.788  -0.434   1.245  1.00  0.00     0.017 A 
HETATM   27  C19 UNL     1      -7.009   0.926   1.264  1.00  0.00     0.003 A 
HETATM   28  C20 UNL     1      -6.352   1.739   0.368  1.00  0.00     0.017 A 
HETATM   29  C21 UNL     1      -5.477   1.156  -0.537  1.00  0.00     0.090 A 
ENDBRANCH  23  24
ENDBRANCH  22  23
ENDBRANCH  21  22
ENDBRANCH   6  21
TORSDOF 10
