REMARK  6 active torsions:
REMARK  status: ('A' for Active; 'I' for Inactive)
REMARK    1  A    between atoms: N1_2  and  C2_4 
REMARK    2  A    between atoms: C2_4  and  N2_6 
REMARK    3  A    between atoms: N2_6  and  N3_8 
REMARK       I    between atoms: N3_8  and  C3_10 
REMARK    4  A    between atoms: C3_10  and  C4_12 
REMARK    5  A    between atoms: C4_12  and  N4_13 
REMARK    6  A    between atoms: C4_12  and  C6_18 
REMARK       I    between atoms: C6_18  and  N7_20 
REMARK       I    between atoms: N7_20  and  C7_22 
ROOT
HETATM    1  C4  UNL     1      -1.050  -0.872   0.613  1.00  0.00     0.271 C 
ENDROOT
BRANCH   1   2
HETATM    2  C3  UNL     1       0.255  -1.319   0.097  1.00  0.00     0.268 C 
HETATM    3  N3  UNL     1       1.436  -1.115   0.838  1.00  0.00    -0.266 N 
ATOM      4  H3  UNL     1       1.376  -0.646   1.742  1.00  0.00     0.190 HD
HETATM    5  O1  UNL     1       0.337  -1.885  -1.005  1.00  0.00    -0.269 OA
BRANCH   3   6
HETATM    6  N2  UNL     1       2.699  -1.538   0.371  1.00  0.00    -0.274 N 
ATOM      7  H2  UNL     1       2.892  -2.534   0.265  1.00  0.00     0.189 HD
BRANCH   6   8
HETATM    8  C2  UNL     1       3.697  -0.591   0.050  1.00  0.00     0.186 C 
HETATM    9  S1  UNL     1       5.156  -1.136  -0.495  1.00  0.00    -0.040 SA
BRANCH   8  10
HETATM   10  N1  UNL     1       3.477   0.821   0.182  1.00  0.00    -0.370 N 
HETATM   11  C1  UNL     1       4.570   1.737  -0.176  1.00  0.00     0.148 C 
ATOM     12  H1  UNL     1       2.583   1.181   0.516  1.00  0.00     0.161 HD
ENDBRANCH   8  10
ENDBRANCH   6   8
ENDBRANCH   3   6
ENDBRANCH   1   2
BRANCH   1  13
HETATM   13  N4  UNL     1      -2.173  -1.256  -0.195  1.00  0.00    -0.346 N 
HETATM   14  C5  UNL     1      -2.558  -2.416  -0.520  1.00  0.00     0.198 C 
HETATM   15  N5  UNL     1      -1.844  -3.554  -0.064  1.00  0.00    -0.067 NA
HETATM   16  N6  UNL     1      -3.688  -2.648  -1.339  1.00  0.00    -0.067 NA
ATOM     17  H4  UNL     1      -2.738  -0.488  -0.557  1.00  0.00     0.163 HD
ENDBRANCH   1  13
BRANCH   1  18
HETATM   18  C6  UNL     1      -1.084   0.632   0.682  1.00  0.00     0.256 C 
HETATM   19  O2  UNL     1      -0.344   1.143   1.557  1.00  0.00    -0.270 OA
HETATM   20  N7  UNL     1      -1.862   1.440  -0.149  1.00  0.00    -0.296 N 
HETATM   21  C7  UNL     1      -1.774   2.846  -0.040  1.00  0.00     0.220 C 
ATOM     22  H7  UNL     1      -2.491   1.017  -0.832  1.00  0.00     0.171 HD
HETATM   23  C8  UNL     1      -2.523   3.786  -0.909  1.00  0.00     0.117 C 
HETATM   24  O3  UNL     1      -1.026   3.373   0.832  1.00  0.00    -0.274 OA
ENDBRANCH   1  18
TORSDOF 6
