REMARK  13 active torsions:
REMARK  status: ('A' for Active; 'I' for Inactive)
REMARK    1  A    between atoms: N4_13  and  C5_14 
REMARK    2  A    between atoms: C5_14  and  C6_15 
REMARK    3  A    between atoms: C6_15  and  N5_16 
REMARK    4  A    between atoms: C6_15  and  C8_21 
REMARK    5  A    between atoms: C8_21  and  N8_22 
REMARK    6  A    between atoms: C8_21  and  C9_26 
REMARK    7  A    between atoms: C9_26  and  O3_28 
REMARK    8  A    between atoms: O3_28  and  C10_29 
REMARK    9  A    between atoms: C10_29  and  N9_30 
REMARK   10  A    between atoms: C10_29  and  C11_34 
REMARK   11  A    between atoms: C11_34  and  O4_35 
REMARK   12  A    between atoms: C12_39  and  C13_40 
REMARK   13  A    between atoms: C14_45  and  C15_46 
ROOT
HETATM    1  C8  UNL     1      -0.759  -1.342  -1.720  1.00  0.00     0.306 C 
ENDROOT
BRANCH   1   2
HETATM    2  C6  UNL     1      -1.690  -2.074  -0.789  1.00  0.00     0.144 C 
BRANCH   2   3
HETATM    3  C5  UNL     1      -1.845  -1.371   0.537  1.00  0.00     0.180 C 
BRANCH   3   4
HETATM    4  N4  UNL     1      -2.395  -0.052   0.421  1.00  0.00    -0.254 N 
HETATM    5  C4  UNL     1      -3.748   0.116   0.464  1.00  0.00     0.289 A 
HETATM    6  C3  UNL     1      -4.318   1.367   0.360  1.00  0.00     0.118 A 
HETATM    7  O1  UNL     1      -4.492  -0.881   0.600  1.00  0.00    -0.264 OA
HETATM    8  N3  UNL     1      -5.654   1.534   0.403  1.00  0.00    -0.347 N 
HETATM    9  C17 UNL     1      -3.506   2.474   0.210  1.00  0.00     0.057 A 
HETATM   10  C2  UNL     1      -6.154   2.780   0.297  1.00  0.00     0.182 A 
ATOM     11  H3  UNL     1      -6.275   0.732   0.514  1.00  0.00     0.167 HD
HETATM   12  N2  UNL     1      -5.376   3.876   0.149  1.00  0.00    -0.338 N 
HETATM   13  C1  UNL     1      -4.043   3.735   0.104  1.00  0.00     0.114 A 
ATOM     14  H2  UNL     1      -5.799   4.801   0.072  1.00  0.00     0.168 HD
HETATM   15  N1  UNL     1      -3.299   4.779  -0.037  1.00  0.00    -0.385 N 
ATOM     16  H12 UNL     1      -3.697   5.715  -0.116  1.00  0.00     0.157 HD
ATOM     17  H11 UNL     1      -2.285   4.672  -0.071  1.00  0.00     0.157 HD
HETATM   18  C16 UNL     1      -2.163   2.272   0.171  1.00  0.00     0.125 A 
HETATM   19  N11 UNL     1      -1.682   1.020   0.278  1.00  0.00    -0.306 N 
ATOM     20  H11 UNL     1      -0.669   0.905   0.244  1.00  0.00     0.186 HD
ENDBRANCH   3   4
ENDBRANCH   2   3
BRANCH   2  21
HETATM   21  N5  UNL     1      -1.169  -3.415  -0.520  1.00  0.00    -0.358 N 
HETATM   22  C7  UNL     1      -1.967  -4.411  -0.405  1.00  0.00     0.197 C 
HETATM   23  N6  UNL     1      -3.359  -4.219  -0.538  1.00  0.00    -0.067 NA
HETATM   24  N7  UNL     1      -1.438  -5.695  -0.146  1.00  0.00    -0.067 NA
ATOM     25  H5  UNL     1      -0.164  -3.558  -0.423  1.00  0.00     0.162 HD
ENDBRANCH   2  21
ENDBRANCH   1   2
BRANCH   1  26
HETATM   26  N8  UNL     1      -0.752  -2.103  -2.998  1.00  0.00    -0.064 N 
ATOM     27  H83 UNL     1      -0.513  -3.087  -2.880  1.00  0.00     0.275 HD
ATOM     28  H82 UNL     1      -1.684  -2.244  -3.388  1.00  0.00     0.275 HD
ATOM     29  H81 UNL     1      -0.122  -1.607  -3.628  1.00  0.00     0.275 HD
ENDBRANCH   1  26
BRANCH   1  30
HETATM   30  C9  UNL     1       0.638  -1.314  -1.290  1.00  0.00     0.293 C 
HETATM   31  O2  UNL     1       1.502  -1.840  -2.083  1.00  0.00    -0.263 OA
BRANCH  30  32
HETATM   32  O3  UNL     1       1.184  -0.803  -0.148  1.00  0.00    -0.282 OA
BRANCH  32  33
HETATM   33  C10 UNL     1       2.579  -0.843   0.148  1.00  0.00     0.376 C 
BRANCH  33  34
HETATM   34  N9  UNL     1       2.728  -1.744   1.271  1.00  0.00    -0.048 N 
ATOM     35  H93 UNL     1       2.150  -1.492   2.073  1.00  0.00     0.277 HD
ATOM     36  H92 UNL     1       2.321  -2.665   1.109  1.00  0.00     0.277 HD
ATOM     37  H91 UNL     1       3.725  -1.773   1.483  1.00  0.00     0.277 HD
ENDBRANCH  33  34
BRANCH  33  38
HETATM   38  C11 UNL     1       3.169   0.503   0.323  1.00  0.00     0.198 C 
HETATM   39  S1  UNL     1       2.590   1.521  -1.143  1.00  0.00    -0.045 SA
HETATM   40  S2  UNL     1       4.036   3.143  -1.229  1.00  0.00    -0.030 SA
HETATM   41  C12 UNL     1       4.788   3.070   0.382  1.00  0.00     0.155 C 
HETATM   42  N10 UNL     1       4.984   1.936   0.904  1.00  0.00    -0.361 N 
HETATM   43  C14 UNL     1       4.644   0.639   0.294  1.00  0.00     0.234 C 
ATOM     44  H10 UNL     1       5.415   1.917   1.828  1.00  0.00     0.161 HD
BRANCH  38  45
HETATM   45  O4  UNL     1       2.659   1.183   1.423  1.00  0.00    -0.372 OA
ATOM     46  H4  UNL     1       3.038   2.047   1.535  1.00  0.00     0.212 HD
ENDBRANCH  38  45
BRANCH  41  47
HETATM   47  C13 UNL     1       5.155   4.288   1.052  1.00  0.00     0.234 C 
HETATM   48  O5  UNL     1       4.951   5.426   0.511  1.00  0.00    -0.642 OA
HETATM   49  O6  UNL     1       5.745   4.324   2.308  1.00  0.00    -0.642 OA
ENDBRANCH  41  47
BRANCH  43  50
HETATM   50  C15 UNL     1       5.424  -0.367   1.022  1.00  0.00     0.200 C 
HETATM   51  O7  UNL     1       5.998  -0.109   2.095  1.00  0.00    -0.646 OA
HETATM   52  O8  UNL     1       5.536  -1.648   0.508  1.00  0.00    -0.646 OA
ENDBRANCH  43  50
ENDBRANCH  33  38
ENDBRANCH  32  33
ENDBRANCH  30  32
ENDBRANCH   1  30
TORSDOF 13
