REMARK  10 active torsions:
REMARK  status: ('A' for Active; 'I' for Inactive)
REMARK    1  A    between atoms: C3_3  and  C4_4 
REMARK    2  A    between atoms: C5_5  and  C6_6 
REMARK    3  A    between atoms: C7_7  and  C8_8 
REMARK    4  A    between atoms: C8_8  and  C10_10 
REMARK    5  A    between atoms: C10_10  and  C11_11 
REMARK    6  A    between atoms: C17_17  and  O1_18 
REMARK    7  A    between atoms: O1_18  and  C18_19 
REMARK    8  A    between atoms: C18_19  and  O2_22 
REMARK    9  A    between atoms: C24_29  and  O4_30 
REMARK   10  A    between atoms: C32_40  and  O6_41 
ROOT
HETATM    1  C1  UNL     1       9.856  -3.555   0.533  1.00  0.00     0.102 C 
HETATM    2  C2  UNL     1       8.724  -2.729   0.499  1.00  0.00    -0.160 C 
HETATM    3  C3  UNL     1       7.719  -1.996   0.470  1.00  0.00     0.050 C 
ENDROOT
BRANCH   3   4
HETATM    4  C4  UNL     1       7.434  -1.183  -0.781  1.00  0.00     0.008 C 
HETATM    5  C5  UNL     1       6.406  -0.404  -0.901  1.00  0.00     0.001 C 
BRANCH   5   6
HETATM    6  C6  UNL     1       5.398  -0.183   0.117  1.00  0.00     0.001 C 
HETATM    7  C7  UNL     1       4.347   0.583   0.045  1.00  0.00     0.006 C 
BRANCH   7   8
HETATM    8  C8  UNL     1       3.815   1.445  -1.001  1.00  0.00    -0.065 C 
HETATM    9  C9  UNL     1       4.291   2.884  -0.897  1.00  0.00     0.048 C 
BRANCH   8  10
HETATM   10  C10 UNL     1       2.478   1.224  -1.536  1.00  0.00    -0.009 C 
BRANCH  10  11
HETATM   11  C11 UNL     1       1.231   1.187  -0.726  1.00  0.00     0.065 C 
HETATM   12  C12 UNL     1       1.246   0.073   0.257  1.00  0.00    -0.009 C 
HETATM   13  C13 UNL     1       0.073  -0.830   0.454  1.00  0.00    -0.065 C 
HETATM   14  C14 UNL     1      -0.512  -0.660   1.839  1.00  0.00     0.048 C 
HETATM   15  C15 UNL     1      -0.871  -0.959  -0.658  1.00  0.00     0.011 C 
HETATM   16  C16 UNL     1      -2.108  -1.297  -0.750  1.00  0.00     0.064 C 
HETATM   17  C17 UNL     1      -3.111  -1.705   0.251  1.00  0.00     0.183 C 
HETATM   18  O3  UNL     1      -3.716  -0.753   1.007  1.00  0.00    -0.319 OA
HETATM   19  C22 UNL     1      -4.516   0.131   0.516  1.00  0.00     0.178 C 
HETATM   20  C23 UNL     1      -5.128  -0.113  -0.853  1.00  0.00     0.148 C 
HETATM   21  C25 UNL     1      -4.177   1.604   0.236  1.00  0.00    -0.009 C 
HETATM   22  N1  UNL     1      -6.153   0.941  -0.806  1.00  0.00    -0.193 NA
HETATM   23 CL1  UNL     1      -7.554   0.186  -0.067  1.00  0.00    -0.019 Cl
HETATM   24  C24 UNL     1      -5.653   1.958   0.124  1.00  0.00     0.240 C 
HETATM   25  C26 UNL     1      -3.042   2.190   0.161  1.00  0.00    -0.005 C 
HETATM   26  C27 UNL     1      -2.388   3.537  -0.085  1.00  0.00     0.079 C 
HETATM   27  C28 UNL     1      -1.880   4.054   1.256  1.00  0.00     0.022 C 
HETATM   28  C29 UNL     1      -1.349   3.413  -1.133  1.00  0.00     0.161 C 
HETATM   29  O5  UNL     1      -1.858   3.254  -2.262  1.00  0.00    -0.292 OA
HETATM   30  C30 UNL     1       0.112   3.445  -1.060  1.00  0.00    -0.008 C 
HETATM   31  C31 UNL     1       0.669   4.853  -1.082  1.00  0.00     0.050 C 
HETATM   32  C32 UNL     1       0.776   2.503  -0.106  1.00  0.00     0.161 C 
BRANCH  17  33
HETATM   33  O1  UNL     1      -3.952  -2.698  -0.206  1.00  0.00    -0.293 OA
BRANCH  33  34
HETATM   34  C18 UNL     1      -3.787  -3.948   0.251  1.00  0.00     0.164 C 
HETATM   35  C19 UNL     1      -4.057  -3.978   1.734  1.00  0.00     0.079 C 
HETATM   36  C20 UNL     1      -2.474  -4.611   0.001  1.00  0.00     0.079 C 
BRANCH  34  37
HETATM   37  O2  UNL     1      -4.755  -4.772  -0.330  1.00  0.00    -0.360 OA
HETATM   38  C21 UNL     1      -6.044  -4.374  -0.038  1.00  0.00     0.205 C 
ENDBRANCH  34  37
ENDBRANCH  33  34
ENDBRANCH  17  33
BRANCH  24  39
HETATM   39  O4  UNL     1      -6.260   1.808   1.380  1.00  0.00    -0.376 OA
ATOM     40  H4  UNL     1      -5.936   2.467   1.983  1.00  0.00     0.212 HD
ENDBRANCH  24  39
BRANCH  32  41
HETATM   41  O6  UNL     1       1.714   3.063   0.730  1.00  0.00    -0.390 OA
ATOM     42  H6  UNL     1       1.430   3.883   1.116  1.00  0.00     0.210 HD
ENDBRANCH  32  41
ENDBRANCH  10  11
ENDBRANCH   8  10
ENDBRANCH   7   8
ENDBRANCH   5   6
ENDBRANCH   3   4
TORSDOF 10
