REMARK  11 active torsions:
REMARK  status: ('A' for Active; 'I' for Inactive)
REMARK    1  A    between atoms: C4_5  and  N2_6 
REMARK    2  A    between atoms: N2_6  and  C6_8 
REMARK    3  A    between atoms: C9_12  and  C10_13 
REMARK       I    between atoms: C10_13  and  N3_15 
REMARK    4  A    between atoms: N3_15  and  C11_17 
REMARK    5  A    between atoms: C11_17  and  C12_18 
REMARK    6  A    between atoms: C12_18  and  C13_20 
REMARK    7  A    between atoms: C13_20  and  O3_21 
REMARK    8  A    between atoms: C13_20  and  O4_23 
REMARK    9  A    between atoms: C15_26  and  O5_27 
REMARK   10  A    between atoms: O5_27  and  C16_28 
REMARK   11  A    between atoms: C16_28  and  C17_29 
ROOT
HETATM    1  C6  UNL     1      -1.193  -1.368   1.014  1.00  0.00     0.065 A 
HETATM    2  C7  UNL     1      -2.384  -1.176   1.668  1.00  0.00     0.057 A 
HETATM    3  C8  UNL     1      -3.096   0.026   1.625  1.00  0.00     0.052 A 
HETATM    4 CL1  UNL     1      -4.613   0.150   2.513  1.00  0.00    -0.083 Cl
HETATM    5  C9  UNL     1      -2.572   1.031   0.900  1.00  0.00     0.056 A 
HETATM    6  C14 UNL     1      -1.366   0.848   0.232  1.00  0.00     0.057 A 
HETATM    7  C15 UNL     1      -0.637  -0.321   0.253  1.00  0.00     0.096 A 
ENDROOT
BRANCH   5   8
HETATM    8  C10 UNL     1      -3.267   2.330   0.803  1.00  0.00     0.253 C 
HETATM    9  O1  UNL     1      -2.982   3.182   1.671  1.00  0.00    -0.268 OA
HETATM   10  N3  UNL     1      -4.186   2.532  -0.247  1.00  0.00    -0.350 N 
ATOM     11  H3  UNL     1      -4.368   1.768  -0.898  1.00  0.00     0.163 HD
BRANCH  10  12
HETATM   12  C11 UNL     1      -4.870   3.771  -0.427  1.00  0.00     0.206 C 
BRANCH  12  13
HETATM   13  C12 UNL     1      -5.718   4.111   0.733  1.00  0.00     0.198 C 
HETATM   14  O2  UNL     1      -5.806   3.383   1.679  1.00  0.00    -0.291 OA
BRANCH  13  15
HETATM   15  C13 UNL     1      -6.484   5.409   0.710  1.00  0.00     0.327 C 
BRANCH  15  16
HETATM   16  O3  UNL     1      -7.190   5.505   1.881  1.00  0.00    -0.365 OA
ATOM     17  H3  UNL     1      -7.673   6.323   1.867  1.00  0.00     0.213 HD
ENDBRANCH  15  16
BRANCH  15  18
HETATM   18  O4  UNL     1      -5.673   6.485   0.427  1.00  0.00    -0.365 OA
ATOM     19  H4  UNL     1      -6.156   7.303   0.413  1.00  0.00     0.213 HD
ENDBRANCH  15  18
ENDBRANCH  13  15
ENDBRANCH  12  13
ENDBRANCH  10  12
ENDBRANCH   5   8
BRANCH   7  20
HETATM   20  O5  UNL     1       0.492  -0.472  -0.381  1.00  0.00    -0.348 OA
BRANCH  20  21
HETATM   21  C16 UNL     1       1.541  -0.236  -1.112  1.00  0.00     0.186 C 
BRANCH  21  22
HETATM   22  C17 UNL     1       2.480   0.825  -0.582  1.00  0.00     0.082 C 
HETATM   23  C18 UNL     1       1.925   2.171  -0.421  1.00  0.00     0.013 C 
HETATM   24  C19 UNL     1       2.899   3.294  -0.655  1.00  0.00     0.009 C 
HETATM   25  C20 UNL     1       4.307   2.949  -0.252  1.00  0.00    -0.042 C 
HETATM   26  C21 UNL     1       4.463   2.925   1.262  1.00  0.00     0.015 C 
HETATM   27  C22 UNL     1       5.199   4.066  -0.761  1.00  0.00     0.015 C 
HETATM   28  C23 UNL     1       4.801   1.670  -0.862  1.00  0.00     0.088 C 
HETATM   29  C24 UNL     1       3.701   0.845  -1.483  1.00  0.00     0.250 C 
HETATM   30  F1  UNL     1       4.182  -0.446  -1.615  1.00  0.00    -0.206 F 
HETATM   31  F2  UNL     1       3.357   1.352  -2.701  1.00  0.00    -0.206 F 
ENDBRANCH  21  22
ENDBRANCH  20  21
ENDBRANCH   7  20
BRANCH   1  32
HETATM   32  N2  UNL     1      -0.598  -2.640   1.151  1.00  0.00    -0.378 N 
HETATM   33  C5  UNL     1      -0.196  -3.091   2.458  1.00  0.00     0.150 C 
BRANCH  32  34
HETATM   34  C4  UNL     1      -0.398  -3.510   0.021  1.00  0.00     0.087 C 
HETATM   35  C3  UNL     1      -1.270  -4.772   0.159  1.00  0.00     0.055 C 
HETATM   36  C2  UNL     1      -0.655  -5.794  -0.784  1.00  0.00     0.274 C 
HETATM   37  N1  UNL     1       0.494  -6.333  -0.086  1.00  0.00     0.084 N 
HETATM   38  C1  UNL     1       1.139  -7.408  -0.773  1.00  0.00     0.309 C 
HETATM   39  C26 UNL     1       1.365  -5.294   0.356  1.00  0.00     0.274 C 
HETATM   40  C25 UNL     1       1.052  -3.925  -0.127  1.00  0.00     0.055 C 
ENDBRANCH  32  34
ENDBRANCH   1  32
TORSDOF 11
