REMARK  5 active torsions:
REMARK  status: ('A' for Active; 'I' for Inactive)
REMARK    1  A    between atoms: N1_1  and  N2_4 
REMARK    2  A    between atoms: N2_4  and  N3_5 
REMARK    3  A    between atoms: N3_5  and  C1_7 
REMARK    4  A    between atoms: C3_11  and  N5_12 
REMARK    5  A    between atoms: N5_12  and  C4_14 
ROOT
HETATM    1  C1  UNL     1       2.429  -0.693   0.343  1.00  0.00     0.151 C 
HETATM    2  C2  UNL     1       2.159   0.764   0.433  1.00  0.00     0.167 C 
HETATM    3  N4  UNL     1       0.794   1.124   0.643  1.00  0.00    -0.225 N 
ATOM      4  H4  UNL     1       0.609   2.106   0.848  1.00  0.00     0.177 HD
HETATM    5  C3  UNL     1      -0.217   0.352   0.602  1.00  0.00     0.670 C 
HETATM    6  N6  UNL     1       0.003  -1.023   0.319  1.00  0.00    -0.225 N 
ATOM      7  H6  UNL     1      -0.759  -1.686   0.463  1.00  0.00     0.177 HD
HETATM    8  C7  UNL     1       1.264  -1.506  -0.163  1.00  0.00     0.167 C 
ENDROOT
BRANCH   1   9
HETATM    9  N3  UNL     1       3.544  -0.880  -0.591  1.00  0.00    -0.245 N 
ATOM     10  H3  UNL     1       3.628  -1.748  -1.120  1.00  0.00     0.197 HD
BRANCH   9  11
HETATM   11  N2  UNL     1       4.388   0.025  -0.736  1.00  0.00    -0.248 NA
BRANCH  11  12
HETATM   12  N1  UNL     1       5.269   0.874  -0.566  1.00  0.00    -0.261 N 
ATOM     13  H12 UNL     1       5.355   0.666   0.429  1.00  0.00     0.193 HD
ATOM     14  H11 UNL     1       5.960   1.615  -0.685  1.00  0.00     0.193 HD
ENDBRANCH  11  12
ENDBRANCH   9  11
ENDBRANCH   1   9
BRANCH   5  15
HETATM   15  N5  UNL     1      -1.560   0.795   0.826  1.00  0.00    -0.222 N 
ATOM     16  H5  UNL     1      -1.715   1.605   1.427  1.00  0.00     0.178 HD
BRANCH  15  17
HETATM   17  C4  UNL     1      -2.708   0.139   0.233  1.00  0.00     0.099 A 
HETATM   18  C5  UNL     1      -2.866   0.032  -1.227  1.00  0.00     0.028 A 
HETATM   19  C6  UNL     1      -3.755   1.014  -0.447  1.00  0.00     0.028 A 
ENDBRANCH  15  17
ENDBRANCH   5  15
TORSDOF 5
