REMARK  6 active torsions:
REMARK  status: ('A' for Active; 'I' for Inactive)
REMARK    1  A    between atoms: S1_2  and  N1_4 
REMARK    2  A    between atoms: S1_2  and  C16_27 
REMARK    3  A    between atoms: N1_4  and  C1_6 
REMARK    4  A    between atoms: C2_9  and  N3_10 
REMARK    5  A    between atoms: N3_10  and  C3_12 
REMARK    6  A    between atoms: C3_12  and  C4_13 
ROOT
HETATM    1  C1  UNL     1       1.121  -1.571  -0.829  1.00  0.00     0.143 A 
HETATM    2  N2  UNL     1       0.375  -0.461  -0.856  1.00  0.00    -0.175 N 
ATOM      3  H2  UNL     1       0.809   0.428  -1.105  1.00  0.00     0.186 HD
HETATM    4  C2  UNL     1      -0.961  -0.495  -0.556  1.00  0.00     0.680 A 
HETATM    5  N4  UNL     1      -1.563  -1.649  -0.225  1.00  0.00    -0.191 N 
ATOM      6  H4  UNL     1      -2.559  -1.656  -0.005  1.00  0.00     0.184 HD
HETATM    7  C10 UNL     1      -0.868  -2.782  -0.183  1.00  0.00     0.063 A 
HETATM    8  C11 UNL     1      -1.435  -3.973   0.146  1.00  0.00     0.031 A 
HETATM    9  C12 UNL     1      -0.697  -5.132   0.183  1.00  0.00     0.002 A 
HETATM   10  C13 UNL     1       0.649  -5.108  -0.118  1.00  0.00     0.001 A 
HETATM   11  C14 UNL     1       1.246  -3.918  -0.453  1.00  0.00     0.017 A 
HETATM   12  C15 UNL     1       0.497  -2.753  -0.489  1.00  0.00     0.036 A 
ENDROOT
BRANCH   1  13
HETATM   13  N1  UNL     1       2.362  -1.596  -1.098  1.00  0.00    -0.265 N 
ATOM     14  H1  UNL     1       2.807  -2.512  -1.038  1.00  0.00     0.180 HD
BRANCH  13  15
HETATM   15  S1  UNL     1       3.381  -0.317  -1.543  1.00  0.00     0.264 S 
HETATM   16  O1  UNL     1       2.781   0.657  -2.501  1.00  0.00    -0.200 OA
HETATM   17  O2  UNL     1       4.639  -0.866  -2.206  1.00  0.00    -0.200 OA
BRANCH  15  18
HETATM   18  C16 UNL     1       3.942   0.475  -0.067  1.00  0.00     0.079 A 
HETATM   19  C17 UNL     1       5.104   0.022   0.553  1.00  0.00     0.025 A 
HETATM   20  C18 UNL     1       5.606   0.585   1.702  1.00  0.00     0.002 A 
HETATM   21  C19 UNL     1       4.933   1.644   2.268  1.00  0.00     0.000 A 
HETATM   22  C20 UNL     1       3.778   2.090   1.647  1.00  0.00     0.002 A 
HETATM   23  C21 UNL     1       3.266   1.534   0.497  1.00  0.00     0.025 A 
ENDBRANCH  15  18
ENDBRANCH  13  15
ENDBRANCH   1  13
BRANCH   4  24
HETATM   24  N3  UNL     1      -1.640   0.597  -0.594  1.00  0.00    -0.222 N 
ATOM     25  H3  UNL     1      -1.185   1.474  -0.845  1.00  0.00     0.178 HD
BRANCH  24  26
HETATM   26  C3  UNL     1      -3.045   0.576  -0.281  1.00  0.00     0.176 C 
BRANCH  26  27
HETATM   27  C4  UNL     1      -3.621   1.945  -0.207  1.00  0.00    -0.040 A 
HETATM   28  C5  UNL     1      -4.965   2.058   0.082  1.00  0.00     0.009 A 
HETATM   29  C6  UNL     1      -5.577   3.286   0.169  1.00  0.00     0.001 A 
HETATM   30  C7  UNL     1      -4.843   4.438  -0.035  1.00  0.00     0.000 A 
HETATM   31  C8  UNL     1      -3.507   4.306  -0.322  1.00  0.00     0.001 A 
HETATM   32  C9  UNL     1      -2.883   3.073  -0.411  1.00  0.00     0.009 A 
ENDBRANCH  26  27
ENDBRANCH  24  26
ENDBRANCH   4  24
TORSDOF 6
