REMARK  6 active torsions:
REMARK  status: ('A' for Active; 'I' for Inactive)
REMARK    1  A    between atoms: C1_2  and  C2_4 
REMARK    2  A    between atoms: C2_4  and  N1_5 
REMARK    3  A    between atoms: N1_5  and  C3_6 
REMARK    4  A    between atoms: C3_6  and  O3_7 
REMARK    5  A    between atoms: C3_6  and  C4_9 
REMARK       I    between atoms: N2_13  and  C8_14 
REMARK       I    between atoms: C8_14  and  N3_16 
REMARK    6  A    between atoms: N3_16  and  C9_18 
ROOT
HETATM    1  C4  UNL     1       3.390   0.997   0.200  1.00  0.00     0.103 C 
HETATM    2  C5  UNL     1       3.425   0.647   1.681  1.00  0.00     0.021 C 
HETATM    3  C6  UNL     1       2.564   1.898   1.827  1.00  0.00     0.033 C 
HETATM    4  C7  UNL     1       1.969   1.371   0.496  1.00  0.00     0.102 C 
HETATM    5  N2  UNL     1       1.347   0.192   0.978  1.00  0.00    -0.328 N 
HETATM    6  C8  UNL     1       0.018  -0.228   0.797  1.00  0.00     0.319 C 
HETATM    7  O4  UNL     1      -0.394  -1.325   1.302  1.00  0.00    -0.247 OA
HETATM    8  N3  UNL     1      -0.927   0.530   0.063  1.00  0.00    -0.334 N 
ATOM      9  H3  UNL     1      -0.584   1.398  -0.347  1.00  0.00     0.165 HD
HETATM   10  C19 UNL     1       2.397  -0.455   1.722  1.00  0.00     0.133 C 
ENDROOT
BRANCH   1  11
HETATM   11  C3  UNL     1       3.563  -0.231  -0.682  1.00  0.00     0.190 C 
BRANCH  11  12
HETATM   12  N1  UNL     1       4.704  -0.831  -0.738  1.00  0.00    -0.418 NA
BRANCH  12  13
HETATM   13  C2  UNL     1       5.956  -1.493  -0.802  1.00  0.00     0.333 C 
BRANCH  13  14
HETATM   14  C1  UNL     1       7.044  -0.844   0.013  1.00  0.00     0.204 C 
HETATM   15  O1  UNL     1       6.822   0.165   0.657  1.00  0.00    -0.646 OA
HETATM   16  O2  UNL     1       8.277  -1.446  -0.015  1.00  0.00    -0.646 OA
ENDBRANCH  13  14
ENDBRANCH  12  13
ENDBRANCH  11  12
BRANCH  11  17
HETATM   17  O3  UNL     1       2.466  -0.558  -1.323  1.00  0.00    -0.339 OA
ATOM     18  H3  UNL     1       1.626  -0.116  -1.282  1.00  0.00     0.220 HD
ENDBRANCH  11  17
ENDBRANCH   1  11
BRANCH   8  19
HETATM   19  C9  UNL     1      -2.296   0.227  -0.171  1.00  0.00     0.035 C 
HETATM   20  C10 UNL     1      -2.510  -1.056  -0.922  1.00  0.00     0.035 C 
HETATM   21  C11 UNL     1      -3.988  -1.310  -1.155  1.00  0.00    -0.012 C 
HETATM   22  C12 UNL     1      -4.775  -1.282   0.154  1.00  0.00     0.009 C 
HETATM   23  C16 UNL     1      -4.512  -0.224  -2.060  1.00  0.00     0.009 C 
HETATM   24  C13 UNL     1      -4.540   0.030   0.846  1.00  0.00    -0.012 C 
HETATM   25  C14 UNL     1      -5.053   1.143  -0.023  1.00  0.00     0.009 C 
HETATM   26  C18 UNL     1      -3.080   0.145   1.133  1.00  0.00     0.035 C 
HETATM   27  C15 UNL     1      -4.315   1.090  -1.342  1.00  0.00    -0.012 C 
HETATM   28  C17 UNL     1      -2.871   1.334  -1.046  1.00  0.00     0.035 C 
ENDBRANCH   8  19
TORSDOF 6
