REMARK  4 active torsions:
REMARK  status: ('A' for Active; 'I' for Inactive)
REMARK    1  A    between atoms: C2_2  and  C3_3 
REMARK    2  A    between atoms: C3_3  and  C4_4 
REMARK    3  A    between atoms: C3_3  and  N2_10 
REMARK    4  A    between atoms: C4_4  and  N1_5 
REMARK       I    between atoms: N1_5  and  C5_7 
REMARK       I    between atoms: N2_10  and  C7_12 
REMARK       I    between atoms: C7_12  and  N3_14 
REMARK       I    between atoms: N4_25  and  C18_26 
ROOT
HETATM    1  N2  UNL     1       1.603  -0.152  -0.421  1.00  0.00    -0.337 N 
ATOM      2  H2  UNL     1       1.061  -0.915  -0.825  1.00  0.00     0.164 HD
HETATM    3  C7  UNL     1       1.060   1.163  -0.448  1.00  0.00     0.320 C 
HETATM    4  O2  UNL     1       1.751   2.085   0.058  1.00  0.00    -0.247 OA
HETATM    5  N3  UNL     1      -0.199   1.452  -1.012  1.00  0.00    -0.301 N 
HETATM    6  C8  UNL     1      -1.226   2.379  -1.346  1.00  0.00     0.217 A 
HETATM    7  C9  UNL     1      -1.375   0.949  -1.695  1.00  0.00     0.142 A 
HETATM    8  C10 UNL     1      -2.430   0.183  -0.976  1.00  0.00    -0.014 C 
HETATM    9  C11 UNL     1      -2.021  -0.291   0.386  1.00  0.00     0.012 C 
HETATM   10  C12 UNL     1      -3.146  -1.035   1.082  1.00  0.00     0.001 C 
HETATM   11  C13 UNL     1      -3.742  -2.100   0.219  1.00  0.00     0.000 C 
HETATM   12  C14 UNL     1      -2.831  -2.314  -0.963  1.00  0.00     0.001 C 
HETATM   13  C15 UNL     1      -2.693  -1.089  -1.799  1.00  0.00     0.012 C 
HETATM   14  C16 UNL     1      -3.739   0.933  -0.990  1.00  0.00     0.031 C 
HETATM   15  C17 UNL     1      -3.627   2.402  -0.805  1.00  0.00     0.128 C 
HETATM   16  N4  UNL     1      -2.266   2.790  -0.467  1.00  0.00    -0.332 N 
HETATM   17  C18 UNL     1      -2.108   3.563   0.713  1.00  0.00     0.185 C 
HETATM   18  N5  UNL     1      -2.964   4.526   0.942  1.00  0.00    -0.374 N 
ATOM     19  H51 UNL     1      -2.850   5.081   1.790  1.00  0.00     0.158 HD
ATOM     20  H52 UNL     1      -3.696   4.655   0.243  1.00  0.00     0.158 HD
HETATM   21  N6  UNL     1      -1.096   3.384   1.680  1.00  0.00    -0.064 NA
ENDROOT
BRANCH   1  22
HETATM   22  C3  UNL     1       2.906  -0.449   0.163  1.00  0.00     0.103 C 
BRANCH  22  23
HETATM   23  C2  UNL     1       3.870  -0.949  -0.896  1.00  0.00     0.022 C 
HETATM   24  C1  UNL     1       3.477  -2.260  -1.488  1.00  0.00     0.007 C 
ENDBRANCH  22  23
BRANCH  22  25
HETATM   25  C4  UNL     1       2.815  -1.419   1.289  1.00  0.00     0.147 C 
BRANCH  25  26
HETATM   26  N1  UNL     1       4.077  -1.626   1.912  1.00  0.00    -0.359 N 
HETATM   27  C5  UNL     1       4.801  -0.590   2.551  1.00  0.00     0.213 C 
HETATM   28  C6  UNL     1       6.140  -0.852   3.195  1.00  0.00     0.117 C 
HETATM   29  O1  UNL     1       4.403   0.598   2.633  1.00  0.00    -0.274 OA
ATOM     30  H1  UNL     1       4.479  -2.563   1.898  1.00  0.00     0.162 HD
ENDBRANCH  25  26
ENDBRANCH  22  25
ENDBRANCH   1  22
TORSDOF 4
