REMARK  5 active torsions:
REMARK  status: ('A' for Active; 'I' for Inactive)
REMARK    1  A    between atoms: O1_2  and  C2_3 
REMARK    2  A    between atoms: C3_5  and  O3_6 
REMARK    3  A    between atoms: C5_8  and  O4_9 
REMARK    4  A    between atoms: C6_11  and  O5_12 
REMARK    5  A    between atoms: C7_14  and  O6_15 
ROOT
HETATM    1  C2  UNL     1      -1.286   0.434  -0.307  1.00  0.00     0.293 C 
HETATM    2  O2  UNL     1      -0.206   0.929  -0.966  1.00  0.00    -0.326 OA
HETATM    3  C3  UNL     1       1.017   0.398  -0.678  1.00  0.00     0.293 C 
HETATM    4  C5  UNL     1       1.046  -1.117  -0.733  1.00  0.00     0.204 C 
HETATM    5  C6  UNL     1       0.066  -1.612   0.288  1.00  0.00     0.185 C 
HETATM    6  C7  UNL     1      -1.270  -1.011   0.049  1.00  0.00     0.204 C 
ENDROOT
BRANCH   1   7
HETATM    7  O1  UNL     1      -1.505   1.234   0.817  1.00  0.00    -0.363 OA
HETATM    8  C1  UNL     1      -2.685   1.940   0.770  1.00  0.00     0.204 C 
ENDBRANCH   1   7
BRANCH   6   9
HETATM    9  O6  UNL     1      -1.955  -1.794  -0.889  1.00  0.00    -0.388 OA
ATOM     10  H6  UNL     1      -1.945  -2.716  -0.662  1.00  0.00     0.210 HD
ENDBRANCH   6   9
BRANCH   3  11
HETATM   11  O3  UNL     1       1.515   0.865   0.533  1.00  0.00    -0.363 OA
HETATM   12  C4  UNL     1       2.692   1.576   0.361  1.00  0.00     0.204 C 
ENDBRANCH   3  11
BRANCH   5  13
HETATM   13  O5  UNL     1       0.531  -1.427   1.592  1.00  0.00    -0.390 OA
ATOM     14  H5  UNL     1      -0.090  -1.741   2.239  1.00  0.00     0.210 HD
ENDBRANCH   5  13
BRANCH   4  15
HETATM   15  O4  UNL     1       2.326  -1.578  -0.561  1.00  0.00    -0.388 OA
ATOM     16  H4  UNL     1       2.344  -2.527  -0.595  1.00  0.00     0.210 HD
ENDBRANCH   4  15
TORSDOF 5
