REMARK  5 active torsions:
REMARK  status: ('A' for Active; 'I' for Inactive)
REMARK    1  A    between atoms: C2_2  and  O1_3 
REMARK    2  A    between atoms: C2_2  and  O3_9 
REMARK    3  A    between atoms: O1_3  and  C3_4 
REMARK    4  A    between atoms: N1_5  and  O2_7 
REMARK    5  A    between atoms: O3_9  and  C4_10 
ROOT
HETATM    1  O3  UNL     1      -0.205  -0.377   0.932  1.00  0.00    -0.330 OA
ENDROOT
BRANCH   1   2
HETATM    2  C2  UNL     1       1.051  -0.279   0.334  1.00  0.00     0.266 C 
HETATM    3  C1  UNL     1       1.685  -1.648   0.319  1.00  0.00     0.071 C 
BRANCH   2   4
HETATM    4  O1  UNL     1       1.791   0.633   1.142  1.00  0.00    -0.315 OA
BRANCH   4   5
HETATM    5  C3  UNL     1       3.104   0.866   0.777  1.00  0.00     0.251 C 
HETATM    6  N1  UNL     1       3.373   0.773  -0.475  1.00  0.00    -0.258 N 
ATOM      7  H1  UNL     1       2.651   0.539  -1.157  1.00  0.00     0.195 HD
BRANCH   6   8
HETATM    8  O2  UNL     1       4.672   1.001  -0.860  1.00  0.00    -0.289 OA
ATOM      9  H2  UNL     1       4.871   0.932  -1.786  1.00  0.00     0.244 HD
ENDBRANCH   6   8
ENDBRANCH   4   5
ENDBRANCH   2   4
ENDBRANCH   1   2
BRANCH   1  10
HETATM   10  C4  UNL     1      -1.166  -0.005  -0.007  1.00  0.00     0.284 C 
HETATM   11  C5  UNL     1      -2.062  -1.189  -0.234  1.00  0.00     0.200 C 
HETATM   12  N2  UNL     1      -3.435  -0.836  -0.365  1.00  0.00    -0.334 N 
HETATM   13  N3  UNL     1      -3.868   0.321  -0.386  1.00  0.00    -0.317 N 
ATOM     14  H2  UNL     1      -4.112  -1.595  -0.448  1.00  0.00     0.180 HD
HETATM   15  C6  UNL     1      -2.955   1.438  -0.272  1.00  0.00     0.310 C 
ATOM     16  H3  UNL     1      -4.869   0.489  -0.484  1.00  0.00     0.182 HD
HETATM   17  O4  UNL     1      -1.826   1.112   0.449  1.00  0.00    -0.339 OA
ENDBRANCH   1  10
TORSDOF 5
