REMARK  5 active torsions:
REMARK  status: ('A' for Active; 'I' for Inactive)
REMARK    1  A    between atoms: O1_2  and  C2_3 
REMARK    2  A    between atoms: C3_5  and  C4_6 
REMARK    3  A    between atoms: C4_6  and  O3_7 
REMARK    4  A    between atoms: C5_9  and  O4_10 
REMARK    5  A    between atoms: C7_12  and  O5_13 
ROOT
HETATM    1  C2  UNL     1       1.315   0.395  -0.168  1.00  0.00     0.290 C 
HETATM    2  O2  UNL     1       0.449   1.125  -0.955  1.00  0.00    -0.349 OA
HETATM    3  C3  UNL     1      -0.758   0.445  -1.009  1.00  0.00     0.179 C 
HETATM    4  C5  UNL     1      -0.722  -0.616   0.053  1.00  0.00     0.185 C 
HETATM    5  C7  UNL     1       0.384  -0.130   0.925  1.00  0.00     0.204 C 
ENDROOT
BRANCH   3   6
HETATM    6  C4  UNL     1      -1.858   1.458  -0.796  1.00  0.00     0.198 C 
BRANCH   6   7
HETATM    7  O3  UNL     1      -1.740   2.089   0.426  1.00  0.00    -0.398 OA
ATOM      8  H3  UNL     1      -2.432   2.726   0.560  1.00  0.00     0.209 HD
ENDBRANCH   6   7
ENDBRANCH   3   6
BRANCH   4   9
HETATM    9  O4  UNL     1      -1.901  -0.904   0.638  1.00  0.00    -0.385 OA
HETATM   10  C6  UNL     1      -2.390  -2.172   0.518  1.00  0.00     0.202 C 
ENDBRANCH   4   9
BRANCH   1  11
HETATM   11  O1  UNL     1       2.329   1.162   0.358  1.00  0.00    -0.363 OA
HETATM   12  C1  UNL     1       3.594   0.701   0.060  1.00  0.00     0.204 C 
ENDBRANCH   1  11
BRANCH   5  13
HETATM   13  O5  UNL     1       1.037  -1.149   1.605  1.00  0.00    -0.388 OA
ATOM     14  H5  UNL     1       0.458  -1.475   2.284  1.00  0.00     0.210 HD
ENDBRANCH   5  13
TORSDOF 5
