REMARK  5 active torsions:
REMARK  status: ('A' for Active; 'I' for Inactive)
REMARK       I    between atoms: C1_4  and  N3_6 
REMARK    1  A    between atoms: C3_9  and  C4_10 
REMARK    2  A    between atoms: C4_10  and  C5_12 
REMARK       I    between atoms: C5_12  and  N4_14 
REMARK    3  A    between atoms: N4_14  and  C6_16 
REMARK    4  A    between atoms: C6_16  and  C7_17 
REMARK    5  A    between atoms: C7_17  and  N5_18 
ROOT
HETATM    1  C5  UNL     1       0.637  -0.314  -0.536  1.00  0.00     0.290 C 
HETATM    2  O3  UNL     1       1.102  -1.498  -0.684  1.00  0.00    -0.264 OA
HETATM    3  N4  UNL     1      -0.768  -0.177  -0.402  1.00  0.00    -0.352 N 
ATOM      4  H4  UNL     1      -1.177   0.749  -0.282  1.00  0.00     0.162 HD
ENDROOT
BRANCH   1   5
HETATM    5  C4  UNL     1       1.530   0.838  -0.508  1.00  0.00     0.246 C 
HETATM    6  O2  UNL     1       1.042   1.976  -0.362  1.00  0.00    -0.284 OA
BRANCH   5   7
HETATM    7  C3  UNL     1       2.966   0.653  -0.649  1.00  0.00     0.221 C 
HETATM    8  O1  UNL     1       3.330  -0.684  -0.802  1.00  0.00    -0.357 OA
HETATM    9  C2  UNL     1       4.724  -0.589  -0.725  1.00  0.00     0.296 C 
HETATM   10  N3  UNL     1       4.951   0.256   0.427  1.00  0.00    -0.332 N 
HETATM   11  C1  UNL     1       6.146   0.271   1.195  1.00  0.00     0.185 C 
HETATM   12  C13 UNL     1       3.743   1.038   0.601  1.00  0.00     0.168 C 
HETATM   13  N1  UNL     1       7.299  -0.023   0.697  1.00  0.00    -0.374 N 
HETATM   14  N2  UNL     1       6.072   0.626   2.579  1.00  0.00    -0.064 NA
ATOM     15  H12 UNL     1       8.157  -0.012   1.248  1.00  0.00     0.158 HD
ATOM     16  H11 UNL     1       7.352  -0.276  -0.290  1.00  0.00     0.158 HD
ENDBRANCH   5   7
ENDBRANCH   1   5
BRANCH   3  17
HETATM   17  C6  UNL     1      -1.622  -1.339  -0.434  1.00  0.00     0.161 C 
BRANCH  17  18
HETATM   18  C7  UNL     1      -3.083  -0.963  -0.274  1.00  0.00     0.139 C 
HETATM   19  C8  UNL     1      -3.251  -0.381   1.105  1.00  0.00     0.040 C 
HETATM   20  C9  UNL     1      -4.665   0.100   1.316  1.00  0.00     0.002 C 
HETATM   21  C10 UNL     1      -5.121   1.055   0.259  1.00  0.00     0.000 C 
HETATM   22  C11 UNL     1      -4.162   1.221  -0.869  1.00  0.00     0.002 C 
HETATM   23  C12 UNL     1      -3.578  -0.081  -1.366  1.00  0.00     0.040 C 
BRANCH  18  24
HETATM   24  N5  UNL     1      -3.840  -2.209  -0.322  1.00  0.00    -0.069 N 
ATOM     25  H53 UNL     1      -3.655  -2.762  -1.159  1.00  0.00     0.275 HD
ATOM     26  H52 UNL     1      -3.524  -2.900   0.359  1.00  0.00     0.275 HD
ATOM     27  H51 UNL     1      -4.822  -1.956  -0.214  1.00  0.00     0.275 HD
ENDBRANCH  18  24
ENDBRANCH  17  18
ENDBRANCH   3  17
TORSDOF 5
