REMARK  6 active torsions:
REMARK  status: ('A' for Active; 'I' for Inactive)
REMARK       I    between atoms: N1_2  and  C2_4 
REMARK    1  A    between atoms: C2_4  and  C3_6 
REMARK    2  A    between atoms: C3_6  and  C4_7 
REMARK    3  A    between atoms: C3_6  and  N2_9 
REMARK       I    between atoms: N2_9  and  C5_11 
REMARK       I    between atoms: C5_11  and  N3_13 
REMARK    4  A    between atoms: N3_13  and  S2_15 
REMARK    5  A    between atoms: S2_15  and  C6_18 
REMARK    6  A    between atoms: C6_18  and  C7_19 
ROOT
HETATM    1  N2  UNL     1      -1.346   0.009   0.543  1.00  0.00    -0.328 N 
ATOM      2  H2  UNL     1      -1.340   0.203   1.544  1.00  0.00     0.165 HD
HETATM    3  C5  UNL     1      -0.397  -0.903   0.042  1.00  0.00     0.330 C 
HETATM    4  O2  UNL     1      -0.368  -1.176  -1.197  1.00  0.00    -0.246 OA
HETATM    5  N3  UNL     1       0.522  -1.510   0.944  1.00  0.00    -0.236 N 
ATOM      6  H3  UNL     1       0.475  -1.269   1.934  1.00  0.00     0.183 HD
ENDROOT
BRANCH   1   7
HETATM    7  C3  UNL     1      -2.322   0.684  -0.268  1.00  0.00     0.188 C 
BRANCH   7   8
HETATM    8  C2  UNL     1      -3.641   0.128  -0.010  1.00  0.00     0.240 C 
HETATM    9  N1  UNL     1      -4.845   0.533  -0.634  1.00  0.00    -0.364 N 
HETATM   10  C1  UNL     1      -6.118  -0.069  -0.328  1.00  0.00     0.149 C 
ATOM     11  H1  UNL     1      -4.810   1.280  -1.327  1.00  0.00     0.161 HD
HETATM   12  O1  UNL     1      -3.731  -0.795   0.839  1.00  0.00    -0.271 OA
ENDBRANCH   7   8
BRANCH   7  13
HETATM   13  C4  UNL     1      -2.164   2.146  -0.034  1.00  0.00     0.121 C 
HETATM   14  S1  UNL     1      -2.488   2.694   1.629  1.00  0.00    -0.095 SA
ENDBRANCH   7  13
ENDBRANCH   1   7
BRANCH   5  15
HETATM   15  S2  UNL     1       1.712  -2.641   0.414  1.00  0.00     0.238 S 
HETATM   16  O3  UNL     1       1.025  -3.831  -0.199  1.00  0.00    -0.205 OA
HETATM   17  O4  UNL     1       2.504  -3.173   1.586  1.00  0.00    -0.205 OA
BRANCH  15  18
HETATM   18  C6  UNL     1       2.805  -1.863  -0.715  1.00  0.00     0.202 C 
BRANCH  18  19
HETATM   19  C7  UNL     1       3.528  -0.706  -0.144  1.00  0.00    -0.043 A 
HETATM   20  C8  UNL     1       4.717  -0.941   0.507  1.00  0.00     0.008 A 
HETATM   21  C9  UNL     1       5.443   0.113   1.054  1.00  0.00     0.001 A 
HETATM   22  C10 UNL     1       4.920   1.378   0.913  1.00  0.00     0.000 A 
HETATM   23  C11 UNL     1       3.727   1.616   0.259  1.00  0.00     0.001 A 
HETATM   24  C12 UNL     1       3.032   0.558  -0.271  1.00  0.00     0.008 A 
ENDBRANCH  18  19
ENDBRANCH  15  18
ENDBRANCH   5  15
TORSDOF 6
