REMARK  5 active torsions:
REMARK  status: ('A' for Active; 'I' for Inactive)
REMARK    1  A    between atoms: N1_2  and  S1_4 
REMARK    2  A    between atoms: S1_4  and  C2_7 
REMARK    3  A    between atoms: C2_7  and  C3_8 
REMARK       I    between atoms: C3_8  and  N2_10 
REMARK    4  A    between atoms: N2_10  and  C4_12 
REMARK    5  A    between atoms: C12_23  and  C13_24 
ROOT
HETATM    1  C4  UNL     1       0.634  -0.206   0.003  1.00  0.00     0.092 C 
HETATM    2  C5  UNL     1       1.331  -0.826  -1.205  1.00  0.00     0.009 C 
HETATM    3  C6  UNL     1       0.930  -2.278  -1.055  1.00  0.00     0.007 C 
HETATM    4  C7  UNL     1       0.936  -2.494   0.423  1.00  0.00     0.007 C 
HETATM    5  C8  UNL     1       1.114  -1.146   1.084  1.00  0.00     0.009 C 
HETATM    6  C9  UNL     1       2.548  -0.824   1.359  1.00  0.00     0.020 C 
HETATM    7  C10 UNL     1       3.436  -0.872   0.176  1.00  0.00     0.013 C 
HETATM    8  C11 UNL     1       4.422  -2.041   0.308  1.00  0.00     0.244 C 
HETATM    9  N3  UNL     1       5.276  -1.128   1.058  1.00  0.00    -0.069 N 
ATOM     10  H31 UNL     1       6.285  -1.268   1.110  1.00  0.00     0.277 HD
ATOM     11  H32 UNL     1       5.255  -1.099   2.077  1.00  0.00     0.277 HD
HETATM   12  C12 UNL     1       4.703  -0.058   0.261  1.00  0.00     0.200 C 
HETATM   13  C16 UNL     1       2.800  -0.726  -1.144  1.00  0.00     0.020 C 
ENDROOT
BRANCH   1  14
HETATM   14  N2  UNL     1      -0.789  -0.225  -0.177  1.00  0.00    -0.354 N 
HETATM   15  C3  UNL     1      -1.639   0.882  -0.124  1.00  0.00     0.243 C 
HETATM   16  O3  UNL     1      -1.176   2.014   0.098  1.00  0.00    -0.272 OA
ATOM     17  H2  UNL     1      -1.220  -1.131  -0.361  1.00  0.00     0.162 HD
BRANCH  15  18
HETATM   18  C2  UNL     1      -3.135   0.783  -0.327  1.00  0.00     0.163 C 
HETATM   19  C17 UNL     1      -3.431   0.348  -1.749  1.00  0.00     0.037 C 
HETATM   20  C18 UNL     1      -3.804  -1.107  -1.632  1.00  0.00     0.002 C 
HETATM   21  C19 UNL     1      -4.215  -1.373  -0.227  1.00  0.00     0.002 C 
HETATM   22  C20 UNL     1      -3.647  -0.260   0.592  1.00  0.00     0.037 C 
BRANCH  18  23
HETATM   23  S1  UNL     1      -3.780   2.409  -0.081  1.00  0.00     0.243 S 
HETATM   24  O1  UNL     1      -3.348   2.923   1.282  1.00  0.00    -0.205 OA
HETATM   25  O2  UNL     1      -3.025   3.297  -1.079  1.00  0.00    -0.205 OA
BRANCH  23  26
HETATM   26  N1  UNL     1      -5.436   2.583  -0.292  1.00  0.00    -0.323 N 
HETATM   27  C1  UNL     1      -6.234   1.824   0.616  1.00  0.00     0.159 C 
ATOM     28  H1  UNL     1      -5.840   3.183  -1.011  1.00  0.00     0.171 HD
ENDBRANCH  23  26
ENDBRANCH  18  23
ENDBRANCH  15  18
ENDBRANCH   1  14
BRANCH  12  29
HETATM   29  C13 UNL     1       4.600   1.265   0.940  1.00  0.00     0.017 A 
HETATM   30  C14 UNL     1       3.731   2.350   0.504  1.00  0.00     0.007 A 
HETATM   31  C15 UNL     1       5.153   2.434   0.096  1.00  0.00     0.007 A 
ENDBRANCH  12  29
TORSDOF 5
