REMARK  2 active torsions:
REMARK  status: ('A' for Active; 'I' for Inactive)
REMARK    1  A    between atoms: C12_16  and  C13_17 
REMARK    2  A    between atoms: C13_17  and  O5_18 
ROOT
HETATM    1  C1  UNL     1      -4.620   0.906  -0.678  1.00  0.00     0.010 C 
HETATM    2  C2  UNL     1      -3.861  -0.380  -0.455  1.00  0.00    -0.018 C 
HETATM    3  C3  UNL     1      -2.816  -0.616  -1.528  1.00  0.00     0.010 C 
HETATM    4  C4  UNL     1      -1.546  -1.201  -0.960  1.00  0.00     0.075 C 
HETATM    5  C5  UNL     1      -0.803  -0.170  -0.101  1.00  0.00     0.235 C 
HETATM    6  O1  UNL     1      -0.027  -0.931   0.794  1.00  0.00    -0.194 OA
HETATM    7  O2  UNL     1       0.973  -1.409   0.086  1.00  0.00    -0.195 OA
HETATM    8  C6  UNL     1       1.881  -0.394  -0.263  1.00  0.00     0.229 C 
HETATM    9  C7  UNL     1       2.714  -0.096   0.966  1.00  0.00     0.074 C 
HETATM   10  C8  UNL     1       4.184  -0.178   0.719  1.00  0.00     0.006 C 
HETATM   11  C9  UNL     1       4.609   0.539  -0.541  1.00  0.00     0.000 C 
HETATM   12  C10 UNL     1       3.912  -0.093  -1.712  1.00  0.00     0.006 C 
HETATM   13  C11 UNL     1       2.756  -0.950  -1.352  1.00  0.00     0.074 C 
HETATM   14  O3  UNL     1       1.198   0.735  -0.605  1.00  0.00    -0.195 OA
HETATM   15  O4  UNL     1      -0.032   0.578  -0.949  1.00  0.00    -0.194 OA
HETATM   16  C12 UNL     1      -1.839   0.599   0.655  1.00  0.00     0.078 C 
HETATM   17  C14 UNL     1      -3.099  -0.256   0.862  1.00  0.00     0.016 C 
ENDROOT
BRANCH  16  18
HETATM   18  C13 UNL     1      -1.368   0.977   2.048  1.00  0.00     0.174 C 
BRANCH  18  19
HETATM   19  O5  UNL     1      -0.240   1.762   2.044  1.00  0.00    -0.400 OA
ATOM     20  H5  UNL     1       0.055   1.999   2.916  1.00  0.00     0.209 HD
ENDBRANCH  18  19
ENDBRANCH  16  18
TORSDOF 2
