REMARK  1 active torsions:
REMARK  status: ('A' for Active; 'I' for Inactive)
REMARK    1  A    between atoms: N2_3  and  C2_5 
ROOT
HETATM    1  N1  UNL     1       5.909  -0.231  -1.207  1.00  0.00    -0.172 NA
HETATM    2  C1  UNL     1       4.805   0.142  -1.317  1.00  0.00     0.184 C 
HETATM    3  N2  UNL     1       3.484   0.572  -1.467  1.00  0.00    -0.265 N 
ATOM      4  H2  UNL     1       3.162   0.883  -2.384  1.00  0.00     0.181 HD
ENDROOT
BRANCH   3   5
HETATM    5  C2  UNL     1       2.560   0.586  -0.350  1.00  0.00     0.196 A 
HETATM    6  N3  UNL     1       1.388   0.191  -0.478  1.00  0.00    -0.341 N 
HETATM    7  C3  UNL     1       0.517   0.217   0.624  1.00  0.00     0.105 A 
ATOM      8  H3  UNL     1       1.060  -0.151  -1.381  1.00  0.00     0.164 HD
HETATM    9  C4  UNL     1      -0.012  -1.122   1.057  1.00  0.00     0.045 C 
HETATM   10  C11 UNL     1      -0.519   1.262   0.432  1.00  0.00     0.084 C 
HETATM   11  S2  UNL     1       1.692   0.909   1.863  1.00  0.00    -0.020 SA
HETATM   12  C5  UNL     1      -0.178  -2.071  -0.109  1.00  0.00     0.008 C 
HETATM   13  C6  UNL     1      -0.980  -1.450  -1.222  1.00  0.00     0.047 C 
HETATM   14  C7  UNL     1      -2.004  -0.488  -0.691  1.00  0.00    -0.009 A 
HETATM   15  S1  UNL     1      -3.696  -0.621  -0.848  1.00  0.00    -0.082 SA
HETATM   16  C10 UNL     1      -1.853   0.673   0.016  1.00  0.00    -0.040 A 
HETATM   17  C8  UNL     1      -4.166   0.785  -0.021  1.00  0.00     0.075 A 
HETATM   18 CL1  UNL     1      -5.795   1.415   0.285  1.00  0.00    -0.076 Cl
HETATM   19  C9  UNL     1      -2.980   1.340   0.367  1.00  0.00     0.039 A 
HETATM   20  N4  UNL     1       2.976   1.049   0.910  1.00  0.00    -0.299 N 
ATOM     21  H4  UNL     1       3.899   1.400   1.165  1.00  0.00     0.177 HD
ENDBRANCH   3   5
TORSDOF 1
