REMARK  7 active torsions:
REMARK  status: ('A' for Active; 'I' for Inactive)
REMARK    1  A    between atoms: O1_2  and  N1_3 
REMARK       I    between atoms: N1_3  and  C2_5 
REMARK    2  A    between atoms: C2_5  and  C3_7 
REMARK    3  A    between atoms: C8_12  and  N2_13 
REMARK       I    between atoms: N2_13  and  C9_14 
REMARK    4  A    between atoms: C9_14  and  C10_16 
REMARK    5  A    between atoms: C11_17  and  C12_18 
REMARK    6  A    between atoms: C11_17  and  C13_21 
REMARK    7  A    between atoms: C13_21  and  C15_23 
ROOT
HETATM    1  N2  UNL     1       0.189  -1.064  -1.214  1.00  0.00    -0.366 NA
HETATM    2  C9  UNL     1      -0.904  -0.363  -1.485  1.00  0.00     0.317 C 
HETATM    3  O3  UNL     1      -1.426  -0.354  -2.669  1.00  0.00    -0.252 OA
ENDROOT
BRANCH   1   4
HETATM    4  C8  UNL     1       1.332  -1.797  -0.935  1.00  0.00     0.127 A 
HETATM    5  C3  UNL     1       2.347  -1.341  -0.095  1.00  0.00     0.074 A 
HETATM    6  C4  UNL     1       3.349  -2.188   0.370  1.00  0.00     0.020 A 
HETATM    7  C5  UNL     1       3.346  -3.530  -0.014  1.00  0.00     0.001 A 
HETATM    8  C6  UNL     1       2.378  -4.015  -0.834  1.00  0.00     0.003 A 
HETATM    9  C7  UNL     1       1.389  -3.174  -1.286  1.00  0.00     0.046 A 
BRANCH   5  10
HETATM   10  C2  UNL     1       2.479   0.063   0.228  1.00  0.00     0.278 C 
HETATM   11  N1  UNL     1       3.437   0.576   1.142  1.00  0.00    -0.231 N 
ATOM     12  H1  UNL     1       4.075  -0.060   1.621  1.00  0.00     0.197 HD
HETATM   13  O2  UNL     1       1.717   0.895  -0.310  1.00  0.00    -0.265 OA
BRANCH  11  14
HETATM   14  O1  UNL     1       3.506   1.913   1.380  1.00  0.00    -0.282 OA
HETATM   15  C1  UNL     1       4.588   2.483   0.709  1.00  0.00     0.237 C 
ENDBRANCH  11  14
ENDBRANCH   5  10
ENDBRANCH   1   4
BRANCH   2  16
HETATM   16  C10 UNL     1      -1.647   0.435  -0.524  1.00  0.00     0.105 C 
HETATM   17  C11 UNL     1      -2.682   1.152  -0.701  1.00  0.00     0.039 C 
BRANCH  17  18
HETATM   18  C12 UNL     1      -3.473   1.456  -1.859  1.00  0.00     0.206 C 
HETATM   19  O4  UNL     1      -4.534   2.254  -1.677  1.00  0.00    -0.644 OA
HETATM   20  O5  UNL     1      -3.363   1.085  -3.152  1.00  0.00    -0.644 OA
ENDBRANCH  17  18
BRANCH  17  21
HETATM   21  C13 UNL     1      -3.306   1.741   0.598  1.00  0.00     0.122 C 
HETATM   22  C14 UNL     1      -2.689   1.047   1.781  1.00  0.00     0.026 C 
BRANCH  21  23
HETATM   23  C15 UNL     1      -4.751   1.298   0.623  1.00  0.00     0.181 C 
HETATM   24  O6  UNL     1      -5.597   2.169   0.938  1.00  0.00    -0.647 OA
HETATM   25  O7  UNL     1      -5.086   0.033   0.320  1.00  0.00    -0.647 OA
ENDBRANCH  21  23
ENDBRANCH  17  21
ENDBRANCH   2  16
TORSDOF 7
