REMARK  6 active torsions:
REMARK  status: ('A' for Active; 'I' for Inactive)
REMARK    1  A    between atoms: C2_2  and  C3_3 
REMARK    2  A    between atoms: C3_3  and  N1_4 
REMARK    3  A    between atoms: C4_5  and  C5_6 
REMARK       I    between atoms: C5_6  and  N2_8 
REMARK    4  A    between atoms: N2_8  and  C6_10 
REMARK    5  A    between atoms: C13_22  and  N6_23 
REMARK    6  A    between atoms: N6_23  and  C14_25 
ROOT
HETATM    1  N1  UNL     1       0.218   0.544  -0.444  1.00  0.00    -0.335 N 
HETATM    2  C4  UNL     1      -0.033  -0.361   0.485  1.00  0.00     0.106 A 
HETATM    3  C11 UNL     1       1.159  -1.028   0.747  1.00  0.00     0.068 A 
HETATM    4  C12 UNL     1       2.178  -0.502  -0.063  1.00  0.00     0.071 A 
HETATM    5  N5  UNL     1       3.455  -0.694  -0.274  1.00  0.00    -0.334 N 
ATOM      6  H5  UNL     1       3.965  -1.410   0.244  1.00  0.00     0.168 HD
HETATM    7  C13 UNL     1       4.077   0.064  -1.179  1.00  0.00     0.147 A 
HETATM    8  S1  UNL     1       2.822   1.077  -1.747  1.00  0.00    -0.034 SA
HETATM    9  C17 UNL     1       1.548   0.468  -0.782  1.00  0.00     0.107 A 
ENDROOT
BRANCH   2  10
HETATM   10  C5  UNL     1      -1.316  -0.645   1.141  1.00  0.00     0.274 C 
HETATM   11  O1  UNL     1      -1.361  -1.562   2.023  1.00  0.00    -0.266 OA
HETATM   12  N2  UNL     1      -2.518   0.013   0.879  1.00  0.00    -0.306 N 
ATOM     13  H2  UNL     1      -2.464   1.024   0.752  1.00  0.00     0.170 HD
BRANCH  12  14
HETATM   14  C6  UNL     1      -3.669  -0.506   0.781  1.00  0.00     0.126 A 
HETATM   15  C7  UNL     1      -3.974  -1.835   0.913  1.00  0.00     0.076 A 
HETATM   16  C8  UNL     1      -5.355  -1.973   0.731  1.00  0.00     0.025 A 
HETATM   17  C9  UNL     1      -6.166  -3.198   0.776  1.00  0.00     0.070 C 
HETATM   18  N3  UNL     1      -5.805  -0.743   0.503  1.00  0.00    -0.302 N 
HETATM   19  N4  UNL     1      -4.810   0.138   0.530  1.00  0.00    -0.281 N 
ATOM     20  H3  UNL     1      -6.782  -0.507   0.331  1.00  0.00     0.186 HD
HETATM   21  C10 UNL     1      -4.956   1.572   0.318  1.00  0.00     0.179 C 
ENDBRANCH  12  14
ENDBRANCH   2  10
BRANCH   1  22
HETATM   22  C3  UNL     1      -0.654   1.511  -1.079  1.00  0.00     0.130 C 
BRANCH  22  23
HETATM   23  C2  UNL     1      -0.633   2.825  -0.292  1.00  0.00     0.016 C 
HETATM   24  C1  UNL     1      -1.540   3.841  -0.941  1.00  0.00     0.006 C 
ENDBRANCH  22  23
ENDBRANCH   1  22
BRANCH   7  25
HETATM   25  N6  UNL     1       5.343   0.028  -1.535  1.00  0.00    -0.366 N 
ATOM     26  H6  UNL     1       5.694   0.669  -2.247  1.00  0.00     0.162 HD
BRANCH  25  27
HETATM   27  C14 UNL     1       6.234  -0.924  -0.912  1.00  0.00     0.075 C 
HETATM   28  C15 UNL     1       7.517  -1.088  -1.699  1.00  0.00     0.032 C 
HETATM   29  C16 UNL     1       6.513  -0.427   0.496  1.00  0.00     0.032 C 
ENDBRANCH  25  27
ENDBRANCH   7  25
TORSDOF 6
