REMARK  16 active torsions:
REMARK  status: ('A' for Active; 'I' for Inactive)
REMARK    1  A    between atoms: O1_2  and  C2_3 
REMARK       I    between atoms: C2_3  and  N1_5 
REMARK    2  A    between atoms: N1_5  and  N2_7 
REMARK       I    between atoms: N2_7  and  C3_9 
REMARK    3  A    between atoms: C3_9  and  C4_11 
REMARK    4  A    between atoms: C4_11  and  O5_13 
REMARK    5  A    between atoms: O5_13  and  C5_14 
REMARK    6  A    between atoms: C5_14  and  C6_15 
REMARK    7  A    between atoms: C6_15  and  C7_17 
REMARK    8  A    between atoms: C8_18  and  N3_19 
REMARK    9  A    between atoms: N3_19  and  N4_21 
REMARK   10  A    between atoms: N4_21  and  N5_22 
REMARK   11  A    between atoms: C11_31  and  N9_32 
REMARK   12  A    between atoms: C12_35  and  N10_36 
REMARK   13  A    between atoms: N10_36  and  C13_38 
REMARK   14  A    between atoms: C15_40  and  O7_41 
REMARK   15  A    between atoms: C15_40  and  C16_43 
REMARK   16  A    between atoms: C16_43  and  O8_44 
ROOT
HETATM    1  C7  UNL     1      -0.896  -0.412  -0.552  1.00  0.00     0.072 C 
HETATM    2  C8  UNL     1      -1.237  -1.593   0.088  1.00  0.00     0.090 C 
HETATM    3  C9  UNL     1      -2.272  -2.500  -0.199  1.00  0.00     0.116 C 
HETATM    4  N6  UNL     1      -2.227  -3.772   0.399  1.00  0.00    -0.096 NA
HETATM    5  C10 UNL     1      -3.353  -2.297  -1.014  1.00  0.00     0.144 C 
HETATM    6  N7  UNL     1      -4.395  -3.291  -1.018  1.00  0.00    -0.081 NA
HETATM    7  N8  UNL     1      -3.603  -1.254  -1.858  1.00  0.00    -0.328 N 
ATOM      8  H8  UNL     1      -4.461  -1.329  -2.404  1.00  0.00     0.168 HD
HETATM    9  C11 UNL     1      -2.879  -0.142  -2.072  1.00  0.00     0.128 C 
HETATM   10  C12 UNL     1      -1.821   0.314  -1.282  1.00  0.00     0.089 C 
ENDROOT
BRANCH   1  11
HETATM   11  C6  UNL     1       0.459   0.022  -0.438  1.00  0.00     0.188 C 
HETATM   12  O6  UNL     1       1.230  -0.727   0.266  1.00  0.00    -0.290 OA
BRANCH  11  13
HETATM   13  C5  UNL     1       1.118   1.199  -1.005  1.00  0.00     0.263 C 
BRANCH  13  14
HETATM   14  O5  UNL     1       2.538   1.181  -0.764  1.00  0.00    -0.306 OA
BRANCH  14  15
HETATM   15  C4  UNL     1       3.397   0.240  -1.241  1.00  0.00     0.353 C 
HETATM   16  O4  UNL     1       2.965  -0.697  -1.954  1.00  0.00    -0.254 OA
BRANCH  15  17
HETATM   17  C3  UNL     1       4.843   0.254  -0.964  1.00  0.00     0.335 C 
HETATM   18  N2  UNL     1       5.710  -0.741  -1.472  1.00  0.00    -0.257 N 
ATOM     19  H2  UNL     1       5.334  -1.495  -2.047  1.00  0.00     0.190 HD
HETATM   20  O3  UNL     1       5.316   1.183  -0.253  1.00  0.00    -0.260 OA
BRANCH  18  21
HETATM   21  N1  UNL     1       7.073  -0.699  -1.192  1.00  0.00    -0.242 N 
HETATM   22  C2  UNL     1       7.515  -0.846   0.143  1.00  0.00     0.379 C 
HETATM   23  O2  UNL     1       6.670  -1.011   1.051  1.00  0.00    -0.237 OA
ATOM     24  H1  UNL     1       7.748  -0.563  -1.945  1.00  0.00     0.192 HD
BRANCH  22  25
HETATM   25  O1  UNL     1       8.848  -0.817   0.513  1.00  0.00    -0.308 OA
HETATM   26  C1  UNL     1       9.251  -0.969   1.874  1.00  0.00     0.215 C 
ENDBRANCH  22  25
ENDBRANCH  18  21
ENDBRANCH  15  17
ENDBRANCH  14  15
ENDBRANCH  13  14
ENDBRANCH  11  13
ENDBRANCH   1  11
BRANCH   2  27
HETATM   27  N3  UNL     1      -0.477  -2.000   1.180  1.00  0.00    -0.282 N 
ATOM     28  H3  UNL     1       0.281  -2.669   1.047  1.00  0.00     0.184 HD
BRANCH  27  29
HETATM   29  N4  UNL     1      -0.742  -1.502   2.453  1.00  0.00    -0.029 NA
BRANCH  29  30
HETATM   30  N5  UNL     1      -2.069  -1.661   2.812  1.00  0.00    -0.329 N 
ATOM     31  H52 UNL     1      -2.762  -2.096   2.202  1.00  0.00     0.174 HD
ATOM     32  H51 UNL     1      -2.263  -1.296   3.745  1.00  0.00     0.174 HD
ENDBRANCH  29  30
ENDBRANCH  27  29
ENDBRANCH   2  27
BRANCH  10  33
HETATM   33  N10 UNL     1      -1.687   1.700  -1.234  1.00  0.00    -0.372 N 
ATOM     34  H10 UNL     1      -1.130   2.145  -1.963  1.00  0.00     0.161 HD
BRANCH  33  35
HETATM   35  C13 UNL     1      -2.278   2.557  -0.229  1.00  0.00     0.150 C 
HETATM   36  C14 UNL     1      -3.769   2.544  -0.107  1.00  0.00     0.087 C 
HETATM   37  C15 UNL     1      -3.935   2.475   1.417  1.00  0.00     0.131 C 
HETATM   38  S1  UNL     1      -2.198   1.942   1.475  1.00  0.00    -0.104 SA
BRANCH  37  39
HETATM   39  O7  UNL     1      -4.813   1.508   1.864  1.00  0.00    -0.377 OA
ATOM     40  H7  UNL     1      -4.916   1.465   2.807  1.00  0.00     0.211 HD
ENDBRANCH  37  39
BRANCH  37  41
HETATM   41  C16 UNL     1      -4.191   3.814   2.047  1.00  0.00     0.213 C 
BRANCH  41  42
HETATM   42  O8  UNL     1      -5.482   4.243   1.746  1.00  0.00    -0.397 OA
ATOM     43  H8  UNL     1      -5.644   5.090   2.145  1.00  0.00     0.209 HD
ENDBRANCH  41  42
ENDBRANCH  37  41
ENDBRANCH  33  35
ENDBRANCH  10  33
BRANCH   9  44
HETATM   44  N9  UNL     1      -3.174   0.593  -3.110  1.00  0.00    -0.384 N 
ATOM     45  H92 UNL     1      -3.947   0.260  -3.687  1.00  0.00     0.157 HD
ATOM     46  H91 UNL     1      -2.625   1.437  -3.272  1.00  0.00     0.157 HD
ENDBRANCH   9  44
TORSDOF 16
