REMARK  3 active torsions:
REMARK  status: ('A' for Active; 'I' for Inactive)
REMARK    1  A    between atoms: C6_11  and  C7_12 
REMARK    2  A    between atoms: N3_21  and  C15_22 
REMARK    3  A    between atoms: C20_28  and  C21_29 
ROOT
HETATM    1  N1  UNL     1       7.556  -2.115  -1.708  1.00  0.00    -0.196 NA
HETATM    2  C1  UNL     1       6.531  -2.178  -1.196  1.00  0.00     0.076 C 
HETATM    3  C2  UNL     1       5.243  -2.283  -0.566  1.00  0.00     0.216 C 
HETATM    4  C3  UNL     1       5.295  -2.149   0.928  1.00  0.00     0.267 C 
HETATM    5  O1  UNL     1       6.264  -2.341   1.684  1.00  0.00    -0.269 OA
HETATM    6  N2  UNL     1       3.970  -1.745   1.306  1.00  0.00    -0.159 N 
HETATM    7  C4  UNL     1       3.045  -1.766   2.369  1.00  0.00     0.396 A 
HETATM    8  O2  UNL     1       3.195  -2.255   3.526  1.00  0.00    -0.235 OA
HETATM    9  O3  UNL     1       1.915  -1.140   1.906  1.00  0.00    -0.241 OA
HETATM   10  C5  UNL     1       2.060  -0.707   0.579  1.00  0.00     0.172 A 
HETATM   11  C6  UNL     1       1.118  -0.070  -0.119  1.00  0.00     0.070 C 
HETATM   12  N4  UNL     1       3.366  -1.091   0.200  1.00  0.00    -0.245 N 
HETATM   13  C20 UNL     1       4.332  -1.081  -0.871  1.00  0.00     0.178 C 
ENDROOT
BRANCH  13  14
HETATM   14  C21 UNL     1       5.203   0.136  -0.666  1.00  0.00     0.009 A 
HETATM   15  C22 UNL     1       5.565   1.076  -1.594  1.00  0.00     0.017 A 
HETATM   16  C23 UNL     1       6.360   2.070  -1.186  1.00  0.00     0.008 A 
HETATM   17  C24 UNL     1       6.748   2.072   0.124  1.00  0.00     0.050 A 
HETATM   18  S1  UNL     1       5.986   0.677   0.748  1.00  0.00    -0.104 SA
ENDBRANCH  13  14
BRANCH  11  19
HETATM   19  C7  UNL     1      -0.174   0.211   0.524  1.00  0.00    -0.017 A 
HETATM   20  C8  UNL     1      -0.255   0.678   1.817  1.00  0.00     0.054 A 
HETATM   21  C9  UNL     1      -1.492   0.907   2.406  1.00  0.00     0.119 A 
HETATM   22  F1  UNL     1      -1.571   1.363   3.675  1.00  0.00    -0.206 F 
HETATM   23  C10 UNL     1      -2.671   0.680   1.731  1.00  0.00     0.072 A 
HETATM   24  C11 UNL     1      -2.599   0.214   0.441  1.00  0.00     0.048 A 
HETATM   25  C12 UNL     1      -1.366  -0.012  -0.140  1.00  0.00     0.003 A 
HETATM   26  N3  UNL     1      -3.608  -0.084  -0.415  1.00  0.00    -0.351 N 
HETATM   27  C13 UNL     1      -1.634  -0.464  -1.404  1.00  0.00     0.032 A 
HETATM   28  C14 UNL     1      -2.978  -0.498  -1.541  1.00  0.00     0.092 A 
BRANCH  26  29
HETATM   29  C15 UNL     1      -5.025  -0.034  -0.282  1.00  0.00     0.089 C 
HETATM   30  C16 UNL     1      -5.628  -0.030  -1.687  1.00  0.00     0.026 C 
HETATM   31  C17 UNL     1      -6.997   0.581  -1.575  1.00  0.00     0.002 C 
HETATM   32  C18 UNL     1      -7.027   1.324  -0.281  1.00  0.00     0.002 C 
HETATM   33  C19 UNL     1      -5.626   1.171   0.318  1.00  0.00     0.026 C 
ENDBRANCH  26  29
ENDBRANCH  11  19
TORSDOF 3
