REMARK  2 active torsions:
REMARK  status: ('A' for Active; 'I' for Inactive)
REMARK    1  A    between atoms: O1_1  and  C1_3 
REMARK    2  A    between atoms: C3_8  and  C4_10 
ROOT
HETATM    1  C1  UNL     1       1.659   0.130   0.140  1.00  0.00     0.340 C 
HETATM    2  O2  UNL     1       1.102   0.745   1.230  1.00  0.00    -0.286 OA
HETATM    3  C2  UNL     1      -0.229   1.028   0.942  1.00  0.00     0.404 C 
HETATM    4  F1  UNL     1      -0.328   2.419   0.892  1.00  0.00    -0.171 F 
HETATM    5  F2  UNL     1      -0.964   0.544   2.027  1.00  0.00    -0.171 F 
HETATM    6  C3  UNL     1      -0.585   0.369  -0.337  1.00  0.00     0.322 C 
HETATM    7  F3  UNL     1      -0.376   1.243  -1.387  1.00  0.00    -0.221 F 
HETATM    8  C5  UNL     1       0.504  -0.691  -0.445  1.00  0.00     0.341 C 
HETATM    9  F6  UNL     1       0.203  -1.730   0.402  1.00  0.00    -0.197 F 
HETATM   10  F7  UNL     1       0.738  -1.075  -1.726  1.00  0.00    -0.197 F 
ENDROOT
BRANCH   6  11
HETATM   11  C4  UNL     1      -1.953  -0.218  -0.406  1.00  0.00     0.408 C 
HETATM   12  F4  UNL     1      -2.095  -0.785  -1.675  1.00  0.00    -0.210 F 
HETATM   13  F5  UNL     1      -2.243  -1.147   0.529  1.00  0.00    -0.210 F 
ENDBRANCH   6  11
BRANCH   1  14
HETATM   14  O1  UNL     1       2.720  -0.681   0.510  1.00  0.00    -0.366 OA
ATOM     15  H1  UNL     1       3.106  -1.107  -0.246  1.00  0.00     0.212 HD
ENDBRANCH   1  14
TORSDOF 2
