REMARK  5 active torsions:
REMARK  status: ('A' for Active; 'I' for Inactive)
REMARK    1  A    between atoms: C2_2  and  O1_5 
REMARK    2  A    between atoms: O1_5  and  C5_6 
REMARK       I    between atoms: C5_6  and  N1_8 
REMARK       I    between atoms: N1_8  and  C6_10 
REMARK       I    between atoms: C6_10  and  N2_12 
REMARK    3  A    between atoms: C10_16  and  C11_17 
REMARK    4  A    between atoms: C11_17  and  N3_18 
REMARK       I    between atoms: N3_18  and  C12_20 
REMARK    5  A    between atoms: C12_20  and  C13_22 
ROOT
HETATM    1  C5  UNL     1       3.245  -0.479   0.010  1.00  0.00     0.369 C 
HETATM    2  O2  UNL     1       4.040  -1.459  -0.021  1.00  0.00    -0.238 OA
HETATM    3  N1  UNL     1       1.893  -0.672   0.458  1.00  0.00    -0.254 N 
ATOM      4  H1  UNL     1       1.249   0.118   0.484  1.00  0.00     0.175 HD
HETATM    5  C6  UNL     1       1.450  -1.962   0.865  1.00  0.00     0.327 C 
HETATM    6  O3  UNL     1       2.237  -2.920   0.831  1.00  0.00    -0.247 OA
HETATM    7  N2  UNL     1       0.124  -2.128   1.298  1.00  0.00    -0.328 N 
HETATM    8  C7  UNL     1      -0.441  -3.382   1.734  1.00  0.00     0.128 C 
HETATM    9  C8  UNL     1      -1.919  -3.139   1.924  1.00  0.00     0.022 C 
HETATM   10  C9  UNL     1      -1.983  -1.684   2.274  1.00  0.00     0.028 C 
HETATM   11  C10 UNL     1      -0.881  -1.100   1.381  1.00  0.00     0.106 C 
ENDROOT
BRANCH  11  12
HETATM   12  C11 UNL     1      -1.499  -0.769   0.060  1.00  0.00     0.147 C 
BRANCH  12  13
HETATM   13  N3  UNL     1      -2.494   0.273   0.254  1.00  0.00    -0.359 N 
HETATM   14  C12 UNL     1      -3.230   0.772  -0.841  1.00  0.00     0.221 C 
HETATM   15  O4  UNL     1      -3.029   0.319  -1.989  1.00  0.00    -0.273 OA
ATOM     16  H3  UNL     1      -2.661   0.646   1.189  1.00  0.00     0.162 HD
BRANCH  14  17
HETATM   17  C13 UNL     1      -4.232   1.824  -0.641  1.00  0.00     0.078 C 
HETATM   18  C14 UNL     1      -4.940   2.257  -1.907  1.00  0.00     0.014 C 
HETATM   19  C15 UNL     1      -6.220   2.338  -1.086  1.00  0.00     0.002 C 
HETATM   20  C16 UNL     1      -5.590   1.315  -0.146  1.00  0.00     0.014 C 
ENDBRANCH  14  17
ENDBRANCH  12  13
ENDBRANCH  11  12
BRANCH   1  21
HETATM   21  O1  UNL     1       3.718   0.748  -0.392  1.00  0.00    -0.294 OA
BRANCH  21  22
HETATM   22  C2  UNL     1       5.038   0.975  -0.837  1.00  0.00     0.061 C 
HETATM   23  C1  UNL     1       6.070   0.636   0.208  1.00  0.00     0.046 C 
HETATM   24  C3  UNL     1       5.353   0.228  -2.105  1.00  0.00     0.046 C 
HETATM   25  C4  UNL     1       5.151   2.484  -1.084  1.00  0.00     0.046 C 
ENDBRANCH  21  22
ENDBRANCH   1  21
TORSDOF 5
