REMARK  10 active torsions:
REMARK  status: ('A' for Active; 'I' for Inactive)
REMARK    1  A    between atoms: O1_2  and  C2_3 
REMARK    2  A    between atoms: C2_3  and  O2_4 
REMARK    3  A    between atoms: C2_3  and  C3_6 
REMARK    4  A    between atoms: C4_9  and  C5_10 
REMARK    5  A    between atoms: C6_13  and  C7_14 
REMARK    6  A    between atoms: C7_14  and  N3_15 
REMARK    7  A    between atoms: N3_15  and  C8_17 
REMARK    8  A    between atoms: C9_20  and  N5_21 
REMARK    9  A    between atoms: C13_37  and  N10_38 
REMARK   10  A    between atoms: C14_41  and  O5_42 
ROOT
HETATM    1  C5  UNL     1       0.481   1.338  -0.115  1.00  0.00     0.216 A 
HETATM    2  N2  UNL     1      -0.101   0.385   0.615  1.00  0.00    -0.314 N 
ATOM      3  H2  UNL     1       0.359  -0.426   1.028  1.00  0.00     0.169 HD
HETATM    4  C6  UNL     1      -1.407   0.693   0.705  1.00  0.00     0.184 A 
HETATM    5  N8  UNL     1      -1.546   1.832   0.016  1.00  0.00    -0.240 N 
ATOM      6  H8  UNL     1      -2.430   2.327  -0.104  1.00  0.00     0.196 HD
HETATM    7  O4  UNL     1      -0.421   2.223  -0.477  1.00  0.00    -0.214 OA
ENDROOT
BRANCH   1   8
HETATM    8  C4  UNL     1       1.881   1.425  -0.475  1.00  0.00     0.162 A 
HETATM    9  N1  UNL     1       2.728   0.464  -0.052  1.00  0.00    -0.336 N 
HETATM   10  C3  UNL     1       4.047   0.488  -0.355  1.00  0.00     0.103 A 
ATOM     11  H1  UNL     1       2.364  -0.303   0.513  1.00  0.00     0.167 HD
HETATM   12  C14 UNL     1       4.529   1.517  -1.110  1.00  0.00     0.137 A 
HETATM   13  C13 UNL     1       3.656   2.503  -1.542  1.00  0.00     0.136 A 
HETATM   14  N9  UNL     1       2.376   2.415  -1.208  1.00  0.00    -0.323 N 
ATOM     15  H9  UNL     1       1.740   3.144  -1.530  1.00  0.00     0.169 HD
BRANCH  10  16
HETATM   16  C2  UNL     1       4.897  -0.611   0.149  1.00  0.00     0.310 C 
BRANCH  16  17
HETATM   17  O1  UNL     1       4.242  -1.851  -0.054  1.00  0.00    -0.360 OA
HETATM   18  C1  UNL     1       5.074  -2.728  -0.768  1.00  0.00     0.205 C 
ENDBRANCH  16  17
BRANCH  16  19
HETATM   19  O2  UNL     1       5.103  -0.401   1.522  1.00  0.00    -0.366 OA
ATOM     20  H2  UNL     1       5.542   0.430   1.658  1.00  0.00     0.213 HD
ENDBRANCH  16  19
ENDBRANCH  10  16
BRANCH  12  21
HETATM   21  O5  UNL     1       5.845   1.615  -1.458  1.00  0.00    -0.355 OA
ATOM     22  H5  UNL     1       6.181   2.332  -1.984  1.00  0.00     0.218 HD
ENDBRANCH  12  21
BRANCH  13  23
HETATM   23  N10 UNL     1       4.083   3.494  -2.261  1.00  0.00    -0.383 N 
ATOM     24 2H10 UNL     1       3.441   4.220  -2.579  1.00  0.00     0.157 HD
ATOM     25 1H10 UNL     1       5.068   3.562  -2.518  1.00  0.00     0.157 HD
ENDBRANCH  13  23
ENDBRANCH   1   8
BRANCH   4  26
HETATM   26  C7  UNL     1      -2.377  -0.136   1.451  1.00  0.00     0.290 A 
HETATM   27  N6  UNL     1      -2.162  -1.550   1.153  1.00  0.00    -0.302 N 
HETATM   28  C12 UNL     1      -1.783  -1.867   2.319  1.00  0.00     0.235 A 
ATOM     29  H6  UNL     1      -2.278  -2.095   0.299  1.00  0.00     0.168 HD
HETATM   30  N7  UNL     1      -1.347  -3.027   3.038  1.00  0.00    -0.056 NA
HETATM   31  O3  UNL     1      -1.946  -0.559   2.726  1.00  0.00    -0.266 OA
BRANCH  26  32
HETATM   32  N3  UNL     1      -3.760   0.230   1.359  1.00  0.00    -0.319 N 
ATOM     33  H3  UNL     1      -4.235   0.549   2.203  1.00  0.00     0.166 HD
BRANCH  32  34
HETATM   34  C8  UNL     1      -4.523   0.168   0.112  1.00  0.00     0.120 A 
HETATM   35  N4  UNL     1      -4.010  -0.248  -1.023  1.00  0.00    -0.322 N 
HETATM   36  C9  UNL     1      -4.788  -0.277  -2.106  1.00  0.00     0.144 A 
ATOM     37  H4  UNL     1      -3.035  -0.543  -1.075  1.00  0.00     0.169 HD
HETATM   38  S1  UNL     1      -6.281   0.294  -1.528  1.00  0.00    -0.056 SA
HETATM   39  C10 UNL     1      -5.845   0.549   0.093  1.00  0.00     0.026 A 
HETATM   40  C11 UNL     1      -6.696   1.062   1.221  1.00  0.00     0.060 C 
BRANCH  36  41
HETATM   41  N5  UNL     1      -4.442  -0.663  -3.319  1.00  0.00    -0.380 N 
ATOM     42  H52 UNL     1      -3.546  -1.006  -3.666  1.00  0.00     0.158 HD
ATOM     43  H51 UNL     1      -5.037  -0.685  -4.147  1.00  0.00     0.158 HD
ENDBRANCH  36  41
ENDBRANCH  32  34
ENDBRANCH  26  32
ENDBRANCH   4  26
TORSDOF 10
