REMARK  3 active torsions:
REMARK  status: ('A' for Active; 'I' for Inactive)
REMARK    1  A    between atoms: N1_2  and  C2_3 
REMARK       I    between atoms: N1_2  and  C4_6 
REMARK    2  A    between atoms: C2_3  and  C3_4 
REMARK       I    between atoms: C4_6  and  N2_8 
REMARK       I    between atoms: N2_8  and  C5_10 
REMARK       I    between atoms: C5_10  and  N3_12 
REMARK    3  A    between atoms: N3_12  and  C6_14 
ROOT
HETATM    1  C6  UNL     1      -0.306   0.136   0.321  1.00  0.00     0.050 A 
HETATM    2  C7  UNL     1      -0.778   1.292   1.279  1.00  0.00     0.022 A 
HETATM    3  C8  UNL     1      -1.721   2.302   0.657  1.00  0.00     0.008 C 
HETATM    4  C9  UNL     1      -3.182   1.940   0.832  1.00  0.00     0.006 C 
HETATM    5  C10 UNL     1      -4.164   2.098  -0.179  1.00  0.00    -0.003 A 
HETATM    6  C11 UNL     1      -4.917   0.819  -0.440  1.00  0.00     0.019 A 
HETATM    7  C12 UNL     1      -4.496  -0.440   0.079  1.00  0.00     0.173 C 
HETATM    8  O3  UNL     1      -3.375  -1.111   0.024  1.00  0.00    -0.385 OA
HETATM    9  C13 UNL     1      -2.418  -0.878  -0.992  1.00  0.00     0.133 C 
HETATM   10  C14 UNL     1      -3.233  -0.362  -2.113  1.00  0.00     0.020 A 
HETATM   11  C15 UNL     1      -2.944   0.195  -3.366  1.00  0.00     0.013 A 
HETATM   12  C16 UNL     1      -3.133   1.048  -2.218  1.00  0.00    -0.003 A 
HETATM   13  C17 UNL     1      -4.286   1.558  -1.475  1.00  0.00     0.001 A 
HETATM   14  C18 UNL     1      -1.391  -0.039  -0.529  1.00  0.00     0.051 A 
HETATM   15  C19 UNL     1      -1.363  -0.013   1.033  1.00  0.00     0.030 A 
ENDROOT
BRANCH   1  16
HETATM   16  N3  UNL     1       1.076  -0.091   0.211  1.00  0.00    -0.332 N 
HETATM   17  C5  UNL     1       1.855  -0.434   1.332  1.00  0.00     0.324 C 
HETATM   18  N2  UNL     1       3.234  -0.692   1.392  1.00  0.00    -0.261 N 
HETATM   19  O2  UNL     1       1.215  -0.522   2.455  1.00  0.00    -0.247 OA
HETATM   20  C4  UNL     1       4.152  -0.671   0.347  1.00  0.00     0.326 C 
ATOM     21  H2  UNL     1       3.608  -0.923   2.313  1.00  0.00     0.175 HD
HETATM   22  N1  UNL     1       5.522  -0.961   0.595  1.00  0.00    -0.336 N 
HETATM   23  O1  UNL     1       3.805  -0.403  -0.821  1.00  0.00    -0.247 OA
HETATM   24  C1  UNL     1       6.436  -0.935  -0.553  1.00  0.00     0.154 C 
ATOM     25  H3  UNL     1       1.525  -0.005  -0.701  1.00  0.00     0.165 HD
BRANCH  22  26
HETATM   26  C2  UNL     1       6.052  -1.267   1.909  1.00  0.00     0.158 C 
BRANCH  26  27
HETATM   27  C3  UNL     1       5.973  -2.763   2.163  1.00  0.00     0.242 C 
HETATM   28  F1  UNL     1       6.700  -3.457   1.228  1.00  0.00    -0.254 F 
ENDBRANCH  26  27
ENDBRANCH  22  26
ENDBRANCH   1  16
TORSDOF 3
