REMARK  3 active torsions:
REMARK  status: ('A' for Active; 'I' for Inactive)
REMARK    1  A    between atoms: C6_6  and  O1_7 
REMARK    2  A    between atoms: O1_7  and  C7_8 
REMARK       I    between atoms: C7_8  and  N1_10 
REMARK       I    between atoms: N1_10  and  C8_12 
REMARK    3  A    between atoms: C9_18  and  C10_19 
ROOT
HETATM    1  C1  UNL     1      -3.423   1.095   0.071  1.00  0.00     0.050 C 
HETATM    2  C2  UNL     1      -1.994   0.677   0.263  1.00  0.00     0.152 C 
HETATM    3  C3  UNL     1      -1.862   0.257   1.737  1.00  0.00     0.044 C 
HETATM    4  C4  UNL     1      -0.881  -0.895   1.723  1.00  0.00     0.041 C 
HETATM    5  C5  UNL     1      -0.415  -0.880   0.280  1.00  0.00     0.246 C 
HETATM    6  C6  UNL     1       0.638   0.161   0.029  1.00  0.00     0.302 C 
HETATM    7  O3  UNL     1       0.268   1.454   0.107  1.00  0.00    -0.350 OA
HETATM    8  C9  UNL     1      -1.039   1.806   0.078  1.00  0.00     0.170 C 
HETATM    9  N4  UNL     1      -1.654  -0.539  -0.398  1.00  0.00    -0.055 N 
HETATM   10  C11 UNL     1      -1.528  -0.472  -1.818  1.00  0.00     0.273 C 
HETATM   11  C12 UNL     1      -2.669  -1.527  -0.104  1.00  0.00     0.273 C 
ENDROOT
BRANCH   6  12
HETATM   12  O1  UNL     1       1.693  -0.040   0.949  1.00  0.00    -0.270 OA
BRANCH  12  13
HETATM   13  C7  UNL     1       2.937  -0.415   0.472  1.00  0.00     0.369 C 
HETATM   14  O2  UNL     1       3.106  -0.570  -0.769  1.00  0.00    -0.238 OA
HETATM   15  N1  UNL     1       4.053  -0.638   1.331  1.00  0.00    -0.277 N 
HETATM   16  C8  UNL     1       5.299  -1.021   0.777  1.00  0.00     0.190 C 
ATOM     17  H1  UNL     1       3.955  -0.522   2.340  1.00  0.00     0.173 HD
HETATM   18  N2  UNL     1       6.296  -1.218   1.569  1.00  0.00    -0.373 N 
HETATM   19  N3  UNL     1       5.523  -1.202  -0.602  1.00  0.00    -0.064 NA
ATOM     20  H22 UNL     1       6.134  -1.087   2.567  1.00  0.00     0.158 HD
ATOM     21  H21 UNL     1       7.193  -1.494   1.170  1.00  0.00     0.158 HD
ENDBRANCH  12  13
ENDBRANCH   6  12
BRANCH   8  22
HETATM   22  C10 UNL     1      -1.406   2.724  -1.068  1.00  0.00     0.120 C 
HETATM   23 BR1  UNL     1      -0.099   4.163  -1.224  1.00  0.00    -0.094 Br
ENDBRANCH   8  22
TORSDOF 3
