REMARK  1 active torsions:
REMARK  status: ('A' for Active; 'I' for Inactive)
REMARK    1  A    between atoms: N3_10  and  N4_11 
ROOT
HETATM    1  C1  UNL     1       1.992   1.043   1.010  1.00  0.00     0.197 C 
HETATM    2  N1  UNL     1       3.248   0.899   1.254  1.00  0.00    -0.383 N 
ATOM      3  H1  UNL     1       3.615   1.446   2.033  1.00  0.00     0.160 HD
HETATM    4  C2  UNL     1       4.208   0.059   0.563  1.00  0.00     0.148 C 
HETATM    5  C3  UNL     1       3.614  -1.262   0.142  1.00  0.00     0.253 C 
HETATM    6  N2  UNL     1       2.748  -1.015  -0.996  1.00  0.00    -0.056 N 
ATOM      7  H21 UNL     1       2.845  -1.747  -1.700  1.00  0.00     0.279 HD
ATOM      8  H22 UNL     1       3.076  -0.220  -1.544  1.00  0.00     0.279 HD
HETATM    9  C4  UNL     1       1.364  -0.846  -0.600  1.00  0.00     0.381 C 
HETATM   10  N3  UNL     1       1.139   0.452   0.019  1.00  0.00    -0.263 N 
ENDROOT
BRANCH  10  11
HETATM   11  N4  UNL     1       0.030   1.163  -0.373  1.00  0.00    -0.304 N 
HETATM   12  C5  UNL     1      -1.163   0.960   0.066  1.00  0.00     0.004 C 
HETATM   13  C6  UNL     1      -2.331   1.756  -0.390  1.00  0.00     0.054 C 
HETATM   14  C10 UNL     1      -1.496  -0.090   1.072  1.00  0.00     0.054 C 
HETATM   15  C7  UNL     1      -3.445   0.886  -0.875  1.00  0.00     0.006 C 
HETATM   16  C8  UNL     1      -3.275  -0.568  -0.644  1.00  0.00     0.001 C 
HETATM   17  C9  UNL     1      -2.593  -0.988   0.593  1.00  0.00     0.006 C 
ATOM     18  H4  UNL     1       0.162   1.904  -1.061  1.00  0.00     0.186 HD
ENDBRANCH  10  11
TORSDOF 1
