REMARK  12 active torsions:
REMARK  status: ('A' for Active; 'I' for Inactive)
REMARK    1  A    between atoms: C2_2  and  O1_3 
REMARK    2  A    between atoms: C2_2  and  O2_5 
REMARK    3  A    between atoms: O2_5  and  C3_6 
REMARK       I    between atoms: C3_6  and  N1_8 
REMARK    4  A    between atoms: N3_12  and  N4_14 
REMARK    5  A    between atoms: N5_17  and  N6_18 
REMARK    6  A    between atoms: N6_18  and  C5_20 
REMARK    7  A    between atoms: C5_20  and  N7_21 
REMARK    8  A    between atoms: N7_21  and  O4_23 
REMARK    9  A    between atoms: O4_23  and  C6_24 
REMARK   10  A    between atoms: C6_24  and  O6_26 
REMARK   11  A    between atoms: O6_26  and  C7_27 
REMARK   12  A    between atoms: C11_31  and  N8_32 
ROOT
HETATM    1  C3  UNL     1      -4.098  -0.261   0.471  1.00  0.00     0.404 C 
HETATM    2  O3  UNL     1      -4.852   0.335   1.279  1.00  0.00    -0.235 OA
HETATM    3  N1  UNL     1      -3.058   0.424  -0.211  1.00  0.00    -0.009 N 
HETATM    4  N2  UNL     1      -2.798   1.706  -0.064  1.00  0.00    -0.102 N 
ATOM      5  H2  UNL     1      -3.303   2.349   0.546  1.00  0.00     0.207 HD
HETATM    6  C4  UNL     1      -1.740   2.032  -0.864  1.00  0.00     0.748 A 
HETATM    7  N3  UNL     1      -1.241   3.220  -0.945  1.00  0.00    -0.135 N 
ATOM      8  H3  UNL     1      -0.449   3.389  -1.566  1.00  0.00     0.205 HD
HETATM    9  N5  UNL     1      -1.346   0.922  -1.514  1.00  0.00     0.095 N 
HETATM   10  C11 UNL     1      -2.178  -0.042  -1.088  1.00  0.00     0.739 A 
ENDROOT
BRANCH   9  11
HETATM   11  N6  UNL     1      -0.293   0.829  -2.430  1.00  0.00    -0.258 N 
ATOM     12  H6  UNL     1      -0.088  -0.072  -2.862  1.00  0.00     0.189 HD
BRANCH  11  13
HETATM   13  C5  UNL     1       0.487   1.943  -2.769  1.00  0.00     0.223 C 
BRANCH  13  14
HETATM   14  N7  UNL     1       1.766   1.909  -2.627  1.00  0.00    -0.250 N 
ATOM     15  H7  UNL     1       2.298   2.740  -2.884  1.00  0.00     0.195 HD
BRANCH  14  16
HETATM   16  O4  UNL     1       2.457   0.826  -2.152  1.00  0.00    -0.174 OA
BRANCH  16  17
HETATM   17  C6  UNL     1       3.188   0.806  -0.994  1.00  0.00     0.429 C 
HETATM   18  O5  UNL     1       3.240   1.848  -0.303  1.00  0.00    -0.227 OA
BRANCH  17  19
HETATM   19  O6  UNL     1       3.882  -0.306  -0.534  1.00  0.00    -0.287 OA
BRANCH  19  20
HETATM   20  C7  UNL     1       4.632  -0.342   0.645  1.00  0.00     0.062 C 
HETATM   21  C8  UNL     1       5.218  -1.752   0.760  1.00  0.00     0.046 C 
HETATM   22  C9  UNL     1       3.788  -0.115   1.890  1.00  0.00     0.046 C 
HETATM   23  C10 UNL     1       5.781   0.626   0.655  1.00  0.00     0.046 C 
ENDBRANCH  19  20
ENDBRANCH  17  19
ENDBRANCH  16  17
ENDBRANCH  14  16
ENDBRANCH  13  14
ENDBRANCH  11  13
ENDBRANCH   9  11
BRANCH  10  24
HETATM   24  N8  UNL     1      -2.120  -1.257  -1.485  1.00  0.00    -0.230 N 
ATOM     25  H82 UNL     1      -2.752  -1.989  -1.161  1.00  0.00     0.174 HD
ATOM     26  H81 UNL     1      -1.444  -1.615  -2.159  1.00  0.00     0.174 HD
ENDBRANCH  10  24
BRANCH   7  27
HETATM   27  N4  UNL     1      -1.764   4.277  -0.200  1.00  0.00    -0.331 N 
ATOM     28  H42 UNL     1      -2.556   4.091   0.416  1.00  0.00     0.177 HD
ATOM     29  H41 UNL     1      -1.370   5.216  -0.264  1.00  0.00     0.177 HD
ENDBRANCH   7  27
BRANCH   1  30
HETATM   30  O2  UNL     1      -4.339  -1.620   0.286  1.00  0.00    -0.271 OA
BRANCH  30  31
HETATM   31  C2  UNL     1      -5.345  -2.341   0.928  1.00  0.00     0.264 C 
HETATM   32  C1  UNL     1      -4.664  -3.438   1.753  1.00  0.00     0.071 C 
BRANCH  31  33
HETATM   33  O1  UNL     1      -6.215  -2.986   0.057  1.00  0.00    -0.371 OA
ATOM     34  H1  UNL     1      -6.637  -2.306  -0.455  1.00  0.00     0.212 HD
ENDBRANCH  31  33
ENDBRANCH  30  31
ENDBRANCH   1  30
TORSDOF 12
