REMARK  13 active torsions:
REMARK  status: ('A' for Active; 'I' for Inactive)
REMARK    1  A    between atoms: N1_2  and  O1_3 
REMARK    2  A    between atoms: N1_2  and  C2_5 
REMARK    3  A    between atoms: C3_8  and  N3_9 
REMARK    4  A    between atoms: C4_14  and  N5_15 
REMARK    5  A    between atoms: N5_15  and  C5_17 
REMARK    6  A    between atoms: C5_17  and  N6_18 
REMARK    7  A    between atoms: C5_17  and  S1_26 
REMARK    8  A    between atoms: N6_18  and  O2_19 
REMARK    9  A    between atoms: O2_19  and  C6_20 
REMARK   10  A    between atoms: C6_20  and  O4_22 
REMARK   11  A    between atoms: O4_22  and  C7_23 
REMARK   12  A    between atoms: S1_26  and  N8_27 
REMARK   13  A    between atoms: N8_27  and  N9_28 
ROOT
HETATM    1  C7  UNL     1       6.014  -1.455  -1.251  1.00  0.00     0.304 C 
HETATM    2  C8  UNL     1       6.683  -2.743  -1.136  1.00  0.00     0.086 C 
HETATM    3  N7  UNL     1       7.202  -3.749  -1.033  1.00  0.00    -0.195 NA
ENDROOT
BRANCH   1   4
HETATM    4  O4  UNL     1       4.690  -1.565  -0.744  1.00  0.00    -0.282 OA
BRANCH   4   5
HETATM    5  C6  UNL     1       3.807  -0.515  -0.716  1.00  0.00     0.440 C 
HETATM    6  O3  UNL     1       4.165   0.600  -1.154  1.00  0.00    -0.226 OA
BRANCH   5   7
HETATM    7  O2  UNL     1       2.508  -0.589  -0.229  1.00  0.00    -0.095 OA
BRANCH   7   8
HETATM    8  N6  UNL     1       1.590   0.262  -0.133  1.00  0.00    -0.242 NA
BRANCH   8   9
HETATM    9  C5  UNL     1       0.730   1.080  -0.028  1.00  0.00     0.283 C 
BRANCH   9  10
HETATM   10  N5  UNL     1      -0.529   1.104  -0.763  1.00  0.00    -0.154 N 
ATOM     11  H5  UNL     1      -0.602   1.628  -1.635  1.00  0.00     0.187 HD
BRANCH  10  12
HETATM   12  C4  UNL     1      -1.549   0.462  -0.308  1.00  0.00     0.714 A 
HETATM   13  N4  UNL     1      -1.430  -0.224   0.848  1.00  0.00    -0.021 N 
HETATM   14  C3  UNL     1      -2.500  -0.893   1.318  1.00  0.00     0.705 A 
ATOM     15  H4  UNL     1      -0.546  -0.236   1.356  1.00  0.00     0.203 HD
HETATM   16  N2  UNL     1      -3.668  -0.880   0.651  1.00  0.00    -0.020 N 
HETATM   17  C2  UNL     1      -3.809  -0.193  -0.518  1.00  0.00     0.732 A 
ATOM     18  H2  UNL     1      -4.464  -1.395   1.027  1.00  0.00     0.203 HD
HETATM   19  N10 UNL     1      -2.723   0.464  -0.961  1.00  0.00    -0.019 N 
ATOM     20  H10 UNL     1      -2.794   0.988  -1.833  1.00  0.00     0.203 HD
BRANCH  14  21
HETATM   21  N3  UNL     1      -2.350  -1.537   2.425  1.00  0.00    -0.234 N 
ATOM     22  H32 UNL     1      -3.160  -2.044   2.781  1.00  0.00     0.174 HD
ATOM     23  H31 UNL     1      -1.464  -1.547   2.931  1.00  0.00     0.174 HD
ENDBRANCH  14  21
BRANCH  17  24
HETATM   24  N1  UNL     1      -5.044  -0.185  -1.215  1.00  0.00    -0.094 N 
HETATM   25  C1  UNL     1      -6.195  -0.901  -0.713  1.00  0.00     0.205 C 
BRANCH  24  26
HETATM   26  O1  UNL     1      -5.154   0.499  -2.362  1.00  0.00    -0.274 OA
ATOM     27  H1  UNL     1      -4.398   0.970  -2.692  1.00  0.00     0.245 HD
ENDBRANCH  24  26
ENDBRANCH  17  24
ENDBRANCH  10  12
ENDBRANCH   9  10
BRANCH   9  28
HETATM   28  S1  UNL     1       0.923   2.458   1.131  1.00  0.00     0.054 SA
BRANCH  28  29
HETATM   29  N8  UNL     1       2.464   2.306   1.936  1.00  0.00    -0.064 NA
BRANCH  29  30
HETATM   30  N9  UNL     1       2.594   3.148   3.020  1.00  0.00    -0.337 N 
ATOM     31  H92 UNL     1       1.855   3.789   3.309  1.00  0.00     0.173 HD
ATOM     32  H91 UNL     1       3.495   3.059   3.490  1.00  0.00     0.173 HD
ENDBRANCH  29  30
ENDBRANCH  28  29
ENDBRANCH   9  28
ENDBRANCH   8   9
ENDBRANCH   7   8
ENDBRANCH   5   7
ENDBRANCH   4   5
ENDBRANCH   1   4
TORSDOF 13
