REMARK  3 active torsions:
REMARK  status: ('A' for Active; 'I' for Inactive)
REMARK    1  A    between atoms: N1_4  and  C4_5 
REMARK    2  A    between atoms: C4_5  and  C6_7 
REMARK    3  A    between atoms: C6_7  and  N2_8 
ROOT
HETATM    1  C1  UNL     1      -3.330   1.289  -0.995  1.00  0.00     0.023 C 
HETATM    2  C2  UNL     1      -2.331   0.734  -0.029  1.00  0.00     0.060 C 
HETATM    3  C3  UNL     1      -0.967   0.572  -0.628  1.00  0.00     0.132 C 
HETATM    4  N1  UNL     1       0.015   0.230   0.384  1.00  0.00    -0.405 N 
HETATM    5  C7  UNL     1      -0.343  -0.882   1.176  1.00  0.00     0.127 C 
HETATM    6  C8  UNL     1      -1.279  -1.885   0.474  1.00  0.00     0.093 C 
HETATM    7  S1  UNL     1      -2.878  -0.980   0.369  1.00  0.00    -0.161 SA
ENDROOT
BRANCH   4   8
HETATM    8  C4  UNL     1       1.347   0.310  -0.115  1.00  0.00     0.100 C 
HETATM    9  C5  UNL     1       1.692  -0.660  -1.189  1.00  0.00     0.033 C 
BRANCH   8  10
HETATM   10  C6  UNL     1       2.355   0.257   0.985  1.00  0.00     0.254 C 
BRANCH  10  11
HETATM   11  N2  UNL     1       3.679   0.348   0.463  1.00  0.00    -0.077 N 
ATOM     12  H23 UNL     1       3.855  -0.364  -0.245  1.00  0.00     0.274 HD
ATOM     13  H22 UNL     1       3.799   1.177  -0.119  1.00  0.00     0.274 HD
ATOM     14  H21 UNL     1       4.368   0.312   1.215  1.00  0.00     0.274 HD
ENDBRANCH  10  11
ENDBRANCH   8  10
ENDBRANCH   4   8
TORSDOF 3
