REMARK  11 active torsions:
REMARK  status: ('A' for Active; 'I' for Inactive)
REMARK       I    between atoms: C1_4  and  N2_5 
REMARK       I    between atoms: C1_4  and  N7_36 
REMARK    1  A    between atoms: C2_7  and  C3_8 
REMARK    2  A    between atoms: N3_10  and  C5_11 
REMARK    3  A    between atoms: C6_13  and  C7_14 
REMARK    4  A    between atoms: C7_14  and  O2_15 
REMARK    5  A    between atoms: C8_17  and  O3_18 
REMARK    6  A    between atoms: C8_17  and  C9_20 
REMARK    7  A    between atoms: C9_20  and  O4_21 
REMARK    8  A    between atoms: C10_23  and  O5_24 
REMARK    9  A    between atoms: N7_36  and  N8_38 
REMARK   10  A    between atoms: N8_38  and  N9_39 
REMARK   11  A    between atoms: N8_38  and  O8_42 
ROOT
HETATM    1  C3  UNL     1       1.716  -0.346   0.007  1.00  0.00     0.067 A 
HETATM    2  C4  UNL     1       0.427  -0.900  -0.009  1.00  0.00     0.130 A 
HETATM    3  N3  UNL     1      -0.579  -0.313  -0.681  1.00  0.00    -0.160 N 
HETATM    4  C11 UNL     1      -0.305   0.827  -1.339  1.00  0.00     0.715 A 
HETATM    5  N4  UNL     1      -1.070   1.641  -2.087  1.00  0.00    -0.138 N 
ATOM      6  H4  UNL     1      -2.061   1.500  -2.282  1.00  0.00     0.189 HD
HETATM    7  C12 UNL     1      -0.338   2.660  -2.535  1.00  0.00     0.354 A 
HETATM    8  O6  UNL     1      -0.690   3.634  -3.267  1.00  0.00    -0.245 OA
HETATM    9  N5  UNL     1       0.908   2.486  -2.060  1.00  0.00    -0.227 N 
ATOM     10  H5  UNL     1       1.703   3.103  -2.228  1.00  0.00     0.193 HD
HETATM   11  N6  UNL     1       0.927   1.381  -1.340  1.00  0.00    -0.043 N 
HETATM   12  C13 UNL     1       1.960   0.826  -0.681  1.00  0.00     0.295 A 
HETATM   13  O7  UNL     1       3.091   1.340  -0.685  1.00  0.00    -0.265 OA
ENDROOT
BRANCH   1  14
HETATM   14  C2  UNL     1       2.792  -0.993   0.737  1.00  0.00     0.124 C 
HETATM   15  N2  UNL     1       3.957  -0.448   0.723  1.00  0.00    -0.200 N 
HETATM   16  C1  UNL     1       5.021  -1.084   1.443  1.00  0.00     0.689 C 
ATOM     17  H2  UNL     1       4.120   0.419   0.210  1.00  0.00     0.183 HD
HETATM   18  N1  UNL     1       5.013  -2.371   1.466  1.00  0.00    -0.234 N 
HETATM   19  N7  UNL     1       6.033  -0.328   2.099  1.00  0.00    -0.110 N 
ATOM     20  H12 UNL     1       4.288  -2.913   0.996  1.00  0.00     0.174 HD
ATOM     21  H11 UNL     1       5.770  -2.824   1.978  1.00  0.00     0.174 HD
ATOM     22  H7  UNL     1       5.883   0.055   3.032  1.00  0.00     0.203 HD
BRANCH  19  23
HETATM   23  N8  UNL     1       7.233  -0.129   1.426  1.00  0.00     0.004 NA
BRANCH  23  24
HETATM   24  N9  UNL     1       7.173   0.889   0.487  1.00  0.00    -0.322 NA
ATOM     25  H92 UNL     1       6.378   0.786  -0.144  1.00  0.00     0.175 HD
ATOM     26  H91 UNL     1       8.053   1.035  -0.007  1.00  0.00     0.175 HD
ENDBRANCH  23  24
BRANCH  23  27
HETATM   27  O8  UNL     1       8.287   0.008   2.263  1.00  0.00    -0.276 OA
ATOM     28  H8  UNL     1       9.107   0.144   1.803  1.00  0.00     0.241 HD
ENDBRANCH  23  27
ENDBRANCH  19  23
ENDBRANCH   1  14
BRANCH   3  29
HETATM   29  C5  UNL     1      -1.903  -0.885  -0.695  1.00  0.00     0.277 C 
HETATM   30  O1  UNL     1      -2.713  -0.300  -1.625  1.00  0.00    -0.352 OA
HETATM   31  C6  UNL     1      -3.883   0.115  -1.043  1.00  0.00     0.187 C 
HETATM   32  C8  UNL     1      -4.052  -0.737   0.170  1.00  0.00     0.137 C 
HETATM   33  C10 UNL     1      -2.593  -0.788   0.649  1.00  0.00     0.207 C 
BRANCH  31  34
HETATM   34  C7  UNL     1      -5.029  -0.002  -2.025  1.00  0.00     0.199 C 
BRANCH  34  35
HETATM   35  O2  UNL     1      -6.241   0.410  -1.482  1.00  0.00    -0.398 OA
ATOM     36  H2  UNL     1      -6.960   0.337  -2.098  1.00  0.00     0.209 HD
ENDBRANCH  34  35
ENDBRANCH  31  34
BRANCH  32  37
HETATM   37  O3  UNL     1      -4.493  -1.988  -0.186  1.00  0.00    -0.382 OA
ATOM     38  H3  UNL     1      -4.601  -2.531   0.586  1.00  0.00     0.210 HD
ENDBRANCH  32  37
BRANCH  32  39
HETATM   39  C9  UNL     1      -4.941  -0.146   1.232  1.00  0.00     0.207 C 
BRANCH  39  40
HETATM   40  O4  UNL     1      -4.534   1.115   1.618  1.00  0.00    -0.398 OA
ATOM     41  H4  UNL     1      -5.095   1.488   2.288  1.00  0.00     0.209 HD
ENDBRANCH  39  40
ENDBRANCH  32  39
BRANCH  33  42
HETATM   42  O5  UNL     1      -2.285   0.438   1.235  1.00  0.00    -0.388 OA
ATOM     43  H5  UNL     1      -2.718   0.499   2.078  1.00  0.00     0.210 HD
ENDBRANCH  33  42
ENDBRANCH   3  29
TORSDOF 11
