REMARK  3 active torsions:
REMARK  status: ('A' for Active; 'I' for Inactive)
REMARK    1  A    between atoms: C4_4  and  O1_5 
REMARK    2  A    between atoms: O1_5  and  C5_6 
REMARK    3  A    between atoms: C5_6  and  C6_7 
ROOT
HETATM    1  C1  UNL     1      -1.735  -0.816   2.923  1.00  0.00     0.019 C 
HETATM    2  C2  UNL     1      -1.603  -0.442   1.787  1.00  0.00    -0.055 C 
HETATM    3  C3  UNL     1      -1.428  -0.006   0.428  1.00  0.00     0.140 A 
HETATM    4  C4  UNL     1      -0.247   0.081  -0.291  1.00  0.00     0.180 A 
HETATM    5  N3  UNL     1      -0.519   0.539  -1.539  1.00  0.00    -0.331 N 
ATOM      6  H3  UNL     1       0.157   0.702  -2.285  1.00  0.00     0.168 HD
HETATM    7  C7  UNL     1      -1.853   0.739  -1.607  1.00  0.00     0.185 A 
HETATM    8  N4  UNL     1      -2.391   0.408  -0.418  1.00  0.00    -0.337 N 
HETATM    9  C8  UNL     1      -3.824   0.510  -0.156  1.00  0.00     0.158 C 
ENDROOT
BRANCH   4  10
HETATM   10  O1  UNL     1       0.996  -0.256   0.219  1.00  0.00    -0.326 OA
BRANCH  10  11
HETATM   11  C5  UNL     1       2.143  -0.123  -0.628  1.00  0.00     0.250 C 
BRANCH  11  12
HETATM   12  C6  UNL     1       3.369  -0.520   0.066  1.00  0.00     0.111 C 
HETATM   13  N1  UNL     1       4.122  -1.480  -0.350  1.00  0.00    -0.389 N 
ATOM     14  H12 UNL     1       3.836  -1.970  -1.197  1.00  0.00     0.157 HD
ATOM     15  H11 UNL     1       4.976  -1.757   0.134  1.00  0.00     0.157 HD
HETATM   16  N2  UNL     1       3.768   0.163   1.246  1.00  0.00    -0.086 NA
ENDBRANCH  11  12
ENDBRANCH  10  11
ENDBRANCH   4  10
TORSDOF 3
