REMARK  2 active torsions:
REMARK  status: ('A' for Active; 'I' for Inactive)
REMARK       I    between atoms: N1_2  and  C2_4 
REMARK    1  A    between atoms: C2_4  and  C3_6 
REMARK    2  A    between atoms: N2_10  and  C7_11 
ROOT
HETATM    1  C3  UNL     1      -1.953   0.085  -0.623  1.00  0.00     0.111 C 
HETATM    2  C4  UNL     1      -1.879   1.528  -0.359  1.00  0.00     0.018 C 
HETATM    3  C5  UNL     1      -0.560   2.095  -0.848  1.00  0.00     0.031 C 
HETATM    4  C6  UNL     1       0.113   1.046  -1.655  1.00  0.00     0.273 C 
HETATM    5  N2  UNL     1       0.505  -0.136  -0.914  1.00  0.00     0.104 N 
HETATM    6  C13 UNL     1      -0.691  -0.712  -0.395  1.00  0.00     0.232 C 
HETATM    7  C14 UNL     1      -1.010  -2.081  -1.021  1.00  0.00     0.043 C 
ENDROOT
BRANCH   5   8
HETATM    8  C7  UNL     1       1.554   0.150   0.005  1.00  0.00     0.295 C 
HETATM    9  C8  UNL     1       2.786   0.656  -0.768  1.00  0.00     0.042 C 
HETATM   10  C9  UNL     1       3.858   1.060   0.259  1.00  0.00     0.002 C 
HETATM   11  C10 UNL     1       4.362  -0.126   1.013  1.00  0.00     0.006 C 
HETATM   12  C11 UNL     1       3.544  -1.301   0.601  1.00  0.00     0.081 C 
HETATM   13  C12 UNL     1       2.068  -0.941   0.858  1.00  0.00     0.274 C 
HETATM   14  F1  UNL     1       2.085  -0.516   2.200  1.00  0.00    -0.204 F 
HETATM   15  F2  UNL     1       1.437  -2.131   0.857  1.00  0.00    -0.204 F 
ENDBRANCH   5   8
BRANCH   1  16
HETATM   16  C2  UNL     1      -3.014  -0.474   0.286  1.00  0.00     0.223 C 
HETATM   17  N1  UNL     1      -4.358   0.013   0.156  1.00  0.00    -0.365 N 
HETATM   18  C1  UNL     1      -5.361  -0.538   1.038  1.00  0.00     0.149 C 
ATOM     19  H1  UNL     1      -4.597   0.724  -0.535  1.00  0.00     0.161 HD
HETATM   20  O1  UNL     1      -2.715  -1.345   1.131  1.00  0.00    -0.273 OA
ENDBRANCH   1  16
TORSDOF 2
