REMARK  10 active torsions:
REMARK  status: ('A' for Active; 'I' for Inactive)
REMARK    1  A    between atoms: C2_2  and  O1_3 
REMARK    2  A    between atoms: O1_3  and  C3_4 
REMARK    3  A    between atoms: C3_4  and  C4_6 
REMARK    4  A    between atoms: C5_7  and  N1_8 
REMARK       I    between atoms: N1_8  and  C6_10 
REMARK    5  A    between atoms: C6_10  and  C7_12 
REMARK    6  A    between atoms: C7_12  and  N2_14 
REMARK       I    between atoms: N2_14  and  C9_16 
REMARK    7  A    between atoms: C9_16  and  O5_18 
REMARK    8  A    between atoms: O5_18  and  C10_19 
REMARK       I    between atoms: N3_28  and  C18_29 
REMARK    9  A    between atoms: C18_29  and  O7_31 
REMARK   10  A    between atoms: O7_31  and  C19_32 
ROOT
HETATM    1  C4  UNL     1      -1.999  -1.183  -0.305  1.00  0.00     0.080 A 
HETATM    2  C5  UNL     1      -0.818  -0.500  -0.214  1.00  0.00     0.094 A 
HETATM    3  S1  UNL     1      -1.087   0.583   1.109  1.00  0.00    -0.074 SA
HETATM    4  C14 UNL     1      -2.665   0.136   1.493  1.00  0.00     0.010 A 
HETATM    5  C15 UNL     1      -2.968  -0.847   0.592  1.00  0.00    -0.023 A 
HETATM    6  C16 UNL     1      -4.389  -1.375   0.780  1.00  0.00     0.061 C 
HETATM    7  C17 UNL     1      -5.356  -0.198   0.878  1.00  0.00     0.133 C 
HETATM    8  N3  UNL     1      -4.916   0.782   1.813  1.00  0.00    -0.323 N 
HETATM    9  C18 UNL     1      -5.657   1.957   2.045  1.00  0.00     0.369 C 
HETATM   10  O6  UNL     1      -5.253   2.811   2.874  1.00  0.00    -0.238 OA
HETATM   11  C20 UNL     1      -3.687   0.563   2.534  1.00  0.00     0.174 C 
ENDROOT
BRANCH   2  12
HETATM   12  N1  UNL     1       0.403  -0.584  -0.980  1.00  0.00    -0.319 N 
HETATM   13  C6  UNL     1       1.487   0.266  -0.651  1.00  0.00     0.245 C 
HETATM   14  O3  UNL     1       1.364   1.067   0.290  1.00  0.00    -0.271 OA
ATOM     15  H1  UNL     1       0.484  -1.248  -1.750  1.00  0.00     0.169 HD
BRANCH  13  16
HETATM   16  C7  UNL     1       2.743   0.210  -1.405  1.00  0.00     0.175 C 
HETATM   17  C8  UNL     1       2.517   0.458  -2.891  1.00  0.00     0.042 C 
BRANCH  16  18
HETATM   18  N2  UNL     1       3.662   1.184  -0.850  1.00  0.00    -0.324 N 
HETATM   19  C9  UNL     1       4.938   0.800  -0.327  1.00  0.00     0.362 C 
HETATM   20  O4  UNL     1       5.237  -0.415  -0.366  1.00  0.00    -0.238 OA
ATOM     21  H2  UNL     1       3.393   2.168  -0.832  1.00  0.00     0.165 HD
BRANCH  19  22
HETATM   22  O5  UNL     1       5.831   1.687   0.204  1.00  0.00    -0.294 OA
BRANCH  22  23
HETATM   23  C10 UNL     1       7.091   1.350   0.726  1.00  0.00     0.061 C 
HETATM   24  C11 UNL     1       6.885   0.384   1.872  1.00  0.00     0.046 C 
HETATM   25  C12 UNL     1       7.754   2.598   1.299  1.00  0.00     0.046 C 
HETATM   26  C13 UNL     1       8.032   0.781  -0.307  1.00  0.00     0.046 C 
ENDBRANCH  22  23
ENDBRANCH  19  22
ENDBRANCH  16  18
ENDBRANCH  13  16
ENDBRANCH   2  12
BRANCH   1  27
HETATM   27  C3  UNL     1      -2.182  -2.250  -1.343  1.00  0.00     0.296 C 
HETATM   28  O2  UNL     1      -1.285  -2.554  -2.158  1.00  0.00    -0.259 OA
BRANCH  27  29
HETATM   29  O1  UNL     1      -3.349  -2.968  -1.468  1.00  0.00    -0.318 OA
BRANCH  29  30
HETATM   30  C2  UNL     1      -3.521  -3.971  -2.441  1.00  0.00     0.174 C 
HETATM   31  C1  UNL     1      -4.870  -4.612  -2.385  1.00  0.00     0.034 C 
ENDBRANCH  29  30
ENDBRANCH  27  29
ENDBRANCH   1  27
BRANCH   9  32
HETATM   32  O7  UNL     1      -6.843   2.232   1.388  1.00  0.00    -0.204 OA
BRANCH  32  33
HETATM   33  C19 UNL     1      -7.555   3.444   1.664  1.00  0.00     0.533 C 
HETATM   34  F1  UNL     1      -8.695   3.508   0.905  1.00  0.00    -0.144 F 
HETATM   35  F2  UNL     1      -7.816   3.581   3.005  1.00  0.00    -0.144 F 
HETATM   36  F3  UNL     1      -6.738   4.508   1.295  1.00  0.00    -0.144 F 
ENDBRANCH  32  33
ENDBRANCH   9  32
TORSDOF 10
