REMARK  6 active torsions:
REMARK  status: ('A' for Active; 'I' for Inactive)
REMARK    1  A    between atoms: O1_2  and  C2_3 
REMARK    2  A    between atoms: C4_6  and  S1_7 
REMARK    3  A    between atoms: S1_7  and  N1_10 
REMARK    4  A    between atoms: N1_10  and  C5_12 
REMARK    5  A    between atoms: C6_13  and  C7_14 
REMARK    6  A    between atoms: C7_14  and  C8_16 
ROOT
HETATM    1  C5  UNL     1       0.712   1.067  -0.462  1.00  0.00     0.098 A 
HETATM    2  C6  UNL     1       1.916   0.658   0.071  1.00  0.00     0.128 A 
HETATM    3  N2  UNL     1       2.344  -0.331  -0.763  1.00  0.00    -0.293 N 
ATOM      4  H2  UNL     1       3.215  -0.849  -0.646  1.00  0.00     0.187 HD
HETATM    5  N3  UNL     1       1.485  -0.530  -1.740  1.00  0.00    -0.298 N 
HETATM    6  C14 UNL     1       1.615  -1.504  -2.812  1.00  0.00     0.177 C 
HETATM    7  C15 UNL     1       0.446   0.325  -1.592  1.00  0.00     0.054 A 
HETATM    8  C16 UNL     1      -0.708   0.379  -2.537  1.00  0.00     0.072 C 
ENDROOT
BRANCH   1   9
HETATM    9  N1  UNL     1      -0.131   2.072   0.036  1.00  0.00    -0.275 N 
ATOM     10  H1  UNL     1       0.038   3.021  -0.298  1.00  0.00     0.179 HD
BRANCH   9  11
HETATM   11  S1  UNL     1      -1.419   1.864   1.152  1.00  0.00     0.282 S 
HETATM   12  O2  UNL     1      -0.998   1.389   2.497  1.00  0.00    -0.199 OA
HETATM   13  O3  UNL     1      -2.082   3.221   1.354  1.00  0.00    -0.199 OA
BRANCH  11  14
HETATM   14  C4  UNL     1      -2.639   0.790   0.456  1.00  0.00     0.194 A 
HETATM   15  C3  UNL     1      -3.739   1.237  -0.291  1.00  0.00     0.193 A 
HETATM   16  C2  UNL     1      -4.462   0.122  -0.659  1.00  0.00     0.151 A 
HETATM   17  F1  UNL     1      -4.053   2.507  -0.605  1.00  0.00    -0.200 F 
HETATM   18  C18 UNL     1      -3.825  -0.989  -0.152  1.00  0.00     0.156 A 
HETATM   19  N4  UNL     1      -2.721  -0.546   0.520  1.00  0.00    -0.324 N 
HETATM   20  N5  UNL     1      -4.196  -2.357  -0.271  1.00  0.00    -0.079 NA
HETATM   21  C17 UNL     1      -1.789  -1.418   1.193  1.00  0.00     0.158 C 
BRANCH  16  22
HETATM   22  O1  UNL     1      -5.633   0.031  -1.405  1.00  0.00    -0.350 OA
HETATM   23  C1  UNL     1      -5.635  -0.106  -2.810  1.00  0.00     0.210 C 
ENDBRANCH  16  22
ENDBRANCH  11  14
ENDBRANCH   9  11
ENDBRANCH   1   9
BRANCH   2  24
HETATM   24  C7  UNL     1       2.639   1.163   1.221  1.00  0.00     0.214 C 
HETATM   25  O4  UNL     1       2.173   2.157   1.879  1.00  0.00    -0.285 OA
BRANCH  24  26
HETATM   26  C8  UNL     1       3.896   0.614   1.703  1.00  0.00     0.038 A 
HETATM   27  C9  UNL     1       4.179  -0.725   1.587  1.00  0.00     0.019 A 
HETATM   28  C10 UNL     1       5.403  -1.174   2.089  1.00  0.00     0.025 A 
HETATM   29  C11 UNL     1       6.300  -0.336   2.676  1.00  0.00     0.035 A 
HETATM   30 CL1  UNL     1       7.850  -0.889   3.315  1.00  0.00    -0.084 Cl
HETATM   31  C12 UNL     1       6.023   0.995   2.794  1.00  0.00     0.048 A 
HETATM   32  C13 UNL     1       4.840   1.455   2.313  1.00  0.00     0.050 A 
HETATM   33 CL2  UNL     1       4.449   3.175   2.450  1.00  0.00    -0.083 Cl
ENDBRANCH  24  26
ENDBRANCH   2  24
TORSDOF 6
