REMARK  19 active torsions:
REMARK  status: ('A' for Active; 'I' for Inactive)
REMARK    1  A    between atoms: C2_2  and  C3_3 
REMARK    2  A    between atoms: C3_3  and  C4_4 
REMARK    3  A    between atoms: C4_4  and  C5_5 
REMARK    4  A    between atoms: C5_5  and  C6_6 
REMARK    5  A    between atoms: C6_6  and  C7_7 
REMARK    6  A    between atoms: C8_10  and  O1_11 
REMARK    7  A    between atoms: C11_15  and  C12_16 
REMARK    8  A    between atoms: C12_16  and  N4_22 
REMARK    9  A    between atoms: N2_17  and  N3_19 
REMARK   10  A    between atoms: N4_22  and  C13_24 
REMARK   11  A    between atoms: C13_24  and  C14_25 
REMARK   12  A    between atoms: C13_24  and  C18_29 
REMARK   13  A    between atoms: C14_25  and  C15_26 
REMARK   14  A    between atoms: C22_38  and  C23_39 
REMARK   15  A    between atoms: C23_39  and  C24_40 
REMARK   16  A    between atoms: C24_40  and  C25_41 
REMARK   17  A    between atoms: C25_41  and  C26_42 
REMARK   18  A    between atoms: C26_42  and  C27_43 
REMARK   19  A    between atoms: C35_54  and  O5_55 
ROOT
HETATM    1  C7  UNL     1       3.246  -0.836   1.494  1.00  0.00     0.062 C 
HETATM    2  N1  UNL     1       2.134  -1.273   0.684  1.00  0.00    -0.339 N 
ATOM      3  H1  UNL     1       2.423  -1.999   0.029  1.00  0.00     0.167 HD
HETATM    4  C8  UNL     1       0.803  -0.991   0.545  1.00  0.00     0.139 C 
HETATM    5  C9  UNL     1      -0.057   0.044  -0.043  1.00  0.00     0.162 C 
HETATM    6  C10 UNL     1      -0.944  -0.611  -1.116  1.00  0.00     0.047 C 
HETATM    7  C11 UNL     1      -2.388  -0.702  -0.794  1.00  0.00     0.069 C 
HETATM    8  C19 UNL     1      -3.157  -0.365  -2.049  1.00  0.00     0.085 C 
HETATM    9  C20 UNL     1      -4.460  -1.115  -2.196  1.00  0.00     0.020 C 
HETATM   10  C21 UNL     1      -3.421   1.078  -2.244  1.00  0.00     0.223 C 
HETATM   11  O3  UNL     1      -4.615   1.450  -2.573  1.00  0.00    -0.273 OA
HETATM   12  N6  UNL     1      -2.502   2.137  -2.116  1.00  0.00    -0.347 N 
ATOM     13  H6  UNL     1      -2.363   2.703  -2.953  1.00  0.00     0.163 HD
HETATM   14  C22 UNL     1      -1.734   2.529  -0.968  1.00  0.00     0.176 C 
HETATM   15  C29 UNL     1      -0.317   2.150  -1.243  1.00  0.00     0.243 C 
HETATM   16  O4  UNL     1       0.192   2.761  -2.256  1.00  0.00    -0.271 OA
HETATM   17  N7  UNL     1       0.485   1.235  -0.537  1.00  0.00    -0.336 N 
HETATM   18  C30 UNL     1       1.897   1.663  -0.357  1.00  0.00     0.152 C 
HETATM   19  C31 UNL     1       1.952   2.205   1.006  1.00  0.00     0.104 C 
HETATM   20  C32 UNL     1       2.227   3.719   0.883  1.00  0.00     0.028 C 
HETATM   21  C33 UNL     1       2.734   3.964   2.312  1.00  0.00     0.022 C 
HETATM   22  C34 UNL     1       3.770   2.874   2.334  1.00  0.00     0.125 C 
HETATM   23  N8  UNL     1       2.963   1.705   1.894  1.00  0.00    -0.354 N 
HETATM   24  C35 UNL     1       3.138   0.354   2.284  1.00  0.00     0.161 C 
ENDROOT
BRANCH   7  25
HETATM   25  C12 UNL     1      -2.786  -2.082  -0.336  1.00  0.00     0.097 C 
HETATM   26  N2  UNL     1      -3.444  -2.178   0.755  1.00  0.00    -0.295 N 
ATOM     27  H2  UNL     1      -3.731  -3.096   1.095  1.00  0.00     0.187 HD
BRANCH  26  28
HETATM   28  N3  UNL     1      -3.770  -1.042   1.478  1.00  0.00    -0.344 N 
ATOM     29  H32 UNL     1      -3.476  -0.132   1.124  1.00  0.00     0.176 HD
ATOM     30  H31 UNL     1      -4.295  -1.119   2.349  1.00  0.00     0.176 HD
ENDBRANCH  26  28
BRANCH  25  31
HETATM   31  N4  UNL     1      -2.445  -3.216  -1.115  1.00  0.00    -0.365 N 
ATOM     32  H4  UNL     1      -2.431  -3.086  -2.127  1.00  0.00     0.161 HD
BRANCH  31  33
HETATM   33  C13 UNL     1      -2.118  -4.525  -0.634  1.00  0.00     0.172 C 
BRANCH  33  34
HETATM   34  C14 UNL     1      -3.258  -5.216   0.060  1.00  0.00     0.039 C 
BRANCH  34  35
HETATM   35  C15 UNL     1      -2.815  -6.573   0.548  1.00  0.00    -0.012 A 
HETATM   36  C16 UNL     1      -1.698  -6.684   1.521  1.00  0.00     0.005 A 
HETATM   37  C17 UNL     1      -3.137  -6.832   2.026  1.00  0.00     0.005 A 
ENDBRANCH  34  35
ENDBRANCH  33  34
BRANCH  33  38
HETATM   38  C18 UNL     1      -1.628  -5.390  -1.739  1.00  0.00     0.253 C 
HETATM   39  N5  UNL     1      -1.186  -6.717  -1.647  1.00  0.00    -0.060 NA
HETATM   40  O2  UNL     1      -1.598  -4.882  -2.914  1.00  0.00    -0.275 OA
ENDBRANCH  33  38
ENDBRANCH  31  33
ENDBRANCH  25  31
ENDBRANCH   7  25
BRANCH   4  41
HETATM   41  O1  UNL     1      -0.002  -1.883   1.075  1.00  0.00    -0.348 OA
ATOM     42  H1  UNL     1      -0.927  -1.687   0.978  1.00  0.00     0.219 HD
ENDBRANCH   4  41
BRANCH  14  43
HETATM   43  C23 UNL     1      -1.672   4.071  -0.870  1.00  0.00     0.035 C 
BRANCH  43  44
HETATM   44  C24 UNL     1      -3.082   4.659  -0.746  1.00  0.00     0.002 C 
BRANCH  44  45
HETATM   45  C25 UNL     1      -3.784   4.158   0.464  1.00  0.00     0.000 C 
BRANCH  45  46
HETATM   46  C26 UNL     1      -5.171   4.659   0.603  1.00  0.00    -0.000 C 
BRANCH  46  47
HETATM   47  C27 UNL     1      -5.443   6.102   0.728  1.00  0.00    -0.005 C 
HETATM   48  C28 UNL     1      -5.112   7.009  -0.390  1.00  0.00     0.005 C 
ENDBRANCH  46  47
ENDBRANCH  45  46
ENDBRANCH  44  45
ENDBRANCH  43  44
ENDBRANCH  14  43
BRANCH   1  49
HETATM   49  C6  UNL     1       4.573  -0.969   0.717  1.00  0.00     0.062 C 
BRANCH  49  50
HETATM   50  C5  UNL     1       5.757  -0.550   1.495  1.00  0.00     0.006 C 
BRANCH  50  51
HETATM   51  C4  UNL     1       6.982  -0.721   0.618  1.00  0.00     0.000 C 
BRANCH  51  52
HETATM   52  C3  UNL     1       7.228  -2.109   0.146  1.00  0.00    -0.000 C 
BRANCH  52  53
HETATM   53  C2  UNL     1       8.504  -2.037  -0.711  1.00  0.00    -0.005 C 
HETATM   54  C1  UNL     1       8.220  -1.070  -1.868  1.00  0.00     0.005 C 
ENDBRANCH  52  53
ENDBRANCH  51  52
ENDBRANCH  50  51
ENDBRANCH  49  50
ENDBRANCH   1  49
BRANCH  24  55
HETATM   55  O5  UNL     1       3.209   0.222   3.582  1.00  0.00    -0.345 OA
ATOM     56  H5  UNL     1       3.137   1.011   4.106  1.00  0.00     0.219 HD
ENDBRANCH  24  55
TORSDOF 19
