REMARK  7 active torsions:
REMARK  status: ('A' for Active; 'I' for Inactive)
REMARK    1  A    between atoms: N1_8  and  O1_10 
REMARK    2  A    between atoms: C8_12  and  N2_13 
REMARK    3  A    between atoms: N2_13  and  C9_14 
REMARK    4  A    between atoms: C12_17  and  C13_18 
REMARK    5  A    between atoms: C15_25  and  C16_26 
REMARK    6  A    between atoms: C17_27  and  C18_28 
REMARK    7  A    between atoms: C18_28  and  N4_29 
ROOT
HETATM    1  C1  UNL     1       2.594  -2.289   0.358  1.00  0.00     0.044 C 
HETATM    2  C2  UNL     1       1.102  -2.172   0.111  1.00  0.00    -0.075 C 
HETATM    3  C3  UNL     1       0.472  -3.280  -0.130  1.00  0.00    -0.009 C 
HETATM    4  C4  UNL     1      -1.036  -3.214  -0.385  1.00  0.00     0.014 C 
HETATM    5  C5  UNL     1      -1.559  -4.398   0.432  1.00  0.00     0.025 C 
HETATM    6  C6  UNL     1      -1.373  -3.400  -1.829  1.00  0.00     0.025 C 
HETATM    7  C7  UNL     1      -1.428  -1.943   0.143  1.00  0.00     0.058 C 
HETATM    8  N1  UNL     1      -2.160  -1.697   1.118  1.00  0.00    -0.273 N 
ATOM      9  H1  UNL     1      -2.303  -0.704   1.300  1.00  0.00     0.193 HD
HETATM   10  C8  UNL     1      -0.762  -0.690  -0.489  1.00  0.00     0.225 C 
HETATM   11  C15 UNL     1       0.600  -0.771   0.140  1.00  0.00     0.078 C 
ENDROOT
BRANCH  10  12
HETATM   12  N2  UNL     1      -1.519   0.424  -0.363  1.00  0.00    -0.418 NA
BRANCH  12  13
HETATM   13  C9  UNL     1      -2.369   1.235  -0.322  1.00  0.00     0.173 A 
HETATM   14  C10 UNL     1      -2.051   2.561   0.036  1.00  0.00     0.064 A 
HETATM   15  C11 UNL     1      -2.979   3.569   0.103  1.00  0.00     0.022 A 
HETATM   16  C12 UNL     1      -4.292   3.280  -0.190  1.00  0.00     0.063 A 
HETATM   17  C14 UNL     1      -4.598   1.984  -0.535  1.00  0.00     0.106 A 
HETATM   18  N3  UNL     1      -3.679   0.987  -0.604  1.00  0.00    -0.341 N 
ATOM     19  H3  UNL     1      -3.971   0.046  -0.869  1.00  0.00     0.167 HD
BRANCH  16  20
HETATM   20  C13 UNL     1      -5.364   4.331  -0.152  1.00  0.00     0.418 C 
HETATM   21  F1  UNL     1      -6.579   3.676  -0.238  1.00  0.00    -0.166 F 
HETATM   22  F2  UNL     1      -5.324   5.117   0.952  1.00  0.00    -0.166 F 
HETATM   23  F3  UNL     1      -5.269   5.116  -1.310  1.00  0.00    -0.166 F 
ENDBRANCH  16  20
ENDBRANCH  12  13
ENDBRANCH  10  12
BRANCH  11  24
HETATM   24  C16 UNL     1       1.592   0.151  -0.425  1.00  0.00    -0.013 C 
HETATM   25  C17 UNL     1       2.278   1.038   0.237  1.00  0.00     0.013 C 
BRANCH  25  26
HETATM   26  C18 UNL     1       3.299   1.949  -0.417  1.00  0.00     0.084 C 
BRANCH  26  27
HETATM   27  N4  UNL     1       4.567   1.767   0.101  1.00  0.00    -0.398 N 
HETATM   28  C19 UNL     1       5.320   0.618  -0.134  1.00  0.00     0.148 C 
HETATM   29  C20 UNL     1       5.350   2.868   0.473  1.00  0.00     0.148 C 
ENDBRANCH  26  27
ENDBRANCH  25  26
ENDBRANCH  11  24
BRANCH   8  30
HETATM   30  O1  UNL     1      -2.797  -2.522   1.976  1.00  0.00    -0.290 OA
ATOM     31  H1  UNL     1      -3.356  -2.334   2.721  1.00  0.00     0.244 HD
ENDBRANCH   8  30
TORSDOF 7
