REMARK  5 active torsions:
REMARK  status: ('A' for Active; 'I' for Inactive)
REMARK    1  A    between atoms: C2_2  and  C3_3 
REMARK    2  A    between atoms: C6_6  and  C8_8 
REMARK    3  A    between atoms: C8_8  and  C9_9 
REMARK    4  A    between atoms: C9_9  and  N1_10 
REMARK    5  A    between atoms: C10_11  and  O1_12 
ROOT
HETATM    1  N1  UNL     1       2.402   0.846  -0.422  1.00  0.00    -0.161 N 
HETATM    2  C10 UNL     1       3.612   0.420   0.012  1.00  0.00     0.180 A 
HETATM    3  C11 UNL     1       4.614   0.940  -0.773  1.00  0.00     0.074 A 
HETATM    4  C12 UNL     1       6.074   0.707  -0.618  1.00  0.00     0.073 C 
HETATM    5  N2  UNL     1       3.993   1.692  -1.696  1.00  0.00    -0.192 N 
ATOM      6  H2  UNL     1       4.452   2.221  -2.438  1.00  0.00     0.184 HD
HETATM    7  C13 UNL     1       2.662   1.633  -1.481  1.00  0.00     0.680 A 
HETATM    8  N3  UNL     1       1.774   2.254  -2.205  1.00  0.00    -0.234 N 
ATOM      9  H31 UNL     1       1.971   2.851  -3.008  1.00  0.00     0.174 HD
ATOM     10  H32 UNL     1       0.768   2.209  -2.043  1.00  0.00     0.174 HD
ENDROOT
BRANCH   1  11
HETATM   11  C9  UNL     1       1.093   0.505   0.160  1.00  0.00     0.151 C 
BRANCH  11  12
HETATM   12  C8  UNL     1       0.520  -0.705  -0.449  1.00  0.00     0.030 C 
BRANCH  12  13
HETATM   13  C6  UNL     1      -0.797  -1.194   0.041  1.00  0.00    -0.039 C 
HETATM   14  C5  UNL     1      -0.902  -1.563   1.451  1.00  0.00     0.010 C 
HETATM   15  C4  UNL     1      -1.982  -0.719   2.067  1.00  0.00     0.006 C 
HETATM   16  C3  UNL     1      -2.165   0.446   1.088  1.00  0.00    -0.010 C 
HETATM   17  C14 UNL     1      -1.913  -0.222  -0.208  1.00  0.00    -0.006 C 
HETATM   18  C15 UNL     1      -3.179  -0.954  -0.610  1.00  0.00     0.011 C 
HETATM   19  C7  UNL     1      -1.155  -2.441  -0.806  1.00  0.00     0.015 C 
BRANCH  16  20
HETATM   20  C2  UNL     1      -3.560   1.017   1.236  1.00  0.00     0.000 C 
HETATM   21  C1  UNL     1      -3.797   2.166   0.298  1.00  0.00     0.005 C 
ENDBRANCH  16  20
ENDBRANCH  12  13
ENDBRANCH  11  12
ENDBRANCH   1  11
BRANCH   2  22
HETATM   22  O1  UNL     1       3.830  -0.417   1.088  1.00  0.00    -0.344 OA
ATOM     23  H1  UNL     1       4.679  -0.716   1.392  1.00  0.00     0.219 HD
ENDBRANCH   2  22
TORSDOF 5
