REMARK  3 active torsions:
REMARK  status: ('A' for Active; 'I' for Inactive)
REMARK    1  A    between atoms: N3_6  and  O1_8 
REMARK    2  A    between atoms: O1_8  and  C4_9 
REMARK       I    between atoms: C4_9  and  N4_11 
REMARK    3  A    between atoms: C7_15  and  O4_16 
ROOT
HETATM    1  N1  UNL     1       6.043  -0.337   0.775  1.00  0.00    -0.189 NA
HETATM    2  C1  UNL     1       4.945  -0.277   0.400  1.00  0.00     0.131 C 
HETATM    3  C2  UNL     1       3.592  -0.202  -0.073  1.00  0.00     0.215 C 
HETATM    4  C3  UNL     1       3.200   0.533  -1.242  1.00  0.00     0.131 C 
HETATM    5  N2  UNL     1       2.899   1.137  -2.180  1.00  0.00    -0.189 NA
HETATM    6  N3  UNL     1       2.680  -0.823   0.576  1.00  0.00    -0.236 N 
ATOM      7  H3  UNL     1       2.956  -1.347   1.407  1.00  0.00     0.196 HD
ENDROOT
BRANCH   6   8
HETATM    8  O1  UNL     1       1.356  -0.827   0.223  1.00  0.00    -0.179 OA
BRANCH   8   9
HETATM    9  C4  UNL     1       0.479   0.167   0.572  1.00  0.00     0.388 C 
HETATM   10  O2  UNL     1       0.932   1.125   1.253  1.00  0.00    -0.236 OA
HETATM   11  N4  UNL     1      -0.895   0.179   0.215  1.00  0.00    -0.275 N 
HETATM   12  C5  UNL     1      -1.879   1.192   0.547  1.00  0.00     0.159 C 
HETATM   13  C7  UNL     1      -1.648  -0.795  -0.554  1.00  0.00     0.374 C 
HETATM   14  C6  UNL     1      -2.929   0.960  -0.517  1.00  0.00     0.193 C 
HETATM   15  O3  UNL     1      -2.349   0.039  -1.418  1.00  0.00    -0.342 OA
BRANCH  13  16
HETATM   16  O4  UNL     1      -2.551  -1.391   0.321  1.00  0.00    -0.354 OA
ATOM     17  H4  UNL     1      -3.044  -2.028  -0.182  1.00  0.00     0.214 HD
ENDBRANCH  13  16
ENDBRANCH   8   9
ENDBRANCH   6   8
TORSDOF 3
