REMARK  4 active torsions:
REMARK  status: ('A' for Active; 'I' for Inactive)
REMARK    1  A    between atoms: C3_6  and  C4_7 
REMARK    2  A    between atoms: C4_7  and  N2_9 
REMARK    3  A    between atoms: N2_9  and  C6_11 
REMARK    4  A    between atoms: C6_11  and  C7_15 
ROOT
HETATM    1  C4  UNL     1       0.663  -0.979   0.230  1.00  0.00     0.156 C 
HETATM    2  C5  UNL     1       1.022  -1.493   1.616  1.00  0.00     0.041 C 
ENDROOT
BRANCH   1   3
HETATM    3  C3  UNL     1       1.936  -0.676  -0.469  1.00  0.00     0.170 A 
HETATM    4  O1  UNL     1       2.514  -1.360  -1.445  1.00  0.00    -0.221 OA
HETATM    5  N1  UNL     1       3.618  -0.799  -1.812  1.00  0.00    -0.247 N 
HETATM    6  C2  UNL     1       3.821   0.311  -1.072  1.00  0.00     0.100 A 
ATOM      7  H1  UNL     1       4.239  -1.141  -2.546  1.00  0.00     0.196 HD
HETATM    8  C1  UNL     1       4.981   1.246  -1.180  1.00  0.00     0.091 C 
HETATM    9  N4  UNL     1       2.762   0.368  -0.244  1.00  0.00    -0.325 N 
ATOM     10  H4  UNL     1       2.606   1.096   0.454  1.00  0.00     0.169 HD
ENDBRANCH   1   3
BRANCH   1  11
HETATM   11  N2  UNL     1      -0.087   0.249   0.332  1.00  0.00    -0.368 N 
ATOM     12  H2  UNL     1       0.301   1.084  -0.106  1.00  0.00     0.161 HD
BRANCH  11  13
HETATM   13  C6  UNL     1      -1.322   0.366   0.998  1.00  0.00     0.075 C 
HETATM   14  N3  UNL     1      -1.443   1.136   1.999  1.00  0.00    -0.389 N 
ATOM     15  H32 UNL     1      -0.641   1.676   2.325  1.00  0.00     0.157 HD
ATOM     16  H31 UNL     1      -2.338   1.221   2.481  1.00  0.00     0.157 HD
BRANCH  13  17
HETATM   17  C7  UNL     1      -2.474  -0.410   0.530  1.00  0.00     0.052 C 
HETATM   18  C8  UNL     1      -2.859  -0.086  -0.919  1.00  0.00     0.012 C 
HETATM   19  C9  UNL     1      -3.930   0.835  -0.333  1.00  0.00     0.002 C 
HETATM   20  C10 UNL     1      -3.796   0.143   1.030  1.00  0.00     0.012 C 
ENDBRANCH  13  17
ENDBRANCH  11  13
ENDBRANCH   1  11
TORSDOF 4
