REMARK  4 active torsions:
REMARK  status: ('A' for Active; 'I' for Inactive)
REMARK    1  A    between atoms: N1_1  and  C1_4 
REMARK    2  A    between atoms: C2_9  and  S1_10 
REMARK    3  A    between atoms: S1_10  and  C3_11 
REMARK    4  A    between atoms: C3_11  and  C4_12 
ROOT
HETATM    1  C1  UNL     1       3.840   0.364  -0.846  1.00  0.00     0.239 A 
HETATM    2  N2  UNL     1       3.992  -0.833  -1.445  1.00  0.00    -0.263 N 
ATOM      3  H2  UNL     1       4.566  -1.040  -2.263  1.00  0.00     0.190 HD
HETATM    4  N3  UNL     1       3.242  -1.693  -0.755  1.00  0.00    -0.271 N 
ATOM      5  H3  UNL     1       3.145  -2.687  -0.962  1.00  0.00     0.189 HD
HETATM    6  C2  UNL     1       2.630  -1.043   0.262  1.00  0.00     0.205 A 
HETATM    7  O1  UNL     1       3.024   0.200   0.163  1.00  0.00    -0.253 OA
ENDROOT
BRANCH   6   8
HETATM    8  S1  UNL     1       1.548  -1.840   1.411  1.00  0.00    -0.084 SA
BRANCH   8   9
HETATM    9  C3  UNL     1      -0.159  -1.895   0.898  1.00  0.00     0.087 C 
BRANCH   9  10
HETATM   10  C4  UNL     1      -0.853  -0.583   0.840  1.00  0.00    -0.005 C 
HETATM   11  C5  UNL     1      -0.304   0.416  -0.089  1.00  0.00     0.005 C 
HETATM   12  C6  UNL     1      -1.312   1.137  -0.940  1.00  0.00     0.000 C 
HETATM   13  C7  UNL     1      -2.580   1.513  -0.256  1.00  0.00     0.000 C 
HETATM   14  C8  UNL     1      -2.938   0.621   0.904  1.00  0.00     0.000 C 
HETATM   15  C9  UNL     1      -2.353  -0.753   0.551  1.00  0.00     0.005 C 
ENDBRANCH   9  10
ENDBRANCH   8   9
ENDBRANCH   6   8
BRANCH   1  16
HETATM   16  N1  UNL     1       4.439   1.422  -1.272  1.00  0.00    -0.364 N 
ATOM     17  H12 UNL     1       5.075   1.550  -2.059  1.00  0.00     0.159 HD
ATOM     18  H11 UNL     1       4.324   2.328  -0.818  1.00  0.00     0.159 HD
ENDBRANCH   1  16
TORSDOF 4
