REMARK  4 active torsions:
REMARK  status: ('A' for Active; 'I' for Inactive)
REMARK    1  A    between atoms: C2_2  and  C3_3 
REMARK    2  A    between atoms: C3_3  and  N1_6 
REMARK    3  A    between atoms: N1_6  and  C5_8 
REMARK    4  A    between atoms: C6_11  and  N3_12 
ROOT
HETATM    1  C5  UNL     1       1.308  -0.365   0.044  1.00  0.00     0.154 A 
HETATM    2  N2  UNL     1       2.316  -0.341   0.904  1.00  0.00    -0.317 N 
ATOM      3  H2  UNL     1       2.108  -0.282   1.901  1.00  0.00     0.170 HD
HETATM    4  C6  UNL     1       3.569  -0.390   0.524  1.00  0.00     0.151 A 
HETATM    5  S1  UNL     1       3.810  -0.487  -1.163  1.00  0.00    -0.013 SA
HETATM    6  S2  UNL     1       1.771  -0.465  -1.587  1.00  0.00    -0.013 SA
ENDROOT
BRANCH   1   7
HETATM    7  N1  UNL     1       0.031  -0.316   0.410  1.00  0.00    -0.348 N 
ATOM      8  H1  UNL     1      -0.225  -0.256   1.395  1.00  0.00     0.163 HD
BRANCH   7   9
HETATM    9  C3  UNL     1      -0.980  -0.349  -0.608  1.00  0.00     0.105 C 
HETATM   10  C4  UNL     1      -0.832   0.850  -1.476  1.00  0.00     0.056 C 
HETATM   11 CL1  UNL     1      -0.650  -1.804  -1.609  1.00  0.00    -0.096 Cl
BRANCH   9  12
HETATM   12  C2  UNL     1      -2.355  -0.486  -0.001  1.00  0.00     0.043 C 
HETATM   13  C1  UNL     1      -2.736   0.672   0.857  1.00  0.00     0.009 C 
ENDBRANCH   9  12
ENDBRANCH   7   9
ENDBRANCH   1   7
BRANCH   4  14
HETATM   14  N3  UNL     1       4.619  -0.367   1.362  1.00  0.00    -0.379 N 
ATOM     15  H32 UNL     1       4.475  -0.309   2.370  1.00  0.00     0.158 HD
ATOM     16  H31 UNL     1       5.594  -0.405   1.066  1.00  0.00     0.158 HD
ENDBRANCH   4  14
TORSDOF 4
