REMARK  7 active torsions:
REMARK  status: ('A' for Active; 'I' for Inactive)
REMARK    1  A    between atoms: O1_1  and  N1_3 
REMARK       I    between atoms: C1_5  and  N2_6 
REMARK       I    between atoms: C1_5  and  N5_18 
REMARK    2  A    between atoms: N2_6  and  C2_8 
REMARK    3  A    between atoms: C2_8  and  C3_9 
REMARK    4  A    between atoms: C3_9  and  N3_10 
REMARK    5  A    between atoms: N5_18  and  C8_20 
REMARK    6  A    between atoms: C8_20  and  C9_21 
REMARK    7  A    between atoms: C9_21  and  N6_22 
ROOT
HETATM    1  N1  UNL     1       0.769  -1.185   1.376  1.00  0.00    -0.099 N 
ATOM      2  H1  UNL     1       1.713  -1.428   1.675  1.00  0.00     0.213 HD
HETATM    3  C1  UNL     1       0.599  -0.625   0.247  1.00  0.00     0.693 C 
HETATM    4  N2  UNL     1       1.651  -0.294  -0.670  1.00  0.00    -0.223 N 
ATOM      5  H2  UNL     1       1.823  -0.944  -1.437  1.00  0.00     0.177 HD
HETATM    6  N5  UNL     1      -0.729  -0.288  -0.162  1.00  0.00    -0.223 N 
ATOM      7  H5  UNL     1      -1.159  -0.782  -0.944  1.00  0.00     0.177 HD
ENDROOT
BRANCH   1   8
HETATM    8  O1  UNL     1      -0.276  -1.466   2.190  1.00  0.00    -0.276 OA
ATOM      9  H1  UNL     1      -0.149  -1.884   3.033  1.00  0.00     0.245 HD
ENDBRANCH   1   8
BRANCH   4  10
HETATM   10  C2  UNL     1       2.472   0.860  -0.602  1.00  0.00     0.157 C 
BRANCH  10  11
HETATM   11  C3  UNL     1       3.442   0.842   0.564  1.00  0.00     0.141 C 
BRANCH  11  12
HETATM   12  N3  UNL     1       4.330  -0.298   0.473  1.00  0.00    -0.375 N 
HETATM   13  C4  UNL     1       5.572  -0.281   0.241  1.00  0.00     0.096 A 
HETATM   14  C5  UNL     1       6.509   0.784  -0.004  1.00  0.00     0.045 A 
HETATM   15  N4  UNL     1       6.335  -1.501   0.152  1.00  0.00    -0.373 N 
HETATM   16  C6  UNL     1       7.708   0.280  -0.218  1.00  0.00    -0.004 A 
HETATM   17  C7  UNL     1       7.710  -1.184  -0.143  1.00  0.00     0.148 A 
ATOM     18  H4  UNL     1       5.961  -2.441   0.278  1.00  0.00     0.161 HD
ATOM     19  H3  UNL     1       3.907  -1.216   0.611  1.00  0.00     0.161 HD
ENDBRANCH  11  12
ENDBRANCH  10  11
ENDBRANCH   4  10
BRANCH   6  20
HETATM   20  C8  UNL     1      -1.453   0.728   0.511  1.00  0.00     0.168 C 
BRANCH  20  21
HETATM   21  C9  UNL     1      -2.687   1.043  -0.274  1.00  0.00     0.292 C 
BRANCH  21  22
HETATM   22  N6  UNL     1      -3.525  -0.112  -0.422  1.00  0.00     0.090 N 
HETATM   23  C10 UNL     1      -4.155  -0.562   0.779  1.00  0.00     0.272 C 
HETATM   24  C11 UNL     1      -5.484  -1.215   0.440  1.00  0.00     0.030 C 
HETATM   25  C12 UNL     1      -6.439  -0.157  -0.085  1.00  0.00     0.003 C 
HETATM   26  C13 UNL     1      -5.716   0.784  -1.017  1.00  0.00     0.030 C 
HETATM   27  C14 UNL     1      -4.453   0.108  -1.528  1.00  0.00     0.272 C 
ENDBRANCH  21  22
ENDBRANCH  20  21
ENDBRANCH   6  20
TORSDOF 7
