REMARK  12 active torsions:
REMARK  status: ('A' for Active; 'I' for Inactive)
REMARK    1  A    between atoms: C2_3  and  S1_4 
REMARK    2  A    between atoms: S1_4  and  C3_5 
REMARK    3  A    between atoms: C3_5  and  C4_6 
REMARK    4  A    between atoms: C5_9  and  C6_10 
REMARK    5  A    between atoms: N3_11  and  N4_13 
REMARK       I    between atoms: N4_13  and  C7_15 
REMARK    6  A    between atoms: N6_17  and  N7_19 
REMARK    7  A    between atoms: C9_24  and  N10_25 
REMARK    8  A    between atoms: N10_25  and  N11_27 
REMARK    9  A    between atoms: C10_30  and  C11_31 
REMARK       I    between atoms: C11_31  and  N12_33 
REMARK   10  A    between atoms: N12_33  and  C12_35 
REMARK   11  A    between atoms: N15_40  and  C13_41 
REMARK   12  A    between atoms: C13_41  and  O3_42 
ROOT
HETATM    1  C1  UNL     1      -3.134   1.693  -0.840  1.00  0.00     0.157 C 
HETATM    2  N1  UNL     1      -1.753   1.292  -0.991  1.00  0.00    -0.339 N 
HETATM    3  C2  UNL     1      -0.708   2.063  -0.660  1.00  0.00     0.086 A 
HETATM    4  C5  UNL     1       0.494   1.386  -0.928  1.00  0.00     0.045 A 
HETATM    5  C9  UNL     1       0.069   0.186  -1.429  1.00  0.00     0.094 A 
HETATM    6  C10 UNL     1      -1.335   0.122  -1.472  1.00  0.00     0.133 A 
ENDROOT
BRANCH   6   7
HETATM    7  C11 UNL     1      -2.135  -1.008  -1.961  1.00  0.00     0.289 C 
HETATM    8  O2  UNL     1      -1.586  -2.046  -2.404  1.00  0.00    -0.265 OA
HETATM    9  N12 UNL     1      -3.554  -0.924  -1.929  1.00  0.00    -0.151 N 
ATOM     10  H12 UNL     1      -4.030  -0.143  -2.381  1.00  0.00     0.188 HD
BRANCH   9  11
HETATM   11  C12 UNL     1      -4.238  -1.835  -1.329  1.00  0.00     0.717 A 
HETATM   12  N13 UNL     1      -3.714  -2.918  -0.694  1.00  0.00    -0.115 N 
HETATM   13  N14 UNL     1      -4.734  -3.634  -0.193  1.00  0.00    -0.209 N 
ATOM     14  H13 UNL     1      -2.723  -3.146  -0.613  1.00  0.00     0.207 HD
HETATM   15  N15 UNL     1      -5.869  -3.033  -0.495  1.00  0.00    -0.181 N 
ATOM     16  H14 UNL     1      -4.645  -4.502   0.335  1.00  0.00     0.210 HD
HETATM   17  N16 UNL     1      -5.569  -1.963  -1.172  1.00  0.00    -0.111 N 
ATOM     18  H16 UNL     1      -6.256  -1.304  -1.538  1.00  0.00     0.207 HD
BRANCH  15  19
HETATM   19  C13 UNL     1      -7.190  -3.496  -0.132  1.00  0.00     0.336 C 
BRANCH  19  20
HETATM   20  O3  UNL     1      -7.620  -3.001   1.089  1.00  0.00    -0.379 OA
ATOM     21  H3  UNL     1      -8.488  -3.305   1.327  1.00  0.00     0.211 HD
ENDBRANCH  19  20
ENDBRANCH  15  19
ENDBRANCH   9  11
ENDBRANCH   6   7
BRANCH   5  22
HETATM   22  N10 UNL     1       0.870  -0.905  -1.836  1.00  0.00    -0.304 N 
ATOM     23  H10 UNL     1       1.328  -0.862  -2.747  1.00  0.00     0.186 HD
BRANCH  22  24
HETATM   24  N11 UNL     1       1.062  -2.042  -1.042  1.00  0.00    -0.345 N 
ATOM     25 2H11 UNL     1       0.597  -2.068  -0.134  1.00  0.00     0.176 HD
ATOM     26 1H11 UNL     1       1.640  -2.829  -1.336  1.00  0.00     0.176 HD
ENDBRANCH  22  24
ENDBRANCH   5  22
BRANCH   3  27
HETATM   27  S1  UNL     1      -0.818   3.725   0.025  1.00  0.00    -0.102 SA
BRANCH  27  28
HETATM   28  C3  UNL     1      -0.889   3.603   1.831  1.00  0.00     0.180 C 
BRANCH  28  29
HETATM   29  C4  UNL     1      -0.992   4.969   2.419  1.00  0.00     0.240 C 
HETATM   30  N2  UNL     1      -1.063   5.169   3.815  1.00  0.00    -0.061 NA
HETATM   31  O1  UNL     1      -1.016   5.978   1.651  1.00  0.00    -0.276 OA
ENDBRANCH  28  29
ENDBRANCH  27  28
ENDBRANCH   3  27
BRANCH   4  32
HETATM   32  C6  UNL     1       1.820   1.939  -0.690  1.00  0.00     0.123 C 
HETATM   33  N3  UNL     1       2.946   1.527  -0.859  1.00  0.00    -0.309 N 
ATOM     34  H3  UNL     1       3.610   2.239  -0.555  1.00  0.00     0.186 HD
BRANCH  33  35
HETATM   35  N4  UNL     1       3.614   0.477  -1.300  1.00  0.00    -0.273 N 
HETATM   36  C7  UNL     1       4.409  -0.422  -0.490  1.00  0.00     0.222 C 
HETATM   37  N5  UNL     1       4.039  -0.680   0.872  1.00  0.00    -0.061 NA
HETATM   38  N6  UNL     1       5.429  -0.965  -1.022  1.00  0.00    -0.270 N 
ATOM     39  H6  UNL     1       5.636  -0.740  -1.995  1.00  0.00     0.189 HD
ATOM     40  H4  UNL     1       3.566   0.282  -2.300  1.00  0.00     0.189 HD
BRANCH  38  41
HETATM   41  N7  UNL     1       6.270  -1.836  -0.370  1.00  0.00    -0.274 N 
HETATM   42  C8  UNL     1       7.154  -1.574   0.501  1.00  0.00     0.215 C 
HETATM   43  N8  UNL     1       7.407  -0.254   0.949  1.00  0.00    -0.065 NA
HETATM   44  N9  UNL     1       7.921  -2.633   1.057  1.00  0.00    -0.065 NA
ATOM     45  H7  UNL     1       6.170  -2.820  -0.619  1.00  0.00     0.189 HD
ENDBRANCH  38  41
ENDBRANCH  33  35
ENDBRANCH   4  32
TORSDOF 12
