REMARK  15 active torsions:
REMARK  status: ('A' for Active; 'I' for Inactive)
REMARK       I    between atoms: C1_4  and  N3_6 
REMARK    1  A    between atoms: N3_6  and  C2_8 
REMARK    2  A    between atoms: C3_9  and  N4_10 
REMARK    3  A    between atoms: C5_16  and  O2_17 
REMARK    4  A    between atoms: O2_17  and  C6_18 
REMARK    5  A    between atoms: C7_19  and  N5_20 
REMARK    6  A    between atoms: C9_25  and  N6_26 
REMARK    7  A    between atoms: C10_30  and  O3_31 
REMARK    8  A    between atoms: O3_31  and  C11_32 
REMARK    9  A    between atoms: C12_33  and  N7_34 
REMARK   10  A    between atoms: N8_40  and  C15_41 
REMARK   11  A    between atoms: C15_41  and  C16_42 
REMARK   12  A    between atoms: C16_42  and  C17_43 
REMARK   13  A    between atoms: C17_43  and  N9_44 
REMARK   14  A    between atoms: C18_48  and  O4_49 
REMARK   15  A    between atoms: C19_51  and  N10_52 
ROOT
HETATM    1  C6  UNL     1       1.103   0.073  -0.626  1.00  0.00     0.186 C 
HETATM    2  C7  UNL     1       0.928  -0.450  -2.022  1.00  0.00     0.217 C 
HETATM    3  C8  UNL     1      -0.419  -0.996  -2.319  1.00  0.00     0.071 C 
HETATM    4  C9  UNL     1      -1.063  -1.381  -1.000  1.00  0.00     0.217 C 
HETATM    5  C10 UNL     1      -1.400  -0.070  -0.309  1.00  0.00     0.186 C 
HETATM    6  C18 UNL     1      -0.126   0.615   0.005  1.00  0.00     0.180 C 
ENDROOT
BRANCH   1   7
HETATM    7  O2  UNL     1       1.788  -0.870   0.141  1.00  0.00    -0.349 OA
BRANCH   7   8
HETATM    8  C5  UNL     1       3.051  -0.467   0.493  1.00  0.00     0.292 C 
HETATM    9  O1  UNL     1       3.256  -0.340   1.865  1.00  0.00    -0.357 OA
HETATM   10  C4  UNL     1       4.237   0.622   2.066  1.00  0.00     0.205 C 
HETATM   11  C3  UNL     1       5.417   0.501   1.149  1.00  0.00     0.232 C 
HETATM   12  C2  UNL     1       5.486  -0.830   0.444  1.00  0.00     0.152 C 
HETATM   13  C19 UNL     1       4.161  -1.342  -0.031  1.00  0.00     0.262 C 
BRANCH  11  14
HETATM   14  N4  UNL     1       5.564   1.613   0.231  1.00  0.00    -0.071 N 
ATOM     15  H43 UNL     1       6.420   1.529  -0.317  1.00  0.00     0.274 HD
ATOM     16  H42 UNL     1       4.882   1.560  -0.526  1.00  0.00     0.274 HD
ATOM     17  H41 UNL     1       5.517   2.513   0.708  1.00  0.00     0.274 HD
ENDBRANCH  11  14
BRANCH  12  18
HETATM   18  N3  UNL     1       6.427  -0.706  -0.657  1.00  0.00    -0.356 N 
HETATM   19  C1  UNL     1       7.775  -0.358  -0.489  1.00  0.00     0.182 C 
HETATM   20  N1  UNL     1       8.416  -0.493   0.628  1.00  0.00    -0.374 N 
HETATM   21  N2  UNL     1       8.497   0.174  -1.592  1.00  0.00    -0.064 NA
ATOM     22  H12 UNL     1       9.397  -0.240   0.750  1.00  0.00     0.158 HD
ATOM     23  H11 UNL     1       7.898  -0.875   1.419  1.00  0.00     0.158 HD
ATOM     24  H3  UNL     1       6.088  -0.882  -1.603  1.00  0.00     0.162 HD
ENDBRANCH  12  18
BRANCH  13  25
HETATM   25  N10 UNL     1       4.036  -2.722   0.338  1.00  0.00    -0.068 N 
ATOM     26 3H10 UNL     1       4.815  -3.287  -0.000  1.00  0.00     0.275 HD
ATOM     27 2H10 UNL     1       4.175  -2.871   1.337  1.00  0.00     0.275 HD
ATOM     28 1H10 UNL     1       3.134  -3.071   0.015  1.00  0.00     0.275 HD
ENDBRANCH  13  25
ENDBRANCH   7   8
ENDBRANCH   1   7
BRANCH   2  29
HETATM   29  N5  UNL     1       1.219   0.587  -3.024  1.00  0.00    -0.072 N 
ATOM     30  H53 UNL     1       0.661   1.426  -2.866  1.00  0.00     0.274 HD
ATOM     31  H52 UNL     1       2.147   0.988  -2.889  1.00  0.00     0.274 HD
ATOM     32  H51 UNL     1       1.100   0.232  -3.973  1.00  0.00     0.274 HD
ENDBRANCH   2  29
BRANCH   6  33
HETATM   33  O4  UNL     1      -0.234   2.002  -0.236  1.00  0.00    -0.390 OA
ATOM     34  H4  UNL     1      -1.021   2.349   0.168  1.00  0.00     0.210 HD
ENDBRANCH   6  33
BRANCH   5  35
HETATM   35  O3  UNL     1      -2.264  -0.255   0.749  1.00  0.00    -0.345 OA
BRANCH  35  36
HETATM   36  C11 UNL     1      -3.525   0.337   0.559  1.00  0.00     0.389 C 
HETATM   37  C12 UNL     1      -3.852   1.285   1.683  1.00  0.00     0.244 C 
HETATM   38  C13 UNL     1      -4.594   0.498   2.730  1.00  0.00     0.067 C 
HETATM   39  C14 UNL     1      -4.959  -0.764   2.016  1.00  0.00     0.278 C 
HETATM   40  N8  UNL     1      -4.559  -0.642   0.649  1.00  0.00     0.119 N 
BRANCH  37  41
HETATM   41  N7  UNL     1      -2.694   1.870   2.308  1.00  0.00    -0.071 N 
ATOM     42  H73 UNL     1      -2.053   1.144   2.626  1.00  0.00     0.274 HD
ATOM     43  H72 UNL     1      -2.104   2.327   1.613  1.00  0.00     0.274 HD
ATOM     44  H71 UNL     1      -2.915   2.512   3.069  1.00  0.00     0.274 HD
ENDBRANCH  37  41
BRANCH  40  45
HETATM   45  C15 UNL     1      -5.620  -0.568  -0.280  1.00  0.00     0.277 C 
BRANCH  45  46
HETATM   46  C16 UNL     1      -6.556   0.582  -0.159  1.00  0.00     0.057 C 
BRANCH  46  47
HETATM   47  C17 UNL     1      -7.627   0.469  -1.255  1.00  0.00     0.231 C 
BRANCH  47  48
HETATM   48  N9  UNL     1      -8.543   1.585  -1.136  1.00  0.00    -0.079 N 
ATOM     49  H93 UNL     1      -8.948   1.657  -0.203  1.00  0.00     0.274 HD
ATOM     50  H92 UNL     1      -8.063   2.485  -1.153  1.00  0.00     0.274 HD
ATOM     51  H91 UNL     1      -9.254   1.510  -1.864  1.00  0.00     0.274 HD
ENDBRANCH  47  48
ENDBRANCH  46  47
ENDBRANCH  45  46
ENDBRANCH  40  45
ENDBRANCH  35  36
ENDBRANCH   5  35
BRANCH   4  52
HETATM   52  N6  UNL     1      -2.251  -2.138  -1.313  1.00  0.00    -0.072 N 
ATOM     53  H63 UNL     1      -2.887  -1.644  -1.940  1.00  0.00     0.274 HD
ATOM     54  H62 UNL     1      -2.067  -2.939  -1.918  1.00  0.00     0.274 HD
ATOM     55  H61 UNL     1      -2.684  -2.397  -0.426  1.00  0.00     0.274 HD
ENDBRANCH   4  52
TORSDOF 15
