REMARK  6 active torsions:
REMARK  status: ('A' for Active; 'I' for Inactive)
REMARK    1  A    between atoms: C5_5  and  O1_6 
REMARK    2  A    between atoms: C7_9  and  C8_10 
REMARK    3  A    between atoms: C8_10  and  C22_30 
REMARK    4  A    between atoms: C9_11  and  C10_12 
REMARK    5  A    between atoms: C13_16  and  C14_17 
REMARK    6  A    between atoms: C22_30  and  O7_31 
ROOT
HETATM    1  C10 UNL     1       1.108   1.165   1.098  1.00  0.00     0.050 C 
HETATM    2  C11 UNL     1       1.248   0.661   2.503  1.00  0.00     0.033 C 
HETATM    3  C12 UNL     1       2.753   0.474   2.730  1.00  0.00     0.113 C 
HETATM    4 CL1  UNL     1       2.981  -1.026   3.648  1.00  0.00    -0.123 Cl
HETATM    5  C13 UNL     1       3.344   0.392   1.361  1.00  0.00     0.160 C 
HETATM    6  C15 UNL     1       4.213  -0.809   1.170  1.00  0.00     0.153 C 
HETATM    7  O4  UNL     1       4.958  -1.093   2.117  1.00  0.00    -0.296 OA
HETATM    8  C16 UNL     1       4.290  -1.692  -0.008  1.00  0.00     0.120 C 
HETATM    9  C17 UNL     1       3.342  -1.393  -1.111  1.00  0.00     0.099 C 
HETATM   10  C18 UNL     1       3.654  -2.397  -2.229  1.00  0.00     0.050 C 
HETATM   11  C19 UNL     1       3.465  -0.032  -1.704  1.00  0.00     0.044 C 
HETATM   12  C20 UNL     1       2.521   0.891  -0.949  1.00  0.00     0.047 C 
HETATM   13  C21 UNL     1       2.213   0.319   0.380  1.00  0.00     0.129 C 
HETATM   14  O5  UNL     1       1.692  -0.944   0.330  1.00  0.00    -0.226 OA
HETATM   15  O6  UNL     1       2.008  -1.603  -0.761  1.00  0.00    -0.229 OA
ENDROOT
BRANCH   1  16
HETATM   16  C9  UNL     1      -0.176   0.937   0.492  1.00  0.00    -0.009 C 
HETATM   17  C8  UNL     1      -1.324   0.565   0.874  1.00  0.00    -0.031 C 
BRANCH  17  18
HETATM   18  C7  UNL     1      -2.395   0.476  -0.244  1.00  0.00    -0.041 C 
HETATM   19  C6  UNL     1      -2.335   0.725  -1.677  1.00  0.00     0.082 C 
HETATM   20  C5  UNL     1      -3.608   0.094  -1.766  1.00  0.00     0.086 C 
HETATM   21  C4  UNL     1      -4.890   0.824  -2.113  1.00  0.00     0.043 C 
HETATM   22  C23 UNL     1      -3.620   0.157  -0.265  1.00  0.00    -0.035 C 
HETATM   23  C3  UNL     1      -5.878   0.348  -1.063  1.00  0.00     0.012 C 
HETATM   24  C2  UNL     1      -5.038  -0.262   0.042  1.00  0.00     0.014 C 
HETATM   25  C1  UNL     1      -5.157  -1.748   0.018  1.00  0.00     0.015 C 
BRANCH  20  26
HETATM   26  O1  UNL     1      -3.590  -1.231  -2.241  1.00  0.00    -0.385 OA
ATOM     27  H1  UNL     1      -2.786  -1.689  -2.023  1.00  0.00     0.211 HD
ENDBRANCH  20  26
ENDBRANCH  17  18
BRANCH  17  28
HETATM   28  C22 UNL     1      -1.884   0.261   2.170  1.00  0.00     0.203 C 
BRANCH  28  29
HETATM   29  O7  UNL     1      -2.992   1.148   2.408  1.00  0.00    -0.396 OA
ATOM     30  H7  UNL     1      -3.360   0.948   3.261  1.00  0.00     0.209 HD
ENDBRANCH  28  29
ENDBRANCH  17  28
ENDBRANCH   1  16
BRANCH   5  31
HETATM   31  C14 UNL     1       4.244   1.563   1.096  1.00  0.00     0.194 C 
HETATM   32  O2  UNL     1       5.439   1.418   0.755  1.00  0.00    -0.647 OA
HETATM   33  O3  UNL     1       3.742   2.832   1.234  1.00  0.00    -0.647 OA
ENDBRANCH   5  31
TORSDOF 6
