REMARK  8 active torsions:
REMARK  status: ('A' for Active; 'I' for Inactive)
REMARK    1  A    between atoms: C2_7  and  N3_8 
REMARK    2  A    between atoms: N3_8  and  C3_10 
REMARK    3  A    between atoms: C3_10  and  C4_11 
REMARK    4  A    between atoms: C8_20  and  C9_21 
REMARK    5  A    between atoms: C9_21  and  C10_22 
REMARK    6  A    between atoms: C10_22  and  C11_23 
REMARK    7  A    between atoms: C11_23  and  C12_24 
REMARK    8  A    between atoms: C12_24  and  O2_25 
ROOT
HETATM    1  N1  UNL     1      -1.695  -0.985  -1.850  1.00  0.00    -0.385 N 
ATOM      2  H11 UNL     1      -2.629  -0.581  -1.918  1.00  0.00     0.157 HD
ATOM      3  H12 UNL     1      -1.465  -1.881  -2.280  1.00  0.00     0.157 HD
HETATM    4  C1  UNL     1      -0.888  -0.294  -1.125  1.00  0.00     0.122 A 
HETATM    5  N2  UNL     1       0.372  -0.839  -1.033  1.00  0.00    -0.177 N 
ATOM      6  H2  UNL     1       0.575  -1.738  -1.470  1.00  0.00     0.186 HD
HETATM    7  C2  UNL     1       1.330  -0.184  -0.368  1.00  0.00     0.679 A 
HETATM    8  N5  UNL     1       1.076   1.003   0.211  1.00  0.00    -0.201 N 
ATOM      9  H5  UNL     1       1.816   1.494   0.713  1.00  0.00     0.183 HD
HETATM   10  C7  UNL     1      -0.143   1.539   0.130  1.00  0.00     0.117 A 
HETATM   11  C8  UNL     1      -1.192   0.891  -0.557  1.00  0.00     0.002 A 
ENDROOT
BRANCH   7  12
HETATM   12  N3  UNL     1       2.513  -0.700  -0.284  1.00  0.00    -0.218 N 
ATOM     13  H3  UNL     1       2.712  -1.600  -0.721  1.00  0.00     0.178 HD
BRANCH  12  14
HETATM   14  C3  UNL     1       3.539  -0.004   0.423  1.00  0.00     0.222 C 
BRANCH  14  15
HETATM   15  C4  UNL     1       4.857  -0.700   0.340  1.00  0.00     0.141 A 
HETATM   16  N4  UNL     1       5.142  -1.893  -0.222  1.00  0.00    -0.347 N 
HETATM   17  C5  UNL     1       6.456  -2.118  -0.062  1.00  0.00     0.114 A 
ATOM     18  H4  UNL     1       4.478  -2.513  -0.686  1.00  0.00     0.167 HD
HETATM   19  C6  UNL     1       6.940  -1.003   0.622  1.00  0.00     0.161 A 
HETATM   20  O1  UNL     1       5.950  -0.167   0.848  1.00  0.00    -0.307 OA
ENDBRANCH  14  15
ENDBRANCH  12  14
ENDBRANCH   7  12
BRANCH  11  21
HETATM   21  C9  UNL     1      -2.525   1.516  -0.493  1.00  0.00     0.044 C 
BRANCH  21  22
HETATM   22  C10 UNL     1      -3.336   1.208   0.708  1.00  0.00     0.007 C 
BRANCH  22  23
HETATM   23  C11 UNL     1      -3.826  -0.138   0.980  1.00  0.00     0.026 C 
BRANCH  23  24
HETATM   24  C12 UNL     1      -4.868  -0.717   0.093  1.00  0.00     0.164 C 
BRANCH  24  25
HETATM   25  O2  UNL     1      -6.038   0.080   0.124  1.00  0.00    -0.401 OA
ATOM     26  H2  UNL     1      -6.704  -0.290  -0.443  1.00  0.00     0.209 HD
ENDBRANCH  24  25
ENDBRANCH  23  24
ENDBRANCH  22  23
ENDBRANCH  21  22
ENDBRANCH  11  21
TORSDOF 8
