REMARK  3 active torsions:
REMARK  status: ('A' for Active; 'I' for Inactive)
REMARK    1  A    between atoms: C1_2  and  C2_3 
REMARK    2  A    between atoms: C2_3  and  C3_4 
REMARK    3  A    between atoms: C3_4  and  N1_5 
ROOT
HETATM    1  N1  UNL     1      -0.315   0.222   0.521  1.00  0.00     0.088 N 
HETATM    2  C4  UNL     1      -1.197  -0.778   1.083  1.00  0.00     0.272 C 
HETATM    3  C5  UNL     1      -2.571  -0.434   0.568  1.00  0.00     0.032 C 
HETATM    4  C6  UNL     1      -2.206  -0.112  -0.885  1.00  0.00     0.032 C 
HETATM    5  C7  UNL     1      -1.015   0.815  -0.622  1.00  0.00     0.272 C 
ENDROOT
BRANCH   1   6
HETATM    6  C3  UNL     1       0.929  -0.363   0.001  1.00  0.00     0.273 C 
BRANCH   6   7
HETATM    7  C2  UNL     1       1.867   0.786  -0.269  1.00  0.00     0.041 C 
BRANCH   7   8
HETATM    8  C1  UNL     1       3.188   0.276  -0.856  1.00  0.00     0.087 C 
HETATM    9 BR1  UNL     1       3.912  -0.961   0.464  1.00  0.00    -0.096 Br
ENDBRANCH   7   8
ENDBRANCH   6   7
ENDBRANCH   1   6
TORSDOF 3
