REMARK  16 active torsions:
REMARK  status: ('A' for Active; 'I' for Inactive)
REMARK    1  A    between atoms: N1_6  and  C6_7 
REMARK    2  A    between atoms: C6_7  and  O1_8 
REMARK    3  A    between atoms: C6_7  and  C7_10 
REMARK    4  A    between atoms: C10_13  and  C11_14 
REMARK    5  A    between atoms: C11_14  and  N2_15 
REMARK    6  A    between atoms: C12_16  and  C13_17 
REMARK    7  A    between atoms: C13_17  and  C14_18 
REMARK    8  A    between atoms: C18_24  and  C19_25 
REMARK    9  A    between atoms: C19_25  and  O3_27 
REMARK   10  A    between atoms: O3_27  and  C20_28 
REMARK   11  A    between atoms: C20_28  and  C21_29 
REMARK       I    between atoms: C21_29  and  N4_31 
REMARK   12  A    between atoms: C25_40  and  N7_41 
REMARK   13  A    between atoms: N7_41  and  C26_43 
REMARK   14  A    between atoms: C26_43  and  C27_44 
REMARK   15  A    between atoms: C27_44  and  C28_45 
REMARK   16  A    between atoms: C28_45  and  O5_46 
ROOT
HETATM    1  N2  UNL     1      -0.174  -0.281  -2.609  1.00  0.00    -0.317 N 
HETATM    2  C12 UNL     1      -0.377   0.787  -3.375  1.00  0.00     0.085 A 
HETATM    3  N3  UNL     1       0.656   1.685  -3.484  1.00  0.00    -0.348 N 
ATOM      4  H3  UNL     1       0.537   2.517  -4.061  1.00  0.00     0.167 HD
HETATM    5  C16 UNL     1       1.814   1.489  -2.848  1.00  0.00     0.026 A 
HETATM    6  C17 UNL     1       2.947   2.483  -2.970  1.00  0.00     0.069 C 
HETATM    7  C18 UNL     1       2.050   0.407  -2.064  1.00  0.00     0.105 A 
HETATM    8  C25 UNL     1       0.991  -0.545  -1.932  1.00  0.00     0.123 A 
ENDROOT
BRANCH   1   9
HETATM    9  C11 UNL     1      -1.271  -1.202  -2.401  1.00  0.00     0.178 C 
BRANCH   9  10
HETATM   10  C10 UNL     1      -2.166  -0.794  -1.269  1.00  0.00     0.002 A 
HETATM   11  C9  UNL     1      -1.935  -0.448   0.016  1.00  0.00     0.018 A 
HETATM   12  C8  UNL     1      -3.001  -0.159   0.807  1.00  0.00     0.024 A 
HETATM   13  C7  UNL     1      -4.243  -0.236   0.253  1.00  0.00     0.056 A 
HETATM   14  S1  UNL     1      -3.857  -0.719  -1.381  1.00  0.00    -0.089 SA
BRANCH  13  15
HETATM   15  C6  UNL     1      -5.583   0.004   0.767  1.00  0.00     0.155 C 
BRANCH  15  16
HETATM   16  N1  UNL     1      -5.993   0.435   2.017  1.00  0.00    -0.357 N 
HETATM   17  C5  UNL     1      -7.433   0.590   2.335  1.00  0.00     0.125 C 
HETATM   18  C4  UNL     1      -7.710   2.055   2.678  1.00  0.00     0.024 C 
HETATM   19  C3  UNL     1      -6.895   2.425   3.897  1.00  0.00     0.036 C 
HETATM   20  C2  UNL     1      -5.913   1.373   4.204  1.00  0.00    -0.071 C 
HETATM   21  C1  UNL     1      -5.740   0.952   5.433  1.00  0.00     0.016 C 
HETATM   22  C30 UNL     1      -5.101   0.784   3.080  1.00  0.00     0.158 C 
ENDBRANCH  15  16
BRANCH  15  23
HETATM   23  O1  UNL     1      -6.539  -0.223  -0.085  1.00  0.00    -0.345 OA
ATOM     24  H1  UNL     1      -6.258  -0.519  -0.943  1.00  0.00     0.219 HD
ENDBRANCH  15  23
ENDBRANCH  13  15
ENDBRANCH   9  10
ENDBRANCH   1   9
BRANCH   2  25
HETATM   25  C13 UNL     1      -1.576   1.071  -4.212  1.00  0.00     0.076 C 
BRANCH  25  26
HETATM   26  C14 UNL     1      -1.355   0.764  -5.671  1.00  0.00     0.003 C 
HETATM   27  C15 UNL     1      -0.982  -0.619  -6.029  1.00  0.00     0.005 C 
ENDBRANCH  25  26
ENDBRANCH   2  25
BRANCH   8  28
HETATM   28  N7  UNL     1       1.255  -1.527  -1.242  1.00  0.00    -0.375 N 
ATOM     29  H7  UNL     1       2.205  -1.306  -0.944  1.00  0.00     0.161 HD
BRANCH  28  30
HETATM   30  C26 UNL     1       1.064  -2.716  -0.636  1.00  0.00     0.123 C 
BRANCH  30  31
HETATM   31  C27 UNL     1       2.058  -3.013   0.519  1.00  0.00     0.046 C 
BRANCH  31  32
HETATM   32  C28 UNL     1       1.767  -4.348   1.123  1.00  0.00     0.168 C 
BRANCH  32  33
HETATM   33  O5  UNL     1       1.865  -5.378   0.226  1.00  0.00    -0.396 OA
HETATM   34  C29 UNL     1       3.094  -5.538  -0.371  1.00  0.00     0.201 C 
ENDBRANCH  32  33
ENDBRANCH  31  32
ENDBRANCH  30  31
ENDBRANCH  28  30
ENDBRANCH   8  28
BRANCH   7  35
HETATM   35  C19 UNL     1       3.299   0.170  -1.353  1.00  0.00     0.299 C 
HETATM   36  O2  UNL     1       4.202  -0.463  -1.943  1.00  0.00    -0.259 OA
BRANCH  35  37
HETATM   37  O3  UNL     1       3.534   0.605  -0.063  1.00  0.00    -0.308 OA
BRANCH  37  38
HETATM   38  C20 UNL     1       4.784   0.324   0.565  1.00  0.00     0.282 C 
BRANCH  38  39
HETATM   39  C21 UNL     1       4.836   0.850   1.933  1.00  0.00     0.260 C 
HETATM   40  O4  UNL     1       3.830   1.495   2.400  1.00  0.00    -0.270 OA
HETATM   41  N4  UNL     1       5.937   0.701   2.804  1.00  0.00    -0.158 N 
HETATM   42  C22 UNL     1       6.819   1.599   2.950  1.00  0.00     0.684 A 
ATOM     43  H4  UNL     1       6.026  -0.164   3.337  1.00  0.00     0.187 HD
HETATM   44  N5  UNL     1       7.893   1.485   3.782  1.00  0.00    -0.200 N 
HETATM   45  N6  UNL     1       6.888   2.784   2.354  1.00  0.00    -0.200 N 
HETATM   46  C23 UNL     1       8.627   2.611   3.695  1.00  0.00     0.123 A 
ATOM     47  H5  UNL     1       8.105   0.681   4.372  1.00  0.00     0.183 HD
HETATM   48  C24 UNL     1       7.999   3.443   2.792  1.00  0.00     0.123 A 
ATOM     49  H6  UNL     1       6.216   3.144   1.676  1.00  0.00     0.183 HD
ENDBRANCH  38  39
ENDBRANCH  37  38
ENDBRANCH  35  37
ENDBRANCH   7  35
TORSDOF 16
