REMARK  11 active torsions:
REMARK  status: ('A' for Active; 'I' for Inactive)
REMARK    1  A    between atoms: C5_5  and  C6_6 
REMARK    2  A    between atoms: C6_6  and  C7_7 
REMARK    3  A    between atoms: C9_12  and  C10_13 
REMARK    4  A    between atoms: C10_13  and  C11_14 
REMARK    5  A    between atoms: C12_15  and  C13_16 
REMARK    6  A    between atoms: C13_16  and  C14_17 
REMARK    7  A    between atoms: C14_17  and  C15_18 
REMARK    8  A    between atoms: C15_18  and  N2_19 
REMARK    9  A    between atoms: C22_26  and  C23_27 
REMARK   10  A    between atoms: C23_27  and  C24_28 
REMARK   11  A    between atoms: C26_32  and  N4_33 
ROOT
HETATM    1  C11 UNL     1      -1.656   1.574   0.092  1.00  0.00    -0.021 A 
HETATM    2  C12 UNL     1      -2.857   0.929  -0.247  1.00  0.00    -0.047 A 
HETATM    3  C19 UNL     1      -3.586   1.493  -1.282  1.00  0.00     0.008 A 
HETATM    4  C20 UNL     1      -3.192   2.607  -1.956  1.00  0.00     0.001 A 
HETATM    5  C21 UNL     1      -2.025   3.215  -1.609  1.00  0.00     0.008 A 
HETATM    6  C22 UNL     1      -1.235   2.691  -0.558  1.00  0.00    -0.043 A 
ENDROOT
BRANCH   1   7
HETATM    7  C10 UNL     1      -0.866   0.956   1.158  1.00  0.00     0.048 C 
BRANCH   7   8
HETATM    8  C9  UNL     1       0.238   0.282   1.054  1.00  0.00     0.104 A 
HETATM    9  C8  UNL     1       0.793  -0.203   2.227  1.00  0.00     0.273 A 
HETATM   10  N1  UNL     1       1.924  -0.924   2.192  1.00  0.00    -0.317 N 
HETATM   11  O1  UNL     1       0.269   0.007   3.350  1.00  0.00    -0.266 OA
HETATM   12  C7  UNL     1       2.584  -1.221   1.055  1.00  0.00     0.106 A 
ATOM     13  H1  UNL     1       2.305  -1.266   3.074  1.00  0.00     0.169 HD
HETATM   14  C28 UNL     1       2.032  -0.738  -0.105  1.00  0.00     0.273 A 
HETATM   15  N6  UNL     1       0.881  -0.003  -0.085  1.00  0.00    -0.317 N 
HETATM   16  O3  UNL     1       2.608  -0.983  -1.197  1.00  0.00    -0.266 OA
ATOM     17  H6  UNL     1       0.499   0.340  -0.966  1.00  0.00     0.169 HD
BRANCH  12  18
HETATM   18  C6  UNL     1       3.684  -1.939   1.109  1.00  0.00     0.064 C 
BRANCH  18  19
HETATM   19  C5  UNL     1       4.494  -2.330  -0.043  1.00  0.00     0.034 A 
HETATM   20  C4  UNL     1       4.378  -3.421  -0.875  1.00  0.00     0.031 A 
HETATM   21  C3  UNL     1       5.390  -3.377  -1.826  1.00  0.00     0.027 A 
HETATM   22  C2  UNL     1       6.124  -2.242  -1.560  1.00  0.00     0.005 A 
HETATM   23  C1  UNL     1       7.329  -1.791  -2.345  1.00  0.00     0.068 C 
HETATM   24  N7  UNL     1       5.578  -1.642  -0.507  1.00  0.00    -0.360 N 
ATOM     25  H7  UNL     1       5.926  -0.775  -0.097  1.00  0.00     0.166 HD
ENDBRANCH  18  19
ENDBRANCH  12  18
ENDBRANCH   7   8
ENDBRANCH   1   7
BRANCH   2  26
HETATM   26  C13 UNL     1      -3.333  -0.306   0.421  1.00  0.00     0.041 C 
BRANCH  26  27
HETATM   27  C14 UNL     1      -2.763  -1.515  -0.252  1.00  0.00     0.032 C 
BRANCH  27  28
HETATM   28  C15 UNL     1      -3.196  -2.804   0.423  1.00  0.00     0.236 C 
BRANCH  28  29
HETATM   29  N2  UNL     1      -2.597  -3.916  -0.303  1.00  0.00    -0.079 N 
HETATM   30  C16 UNL     1      -1.182  -3.663  -0.554  1.00  0.00     0.271 C 
HETATM   31  C17 UNL     1      -2.670  -5.138   0.461  1.00  0.00     0.271 C 
HETATM   32  C18 UNL     1      -3.313  -4.150  -1.562  1.00  0.00     0.271 C 
ENDBRANCH  28  29
ENDBRANCH  27  28
ENDBRANCH  26  27
ENDBRANCH   2  26
BRANCH   6  33
HETATM   33  C23 UNL     1      -0.076   3.556  -0.247  1.00  0.00     0.085 C 
BRANCH  33  34
HETATM   34  C24 UNL     1      -0.320   4.729   0.598  1.00  0.00     0.030 A 
HETATM   35  C25 UNL     1      -0.560   5.942  -0.085  1.00  0.00     0.119 A 
HETATM   36  N3  UNL     1      -0.817   7.060   0.604  1.00  0.00    -0.201 N 
HETATM   37  C26 UNL     1      -0.863   7.106   1.941  1.00  0.00     0.678 A 
ATOM     38  H3  UNL     1      -0.986   7.921   0.084  1.00  0.00     0.183 HD
HETATM   39  N5  UNL     1      -0.640   5.978   2.614  1.00  0.00    -0.156 N 
HETATM   40  C27 UNL     1      -0.371   4.802   1.943  1.00  0.00     0.267 A 
ATOM     41  H5  UNL     1      -0.668   5.983   3.634  1.00  0.00     0.187 HD
HETATM   42  O2  UNL     1      -0.171   3.803   2.676  1.00  0.00    -0.267 OA
BRANCH  37  43
HETATM   43  N4  UNL     1      -1.116   8.235   2.524  1.00  0.00    -0.234 N 
ATOM     44  H42 UNL     1      -1.287   9.099   2.009  1.00  0.00     0.174 HD
ATOM     45  H41 UNL     1      -1.151   8.270   3.543  1.00  0.00     0.174 HD
ENDBRANCH  37  43
ENDBRANCH  33  34
ENDBRANCH   6  33
TORSDOF 11
