REMARK  13 active torsions:
REMARK  status: ('A' for Active; 'I' for Inactive)
REMARK    1  A    between atoms: C2_2  and  N1_3 
REMARK       I    between atoms: N1_3  and  C3_5 
REMARK    2  A    between atoms: C3_5  and  C4_7 
REMARK    3  A    between atoms: C4_7  and  C5_8 
REMARK    4  A    between atoms: C5_8  and  C6_9 
REMARK    5  A    between atoms: C6_9  and  C7_10 
REMARK    6  A    between atoms: C7_10  and  C8_11 
REMARK    7  A    between atoms: C8_11  and  O2_12 
REMARK    8  A    between atoms: O2_12  and  C9_13 
REMARK    9  A    between atoms: C14_18  and  C15_19 
REMARK   10  A    between atoms: C15_19  and  O3_20 
REMARK   11  A    between atoms: O3_20  and  C16_21 
REMARK       I    between atoms: C16_21  and  N2_23 
REMARK   12  A    between atoms: C20_27  and  N3_28 
REMARK       I    between atoms: N3_28  and  C21_30 
REMARK       I    between atoms: C21_30  and  N4_32 
REMARK   13  A    between atoms: N4_32  and  C22_34 
ROOT
HETATM    1  C16 UNL     1      -2.866   0.995  -0.385  1.00  0.00     0.362 C 
HETATM    2  O4  UNL     1      -2.786   1.572  -1.499  1.00  0.00    -0.238 OA
HETATM    3  N2  UNL     1      -4.139   0.813   0.216  1.00  0.00    -0.328 N 
HETATM    4  C17 UNL     1      -4.216   0.149   1.502  1.00  0.00     0.128 C 
HETATM    5  C18 UNL     1      -4.774   1.148   2.490  1.00  0.00     0.022 C 
HETATM    6  C19 UNL     1      -6.258   1.135   2.596  1.00  0.00     0.027 C 
HETATM    7  C20 UNL     1      -6.983   1.417   1.302  1.00  0.00     0.087 C 
HETATM    8  C25 UNL     1      -6.128   2.186   0.322  1.00  0.00     0.045 C 
HETATM    9  C26 UNL     1      -5.270   1.321  -0.533  1.00  0.00     0.130 C 
ENDROOT
BRANCH   1  10
HETATM   10  O3  UNL     1      -1.681   0.567   0.193  1.00  0.00    -0.301 OA
BRANCH  10  11
HETATM   11  C15 UNL     1      -0.420   0.773  -0.449  1.00  0.00     0.213 C 
BRANCH  11  12
HETATM   12  C14 UNL     1       0.645   0.195   0.430  1.00  0.00     0.157 C 
HETATM   13  C11 UNL     1       0.546  -1.334   0.479  1.00  0.00    -0.015 C 
HETATM   14  C10 UNL     1       1.882  -1.648   1.114  1.00  0.00     0.072 C 
HETATM   15  C12 UNL     1       0.556  -1.854  -0.937  1.00  0.00     0.018 C 
HETATM   16  C13 UNL     1      -0.613  -1.810   1.278  1.00  0.00     0.018 C 
HETATM   17  C9  UNL     1       2.747  -0.550   0.547  1.00  0.00     0.261 C 
HETATM   18  O7  UNL     1       1.918   0.351  -0.103  1.00  0.00    -0.353 OA
BRANCH  17  19
HETATM   19  O2  UNL     1       3.650  -1.143  -0.329  1.00  0.00    -0.361 OA
BRANCH  19  20
HETATM   20  C8  UNL     1       4.943  -0.902   0.075  1.00  0.00     0.171 C 
BRANCH  20  21
HETATM   21  C7  UNL     1       5.983  -1.501  -0.810  1.00  0.00     0.026 C 
BRANCH  21  22
HETATM   22  C6  UNL     1       7.342  -1.143  -0.221  1.00  0.00     0.002 C 
BRANCH  22  23
HETATM   23  C5  UNL     1       8.467  -1.687  -1.020  1.00  0.00     0.009 C 
BRANCH  23  24
HETATM   24  C4  UNL     1       9.786  -1.325  -0.415  1.00  0.00     0.103 C 
BRANCH  24  25
HETATM   25  C3  UNL     1      10.040   0.115  -0.392  1.00  0.00     0.217 C 
HETATM   26  N1  UNL     1      11.158   0.690   0.304  1.00  0.00    -0.361 N 
ATOM     27  H1  UNL     1      11.799   0.071   0.801  1.00  0.00     0.162 HD
HETATM   28  O1  UNL     1       9.288   0.917  -0.983  1.00  0.00    -0.274 OA
BRANCH  26  29
HETATM   29  C2  UNL     1      11.407   2.110   0.325  1.00  0.00     0.118 C 
HETATM   30  C1  UNL     1      11.614   2.679  -1.057  1.00  0.00     0.026 C 
ENDBRANCH  26  29
ENDBRANCH  24  25
ENDBRANCH  23  24
ENDBRANCH  22  23
ENDBRANCH  21  22
ENDBRANCH  20  21
ENDBRANCH  19  20
ENDBRANCH  17  19
ENDBRANCH  11  12
ENDBRANCH  10  11
ENDBRANCH   1  10
BRANCH   7  31
HETATM   31  N3  UNL     1      -7.556   0.234   0.724  1.00  0.00    -0.338 N 
HETATM   32  C21 UNL     1      -8.956   0.111   0.565  1.00  0.00     0.322 C 
HETATM   33  O5  UNL     1      -9.756   1.043   0.927  1.00  0.00    -0.247 OA
HETATM   34  N4  UNL     1      -9.583  -1.022   0.006  1.00  0.00    -0.292 N 
ATOM     35  H4  UNL     1      -9.616  -1.852   0.598  1.00  0.00     0.172 HD
ATOM     36  H3  UNL     1      -6.946  -0.527   0.425  1.00  0.00     0.164 HD
BRANCH  34  37
HETATM   37  C22 UNL     1     -10.111  -1.138  -1.141  1.00  0.00     0.155 A 
HETATM   38  N5  UNL     1     -10.685  -2.297  -1.554  1.00  0.00    -0.223 N 
HETATM   39  O6  UNL     1     -11.132  -2.122  -2.745  1.00  0.00    -0.155 OA
ATOM     40  H5  UNL     1     -10.750  -3.158  -1.012  1.00  0.00     0.198 HD
HETATM   41  N6  UNL     1     -10.909  -0.929  -3.183  1.00  0.00    -0.242 N 
HETATM   42  C23 UNL     1     -10.260  -0.266  -2.193  1.00  0.00     0.076 A 
ATOM     43  H6  UNL     1     -11.170  -0.557  -4.096  1.00  0.00     0.196 HD
HETATM   44  C24 UNL     1      -9.810   1.126  -2.261  1.00  0.00     0.074 C 
ENDBRANCH  34  37
ENDBRANCH   7  31
TORSDOF 13
