REMARK  18 active torsions:
REMARK  status: ('A' for Active; 'I' for Inactive)
REMARK    1  A    between atoms: C2_2  and  C3_3 
REMARK       I    between atoms: C3_3  and  N1_5 
REMARK    2  A    between atoms: N1_5  and  C4_7 
REMARK    3  A    between atoms: C7_14  and  N4_15 
REMARK    4  A    between atoms: N5_18  and  C8_19 
REMARK    5  A    between atoms: C8_19  and  C9_20 
REMARK    6  A    between atoms: C9_20  and  O2_21 
REMARK    7  A    between atoms: N6_25  and  C11_26 
REMARK    8  A    between atoms: C11_26  and  C12_27 
REMARK       I    between atoms: C12_27  and  N7_29 
REMARK    9  A    between atoms: N7_29  and  N8_31 
REMARK       I    between atoms: N8_31  and  C13_33 
REMARK   10  A    between atoms: C13_33  and  C14_35 
REMARK   11  A    between atoms: C14_35  and  O6_36 
REMARK   12  A    between atoms: C14_35  and  C15_38 
REMARK   13  A    between atoms: C15_38  and  S1_40 
REMARK   14  A    between atoms: S1_40  and  O8_41 
REMARK   15  A    between atoms: S1_40  and  O9_43 
REMARK   16  A    between atoms: S1_40  and  O10_45 
REMARK   17  A    between atoms: S1_40  and  N9_47 
REMARK   18  A    between atoms: N9_47  and  N10_48 
REMARK       I    between atoms: N10_48  and  C16_50 
ROOT
HETATM    1  C11 UNL     1      -0.511   2.016  -1.169  1.00  0.00     0.255 C 
ENDROOT
BRANCH   1   2
HETATM    2  N6  UNL     1      -1.787   1.737  -0.581  1.00  0.00    -0.136 N 
HETATM    3  C4  UNL     1      -2.622   0.843  -1.120  1.00  0.00     0.692 A 
HETATM    4  N2  UNL     1      -3.832   0.559  -0.593  1.00  0.00    -0.173 N 
HETATM    5  C5  UNL     1      -4.219   1.198   0.522  1.00  0.00     0.172 A 
ATOM      6  H2  UNL     1      -4.442  -0.129  -1.035  1.00  0.00     0.186 HD
HETATM    7  C6  UNL     1      -3.396   2.125   1.114  1.00  0.00     0.163 A 
HETATM    8  N5  UNL     1      -5.345   1.126   1.264  1.00  0.00    -0.164 N 
HETATM    9  N3  UNL     1      -4.050   2.591   2.204  1.00  0.00    -0.182 N 
HETATM   10  C10 UNL     1      -2.169   2.378   0.533  1.00  0.00     0.293 A 
HETATM   11  C7  UNL     1      -5.243   1.983   2.299  1.00  0.00     0.680 A 
ATOM     12  H3  UNL     1      -3.692   3.294   2.851  1.00  0.00     0.184 HD
HETATM   13  O3  UNL     1      -1.422   3.244   1.102  1.00  0.00    -0.265 OA
BRANCH   3  14
HETATM   14  N1  UNL     1      -2.221   0.246  -2.185  1.00  0.00    -0.159 N 
HETATM   15  C3  UNL     1      -2.934  -0.724  -2.906  1.00  0.00     0.235 C 
HETATM   16  O1  UNL     1      -3.415  -0.455  -4.041  1.00  0.00    -0.273 OA
ATOM     17  H1  UNL     1      -1.299   0.501  -2.539  1.00  0.00     0.187 HD
BRANCH  15  18
HETATM   18  C2  UNL     1      -3.163  -2.100  -2.391  1.00  0.00     0.099 C 
HETATM   19  C1  UNL     1      -2.189  -3.096  -2.997  1.00  0.00     0.014 C 
ENDBRANCH  15  18
ENDBRANCH   3  14
BRANCH  11  20
HETATM   20  N4  UNL     1      -6.141   2.188   3.230  1.00  0.00    -0.234 N 
ATOM     21  H42 UNL     1      -6.064   2.837   4.013  1.00  0.00     0.174 HD
ATOM     22  H41 UNL     1      -7.048   1.726   3.302  1.00  0.00     0.174 HD
ENDBRANCH  11  20
BRANCH   8  23
HETATM   23  C8  UNL     1      -6.477   0.282   1.009  1.00  0.00     0.175 C 
BRANCH  23  24
HETATM   24  C9  UNL     1      -7.510   0.961   0.122  1.00  0.00     0.185 C 
BRANCH  24  25
HETATM   25  O2  UNL     1      -8.576   0.110  -0.093  1.00  0.00    -0.399 OA
ATOM     26  H2  UNL     1      -9.221   0.534  -0.647  1.00  0.00     0.209 HD
ENDBRANCH  24  25
ENDBRANCH  23  24
ENDBRANCH   8  23
ENDBRANCH   1   2
BRANCH   1  27
HETATM   27  C12 UNL     1       0.572   1.144  -0.657  1.00  0.00     0.255 C 
HETATM   28  O4  UNL     1       1.739   1.278  -1.101  1.00  0.00    -0.270 OA
HETATM   29  N7  UNL     1       0.325   0.151   0.335  1.00  0.00    -0.266 N 
ATOM     30  H7  UNL     1      -0.618   0.033   0.705  1.00  0.00     0.190 HD
BRANCH  29  31
HETATM   31  N8  UNL     1       1.370  -0.672   0.813  1.00  0.00    -0.265 N 
HETATM   32  C13 UNL     1       2.488  -0.127   1.487  1.00  0.00     0.273 C 
HETATM   33  O5  UNL     1       2.546   1.110   1.662  1.00  0.00    -0.268 OA
ATOM     34  H8  UNL     1       1.317  -1.680   0.669  1.00  0.00     0.190 HD
BRANCH  32  35
HETATM   35  C14 UNL     1       3.565  -0.989   1.975  1.00  0.00     0.298 C 
BRANCH  35  36
HETATM   36  O6  UNL     1       3.264  -2.327   1.665  1.00  0.00    -0.378 OA
ATOM     37  H6  UNL     1       3.963  -2.887   1.982  1.00  0.00     0.211 HD
ENDBRANCH  35  36
BRANCH  35  38
HETATM   38  C15 UNL     1       4.877  -0.659   1.467  1.00  0.00     0.280 C 
HETATM   39  O7  UNL     1       5.378   0.407   1.613  1.00  0.00    -0.277 OA
BRANCH  38  40
HETATM   40  S1  UNL     1       5.918  -2.039   0.469  1.00  0.00     0.156 SA
BRANCH  40  41
HETATM   41  O8  UNL     1       5.051  -1.565  -0.846  1.00  0.00    -0.299 OA
ATOM     42  H8  UNL     1       5.546  -2.222  -1.321  1.00  0.00     0.231 HD
ENDBRANCH  40  41
BRANCH  40  43
HETATM   43  O9  UNL     1       5.407  -3.620   0.291  1.00  0.00    -0.299 OA
ATOM     44  H9  UNL     1       5.902  -4.277  -0.184  1.00  0.00     0.231 HD
ENDBRANCH  40  43
BRANCH  40  45
HETATM   45  O10 UNL     1       6.774  -2.378   1.818  1.00  0.00    -0.299 OA
ATOM     46  H10 UNL     1       7.269  -3.035   1.343  1.00  0.00     0.231 HD
ENDBRANCH  40  45
BRANCH  40  47
HETATM   47  N9  UNL     1       7.453  -1.277  -0.414  1.00  0.00    -0.015 NA
BRANCH  47  48
HETATM   48  N10 UNL     1       8.086  -0.306   0.314  1.00  0.00    -0.243 N 
HETATM   49  C16 UNL     1       9.191   0.363  -0.242  1.00  0.00     0.345 C 
HETATM   50  N11 UNL     1       9.892   1.380   0.461  1.00  0.00    -0.039 NA
HETATM   51  O11 UNL     1       9.610   0.087  -1.394  1.00  0.00    -0.250 OA
ATOM     52  H10 UNL     1       7.759  -0.070   1.251  1.00  0.00     0.188 HD
ENDBRANCH  47  48
ENDBRANCH  40  47
ENDBRANCH  38  40
ENDBRANCH  35  38
ENDBRANCH  32  35
ENDBRANCH  29  31
ENDBRANCH   1  27
TORSDOF 18
