REMARK  4 active torsions:
REMARK  status: ('A' for Active; 'I' for Inactive)
REMARK    1  A    between atoms: O1_2  and  C2_3 
REMARK       I    between atoms: C2_3  and  N1_5 
REMARK    2  A    between atoms: N1_5  and  C3_7 
REMARK    3  A    between atoms: C3_7  and  C4_8 
REMARK    4  A    between atoms: C4_8  and  N2_9 
ROOT
HETATM    1  N2  UNL     1      -0.908   0.530   0.037  1.00  0.00    -0.381 N 
HETATM    2  C5  UNL     1      -1.622   0.114  -1.112  1.00  0.00     0.146 C 
HETATM    3  C6  UNL     1      -3.090   0.062  -0.800  1.00  0.00     0.153 C 
HETATM    4 CL1  UNL     1      -3.709   1.734  -0.880  1.00  0.00    -0.117 Cl
HETATM    5  C7  UNL     1      -3.311  -0.544   0.517  1.00  0.00     0.074 A 
HETATM    6  C8  UNL     1      -4.514  -0.956   1.103  1.00  0.00     0.130 A 
HETATM    7 CL2  UNL     1      -6.133  -0.888   0.474  1.00  0.00    -0.062 Cl
HETATM    8  N3  UNL     1      -4.173  -1.439   2.306  1.00  0.00    -0.321 N 
ATOM      9  H3  UNL     1      -4.823  -1.823   2.992  1.00  0.00     0.169 HD
HETATM   10  C9  UNL     1      -2.828  -1.338   2.471  1.00  0.00     0.184 A 
HETATM   11 CL3  UNL     1      -2.016  -1.879   3.941  1.00  0.00    -0.044 Cl
HETATM   12  N4  UNL     1      -2.312  -0.788   1.368  1.00  0.00    -0.306 N 
HETATM   13  C10 UNL     1      -0.921  -0.465   1.043  1.00  0.00     0.253 C 
ENDROOT
BRANCH   1  14
HETATM   14  C4  UNL     1       0.208   1.366  -0.117  1.00  0.00     0.079 A 
HETATM   15  C11 UNL     1      -0.091   2.868  -0.060  1.00  0.00     0.075 A 
HETATM   16  C12 UNL     1       0.525   2.239   1.111  1.00  0.00     0.202 A 
HETATM   17  F1  UNL     1       1.838   2.582   1.353  1.00  0.00    -0.247 F 
BRANCH  14  18
HETATM   18  C3  UNL     1       1.451   0.988  -0.870  1.00  0.00     0.158 C 
BRANCH  18  19
HETATM   19  N1  UNL     1       2.078  -0.159  -0.273  1.00  0.00    -0.334 N 
HETATM   20  C2  UNL     1       3.287  -0.714  -0.840  1.00  0.00     0.360 C 
HETATM   21  O2  UNL     1       3.768  -0.166  -1.863  1.00  0.00    -0.239 OA
ATOM     22  H1  UNL     1       1.667  -0.585   0.558  1.00  0.00     0.164 HD
BRANCH  20  23
HETATM   23  O1  UNL     1       3.919  -1.806  -0.304  1.00  0.00    -0.309 OA
HETATM   24  C1  UNL     1       5.108  -2.354  -0.861  1.00  0.00     0.215 C 
ENDBRANCH  20  23
ENDBRANCH  18  19
ENDBRANCH  14  18
ENDBRANCH   1  14
TORSDOF 4
