REMARK  5 active torsions:
REMARK  status: ('A' for Active; 'I' for Inactive)
REMARK    1  A    between atoms: C2_2  and  C3_3 
REMARK    2  A    between atoms: C3_3  and  C4_7 
REMARK       I    between atoms: C4_7  and  N2_9 
REMARK    3  A    between atoms: N2_9  and  N3_10 
REMARK    4  A    between atoms: N2_9  and  C7_18 
REMARK    5  A    between atoms: C5_12  and  C6_14 
ROOT
HETATM    1  C4  UNL     1       0.765  -0.995   0.401  1.00  0.00     0.304 C 
HETATM    2  O1  UNL     1       0.356  -2.203   0.649  1.00  0.00    -0.263 OA
HETATM    3  N2  UNL     1      -0.152   0.048   0.409  1.00  0.00    -0.045 N 
ENDROOT
BRANCH   3   4
HETATM    4  N3  UNL     1       0.395   1.359   0.204  1.00  0.00    -0.265 N 
HETATM    5  C5  UNL     1       0.145   2.059  -0.814  1.00  0.00     0.150 C 
HETATM    6 CL1  UNL     1      -0.905   1.452  -2.065  1.00  0.00    -0.063 Cl
ATOM      7  H3  UNL     1       1.016   1.743   0.916  1.00  0.00     0.189 HD
BRANCH   5   8
HETATM    8  C6  UNL     1       0.729   3.406  -0.965  1.00  0.00     0.243 C 
HETATM    9 CL2  UNL     1       1.678   3.937   0.426  1.00  0.00    -0.076 Cl
HETATM   10 CL3  UNL     1       1.818   3.475  -2.389  1.00  0.00    -0.076 Cl
HETATM   11 CL4  UNL     1      -0.528   4.639  -1.247  1.00  0.00    -0.076 Cl
ENDBRANCH   5   8
ENDBRANCH   3   4
BRANCH   3  12
HETATM   12  C7  UNL     1      -1.548  -0.078   0.541  1.00  0.00     0.700 C 
HETATM   13  N4  UNL     1      -2.354   0.986   0.730  1.00  0.00    -0.223 N 
HETATM   14  C8  UNL     1      -3.726   0.555   0.834  1.00  0.00     0.158 C 
ATOM     15  H4  UNL     1      -2.039   1.954   0.791  1.00  0.00     0.177 HD
HETATM   16  C9  UNL     1      -3.507  -0.896   1.346  1.00  0.00     0.161 C 
HETATM   17  N5  UNL     1      -2.387  -1.195   0.411  1.00  0.00    -0.219 N 
HETATM   18  C10 UNL     1      -2.376  -2.345  -0.396  1.00  0.00     0.168 C 
ENDBRANCH   3  12
BRANCH   1  19
HETATM   19  C3  UNL     1       2.194  -0.934   0.144  1.00  0.00     0.073 C 
HETATM   20  N1  UNL     1       2.852  -2.070   0.203  1.00  0.00    -0.398 N 
ATOM     21  H12 UNL     1       3.855  -2.027   0.023  1.00  0.00     0.156 HD
ATOM     22  H11 UNL     1       2.291  -2.891   0.432  1.00  0.00     0.156 HD
BRANCH  19  23
HETATM   23  C2  UNL     1       2.998   0.243  -0.185  1.00  0.00     0.058 C 
HETATM   24  C1  UNL     1       4.473  -0.219  -0.269  1.00  0.00     0.011 C 
ENDBRANCH  19  23
ENDBRANCH   1  19
TORSDOF 5
