REMARK  9 active torsions:
REMARK  status: ('A' for Active; 'I' for Inactive)
REMARK    1  A    between atoms: C2_5  and  C3_6 
REMARK    2  A    between atoms: C3_6  and  C4_7 
REMARK    3  A    between atoms: C4_7  and  C5_8 
REMARK    4  A    between atoms: C7_14  and  C8_15 
REMARK    5  A    between atoms: C8_15  and  O2_16 
REMARK    6  A    between atoms: C9_18  and  C10_19 
REMARK    7  A    between atoms: C15_24  and  O3_25 
REMARK    8  A    between atoms: O3_25  and  C16_26 
REMARK    9  A    between atoms: C16_26  and  C17_27 
ROOT
HETATM    1  C5  UNL     1       2.003  -0.550   1.019  1.00  0.00     0.104 A 
HETATM    2  N2  UNL     1       2.347  -1.831   1.391  1.00  0.00    -0.287 N 
ATOM      3  H2  UNL     1       3.279  -2.154   1.651  1.00  0.00     0.188 HD
HETATM    4  N3  UNL     1       1.255  -2.561   1.350  1.00  0.00    -0.283 N 
ATOM      5  H3  UNL     1       1.202  -3.553   1.581  1.00  0.00     0.188 HD
HETATM    6  C6  UNL     1       0.202  -1.788   0.950  1.00  0.00     0.140 A 
HETATM    7  C7  UNL     1      -1.128  -2.197   0.797  1.00  0.00     0.041 A 
HETATM    8  C9  UNL     1      -2.016  -1.218   0.378  1.00  0.00    -0.003 A 
HETATM    9  C15 UNL     1      -1.507   0.071   0.145  1.00  0.00     0.092 A 
HETATM   10  C20 UNL     1      -0.164   0.381   0.318  1.00  0.00     0.137 A 
HETATM   11  N4  UNL     1       0.694  -0.579   0.747  1.00  0.00    -0.292 N 
ENDROOT
BRANCH   1  12
HETATM   12  C4  UNL     1       2.931   0.569   1.238  1.00  0.00     0.084 C 
BRANCH  12  13
HETATM   13  C3  UNL     1       4.344   0.146   1.229  1.00  0.00     0.060 C 
BRANCH  13  14
HETATM   14  C2  UNL     1       5.132   0.132   0.004  1.00  0.00    -0.007 C 
HETATM   15  N1  UNL     1       4.994  -0.555  -1.045  1.00  0.00    -0.316 N 
HETATM   16  C1  UNL     1       5.910  -0.437  -2.182  1.00  0.00     0.320 C 
ATOM     17  H1  UNL     1       4.218  -1.215  -1.103  1.00  0.00     0.170 HD
HETATM   18  O1  UNL     1       5.775  -1.081  -3.219  1.00  0.00    -0.247 OA
HETATM   19  N5  UNL     1       7.006   0.474  -2.065  1.00  0.00    -0.343 N 
HETATM   20  C22 UNL     1       7.403   0.735  -0.687  1.00  0.00     0.130 C 
ATOM     21  H5  UNL     1       7.466   0.901  -2.869  1.00  0.00     0.164 HD
HETATM   22  C21 UNL     1       6.164   1.265  -0.040  1.00  0.00     0.072 C 
ENDBRANCH  13  14
ENDBRANCH  12  13
ENDBRANCH   1  12
BRANCH   7  23
HETATM   23  C8  UNL     1      -1.443  -3.472   1.459  1.00  0.00     0.147 C 
BRANCH  23  24
HETATM   24  O2  UNL     1      -1.876  -4.576   0.790  1.00  0.00    -0.372 OA
ATOM     25  H2  UNL     1      -2.079  -5.400   1.218  1.00  0.00     0.216 HD
ENDBRANCH  23  24
ENDBRANCH   7  23
BRANCH   9  26
HETATM   26  O3  UNL     1      -2.316   1.131  -0.207  1.00  0.00    -0.349 OA
BRANCH  26  27
HETATM   27  C16 UNL     1      -1.954   2.401  -0.562  1.00  0.00     0.180 C 
BRANCH  27  28
HETATM   28  C17 UNL     1      -3.020   3.439  -0.155  1.00  0.00     0.010 A 
HETATM   29  C18 UNL     1      -2.807   4.841  -0.589  1.00  0.00     0.007 A 
HETATM   30  C19 UNL     1      -2.407   4.494   0.770  1.00  0.00     0.007 A 
ENDBRANCH  27  28
ENDBRANCH  26  27
ENDBRANCH   9  26
BRANCH   8  31
HETATM   31  C10 UNL     1      -3.429  -1.572   0.190  1.00  0.00     0.022 C 
HETATM   32  C11 UNL     1      -4.256  -0.492  -0.496  1.00  0.00     0.009 C 
HETATM   33  C12 UNL     1      -5.515  -1.234  -0.952  1.00  0.00     0.001 C 
HETATM   34  C13 UNL     1      -5.285  -2.685  -0.639  1.00  0.00     0.001 C 
HETATM   35  C14 UNL     1      -3.728  -2.684  -0.768  1.00  0.00     0.009 C 
ENDBRANCH   8  31
TORSDOF 9
