REMARK  9 active torsions:
REMARK  status: ('A' for Active; 'I' for Inactive)
REMARK    1  A    between atoms: C2_3  and  C3_4 
REMARK    2  A    between atoms: C3_4  and  C4_5 
REMARK    3  A    between atoms: C5_8  and  N3_9 
REMARK    4  A    between atoms: N3_9  and  C6_11 
REMARK    5  A    between atoms: C12_18  and  S2_19 
REMARK    6  A    between atoms: S2_19  and  C13_20 
REMARK    7  A    between atoms: C13_20  and  C14_21 
REMARK       I    between atoms: C14_21  and  N4_23 
REMARK    8  A    between atoms: N4_23  and  C15_25 
REMARK    9  A    between atoms: C15_25  and  C16_26 
ROOT
HETATM    1  N1  UNL     1      -2.164   0.731   2.621  1.00  0.00    -0.197 NA
HETATM    2  C1  UNL     1      -1.173   0.292   2.211  1.00  0.00     0.059 C 
HETATM    3  C2  UNL     1       0.102  -0.233   1.695  1.00  0.00     0.130 C 
ENDROOT
BRANCH   3   4
HETATM    4  C3  UNL     1      -0.091  -1.497   0.884  1.00  0.00     0.073 C 
BRANCH   4   5
HETATM    5  C4  UNL     1      -0.994  -1.163  -0.321  1.00  0.00     0.036 A 
HETATM    6  N2  UNL     1      -2.320  -1.225  -0.196  1.00  0.00    -0.339 N 
HETATM    7  C5  UNL     1      -3.070  -0.840  -1.209  1.00  0.00     0.146 A 
ATOM      8  H2  UNL     1      -2.746  -1.564   0.667  1.00  0.00     0.168 HD
HETATM    9  S1  UNL     1      -1.955  -0.369  -2.390  1.00  0.00    -0.045 SA
HETATM   10  C12 UNL     1      -0.479  -0.709  -1.486  1.00  0.00     0.067 A 
BRANCH   7  11
HETATM   11  N3  UNL     1      -4.368  -0.818  -1.351  1.00  0.00    -0.366 N 
ATOM     12  H3  UNL     1      -4.712  -0.469  -2.246  1.00  0.00     0.162 HD
BRANCH  11  13
HETATM   13  C6  UNL     1      -5.352  -1.214  -0.428  1.00  0.00     0.083 C 
HETATM   14  C7  UNL     1      -5.578  -0.280   0.734  1.00  0.00     0.025 C 
HETATM   15  C8  UNL     1      -5.810   1.119   0.207  1.00  0.00     0.002 C 
HETATM   16  C9  UNL     1      -7.130   1.109  -0.536  1.00  0.00     0.000 C 
HETATM   17  C10 UNL     1      -7.683  -0.276  -0.717  1.00  0.00     0.002 C 
HETATM   18  C11 UNL     1      -6.680  -1.291  -1.181  1.00  0.00     0.025 C 
ENDBRANCH  11  13
ENDBRANCH   7  11
BRANCH  10  19
HETATM   19  S2  UNL     1       1.152  -0.571  -2.183  1.00  0.00    -0.111 SA
BRANCH  19  20
HETATM   20  C13 UNL     1       2.135   0.827  -1.837  1.00  0.00     0.182 C 
BRANCH  20  21
HETATM   21  C14 UNL     1       3.341   0.426  -0.984  1.00  0.00     0.227 C 
HETATM   22  O1  UNL     1       3.195   0.460   0.235  1.00  0.00    -0.273 OA
HETATM   23  N4  UNL     1       4.509   0.053  -1.659  1.00  0.00    -0.358 N 
ATOM     24  H4  UNL     1       4.432   0.079  -2.676  1.00  0.00     0.162 HD
BRANCH  23  25
HETATM   25  C15 UNL     1       5.778  -0.354  -1.182  1.00  0.00     0.154 C 
BRANCH  25  26
HETATM   26  C16 UNL     1       6.608   0.589  -0.395  1.00  0.00     0.139 C 
HETATM   27  C17 UNL     1       6.143   0.882   0.993  1.00  0.00     0.035 C 
HETATM   28  C18 UNL     1       7.434   1.158   1.778  1.00  0.00     0.029 C 
HETATM   29  C19 UNL     1       8.479   0.776   0.780  1.00  0.00     0.168 C 
HETATM   30  O2  UNL     1       7.855  -0.065  -0.121  1.00  0.00    -0.384 OA
ENDBRANCH  25  26
ENDBRANCH  23  25
ENDBRANCH  20  21
ENDBRANCH  19  20
ENDBRANCH  10  19
ENDBRANCH   4   5
ENDBRANCH   3   4
TORSDOF 9
