REMARK  7 active torsions:
REMARK  status: ('A' for Active; 'I' for Inactive)
REMARK    1  A    between atoms: O1_2  and  C2_3 
REMARK    2  A    between atoms: C2_3  and  C3_4 
REMARK    3  A    between atoms: C5_8  and  C6_9 
REMARK    4  A    between atoms: C7_12  and  C8_13 
REMARK    5  A    between atoms: C9_16  and  N1_17 
REMARK    6  A    between atoms: C16_24  and  C17_25 
REMARK    7  A    between atoms: C17_25  and  O8_26 
ROOT
HETATM    1  C2  UNL     1      -2.923   0.019   0.602  1.00  0.00     0.176 C 
HETATM    2  C4  UNL     1      -2.978   0.053  -0.921  1.00  0.00     0.069 C 
HETATM    3  C5  UNL     1      -1.751   0.896  -1.278  1.00  0.00     0.114 C 
HETATM    4  C7  UNL     1      -0.743   0.673  -0.192  1.00  0.00     0.124 C 
HETATM    5  C9  UNL     1       0.349  -0.266  -0.667  1.00  0.00     0.276 C 
HETATM    6  C16 UNL     1      -0.008  -1.581  -0.037  1.00  0.00     0.180 C 
HETATM    7  O9  UNL     1      -1.113  -1.435   0.733  1.00  0.00    -0.371 OA
HETATM    8  C18 UNL     1      -1.415  -0.105   0.881  1.00  0.00     0.190 C 
ENDROOT
BRANCH   5   9
HETATM    9  N1  UNL     1       1.678   0.157  -0.360  1.00  0.00     0.097 N 
HETATM   10  C10 UNL     1       2.021   0.238   1.021  1.00  0.00     0.273 C 
HETATM   11  C11 UNL     1       3.374  -0.452   1.294  1.00  0.00     0.034 C 
HETATM   12  C12 UNL     1       4.338   0.203   0.351  1.00  0.00    -0.015 C 
HETATM   13  C13 UNL     1       5.780   0.018   0.706  1.00  0.00     0.010 C 
HETATM   14  C14 UNL     1       4.009  -0.183  -1.055  1.00  0.00     0.034 C 
HETATM   15  C15 UNL     1       2.590  -0.697  -1.093  1.00  0.00     0.273 C 
ENDBRANCH   5   9
BRANCH   4  16
HETATM   16  C8  UNL     1      -0.195   1.948   0.267  1.00  0.00     0.188 C 
HETATM   17  O6  UNL     1      -0.450   2.397   1.415  1.00  0.00    -0.647 OA
HETATM   18  O7  UNL     1       0.642   2.702  -0.591  1.00  0.00    -0.647 OA
ENDBRANCH   4  16
BRANCH   6  19
HETATM   19  C17 UNL     1      -0.186  -2.689  -1.025  1.00  0.00     0.198 C 
BRANCH  19  20
HETATM   20  O8  UNL     1      -0.420  -3.861  -0.279  1.00  0.00    -0.398 OA
ATOM     21  H8  UNL     1      -0.533  -4.565  -0.907  1.00  0.00     0.209 HD
ENDBRANCH  19  20
ENDBRANCH   6  19
BRANCH   3  22
HETATM   22  C6  UNL     1      -2.242   2.258  -1.475  1.00  0.00     0.178 C 
HETATM   23  O4  UNL     1      -2.051   3.276  -0.797  1.00  0.00    -0.648 OA
HETATM   24  O5  UNL     1      -3.064   2.449  -2.611  1.00  0.00    -0.648 OA
ENDBRANCH   3  22
BRANCH   1  25
HETATM   25  O1  UNL     1      -3.338   1.162   1.196  1.00  0.00    -0.371 OA
HETATM   26  C1  UNL     1      -4.633   1.553   1.074  1.00  0.00     0.203 C 
ENDBRANCH   1  25
BRANCH   1  27
HETATM   27  C3  UNL     1      -3.596  -1.183   1.120  1.00  0.00     0.212 C 
HETATM   28  O2  UNL     1      -3.379  -2.313   0.569  1.00  0.00    -0.646 OA
HETATM   29  O3  UNL     1      -4.452  -1.077   2.198  1.00  0.00    -0.646 OA
ENDBRANCH   1  27
TORSDOF 7
