REMARK  9 active torsions:
REMARK  status: ('A' for Active; 'I' for Inactive)
REMARK    1  A    between atoms: C2_2  and  C3_4 
REMARK    2  A    between atoms: C3_4  and  O2_6 
REMARK    3  A    between atoms: O2_6  and  C4_7 
REMARK    4  A    between atoms: C11_14  and  C12_15 
REMARK    5  A    between atoms: C12_15  and  O3_16 
REMARK    6  A    between atoms: O3_16  and  C13_17 
REMARK    7  A    between atoms: C16_21  and  O5_22 
REMARK    8  A    between atoms: C17_24  and  O6_25 
REMARK    9  A    between atoms: C23_34  and  O7_35 
ROOT
HETATM    1  C4  UNL     1      -4.444   0.580  -0.088  1.00  0.00     0.162 C 
HETATM    2  C5  UNL     1      -3.039   1.046  -0.368  1.00  0.00     0.041 C 
HETATM    3  C6  UNL     1      -2.210  -0.111   0.058  1.00  0.00     0.009 C 
HETATM    4  C7  UNL     1      -0.820  -0.159  -0.417  1.00  0.00    -0.019 C 
HETATM    5  C8  UNL     1      -0.542   0.849  -1.546  1.00  0.00     0.018 C 
HETATM    6  C9  UNL     1       0.101   0.259   0.717  1.00  0.00     0.017 C 
HETATM    7  C10 UNL     1       1.141  -0.743   1.063  1.00  0.00     0.055 C 
HETATM    8  C11 UNL     1       1.737  -1.381  -0.136  1.00  0.00     0.006 C 
HETATM    9  N1  UNL     1       0.954  -1.721  -1.070  1.00  0.00    -0.389 N 
ATOM     10  H1  UNL     1       1.340  -2.161  -1.905  1.00  0.00     0.159 HD
HETATM   11  C18 UNL     1      -0.485  -1.500  -0.984  1.00  0.00     0.089 C 
HETATM   12  C19 UNL     1      -1.083  -2.670  -0.317  1.00  0.00     0.027 C 
HETATM   13  C20 UNL     1      -2.445  -2.496   0.250  1.00  0.00     0.014 C 
HETATM   14  C21 UNL     1      -3.081  -1.286  -0.318  1.00  0.00    -0.011 C 
HETATM   15  C22 UNL     1      -3.461  -1.366  -1.743  1.00  0.00     0.018 C 
HETATM   16  C23 UNL     1      -4.342  -0.851   0.453  1.00  0.00     0.156 C 
ENDROOT
BRANCH   8  17
HETATM   17  C12 UNL     1       3.210  -1.587  -0.179  1.00  0.00     0.223 C 
BRANCH  17  18
HETATM   18  O3  UNL     1       3.892  -0.380  -0.081  1.00  0.00    -0.353 OA
BRANCH  18  19
HETATM   19  C13 UNL     1       5.254  -0.601  -0.123  1.00  0.00     0.291 C 
HETATM   20  O4  UNL     1       5.875   0.010  -1.190  1.00  0.00    -0.351 OA
HETATM   21  C14 UNL     1       6.787   0.927  -0.747  1.00  0.00     0.152 C 
HETATM   22  C15 UNL     1       6.307   2.359  -0.832  1.00  0.00     0.042 C 
HETATM   23  C16 UNL     1       7.175   0.555   0.669  1.00  0.00     0.180 C 
HETATM   24  C17 UNL     1       5.887  -0.095   1.151  1.00  0.00     0.204 C 
BRANCH  23  25
HETATM   25  O5  UNL     1       7.476   1.657   1.444  1.00  0.00    -0.390 OA
ATOM     26  H5  UNL     1       7.719   1.424   2.332  1.00  0.00     0.210 HD
ENDBRANCH  23  25
BRANCH  24  27
HETATM   27  O6  UNL     1       6.125  -1.140   2.017  1.00  0.00    -0.388 OA
ATOM     28  H6  UNL     1       6.523  -0.822   2.819  1.00  0.00     0.210 HD
ENDBRANCH  24  27
ENDBRANCH  18  19
ENDBRANCH  17  18
ENDBRANCH   8  17
BRANCH   1  29
HETATM   29  O2  UNL     1      -5.210   1.411   0.684  1.00  0.00    -0.308 OA
BRANCH  29  30
HETATM   30  C3  UNL     1      -6.386   1.978   0.251  1.00  0.00     0.321 C 
HETATM   31  O1  UNL     1      -6.739   1.701  -0.904  1.00  0.00    -0.257 OA
BRANCH  30  32
HETATM   32  C2  UNL     1      -7.202   2.862   1.072  1.00  0.00     0.181 C 
HETATM   33  C1  UNL     1      -8.325   3.380   0.604  1.00  0.00     0.063 C 
HETATM   34  F1  UNL     1      -6.810   3.152   2.317  1.00  0.00    -0.201 F 
ENDBRANCH  30  32
ENDBRANCH  29  30
ENDBRANCH   1  29
BRANCH  16  35
HETATM   35  O7  UNL     1      -4.097  -0.878   1.805  1.00  0.00    -0.392 OA
ATOM     36  H7  UNL     1      -4.034  -1.765   2.140  1.00  0.00     0.210 HD
ENDBRANCH  16  35
TORSDOF 9
