REMARK  4 active torsions:
REMARK  status: ('A' for Active; 'I' for Inactive)
REMARK    1  A    between atoms: C2_2  and  C4_4 
REMARK    2  A    between atoms: C4_4  and  C7_7 
REMARK    3  A    between atoms: C11_11  and  O1_12 
REMARK    4  A    between atoms: C12_14  and  C13_15 
ROOT
HETATM    1  C7  UNL     1      -0.794  -0.260   0.511  1.00  0.00    -0.032 A 
HETATM    2  C8  UNL     1       0.156  -0.720  -0.435  1.00  0.00     0.039 A 
HETATM    3  C9  UNL     1       1.494  -0.444  -0.363  1.00  0.00     0.057 A 
HETATM    4  C10 UNL     1       1.981   0.309   0.654  1.00  0.00     0.093 A 
HETATM    5  C11 UNL     1       1.120   0.790   1.613  1.00  0.00     0.097 A 
HETATM    6  C12 UNL     1      -0.273   0.481   1.512  1.00  0.00     0.043 A 
HETATM    7  C14 UNL     1       3.345   0.557   0.672  1.00  0.00     0.266 A 
HETATM    8  O3  UNL     1       3.856   1.246   1.586  1.00  0.00    -0.267 OA
HETATM    9  N1  UNL     1       4.197   0.080  -0.275  1.00  0.00    -0.270 N 
HETATM   10  C15 UNL     1       5.624   0.358  -0.229  1.00  0.00     0.164 C 
HETATM   11  C16 UNL     1       3.655  -0.658  -1.255  1.00  0.00     0.331 A 
HETATM   12  O4  UNL     1       4.434  -1.102  -2.135  1.00  0.00    -0.246 OA
HETATM   13  N2  UNL     1       2.350  -0.918  -1.308  1.00  0.00    -0.303 N 
HETATM   14  C17 UNL     1       1.827  -1.718  -2.387  1.00  0.00     0.161 C 
ENDROOT
BRANCH   1  15
HETATM   15  C4  UNL     1      -2.186  -0.475   0.220  1.00  0.00    -0.017 C 
HETATM   16  C5  UNL     1      -2.916  -1.259   1.343  1.00  0.00     0.020 C 
HETATM   17  C6  UNL     1      -2.270  -1.518  -0.933  1.00  0.00     0.020 C 
BRANCH  15  18
HETATM   18  C2  UNL     1      -3.078   0.603  -0.216  1.00  0.00    -0.010 C 
HETATM   19  C1  UNL     1      -3.599   1.670   0.616  1.00  0.00     0.010 C 
HETATM   20  C3  UNL     1      -2.545   1.278  -1.513  1.00  0.00     0.010 C 
ENDBRANCH  15  18
ENDBRANCH   1  15
BRANCH   6  21
HETATM   21  C13 UNL     1      -1.063   0.920   2.630  1.00  0.00     0.273 C 
HETATM   22  O2  UNL     1      -0.548   1.558   3.599  1.00  0.00    -0.301 OA
ENDBRANCH   6  21
BRANCH   5  23
HETATM   23  O1  UNL     1       1.548   1.538   2.636  1.00  0.00    -0.359 OA
ATOM     24  H1  UNL     1       0.953   1.870   3.298  1.00  0.00     0.217 HD
ENDBRANCH   5  23
TORSDOF 4
