REMARK  4 active torsions:
REMARK  status: ('A' for Active; 'I' for Inactive)
REMARK    1  A    between atoms: C7_8  and  O2_10 
REMARK    2  A    between atoms: C9_12  and  C10_13 
REMARK    3  A    between atoms: C10_13  and  C12_15 
REMARK    4  A    between atoms: C12_15  and  O4_17 
ROOT
HETATM    1  C1  UNL     1       2.592   2.168  -0.123  1.00  0.00     0.023 C 
HETATM    2  C2  UNL     1       2.463   0.853   0.072  1.00  0.00    -0.008 C 
HETATM    3  C3  UNL     1       2.635  -0.055  -1.052  1.00  0.00     0.156 C 
HETATM    4  O1  UNL     1       3.256   0.334  -2.100  1.00  0.00    -0.293 OA
HETATM    5  C4  UNL     1       2.100  -1.441  -1.009  1.00  0.00     0.090 C 
HETATM    6  C5  UNL     1       0.718  -1.530  -1.524  1.00  0.00     0.025 C 
HETATM    7  C6  UNL     1       0.549  -2.700  -2.477  1.00  0.00     0.013 C 
HETATM    8  C7  UNL     1      -0.383  -1.493  -0.488  1.00  0.00     0.085 C 
HETATM    9  C8  UNL     1      -0.075  -2.426   0.658  1.00  0.00     0.049 C 
HETATM   10  C9  UNL     1      -0.698  -0.080  -0.041  1.00  0.00     0.179 C 
HETATM   11  O5  UNL     1      -0.334   0.086   1.303  1.00  0.00    -0.311 OA
HETATM   12  C14 UNL     1       0.758   0.647   1.866  1.00  0.00     0.267 C 
HETATM   13  O6  UNL     1       0.606   1.443   2.846  1.00  0.00    -0.264 OA
HETATM   14  C15 UNL     1       2.153   0.411   1.437  1.00  0.00     0.117 C 
HETATM   15  C16 UNL     1       3.146   1.146   2.342  1.00  0.00     0.025 C 
ENDROOT
BRANCH  10  16
HETATM   16  C10 UNL     1      -2.126   0.311  -0.315  1.00  0.00     0.114 C 
HETATM   17  C11 UNL     1      -3.160  -0.513   0.354  1.00  0.00     0.023 C 
BRANCH  16  18
HETATM   18  C12 UNL     1      -2.362   1.726  -0.016  1.00  0.00     0.264 C 
HETATM   19  O3  UNL     1      -1.409   2.433   0.348  1.00  0.00    -0.265 OA
BRANCH  18  20
HETATM   20  O4  UNL     1      -3.606   2.305  -0.124  1.00  0.00    -0.326 OA
HETATM   21  C13 UNL     1      -3.860   3.668   0.159  1.00  0.00     0.213 C 
ENDBRANCH  18  20
ENDBRANCH  16  18
ENDBRANCH  10  16
BRANCH   8  22
HETATM   22  O2  UNL     1      -1.487  -2.065  -1.151  1.00  0.00    -0.387 OA
ATOM     23  H2  UNL     1      -2.179  -2.042  -0.500  1.00  0.00     0.210 HD
ENDBRANCH   8  22
TORSDOF 4
