REMARK  5 active torsions:
REMARK  status: ('A' for Active; 'I' for Inactive)
REMARK    1  A    between atoms: C2_2  and  N2_6 
REMARK       I    between atoms: N2_6  and  C3_8 
REMARK       I    between atoms: C3_8  and  N5_17 
REMARK    2  A    between atoms: N3_9  and  S1_11 
REMARK    3  A    between atoms: S1_11  and  N4_12 
REMARK    4  A    between atoms: N5_17  and  N6_19 
REMARK    5  A    between atoms: N6_19  and  C4_21 
ROOT
HETATM    1  N2  UNL     1      -2.038  -0.357  -1.147  1.00  0.00    -0.179 N 
ATOM      2  H2  UNL     1      -2.408   0.106  -1.977  1.00  0.00     0.185 HD
HETATM    3  C3  UNL     1      -1.031   0.245  -0.388  1.00  0.00     0.709 C 
HETATM    4  N3  UNL     1      -0.999   1.495  -0.074  1.00  0.00    -0.098 N 
ATOM      5  H3  UNL     1      -0.219   1.839   0.486  1.00  0.00     0.199 HD
HETATM    6  N5  UNL     1       0.038  -0.571   0.076  1.00  0.00    -0.129 N 
ATOM      7  H5  UNL     1      -0.051  -1.128   0.926  1.00  0.00     0.205 HD
ENDROOT
BRANCH   1   8
HETATM    8  C2  UNL     1      -2.536  -1.621  -0.745  1.00  0.00     0.087 C 
HETATM    9  C1  UNL     1      -3.187  -1.825   0.593  1.00  0.00     0.089 C 
HETATM   10  N1  UNL     1      -2.458  -2.675  -1.508  1.00  0.00    -0.389 N 
ATOM     11  H12 UNL     1      -2.817  -3.585  -1.219  1.00  0.00     0.157 HD
ATOM     12  H11 UNL     1      -2.016  -2.536  -2.417  1.00  0.00     0.157 HD
ENDBRANCH   1   8
BRANCH   4  13
HETATM   13  S1  UNL     1      -2.216   2.605  -0.559  1.00  0.00     0.330 S 
HETATM   14  O1  UNL     1      -1.805   3.311  -1.837  1.00  0.00    -0.182 OA
HETATM   15  O2  UNL     1      -3.516   1.902  -0.695  1.00  0.00    -0.182 OA
BRANCH  13  16
HETATM   16  N4  UNL     1      -2.288   3.848   0.663  1.00  0.00    -0.311 N 
ATOM     17  H42 UNL     1      -1.710   3.893   1.502  1.00  0.00     0.170 HD
ATOM     18  H41 UNL     1      -3.011   4.507   0.375  1.00  0.00     0.170 HD
ENDBRANCH  13  16
ENDBRANCH   4  13
BRANCH   6  19
HETATM   19  N6  UNL     1       1.208  -0.580  -0.674  1.00  0.00    -0.257 N 
ATOM     20  H6  UNL     1       1.181  -0.759  -1.678  1.00  0.00     0.190 HD
BRANCH  19  21
HETATM   21  C4  UNL     1       2.451  -0.333  -0.010  1.00  0.00     0.190 C 
HETATM   22  N7  UNL     1       2.946   0.809   0.253  1.00  0.00    -0.360 N 
HETATM   23  C5  UNL     1       4.202   0.638   0.925  1.00  0.00     0.142 C 
ATOM     24  H7  UNL     1       2.517   1.705   0.022  1.00  0.00     0.162 HD
HETATM   25  C6  UNL     1       4.585  -0.801   0.677  1.00  0.00     0.142 C 
HETATM   26  N8  UNL     1       3.272  -1.395   0.431  1.00  0.00    -0.360 N 
ATOM     27  H8  UNL     1       3.005  -2.372   0.552  1.00  0.00     0.162 HD
ENDBRANCH  19  21
ENDBRANCH   6  19
TORSDOF 5
