REMARK  0 active torsions:
REMARK  status: ('A' for Active; 'I' for Inactive)
ROOT
HETATM    1  N1  UNL     1       2.540   1.819   0.297  1.00  0.00    -0.197 NA
HETATM    2  C1  UNL     1       1.842   0.905   0.202  1.00  0.00     0.064 C 
HETATM    3  C2  UNL     1       0.964  -0.227   0.088  1.00  0.00     0.101 C 
HETATM    4  C3  UNL     1      -0.115  -0.129  -0.945  1.00  0.00     0.004 C 
HETATM    5  C4  UNL     1      -0.835  -1.145  -0.088  1.00  0.00     0.012 C 
HETATM    6  C5  UNL     1      -0.294  -0.133   0.901  1.00  0.00     0.004 C 
HETATM    7  C6  UNL     1      -0.753   0.907  -0.068  1.00  0.00     0.012 C 
ENDROOT
TORSDOF 0
