REMARK  0 active torsions:
REMARK  status: ('A' for Active; 'I' for Inactive)
ROOT
HETATM    1  C1  UNL     1      -0.576  -1.352  -0.302  1.00  0.00     0.005 C 
HETATM    2  C2  UNL     1       0.896  -1.344   0.103  1.00  0.00     0.002 C 
HETATM    3  C3  UNL     1       1.477  -0.060  -0.461  1.00  0.00     0.020 C 
HETATM    4  C4  UNL     1       1.006   1.111   0.370  1.00  0.00     0.118 C 
HETATM    5  N1  UNL     1      -0.165   1.704  -0.185  1.00  0.00    -0.402 N 
ATOM      6  H1  UNL     1      -0.129   2.588  -0.693  1.00  0.00     0.158 HD
HETATM    7  C5  UNL     1      -1.375   1.006   0.004  1.00  0.00     0.055 C 
HETATM    8  C6  UNL     1      -1.269  -0.363   0.578  1.00  0.00     0.044 C 
ENDROOT
TORSDOF 0
