REMARK  1 active torsions:
REMARK  status: ('A' for Active; 'I' for Inactive)
REMARK    1  A    between atoms: C5_5  and  N1_6 
ROOT
HETATM    1  C1  UNL     1      -2.005   0.929   0.353  1.00  0.00     0.010 C 
HETATM    2  C2  UNL     1      -1.002   0.098  -0.435  1.00  0.00    -0.017 C 
HETATM    3  C3  UNL     1      -0.665  -1.112   0.380  1.00  0.00     0.006 C 
HETATM    4  C4  UNL     1       0.735  -1.473  -0.076  1.00  0.00     0.033 C 
HETATM    5  C5  UNL     1       1.364  -0.175  -0.472  1.00  0.00     0.183 C 
HETATM    6  C6  UNL     1       0.279   0.852  -0.595  1.00  0.00     0.037 C 
ENDROOT
BRANCH   5   7
HETATM    7  N1  UNL     1       2.358   0.301   0.449  1.00  0.00    -0.075 N 
ATOM      8  H13 UNL     1       1.971   0.364   1.391  1.00  0.00     0.274 HD
ATOM      9  H12 UNL     1       3.073  -0.410   0.602  1.00  0.00     0.274 HD
ATOM     10  H11 UNL     1       2.787   1.186   0.179  1.00  0.00     0.274 HD
ENDBRANCH   5   7
TORSDOF 1
