REMARK  1 active torsions:
REMARK  status: ('A' for Active; 'I' for Inactive)
REMARK    1  A    between atoms: C7_7  and  N1_8 
ROOT
HETATM    1  C1  UNL     1       2.142   0.626  -0.573  1.00  0.00     0.012 C 
HETATM    2  C2  UNL     1       0.982  -0.013   0.148  1.00  0.00     0.020 C 
HETATM    3  C3  UNL     1       0.719  -1.423  -0.302  1.00  0.00     0.007 C 
HETATM    4  C4  UNL     1      -0.657  -1.884   0.052  1.00  0.00     0.008 C 
HETATM    5  C5  UNL     1      -1.627  -0.741   0.179  1.00  0.00     0.025 C 
HETATM    6  C6  UNL     1      -1.157   0.254   1.250  1.00  0.00     0.049 C 
HETATM    7  C7  UNL     1      -0.257   0.825   0.144  1.00  0.00     0.158 C 
HETATM    8  C8  UNL     1      -1.303   0.356  -0.831  1.00  0.00     0.210 C 
HETATM    9  F1  UNL     1      -0.883  -0.061  -2.045  1.00  0.00    -0.246 F 
ENDROOT
BRANCH   7  10
HETATM   10  N1  UNL     1      -0.133   2.215   0.239  1.00  0.00    -0.067 N 
ATOM     11  H13 UNL     1       0.414   2.441   1.070  1.00  0.00     0.275 HD
ATOM     12  H12 UNL     1       0.487   2.541  -0.502  1.00  0.00     0.275 HD
ATOM     13  H11 UNL     1      -0.978   2.786   0.236  1.00  0.00     0.275 HD
ENDBRANCH   7  10
TORSDOF 1
