REMARK  13 active torsions:
REMARK  status: ('A' for Active; 'I' for Inactive)
REMARK    1  A    between atoms: C2_2  and  C3_3 
REMARK    2  A    between atoms: C3_3  and  C4_4 
REMARK    3  A    between atoms: C4_4  and  C5_5 
REMARK    4  A    between atoms: C4_4  and  N1_11 
REMARK    5  A    between atoms: C5_5  and  O2_7 
REMARK    6  A    between atoms: O2_7  and  C6_8 
REMARK    7  A    between atoms: C6_8  and  O3_9 
REMARK    8  A    between atoms: C9_15  and  C10_16 
REMARK    9  A    between atoms: C10_16  and  C11_17 
REMARK   10  A    between atoms: C11_17  and  C12_18 
REMARK   11  A    between atoms: C12_18  and  C13_19 
REMARK   12  A    between atoms: C13_19  and  C14_20 
REMARK   13  A    between atoms: C14_20  and  C15_21 
REMARK       I    between atoms: C15_21  and  N2_23 
ROOT
HETATM    1  N1  UNL     1      -2.328  -1.681   0.144  1.00  0.00    -0.190 NA
HETATM    2  C7  UNL     1      -1.304  -1.057  -0.603  1.00  0.00     0.188 C 
HETATM    3  C8  UNL     1      -0.124  -0.777   0.252  1.00  0.00     0.163 C 
HETATM    4  O4  UNL     1      -0.252  -0.893   1.449  1.00  0.00    -0.294 OA
HETATM    5  C9  UNL     1       1.207  -0.364  -0.262  1.00  0.00     0.155 C 
HETATM    6  N3  UNL     1       1.129   0.816  -1.093  1.00  0.00    -0.350 N 
ATOM      7  H3  UNL     1       1.024   0.660  -2.095  1.00  0.00     0.163 HD
HETATM    8  C17 UNL     1       1.182   2.147  -0.673  1.00  0.00     0.218 C 
HETATM    9  O6  UNL     1       1.869   2.958  -1.378  1.00  0.00    -0.274 OA
HETATM   10  C18 UNL     1       0.518   2.725   0.516  1.00  0.00     0.103 C 
HETATM   11  C19 UNL     1       0.303   4.227   0.362  1.00  0.00     0.009 C 
HETATM   12  C20 UNL     1      -0.864   4.538  -0.543  1.00  0.00     0.000 C 
HETATM   13  C21 UNL     1      -2.178   4.062  -0.005  1.00  0.00     0.000 C 
HETATM   14  C22 UNL     1      -3.273   5.098  -0.169  1.00  0.00     0.000 C 
HETATM   15  C23 UNL     1      -4.443   4.630   0.688  1.00  0.00     0.000 C 
HETATM   16  C24 UNL     1      -5.394   3.759  -0.095  1.00  0.00     0.000 C 
HETATM   17  C25 UNL     1      -5.726   2.475   0.649  1.00  0.00     0.001 C 
HETATM   18  C26 UNL     1      -5.272   1.265  -0.111  1.00  0.00     0.016 C 
HETATM   19  C27 UNL     1      -4.145   0.526   0.609  1.00  0.00     0.157 C 
HETATM   20  S1  UNL     1      -3.877  -0.985  -0.278  1.00  0.00     0.212 S 
HETATM   21  O7  UNL     1      -3.946  -0.701  -1.746  1.00  0.00    -0.211 OA
HETATM   22  O8  UNL     1      -4.934  -1.956   0.133  1.00  0.00    -0.211 OA
ENDROOT
BRANCH   1  23
HETATM   23  C4  UNL     1      -2.421  -3.122   0.134  1.00  0.00     0.174 C 
BRANCH  23  24
HETATM   24  C3  UNL     1      -2.407  -3.616   1.590  1.00  0.00     0.030 C 
BRANCH  24  25
HETATM   25  C2  UNL     1      -2.817  -5.005   1.829  1.00  0.00    -0.002 C 
HETATM   26  C1  UNL     1      -2.022  -6.106   1.242  1.00  0.00     0.005 C 
ENDBRANCH  24  25
ENDBRANCH  23  24
BRANCH  23  27
HETATM   27  C5  UNL     1      -1.546  -3.842  -0.759  1.00  0.00     0.279 C 
HETATM   28  O1  UNL     1      -0.299  -3.618  -0.898  1.00  0.00    -0.263 OA
BRANCH  27  29
HETATM   29  O2  UNL     1      -1.992  -4.892  -1.601  1.00  0.00    -0.294 OA
BRANCH  29  30
HETATM   30  C6  UNL     1      -1.115  -5.569  -2.479  1.00  0.00     0.344 C 
BRANCH  30  31
HETATM   31  O3  UNL     1      -0.067  -6.189  -1.810  1.00  0.00    -0.377 OA
ATOM     32  H3  UNL     1       0.522  -6.644  -2.400  1.00  0.00     0.212 HD
ENDBRANCH  30  31
ENDBRANCH  29  30
ENDBRANCH  27  29
ENDBRANCH  23  27
ENDBRANCH   1  23
BRANCH   5  33
HETATM   33  C10 UNL     1       2.188  -0.257   0.862  1.00  0.00     0.033 C 
BRANCH  33  34
HETATM   34  C11 UNL     1       3.562   0.160   0.443  1.00  0.00     0.002 C 
BRANCH  34  35
HETATM   35  C12 UNL     1       4.225  -0.766  -0.534  1.00  0.00     0.001 C 
BRANCH  35  36
HETATM   36  C13 UNL     1       5.590  -0.237  -0.873  1.00  0.00     0.009 C 
BRANCH  36  37
HETATM   37  C14 UNL     1       6.508  -0.107   0.295  1.00  0.00     0.103 C 
BRANCH  37  38
HETATM   38  C15 UNL     1       7.809   0.419  -0.158  1.00  0.00     0.217 C 
HETATM   39  O5  UNL     1       7.987   0.678  -1.362  1.00  0.00    -0.274 OA
HETATM   40  N2  UNL     1       8.843   0.625   0.770  1.00  0.00    -0.365 N 
HETATM   41  C16 UNL     1      10.111   1.138   0.331  1.00  0.00     0.149 C 
ATOM     42  H2  UNL     1       8.694   0.410   1.756  1.00  0.00     0.161 HD
ENDBRANCH  37  38
ENDBRANCH  36  37
ENDBRANCH  35  36
ENDBRANCH  34  35
ENDBRANCH  33  34
ENDBRANCH   5  33
TORSDOF 13
