REMARK  7 active torsions:
REMARK  status: ('A' for Active; 'I' for Inactive)
REMARK    1  A    between atoms: C2_2  and  C3_3 
REMARK    2  A    between atoms: C2_2  and  C4_6 
REMARK    3  A    between atoms: C3_3  and  O1_4 
REMARK    4  A    between atoms: C9_12  and  O3_13 
REMARK    5  A    between atoms: C13_18  and  O4_19 
REMARK    6  A    between atoms: O4_19  and  C14_20 
REMARK    7  A    between atoms: C14_20  and  C17_23 
ROOT
HETATM    1  C4  UNL     1      -5.039  -0.281   0.339  1.00  0.00     0.069 C 
HETATM    2  C5  UNL     1      -5.100  -0.978   1.685  1.00  0.00     0.132 C 
HETATM    3  O2  UNL     1      -6.045  -1.539   2.149  1.00  0.00    -0.298 OA
HETATM    4  C6  UNL     1      -3.749  -0.806   2.279  1.00  0.00     0.084 C 
HETATM    5  C7  UNL     1      -2.977  -0.072   1.219  1.00  0.00     0.008 C 
HETATM    6  C8  UNL     1      -1.521  -0.209   1.266  1.00  0.00     0.024 C 
HETATM    7  C9  UNL     1      -1.018   0.704   2.395  1.00  0.00     0.123 C 
HETATM    8  C10 UNL     1       0.495   0.696   2.418  1.00  0.00     0.037 C 
HETATM    9  C11 UNL     1       1.079   1.130   1.127  1.00  0.00    -0.001 C 
HETATM   10  C12 UNL     1       2.573   1.264   1.164  1.00  0.00     0.037 C 
HETATM   11  C13 UNL     1       3.255   0.151   0.443  1.00  0.00     0.123 C 
HETATM   12  C21 UNL     1       2.433  -1.138   0.500  1.00  0.00     0.033 C 
HETATM   13  C22 UNL     1       1.116  -0.971  -0.165  1.00  0.00     0.012 C 
HETATM   14  C23 UNL     1       0.559   0.398  -0.056  1.00  0.00    -0.036 C 
HETATM   15  C24 UNL     1       0.866   1.179  -1.344  1.00  0.00     0.016 C 
HETATM   16  C25 UNL     1      -0.965   0.380   0.010  1.00  0.00     0.001 C 
HETATM   17  C26 UNL     1      -1.551  -0.321  -1.209  1.00  0.00     0.007 C 
HETATM   18  C27 UNL     1      -3.051   0.021  -1.215  1.00  0.00     0.011 C 
HETATM   19  C28 UNL     1      -3.654  -0.643  -0.041  1.00  0.00    -0.029 C 
HETATM   20  C29 UNL     1      -3.395  -2.132  -0.046  1.00  0.00     0.016 C 
ENDROOT
BRANCH  11  21
HETATM   21  O4  UNL     1       3.838   0.382  -0.728  1.00  0.00    -0.371 OA
BRANCH  21  22
HETATM   22  C14 UNL     1       5.102   0.243  -1.059  1.00  0.00     0.077 C 
HETATM   23  C15 UNL     1       5.465  -1.246  -0.829  1.00  0.00     0.051 C 
HETATM   24  C16 UNL     1       5.373   0.389  -2.571  1.00  0.00     0.051 C 
BRANCH  22  25
HETATM   25  C17 UNL     1       6.149   0.988  -0.321  1.00  0.00    -0.050 A 
HETATM   26  C18 UNL     1       6.176   1.846   0.666  1.00  0.00    -0.021 A 
HETATM   27  C19 UNL     1       7.637   1.934   0.601  1.00  0.00     0.032 A 
HETATM   28  C20 UNL     1       7.653   0.963  -0.527  1.00  0.00     0.040 A 
ENDBRANCH  22  25
ENDBRANCH  21  22
ENDBRANCH  11  21
BRANCH   7  29
HETATM   29  O3  UNL     1      -1.564   1.959   2.334  1.00  0.00    -0.395 OA
ATOM     30  H3  UNL     1      -1.253   2.523   3.032  1.00  0.00     0.210 HD
ENDBRANCH   7  29
BRANCH   1  31
HETATM   31  C2  UNL     1      -6.169  -0.568  -0.515  1.00  0.00     0.017 C 
HETATM   32  C1  UNL     1      -6.454  -1.957  -0.945  1.00  0.00     0.013 C 
BRANCH  31  33
HETATM   33  C3  UNL     1      -6.285   0.372  -1.677  1.00  0.00     0.169 C 
BRANCH  33  34
HETATM   34  O1  UNL     1      -7.606   0.336  -2.215  1.00  0.00    -0.400 OA
ATOM     35  H1  UNL     1      -7.680   0.932  -2.951  1.00  0.00     0.209 HD
ENDBRANCH  33  34
ENDBRANCH  31  33
ENDBRANCH   1  31
TORSDOF 7
