REMARK  8 active torsions:
REMARK  status: ('A' for Active; 'I' for Inactive)
REMARK    1  A    between atoms: C2_2  and  C3_3 
REMARK    2  A    between atoms: C3_3  and  C4_4 
REMARK    3  A    between atoms: C4_4  and  N1_5 
REMARK       I    between atoms: C5_7  and  N2_8 
REMARK       I    between atoms: C5_7  and  N3_21 
REMARK    4  A    between atoms: N2_8  and  C6_10 
REMARK    5  A    between atoms: N3_21  and  C16_23 
REMARK    6  A    between atoms: C20_29  and  C21_30 
REMARK       I    between atoms: N4_31  and  C22_33 
REMARK    7  A    between atoms: C22_33  and  O4_35 
REMARK    8  A    between atoms: O4_35  and  C23_36 
ROOT
HETATM    1  N1  UNL     1      -0.227   1.204   0.820  1.00  0.00    -0.227 N 
ATOM      2  H1  UNL     1       0.740   1.254   1.141  1.00  0.00     0.177 HD
HETATM    3  C5  UNL     1      -0.557   0.280  -0.038  1.00  0.00     0.670 C 
HETATM    4  N2  UNL     1      -1.878   0.152  -0.528  1.00  0.00    -0.219 N 
ATOM      5  H2  UNL     1      -2.293   0.951  -1.008  1.00  0.00     0.178 HD
HETATM    6  N3  UNL     1       0.466  -0.605  -0.456  1.00  0.00    -0.212 N 
ATOM      7  H3  UNL     1       0.581  -1.478   0.058  1.00  0.00     0.178 HD
ENDROOT
BRANCH   1   8
HETATM    8  C4  UNL     1      -1.177   2.154   1.329  1.00  0.00     0.138 C 
BRANCH   8   9
HETATM    9  C3  UNL     1      -0.589   3.443   1.797  1.00  0.00     0.020 C 
BRANCH   9  10
HETATM   10  C2  UNL     1       0.150   4.211   0.723  1.00  0.00    -0.003 C 
HETATM   11  C1  UNL     1      -0.750   4.564  -0.436  1.00  0.00     0.005 C 
ENDBRANCH   9  10
ENDBRANCH   8   9
ENDBRANCH   1   8
BRANCH   4  12
HETATM   12  C6  UNL     1      -2.672  -1.047  -0.387  1.00  0.00     0.133 C 
HETATM   13  C7  UNL     1      -2.791  -1.355   1.058  1.00  0.00     0.028 C 
HETATM   14  C8  UNL     1      -3.658  -2.547   1.393  1.00  0.00     0.002 C 
HETATM   15  C9  UNL     1      -4.683  -2.245   2.415  1.00  0.00     0.000 C 
HETATM   16  C10 UNL     1      -6.099  -2.160   2.037  1.00  0.00     0.000 C 
HETATM   17  C11 UNL     1      -6.531  -2.399   0.647  1.00  0.00     0.000 C 
HETATM   18  C12 UNL     1      -6.731  -1.166  -0.199  1.00  0.00     0.000 C 
HETATM   19  C13 UNL     1      -5.904   0.000   0.122  1.00  0.00     0.003 C 
HETATM   20  C14 UNL     1      -4.767   0.289  -0.837  1.00  0.00     0.039 C 
HETATM   21  C15 UNL     1      -3.913  -0.893  -1.164  1.00  0.00     0.193 C 
HETATM   22  F1  UNL     1      -3.527  -0.720  -2.509  1.00  0.00    -0.247 F 
ENDBRANCH   4  12
BRANCH   6  23
HETATM   23  C16 UNL     1       1.347  -0.353  -1.551  1.00  0.00     0.210 C 
HETATM   24  C17 UNL     1       0.668  -0.186  -2.860  1.00  0.00     0.283 C 
HETATM   25  O1  UNL     1      -0.225  -0.903  -3.372  1.00  0.00    -0.263 OA
HETATM   26  O2  UNL     1       1.188   0.957  -3.502  1.00  0.00    -0.314 OA
HETATM   27  C18 UNL     1       2.465   1.187  -2.902  1.00  0.00     0.139 C 
HETATM   28  C19 UNL     1       2.921   2.579  -3.193  1.00  0.00     0.041 C 
HETATM   29  C20 UNL     1       2.099   0.971  -1.435  1.00  0.00     0.086 C 
BRANCH  29  30
HETATM   30  C21 UNL     1       3.344   0.802  -0.645  1.00  0.00     0.076 C 
HETATM   31  N4  UNL     1       3.873  -0.349  -0.471  1.00  0.00    -0.316 N 
HETATM   32  C22 UNL     1       5.063  -0.542   0.280  1.00  0.00     0.365 C 
ATOM     33  H4  UNL     1       3.422  -1.163  -0.889  1.00  0.00     0.170 HD
HETATM   34  O3  UNL     1       5.299   0.085   1.345  1.00  0.00    -0.238 OA
BRANCH  32  35
HETATM   35  O4  UNL     1       6.017  -1.445  -0.150  1.00  0.00    -0.294 OA
BRANCH  35  36
HETATM   36  C23 UNL     1       7.224  -1.710   0.515  1.00  0.00     0.061 C 
HETATM   37  C24 UNL     1       6.999  -2.230   1.920  1.00  0.00     0.046 C 
HETATM   38  C25 UNL     1       7.977  -2.757  -0.273  1.00  0.00     0.046 C 
HETATM   39  C26 UNL     1       8.025  -0.434   0.556  1.00  0.00     0.046 C 
ENDBRANCH  35  36
ENDBRANCH  32  35
ENDBRANCH  29  30
ENDBRANCH   6  23
TORSDOF 8
