REMARK  7 active torsions:
REMARK  status: ('A' for Active; 'I' for Inactive)
REMARK    1  A    between atoms: C2_2  and  C5_5 
REMARK    2  A    between atoms: C5_5  and  C6_6 
REMARK    3  A    between atoms: C5_5  and  C22_32 
REMARK       I    between atoms: C6_6  and  N1_8 
REMARK    4  A    between atoms: N1_8  and  C7_10 
REMARK    5  A    between atoms: C7_10  and  C9_12 
REMARK    6  A    between atoms: C7_10  and  C15_25 
REMARK    7  A    between atoms: N5_19  and  C10_20 
ROOT
HETATM    1  C7  UNL     1      -1.493  -0.398  -0.208  1.00  0.00     0.096 C 
HETATM    2  C8  UNL     1      -2.287  -0.709   0.982  1.00  0.00     0.047 C 
ENDROOT
BRANCH   1   3
HETATM    3  N1  UNL     1      -0.152  -0.971   0.025  1.00  0.00    -0.341 N 
HETATM    4  C6  UNL     1       0.730  -0.666   1.052  1.00  0.00     0.250 C 
HETATM    5  O1  UNL     1       0.423   0.184   1.919  1.00  0.00    -0.268 OA
ATOM      6  H1  UNL     1       0.162  -1.672  -0.646  1.00  0.00     0.164 HD
BRANCH   4   7
HETATM    7  C5  UNL     1       2.062  -1.295   1.214  1.00  0.00     0.027 C 
BRANCH   7   8
HETATM    8  C2  UNL     1       2.544  -1.470   2.600  1.00  0.00    -0.018 C 
HETATM    9  C1  UNL     1       2.690  -0.235   3.441  1.00  0.00     0.019 C 
HETATM   10  C3  UNL     1       1.707  -2.455   3.398  1.00  0.00     0.019 C 
HETATM   11  C4  UNL     1       3.949  -2.117   2.567  1.00  0.00     0.019 C 
ENDBRANCH   7   8
BRANCH   7  12
HETATM   12  C22 UNL     1       3.055  -0.790   0.242  1.00  0.00    -0.021 A 
HETATM   13  C23 UNL     1       3.807  -1.662  -0.534  1.00  0.00     0.013 A 
HETATM   14  C24 UNL     1       4.716  -1.216  -1.443  1.00  0.00     0.010 A 
HETATM   15  C25 UNL     1       4.940   0.133  -1.644  1.00  0.00    -0.029 A 
HETATM   16  C26 UNL     1       4.201   1.005  -0.882  1.00  0.00     0.036 A 
HETATM   17  C29 UNL     1       5.865   0.875  -2.564  1.00  0.00     0.082 C 
HETATM   18  C27 UNL     1       3.277   0.553   0.043  1.00  0.00     0.042 A 
HETATM   19  N6  UNL     1       4.591   2.352  -1.246  1.00  0.00    -0.372 N 
HETATM   20  C28 UNL     1       5.499   2.315  -2.363  1.00  0.00     0.183 C 
ATOM     21  H6  UNL     1       4.270   3.201  -0.780  1.00  0.00     0.161 HD
HETATM   22 CL1  UNL     1       6.949   3.278  -1.914  1.00  0.00    -0.102 Cl
ENDBRANCH   7  12
ENDBRANCH   4   7
ENDBRANCH   1   3
BRANCH   1  23
HETATM   23  C9  UNL     1      -1.214   1.023  -0.508  1.00  0.00     0.144 A 
HETATM   24  N2  UNL     1      -0.433   1.354  -1.555  1.00  0.00    -0.270 N 
HETATM   25  N3  UNL     1      -0.332   2.650  -1.649  1.00  0.00    -0.227 N 
ATOM     26  H2  UNL     1       0.015   0.687  -2.183  1.00  0.00     0.190 HD
HETATM   27  N4  UNL     1      -1.048   3.142  -0.664  1.00  0.00    -0.224 N 
ATOM     28  H3  UNL     1       0.196   3.175  -2.346  1.00  0.00     0.210 HD
HETATM   29  N5  UNL     1      -1.602   2.145   0.054  1.00  0.00    -0.256 N 
ATOM     30  H4  UNL     1      -1.168   4.136  -0.470  1.00  0.00     0.210 HD
BRANCH  29  31
HETATM   31  C10 UNL     1      -2.438   2.426   1.188  1.00  0.00     0.111 C 
HETATM   32  C11 UNL     1      -3.864   2.752   0.799  1.00  0.00     0.027 C 
HETATM   33  C12 UNL     1      -4.165   4.141   1.259  1.00  0.00     0.002 C 
HETATM   34  C13 UNL     1      -2.822   4.836   1.334  1.00  0.00     0.002 C 
HETATM   35  C14 UNL     1      -1.936   3.738   1.819  1.00  0.00     0.027 C 
ENDBRANCH  29  31
ENDBRANCH   1  23
BRANCH   1  36
HETATM   36  C15 UNL     1      -2.048  -0.979  -1.497  1.00  0.00     0.038 A 
HETATM   37  C16 UNL     1      -2.317  -2.346  -1.843  1.00  0.00    -0.033 A 
HETATM   38  C17 UNL     1      -2.516  -3.529  -1.001  1.00  0.00     0.016 C 
HETATM   39  C18 UNL     1      -1.883  -2.768  -3.275  1.00  0.00     0.016 C 
HETATM   40  C19 UNL     1      -3.443  -1.296  -1.779  1.00  0.00    -0.033 A 
HETATM   41  C20 UNL     1      -4.572  -1.465  -0.847  1.00  0.00     0.016 C 
HETATM   42  C21 UNL     1      -4.000  -0.942  -3.197  1.00  0.00     0.016 C 
ENDBRANCH   1  36
TORSDOF 7
