REMARK  7 active torsions:
REMARK  status: ('A' for Active; 'I' for Inactive)
REMARK    1  A    between atoms: C2_2  and  O1_3 
REMARK    2  A    between atoms: O1_3  and  C3_4 
REMARK       I    between atoms: C3_4  and  N1_6 
REMARK    3  A    between atoms: N2_9  and  C6_10 
REMARK    4  A    between atoms: C6_10  and  C9_13 
REMARK    5  A    between atoms: C12_16  and  N3_17 
REMARK    6  A    between atoms: C17_25  and  N5_26 
REMARK       I    between atoms: N5_26  and  C18_28 
REMARK       I    between atoms: C18_28  and  N6_30 
REMARK    7  A    between atoms: N6_30  and  C19_32 
ROOT
HETATM    1  C9  UNL     1      -1.745  -1.731  -0.011  1.00  0.00     0.013 C 
HETATM    2  C10 UNL     1      -1.080  -0.859   1.045  1.00  0.00     0.009 C 
HETATM    3  C11 UNL     1       0.386  -1.235   1.105  1.00  0.00     0.026 C 
HETATM    4  C12 UNL     1       1.063  -1.127  -0.217  1.00  0.00     0.091 C 
HETATM    5  C24 UNL     1       0.165  -0.820  -1.376  1.00  0.00     0.026 C 
HETATM    6  C25 UNL     1      -1.152  -1.496  -1.380  1.00  0.00     0.009 C 
ENDROOT
BRANCH   4   7
HETATM    7  N3  UNL     1       1.855  -2.324  -0.442  1.00  0.00    -0.336 N 
HETATM    8  C13 UNL     1       1.447  -3.570  -0.673  1.00  0.00     0.184 A 
HETATM    9  N4  UNL     1       2.490  -4.401  -0.833  1.00  0.00    -0.350 N 
HETATM   10  C14 UNL     1       3.595  -3.669  -0.702  1.00  0.00     0.063 A 
ATOM     11  H4  UNL     1       2.444  -5.403  -1.019  1.00  0.00     0.166 HD
HETATM   12  C15 UNL     1       4.946  -3.946  -0.762  1.00  0.00     0.076 A 
HETATM   13  C23 UNL     1       3.221  -2.382  -0.460  1.00  0.00     0.065 A 
HETATM   14  C16 UNL     1       5.890  -2.972  -0.586  1.00  0.00     0.145 A 
HETATM   15  F1  UNL     1       7.221  -3.282  -0.651  1.00  0.00    -0.204 F 
HETATM   16  C17 UNL     1       5.523  -1.634  -0.334  1.00  0.00     0.077 A 
HETATM   17  C22 UNL     1       4.176  -1.392  -0.281  1.00  0.00     0.064 A 
BRANCH  16  18
HETATM   18  N5  UNL     1       6.544  -0.670  -0.169  1.00  0.00    -0.306 N 
HETATM   19  C18 UNL     1       6.403   0.677   0.108  1.00  0.00     0.321 C 
HETATM   20  O3  UNL     1       5.292   1.233   0.261  1.00  0.00    -0.247 OA
HETATM   21  N6  UNL     1       7.582   1.497   0.230  1.00  0.00    -0.339 N 
ATOM     22  H6  UNL     1       8.501   1.072   0.109  1.00  0.00     0.164 HD
ATOM     23  H5  UNL     1       7.501  -1.010  -0.266  1.00  0.00     0.171 HD
BRANCH  21  24
HETATM   24  C19 UNL     1       7.488   2.911   0.520  1.00  0.00     0.078 C 
HETATM   25  C20 UNL     1       7.904   3.711  -0.715  1.00  0.00     0.032 C 
HETATM   26  C21 UNL     1       8.387   3.333   1.645  1.00  0.00     0.032 C 
ENDBRANCH  21  24
ENDBRANCH  16  18
ENDBRANCH   4   7
BRANCH   1  27
HETATM   27  C6  UNL     1      -3.248  -1.632   0.012  1.00  0.00     0.028 C 
HETATM   28  C7  UNL     1      -3.758  -2.536  -1.101  1.00  0.00     0.038 C 
HETATM   29  C8  UNL     1      -3.702  -2.283   1.303  1.00  0.00     0.038 C 
BRANCH  27  30
HETATM   30  N2  UNL     1      -3.780  -0.356  -0.218  1.00  0.00    -0.381 N 
HETATM   31  C5  UNL     1      -3.842   0.611   0.796  1.00  0.00     0.079 C 
HETATM   32  C4  UNL     1      -5.238   1.062   1.161  1.00  0.00     0.172 C 
HETATM   33  N1  UNL     1      -5.905   1.562  -0.010  1.00  0.00    -0.322 N 
HETATM   34  C3  UNL     1      -6.981   2.516   0.083  1.00  0.00     0.367 C 
HETATM   35  C27 UNL     1      -5.455   1.067  -1.297  1.00  0.00     0.148 C 
HETATM   36  O2  UNL     1      -7.550   2.943  -0.948  1.00  0.00    -0.238 OA
HETATM   37  C26 UNL     1      -4.950  -0.361  -1.037  1.00  0.00     0.143 C 
BRANCH  34  38
HETATM   38  O1  UNL     1      -7.411   2.982   1.311  1.00  0.00    -0.275 OA
BRANCH  38  39
HETATM   39  C2  UNL     1      -8.429   3.889   1.478  1.00  0.00     0.137 C 
HETATM   40  C1  UNL     1      -8.180   5.182   1.499  1.00  0.00     0.038 C 
ENDBRANCH  38  39
ENDBRANCH  34  38
ENDBRANCH  27  30
ENDBRANCH   1  27
TORSDOF 7
