REMARK  6 active torsions:
REMARK  status: ('A' for Active; 'I' for Inactive)
REMARK    1  A    between atoms: C9_14  and  N3_15 
REMARK    2  A    between atoms: N3_15  and  C10_17 
REMARK    3  A    between atoms: C10_17  and  C11_18 
REMARK    4  A    between atoms: C11_18  and  C12_19 
REMARK    5  A    between atoms: C13_23  and  S2_24 
REMARK    6  A    between atoms: S2_24  and  C14_25 
ROOT
HETATM    1  C1  UNL     1      -0.952   6.425   0.856  1.00  0.00     0.068 C 
HETATM    2  C2  UNL     1      -0.530   5.066   0.500  1.00  0.00     0.006 A 
HETATM    3  C3  UNL     1      -1.007   4.386  -0.578  1.00  0.00     0.032 A 
HETATM    4  C4  UNL     1      -0.615   3.090  -0.935  1.00  0.00    -0.046 A 
HETATM    5  C5  UNL     1      -1.039   2.741  -2.296  1.00  0.00     0.049 C 
HETATM    6  C6  UNL     1       0.315   2.397  -0.162  1.00  0.00     0.020 A 
HETATM    7  C7  UNL     1       0.770   3.153   0.917  1.00  0.00     0.088 A 
HETATM    8  N1  UNL     1       0.362   4.420   1.226  1.00  0.00    -0.354 N 
ATOM      9  H1  UNL     1       0.760   4.881   2.044  1.00  0.00     0.166 HD
HETATM   10  S1  UNL     1       1.961   2.186   1.643  1.00  0.00    -0.052 SA
HETATM   11  C8  UNL     1       1.873   0.845   0.613  1.00  0.00     0.106 A 
HETATM   12  N2  UNL     1       2.544  -0.346   0.630  1.00  0.00    -0.184 N 
ATOM     13  H2  UNL     1       3.261  -0.500   1.339  1.00  0.00     0.185 HD
HETATM   14  C9  UNL     1       2.289  -1.310  -0.250  1.00  0.00     0.679 A 
HETATM   15  N4  UNL     1       1.343  -1.033  -1.122  1.00  0.00    -0.184 N 
ATOM     16  H4  UNL     1       1.117  -1.754  -1.807  1.00  0.00     0.185 HD
HETATM   17  C13 UNL     1       0.639   0.132  -1.191  1.00  0.00     0.107 A 
HETATM   18  C21 UNL     1       0.879   1.173  -0.319  1.00  0.00     0.046 A 
ENDROOT
BRANCH  17  19
HETATM   19  S2  UNL     1      -0.802  -0.047  -2.225  1.00  0.00    -0.035 SA
BRANCH  19  20
HETATM   20  C14 UNL     1      -2.172  -0.698  -1.253  1.00  0.00     0.151 A 
HETATM   21  N5  UNL     1      -3.128  -0.108  -0.570  1.00  0.00    -0.335 N 
HETATM   22  C15 UNL     1      -3.959  -1.010   0.006  1.00  0.00     0.062 A 
ATOM     23  H5  UNL     1      -3.231   0.903  -0.484  1.00  0.00     0.168 HD
HETATM   24  C16 UNL     1      -5.080  -0.929   0.798  1.00  0.00     0.051 A 
HETATM   25  C20 UNL     1      -3.437  -2.251  -0.377  1.00  0.00     0.061 A 
HETATM   26  C17 UNL     1      -5.702  -2.074   1.223  1.00  0.00     0.013 A 
HETATM   27 BR1  UNL     1      -7.260  -2.058   2.322  1.00  0.00    -0.051 Br
HETATM   28  C18 UNL     1      -5.219  -3.333   0.868  1.00  0.00     0.021 A 
HETATM   29  C19 UNL     1      -4.100  -3.375   0.078  1.00  0.00     0.033 A 
HETATM   30  N6  UNL     1      -2.358  -2.032  -1.136  1.00  0.00    -0.335 N 
ATOM     31  H6  UNL     1      -1.772  -2.753  -1.557  1.00  0.00     0.168 HD
ENDBRANCH  19  20
ENDBRANCH  17  19
BRANCH  14  32
HETATM   32  N3  UNL     1       2.951  -2.388  -0.223  1.00  0.00    -0.226 N 
ATOM     33  H3  UNL     1       2.688  -3.073  -0.931  1.00  0.00     0.177 HD
BRANCH  32  34
HETATM   34  C10 UNL     1       4.004  -2.791   0.642  1.00  0.00     0.140 C 
BRANCH  34  35
HETATM   35  C11 UNL     1       5.082  -3.551  -0.118  1.00  0.00     0.051 C 
BRANCH  35  36
HETATM   36  C12 UNL     1       6.178  -3.942   0.869  1.00  0.00     0.224 C 
HETATM   37  F1  UNL     1       7.186  -4.630   0.249  1.00  0.00    -0.255 F 
ENDBRANCH  35  36
ENDBRANCH  34  35
ENDBRANCH  32  34
ENDBRANCH  14  32
TORSDOF 6
