REMARK  6 active torsions:
REMARK  status: ('A' for Active; 'I' for Inactive)
REMARK    1  A    between atoms: O1_2  and  C2_3 
REMARK    2  A    between atoms: C4_5  and  C5_6 
REMARK    3  A    between atoms: C5_6  and  C6_7 
REMARK    4  A    between atoms: C10_14  and  N2_15 
REMARK    5  A    between atoms: N4_21  and  C12_22 
REMARK    6  A    between atoms: C20_30  and  N5_31 
ROOT
HETATM    1  C5  UNL     1      -0.011   0.500   0.013  1.00  0.00     0.049 C 
HETATM    2  C18 UNL     1      -0.047   0.075   1.409  1.00  0.00     0.024 C 
HETATM    3  C19 UNL     1      -1.460   0.273   1.953  1.00  0.00     0.027 C 
HETATM    4  C20 UNL     1      -2.175  -0.385   0.822  1.00  0.00     0.085 C 
HETATM    5  C25 UNL     1      -1.482   0.200  -0.374  1.00  0.00     0.047 C 
ENDROOT
BRANCH   1   6
HETATM    6  C4  UNL     1       0.147   1.956  -0.241  1.00  0.00     0.026 A 
HETATM    7  C3  UNL     1      -0.796   2.928  -0.057  1.00  0.00     0.066 A 
HETATM    8  C2  UNL     1      -0.530   4.273  -0.353  1.00  0.00     0.110 A 
HETATM    9  C27 UNL     1       0.703   4.639  -0.840  1.00  0.00     0.165 A 
HETATM   10  C26 UNL     1       1.639   3.643  -1.017  1.00  0.00     0.133 A 
HETATM   11  F1  UNL     1       0.993   5.948  -1.140  1.00  0.00    -0.202 F 
HETATM   12  N6  UNL     1       1.340   2.393  -0.724  1.00  0.00    -0.365 N 
ATOM     13  H6  UNL     1       2.067   1.693  -0.873  1.00  0.00     0.165 HD
BRANCH   8  14
HETATM   14  O1  UNL     1      -1.516   5.223  -0.152  1.00  0.00    -0.353 OA
HETATM   15  C1  UNL     1      -2.767   4.851   0.350  1.00  0.00     0.210 C 
ENDBRANCH   8  14
ENDBRANCH   1   6
BRANCH   1  16
HETATM   16  C6  UNL     1       0.802  -0.225  -0.972  1.00  0.00     0.051 A 
HETATM   17  C7  UNL     1       0.545  -0.095  -2.340  1.00  0.00     0.073 A 
HETATM   18 CL1  UNL     1      -0.689   0.875  -3.114  1.00  0.00    -0.081 Cl
HETATM   19  C8  UNL     1       1.480  -0.883  -2.972  1.00  0.00     0.048 A 
HETATM   20  C9  UNL     1       1.671  -1.120  -4.318  1.00  0.00     0.123 A 
HETATM   21  C11 UNL     1       2.235  -1.433  -1.990  1.00  0.00     0.137 A 
HETATM   22  N1  UNL     1       2.660  -1.941  -4.680  1.00  0.00    -0.201 N 
HETATM   23  C10 UNL     1       3.431  -2.505  -3.704  1.00  0.00     0.677 A 
ATOM     24  H1  UNL     1       2.836  -2.143  -5.664  1.00  0.00     0.183 HD
HETATM   25  N3  UNL     1       3.223  -2.258  -2.409  1.00  0.00    -0.176 N 
ATOM     26  H3  UNL     1       3.825  -2.703  -1.716  1.00  0.00     0.186 HD
HETATM   27  N4  UNL     1       1.835  -1.038  -0.733  1.00  0.00    -0.328 N 
BRANCH  23  28
HETATM   28  N2  UNL     1       4.409  -3.316  -4.006  1.00  0.00    -0.234 N 
ATOM     29  H22 UNL     1       4.568  -3.505  -4.996  1.00  0.00     0.174 HD
ATOM     30  H21 UNL     1       4.985  -3.737  -3.277  1.00  0.00     0.174 HD
ENDBRANCH  23  28
BRANCH  27  31
HETATM   31  C12 UNL     1       2.487  -1.460   0.417  1.00  0.00     0.091 C 
HETATM   32  C13 UNL     1       4.023  -1.269   0.193  1.00  0.00     0.026 C 
HETATM   33  C14 UNL     1       4.732  -1.166   1.509  1.00  0.00     0.002 C 
HETATM   34  C15 UNL     1       3.941  -1.734   2.620  1.00  0.00     0.000 C 
HETATM   35  C16 UNL     1       3.353  -2.996   2.104  1.00  0.00     0.002 C 
HETATM   36  C17 UNL     1       2.469  -2.854   0.882  1.00  0.00     0.026 C 
ENDBRANCH  27  31
ENDBRANCH   1  16
BRANCH   4  37
HETATM   37  N5  UNL     1      -3.566  -0.321   0.789  1.00  0.00    -0.385 N 
HETATM   38  C21 UNL     1      -4.218  -0.951   1.899  1.00  0.00     0.148 C 
HETATM   39  C22 UNL     1      -5.658  -1.313   1.602  1.00  0.00     0.187 C 
HETATM   40  O2  UNL     1      -5.964  -0.833   0.319  1.00  0.00    -0.385 OA
HETATM   41  C23 UNL     1      -5.732   0.558   0.348  1.00  0.00     0.212 C 
HETATM   42  C24 UNL     1      -4.228   0.784   0.228  1.00  0.00     0.084 C 
ENDBRANCH   4  37
TORSDOF 6
