REMARK  16 active torsions:
REMARK  status: ('A' for Active; 'I' for Inactive)
REMARK    1  A    between atoms: N1_1  and  C1_5 
REMARK    2  A    between atoms: C1_5  and  C2_6 
REMARK    3  A    between atoms: C4_9  and  N2_10 
REMARK    4  A    between atoms: C6_12  and  C7_13 
REMARK    5  A    between atoms: C7_13  and  N3_14 
REMARK    6  A    between atoms: N3_14  and  C8_16 
REMARK    7  A    between atoms: C10_18  and  N4_19 
REMARK    8  A    between atoms: C11_23  and  O1_24 
REMARK    9  A    between atoms: C12_26  and  N5_27 
REMARK       I    between atoms: N5_27  and  C13_29 
REMARK   10  A    between atoms: N7_31  and  O2_33 
REMARK   11  A    between atoms: C14_35  and  O3_36 
REMARK   12  A    between atoms: C15_43  and  C16_44 
REMARK   13  A    between atoms: C16_44  and  O5_45 
REMARK   14  A    between atoms: C17_47  and  O6_48 
REMARK   15  A    between atoms: C17_47  and  C18_50 
REMARK   16  A    between atoms: N10_51  and  O7_53 
ROOT
HETATM    1  N2  UNL     1      -1.647  -0.110   0.121  1.00  0.00    -0.223 N 
HETATM    2  C5  UNL     1      -0.386   0.317  -0.048  1.00  0.00     0.149 A 
HETATM    3  C6  UNL     1       0.263   0.331   1.199  1.00  0.00     0.062 A 
HETATM    4  N8  UNL     1      -0.628  -0.082   2.065  1.00  0.00    -0.287 N 
ATOM      5  H8  UNL     1      -0.481  -0.186   3.069  1.00  0.00     0.188 HD
HETATM    6  N9  UNL     1      -1.772  -0.346   1.404  1.00  0.00    -0.234 N 
ATOM      7  H9  UNL     1      -2.626  -0.686   1.846  1.00  0.00     0.209 HD
ENDROOT
BRANCH   3   8
HETATM    8  C7  UNL     1       1.697   0.673   1.396  1.00  0.00     0.174 C 
BRANCH   8   9
HETATM    9  N3  UNL     1       2.278   1.124   0.170  1.00  0.00    -0.409 N 
ATOM     10  H3  UNL     1       2.127   2.075  -0.167  1.00  0.00     0.154 HD
BRANCH   9  11
HETATM   11  C8  UNL     1       3.072   0.203  -0.563  1.00  0.00     0.109 C 
HETATM   12  C9  UNL     1       3.822   0.932  -1.659  1.00  0.00     0.062 C 
HETATM   13  C10 UNL     1       5.054   1.640  -1.209  1.00  0.00     0.216 C 
HETATM   14  C11 UNL     1       5.886   0.785  -0.313  1.00  0.00     0.173 C 
HETATM   15  C12 UNL     1       5.413  -0.614  -0.164  1.00  0.00     0.145 C 
HETATM   16  C14 UNL     1       3.934  -0.757   0.135  1.00  0.00     0.165 C 
BRANCH  13  17
HETATM   17  N4  UNL     1       4.781   2.887  -0.552  1.00  0.00    -0.072 N 
ATOM     18  H43 UNL     1       4.210   3.491  -1.143  1.00  0.00     0.274 HD
ATOM     19  H42 UNL     1       4.134   2.754   0.226  1.00  0.00     0.274 HD
ATOM     20  H41 UNL     1       5.624   3.372  -0.244  1.00  0.00     0.274 HD
ENDBRANCH  13  17
BRANCH  14  21
HETATM   21  O1  UNL     1       7.180   0.722  -0.885  1.00  0.00    -0.391 OA
ATOM     22  H1  UNL     1       7.710   0.178  -0.314  1.00  0.00     0.210 HD
ENDBRANCH  14  21
BRANCH  15  23
HETATM   23  N5  UNL     1       6.165  -1.297   0.854  1.00  0.00    -0.353 N 
HETATM   24  C13 UNL     1       7.531  -1.609   0.833  1.00  0.00     0.208 C 
HETATM   25  N6  UNL     1       8.601  -0.809   1.257  1.00  0.00    -0.062 NA
HETATM   26  N7  UNL     1       7.839  -2.789   0.356  1.00  0.00    -0.241 N 
ATOM     27  H7  UNL     1       8.822  -3.058   0.319  1.00  0.00     0.197 HD
ATOM     28  H5  UNL     1       5.647  -1.586   1.683  1.00  0.00     0.162 HD
BRANCH  26  29
HETATM   29  O2  UNL     1       6.901  -3.676  -0.094  1.00  0.00    -0.287 OA
ATOM     30  H2  UNL     1       7.124  -4.532  -0.440  1.00  0.00     0.244 HD
ENDBRANCH  26  29
ENDBRANCH  15  23
BRANCH  16  31
HETATM   31  O3  UNL     1       3.621  -2.073  -0.329  1.00  0.00    -0.391 OA
ATOM     32  H3  UNL     1       4.179  -2.695   0.123  1.00  0.00     0.210 HD
ENDBRANCH  16  31
ENDBRANCH   9  11
ENDBRANCH   8   9
ENDBRANCH   3   8
BRANCH   1  33
HETATM   33  C4  UNL     1      -2.660  -0.304  -0.889  1.00  0.00     0.205 C 
HETATM   34  S1  UNL     1      -3.317  -2.024  -0.801  1.00  0.00    -0.084 SA
HETATM   35  C3  UNL     1      -4.630  -1.924   0.481  1.00  0.00     0.092 C 
HETATM   36  C2  UNL     1      -5.690  -1.039  -0.190  1.00  0.00     0.063 C 
HETATM   37  C17 UNL     1      -5.514   0.369   0.265  1.00  0.00     0.126 C 
HETATM   38  C15 UNL     1      -4.497   1.179  -0.461  1.00  0.00     0.194 C 
HETATM   39  O4  UNL     1      -3.529   0.634  -1.150  1.00  0.00    -0.318 OA
BRANCH  36  40
HETATM   40  C1  UNL     1      -7.011  -1.636   0.239  1.00  0.00     0.238 C 
BRANCH  40  41
HETATM   41  N1  UNL     1      -7.037  -3.016  -0.243  1.00  0.00    -0.079 N 
ATOM     42  H13 UNL     1      -6.871  -3.092  -1.246  1.00  0.00     0.274 HD
ATOM     43  H12 UNL     1      -6.233  -3.562   0.065  1.00  0.00     0.274 HD
ATOM     44  H11 UNL     1      -7.928  -3.419   0.046  1.00  0.00     0.274 HD
ENDBRANCH  40  41
ENDBRANCH  36  40
BRANCH  37  45
HETATM   45  O6  UNL     1      -5.277   0.351   1.652  1.00  0.00    -0.381 OA
ATOM     46  H6  UNL     1      -5.165   1.249   1.942  1.00  0.00     0.211 HD
ENDBRANCH  37  45
BRANCH  37  47
HETATM   47  C18 UNL     1      -6.879   0.990   0.114  1.00  0.00     0.127 C 
HETATM   48  N10 UNL     1      -7.462   1.655   1.021  1.00  0.00    -0.281 N 
ATOM     49  H10 UNL     1      -7.030   1.816   1.931  1.00  0.00     0.193 HD
BRANCH  48  50
HETATM   50  O7  UNL     1      -8.731   2.158   0.707  1.00  0.00    -0.290 OA
ATOM     51  H7  UNL     1      -9.168   2.657   1.387  1.00  0.00     0.244 HD
ENDBRANCH  48  50
ENDBRANCH  37  47
BRANCH  38  52
HETATM   52  C16 UNL     1      -4.118   2.367   0.443  1.00  0.00     0.200 C 
BRANCH  52  53
HETATM   53  O5  UNL     1      -3.577   3.417  -0.293  1.00  0.00    -0.398 OA
ATOM     54  H5  UNL     1      -3.343   4.150   0.265  1.00  0.00     0.209 HD
ENDBRANCH  52  53
ENDBRANCH  38  52
ENDBRANCH   1  33
TORSDOF 16
