REMARK  2 active torsions:
REMARK  status: ('A' for Active; 'I' for Inactive)
REMARK    1  A    between atoms: N1_2  and  C2_5 
REMARK    2  A    between atoms: C2_5  and  C3_6 
ROOT
HETATM    1  C3  UNL     1       0.627  -0.514   0.699  1.00  0.00     0.017 C 
HETATM    2  C4  UNL     1      -0.455  -1.419   0.146  1.00  0.00     0.048 C 
HETATM    3  C5  UNL     1      -1.281  -0.216  -0.124  1.00  0.00     0.079 C 
HETATM    4  C6  UNL     1       0.018   0.600  -0.161  1.00  0.00     0.048 C 
HETATM    5  N2  UNL     1      -2.159   0.271   0.840  1.00  0.00    -0.384 N 
ATOM      6  H2  UNL     1      -1.868   0.416   1.807  1.00  0.00     0.160 HD
HETATM    7  C7  UNL     1      -3.440   0.547   0.420  1.00  0.00     0.067 C 
HETATM    8  C8  UNL     1      -3.571   0.817  -1.024  1.00  0.00     0.120 C 
HETATM    9  S1  UNL     1      -2.178  -0.185  -1.692  1.00  0.00    -0.133 SA
ENDROOT
BRANCH   1  10
HETATM   10  C2  UNL     1       2.017  -0.811   0.180  1.00  0.00     0.236 C 
BRANCH  10  11
HETATM   11  N1  UNL     1       2.909   0.158   0.824  1.00  0.00    -0.079 N 
HETATM   12  C1  UNL     1       4.275  -0.004   0.424  1.00  0.00     0.267 C 
ATOM     13  H12 UNL     1       2.817   0.123   1.839  1.00  0.00     0.276 HD
ATOM     14  H11 UNL     1       2.590   1.114   0.663  1.00  0.00     0.276 HD
ENDBRANCH  10  11
ENDBRANCH   1  10
TORSDOF 2
