REMARK  1 active torsions:
REMARK  status: ('A' for Active; 'I' for Inactive)
REMARK    1  A    between atoms: N1_1  and  N2_4 
ROOT
HETATM    1  N2  UNL     1      -1.459  -0.053  -0.254  1.00  0.00    -0.155 N 
HETATM    2  N3  UNL     1      -0.993   1.258  -0.288  1.00  0.00    -0.227 N 
ATOM      3  H3  UNL     1      -1.722   1.927  -0.538  1.00  0.00     0.194 HD
HETATM    4  C1  UNL     1       0.282   1.890  -0.052  1.00  0.00     0.344 C 
HETATM    5  O1  UNL     1       0.257   3.131  -0.258  1.00  0.00    -0.245 OA
HETATM    6  N4  UNL     1       1.573   1.436   0.363  1.00  0.00    -0.259 N 
ATOM      7  H4  UNL     1       2.122   2.171   0.808  1.00  0.00     0.175 HD
HETATM    8  C2  UNL     1       2.274   0.187   0.298  1.00  0.00     0.331 C 
HETATM    9  O2  UNL     1       3.523   0.322   0.459  1.00  0.00    -0.246 OA
HETATM   10  N5  UNL     1       1.846  -1.157   0.092  1.00  0.00    -0.271 N 
ATOM     11  H5  UNL     1       2.616  -1.826   0.117  1.00  0.00     0.174 HD
HETATM   12  C3  UNL     1       0.568  -1.784  -0.144  1.00  0.00     0.321 C 
HETATM   13  O3  UNL     1       0.642  -3.033  -0.223  1.00  0.00    -0.262 OA
HETATM   14  C4  UNL     1      -0.799  -1.306  -0.313  1.00  0.00     0.349 C 
HETATM   15  O4  UNL     1      -1.588  -2.234  -0.575  1.00  0.00    -0.259 OA
ENDROOT
BRANCH   1  16
HETATM   16  N1  UNL     1      -2.857  -0.121  -0.140  1.00  0.00    -0.321 N 
ATOM     17  H12 UNL     1      -3.332   0.781  -0.098  1.00  0.00     0.179 HD
ATOM     18  H11 UNL     1      -3.199  -1.082  -0.115  1.00  0.00     0.179 HD
ENDBRANCH   1  16
TORSDOF 1
