REMARK  5 active torsions:
REMARK  status: ('A' for Active; 'I' for Inactive)
REMARK    1  A    between atoms: C2_2  and  C3_3 
REMARK    2  A    between atoms: C3_3  and  C4_4 
REMARK    3  A    between atoms: C4_4  and  C5_5 
REMARK    4  A    between atoms: C5_5  and  N1_6 
REMARK    5  A    between atoms: N1_6  and  C6_8 
ROOT
HETATM    1  C6  UNL     1       0.151  -1.141  -0.412  1.00  0.00     0.146 A 
HETATM    2  N2  UNL     1      -0.354  -1.170   0.830  1.00  0.00    -0.323 N 
ATOM      3  H2  UNL     1       0.258  -1.538   1.558  1.00  0.00     0.169 HD
HETATM    4  C7  UNL     1      -1.552  -0.776   1.216  1.00  0.00     0.108 A 
HETATM    5  N3  UNL     1      -1.791  -0.911   2.505  1.00  0.00    -0.385 N 
ATOM      6  H31 UNL     1      -2.718  -0.606   2.804  1.00  0.00     0.157 HD
ATOM      7  H32 UNL     1      -1.042  -1.303   3.075  1.00  0.00     0.157 HD
HETATM    8  C8  UNL     1      -2.567  -0.245   0.444  1.00  0.00    -0.001 A 
HETATM    9  C9  UNL     1      -2.438  -0.050  -0.910  1.00  0.00    -0.004 A 
HETATM   10  S1  UNL     1      -0.934  -0.513  -1.564  1.00  0.00    -0.058 SA
HETATM   11  C10 UNL     1      -3.517   0.528  -1.778  1.00  0.00     0.047 C 
HETATM   12  C11 UNL     1      -4.402   1.351  -0.877  1.00  0.00     0.005 C 
HETATM   13  C12 UNL     1      -4.944   0.485   0.261  1.00  0.00     0.005 C 
HETATM   14  C13 UNL     1      -3.845   0.110   1.181  1.00  0.00     0.043 C 
ENDROOT
BRANCH   1  15
HETATM   15  N1  UNL     1       1.346  -1.546  -0.725  1.00  0.00    -0.370 N 
ATOM     16  H1  UNL     1       1.652  -1.489  -1.696  1.00  0.00     0.161 HD
BRANCH  15  17
HETATM   17  C5  UNL     1       2.232  -2.064   0.248  1.00  0.00     0.121 C 
BRANCH  17  18
HETATM   18  C4  UNL     1       2.980  -0.889   0.888  1.00  0.00     0.020 C 
BRANCH  18  19
HETATM   19  C3  UNL     1       3.767  -0.140  -0.193  1.00  0.00     0.001 C 
BRANCH  19  20
HETATM   20  C2  UNL     1       4.477   1.005   0.519  1.00  0.00    -0.004 C 
HETATM   21  C1  UNL     1       5.292   1.818  -0.472  1.00  0.00     0.005 C 
ENDBRANCH  19  20
ENDBRANCH  18  19
ENDBRANCH  17  18
ENDBRANCH  15  17
ENDBRANCH   1  15
TORSDOF 5
