REMARK  5 active torsions:
REMARK  status: ('A' for Active; 'I' for Inactive)
REMARK    1  A    between atoms: C2_2  and  C3_3 
REMARK    2  A    between atoms: C2_2  and  C9_9 
REMARK    3  A    between atoms: C10_12  and  O1_13 
REMARK    4  A    between atoms: C11_15  and  C12_16 
REMARK    5  A    between atoms: C12_16  and  C14_18 
ROOT
HETATM    1  C9  UNL     1      -0.490   0.090  -0.224  1.00  0.00     0.132 C 
HETATM    2  N1  UNL     1      -0.872   0.455  -1.594  1.00  0.00    -0.136 NA
HETATM    3  N2  UNL     1      -1.321  -0.766  -2.143  1.00  0.00    -0.115 NA
HETATM    4  C10 UNL     1      -2.205  -1.322  -1.122  1.00  0.00     0.233 C 
HETATM    5  C11 UNL     1      -1.638  -0.769   0.162  1.00  0.00     0.060 C 
ENDROOT
BRANCH   1   6
HETATM    6  C2  UNL     1       0.782  -0.659  -0.179  1.00  0.00    -0.064 C 
HETATM    7  C1  UNL     1       0.800  -1.964  -0.201  1.00  0.00     0.016 C 
BRANCH   6   8
HETATM    8  C3  UNL     1       2.107   0.045  -0.157  1.00  0.00     0.015 C 
HETATM    9  C4  UNL     1       2.225   1.199  -1.076  1.00  0.00     0.009 C 
HETATM   10  C5  UNL     1       3.527   1.925  -0.697  1.00  0.00     0.001 C 
HETATM   11  C6  UNL     1       4.680   1.006  -0.909  1.00  0.00     0.000 C 
HETATM   12  C7  UNL     1       4.586  -0.244  -0.063  1.00  0.00     0.001 C 
HETATM   13  C8  UNL     1       3.233  -0.912  -0.196  1.00  0.00     0.009 C 
ENDBRANCH   6   8
ENDBRANCH   1   6
BRANCH   5  14
HETATM   14  C12 UNL     1      -2.774   0.046   0.787  1.00  0.00    -0.009 C 
HETATM   15  C13 UNL     1      -3.867  -0.961   1.125  1.00  0.00     0.010 C 
BRANCH  14  16
HETATM   16  C14 UNL     1      -2.380   0.756   2.035  1.00  0.00     0.000 C 
HETATM   17  C15 UNL     1      -3.625   1.509   2.517  1.00  0.00     0.005 C 
ENDBRANCH  14  16
ENDBRANCH   5  14
BRANCH   4  18
HETATM   18  O1  UNL     1      -3.498  -0.829  -1.396  1.00  0.00    -0.378 OA
ATOM     19  H1  UNL     1      -4.073  -1.191  -0.732  1.00  0.00     0.211 HD
ENDBRANCH   4  18
TORSDOF 5
