REMARK  5 active torsions:
REMARK  status: ('A' for Active; 'I' for Inactive)
REMARK    1  A    between atoms: C3_4  and  C4_5 
REMARK    2  A    between atoms: C4_5  and  C5_6 
REMARK       I    between atoms: N3_14  and  C10_15 
REMARK    3  A    between atoms: C10_15  and  C11_17 
REMARK    4  A    between atoms: C11_17  and  N4_18 
REMARK       I    between atoms: N4_18  and  C12_20 
REMARK    5  A    between atoms: C12_20  and  C13_22 
ROOT
HETATM    1  N1  UNL     1      -2.022  -1.119  -2.932  1.00  0.00    -0.195 NA
HETATM    2  C1  UNL     1      -1.699  -0.177  -2.320  1.00  0.00     0.087 C 
HETATM    3  C2  UNL     1      -1.277   0.996  -1.576  1.00  0.00     0.218 A 
HETATM    4  C3  UNL     1      -1.600   1.245  -0.223  1.00  0.00     0.131 A 
HETATM    5  N3  UNL     1      -0.280   0.680  -0.503  1.00  0.00    -0.323 N 
HETATM    6  C10 UNL     1       0.997   0.188  -0.139  1.00  0.00     0.239 C 
HETATM    7  O1  UNL     1       1.314   0.161   1.060  1.00  0.00    -0.271 OA
ENDROOT
BRANCH   4   8
HETATM    8  C4  UNL     1      -2.503   0.422   0.630  1.00  0.00     0.082 C 
BRANCH   8   9
HETATM    9  C5  UNL     1      -3.893   0.309   0.143  1.00  0.00     0.003 C 
HETATM   10  N2  UNL     1      -4.366  -0.839  -0.107  1.00  0.00    -0.395 N 
HETATM   11  C6  UNL     1      -5.682  -1.107  -0.580  1.00  0.00     0.119 C 
ATOM     12  H2  UNL     1      -3.752  -1.640   0.043  1.00  0.00     0.159 HD
HETATM   13  C7  UNL     1      -6.588   0.009  -0.117  1.00  0.00     0.021 C 
HETATM   14  C8  UNL     1      -6.026   1.285  -0.707  1.00  0.00     0.027 C 
HETATM   15  C9  UNL     1      -4.700   1.534  -0.036  1.00  0.00     0.127 C 
HETATM   16 CL1  UNL     1      -5.000   2.223   1.585  1.00  0.00    -0.119 Cl
ENDBRANCH   8   9
ENDBRANCH   4   8
BRANCH   6  17
HETATM   17  C11 UNL     1       1.918  -0.280  -1.182  1.00  0.00     0.225 C 
BRANCH  17  18
HETATM   18  N4  UNL     1       3.161  -0.702  -0.577  1.00  0.00    -0.348 N 
HETATM   19  C12 UNL     1       3.973   0.214   0.106  1.00  0.00     0.252 C 
HETATM   20  O2  UNL     1       3.618   1.426   0.186  1.00  0.00    -0.268 OA
ATOM     21  H4  UNL     1       3.451  -1.677  -0.648  1.00  0.00     0.163 HD
BRANCH  19  22
HETATM   22  C13 UNL     1       5.216  -0.221   0.722  1.00  0.00     0.033 A 
HETATM   23  C14 UNL     1       5.864   0.668   1.570  1.00  0.00     0.019 A 
HETATM   24  C15 UNL     1       7.038   0.263   2.148  1.00  0.00     0.026 A 
HETATM   25  C16 UNL     1       7.578  -1.001   1.901  1.00  0.00     0.055 A 
HETATM   26 CL2  UNL     1       9.079  -1.507   2.646  1.00  0.00    -0.083 Cl
HETATM   27  C17 UNL     1       6.924  -1.857   1.065  1.00  0.00     0.056 A 
HETATM   28 CL3  UNL     1       7.544  -3.465   0.707  1.00  0.00    -0.083 Cl
HETATM   29  C18 UNL     1       5.737  -1.465   0.472  1.00  0.00     0.042 A 
ENDBRANCH  19  22
ENDBRANCH  17  18
ENDBRANCH   6  17
TORSDOF 5
