REMARK  20 active torsions:
REMARK  status: ('A' for Active; 'I' for Inactive)
REMARK    1  A    between atoms: C2_2  and  C3_3 
REMARK    2  A    between atoms: C3_3  and  N1_4 
REMARK    3  A    between atoms: C3_3  and  C10_15 
REMARK       I    between atoms: N1_4  and  C4_5 
REMARK    4  A    between atoms: C4_5  and  C5_7 
REMARK    5  A    between atoms: C5_7  and  N2_8 
REMARK    6  A    between atoms: C5_7  and  C7_12 
REMARK       I    between atoms: N2_8  and  C6_9 
REMARK       I    between atoms: C10_15  and  N4_17 
REMARK    7  A    between atoms: N4_17  and  C11_19 
REMARK    8  A    between atoms: C11_19  and  C12_20 
REMARK    9  A    between atoms: C12_20  and  O4_21 
REMARK   10  A    between atoms: C12_20  and  C13_23 
REMARK   11  A    between atoms: C13_23  and  O5_24 
REMARK   12  A    between atoms: C13_23  and  C14_26 
REMARK   13  A    between atoms: C14_26  and  C16_28 
REMARK   14  A    between atoms: C21_33  and  C22_34 
REMARK   15  A    between atoms: C22_34  and  O6_35 
REMARK   16  A    between atoms: C22_34  and  N5_37 
REMARK   17  A    between atoms: N5_37  and  C23_39 
REMARK   18  A    between atoms: C25_43  and  O7_44 
REMARK   19  A    between atoms: O7_44  and  C26_45 
REMARK   20  A    between atoms: C26_45  and  C27_47 
ROOT
HETATM    1  C11 UNL     1      -1.399   0.227  -0.764  1.00  0.00     0.152 A 
HETATM    2  C21 UNL     1      -1.564   0.436  -2.146  1.00  0.00     0.094 A 
HETATM    3  N6  UNL     1      -2.609   1.139  -2.016  1.00  0.00    -0.358 N 
ATOM      4  H6  UNL     1      -3.228   1.606  -2.679  1.00  0.00     0.162 HD
HETATM    5  C25 UNL     1      -2.596   1.033  -0.616  1.00  0.00     0.268 A 
ENDROOT
BRANCH   1   6
HETATM    6  N4  UNL     1      -0.298   0.770  -0.025  1.00  0.00    -0.337 N 
HETATM    7  C10 UNL     1       1.017   0.351   0.009  1.00  0.00     0.258 C 
HETATM    8  O3  UNL     1       1.547  -0.554  -0.640  1.00  0.00    -0.270 OA
ATOM      9  H4  UNL     1      -0.516   1.579   0.557  1.00  0.00     0.164 HD
BRANCH   7  10
HETATM   10  C3  UNL     1       2.014   1.031   0.957  1.00  0.00     0.280 C 
BRANCH  10  11
HETATM   11  C2  UNL     1       1.924   0.261   2.270  1.00  0.00     0.011 C 
HETATM   12  C1  UNL     1       2.187   0.761   3.445  1.00  0.00     0.010 C 
ENDBRANCH  10  11
BRANCH  10  13
HETATM   13  N1  UNL     1       3.318   1.104   0.497  1.00  0.00    -0.393 NA
HETATM   14  C4  UNL     1       4.594   1.199   0.029  1.00  0.00     0.324 C 
HETATM   15  O1  UNL     1       5.015   2.034  -0.747  1.00  0.00    -0.254 OA
BRANCH  14  16
HETATM   16  C5  UNL     1       5.674   0.188   0.540  1.00  0.00     0.278 C 
BRANCH  16  17
HETATM   17  N2  UNL     1       6.686   0.905   1.125  1.00  0.00    -0.382 NA
HETATM   18  C6  UNL     1       7.715   1.615   1.722  1.00  0.00     0.401 C 
HETATM   19  N3  UNL     1       7.679   3.094   1.644  1.00  0.00    -0.025 NA
HETATM   20  O2  UNL     1       8.710   1.250   2.358  1.00  0.00    -0.234 OA
ENDBRANCH  16  17
BRANCH  16  21
HETATM   21  C7  UNL     1       6.188  -0.471  -0.776  1.00  0.00     0.024 C 
HETATM   22  C8  UNL     1       7.149  -1.630  -0.415  1.00  0.00     0.013 C 
HETATM   23  C9  UNL     1       7.124   0.497  -1.527  1.00  0.00     0.013 C 
ENDBRANCH  16  21
ENDBRANCH  14  16
ENDBRANCH  10  13
ENDBRANCH   7  10
ENDBRANCH   1   6
BRANCH   1  24
HETATM   24  C12 UNL     1      -1.531  -1.224  -0.258  1.00  0.00     0.186 C 
BRANCH  24  25
HETATM   25  O4  UNL     1      -1.759  -1.190   1.092  1.00  0.00    -0.390 OA
ATOM     26  H4  UNL     1      -1.840  -2.084   1.404  1.00  0.00     0.210 HD
ENDBRANCH  24  25
BRANCH  24  27
HETATM   27  C13 UNL     1      -2.472  -2.134  -0.964  1.00  0.00     0.154 C 
BRANCH  27  28
HETATM   28  O5  UNL     1      -3.765  -1.827  -0.669  1.00  0.00    -0.393 OA
ATOM     29  H5  UNL     1      -4.366  -2.408  -1.120  1.00  0.00     0.210 HD
ENDBRANCH  27  28
BRANCH  27  30
HETATM   30  C14 UNL     1      -2.056  -3.567  -0.725  1.00  0.00     0.017 C 
HETATM   31  C15 UNL     1      -0.647  -3.858  -1.186  1.00  0.00     0.013 C 
BRANCH  30  32
HETATM   32  C16 UNL     1      -2.481  -4.207   0.538  1.00  0.00    -0.008 C 
HETATM   33  C17 UNL     1      -3.982  -4.366   0.723  1.00  0.00     0.005 C 
HETATM   34  C18 UNL     1      -4.156  -5.913   0.535  1.00  0.00     0.000 C 
HETATM   35  C19 UNL     1      -2.980  -6.453   1.303  1.00  0.00     0.000 C 
HETATM   36  C20 UNL     1      -1.845  -5.487   0.932  1.00  0.00     0.005 C 
ENDBRANCH  30  32
ENDBRANCH  27  30
ENDBRANCH  24  27
ENDBRANCH   1  24
BRANCH   2  37
HETATM   37  C22 UNL     1      -0.987   0.105  -3.468  1.00  0.00     0.161 C 
BRANCH  37  38
HETATM   38  O6  UNL     1      -1.590   0.607  -4.526  1.00  0.00    -0.345 OA
ATOM     39  H6  UNL     1      -1.220   0.395  -5.375  1.00  0.00     0.219 HD
ENDBRANCH  37  38
BRANCH  37  40
HETATM   40  N5  UNL     1       0.116  -0.663  -3.782  1.00  0.00    -0.370 N 
ATOM     41  H5  UNL     1       0.687  -1.098  -3.057  1.00  0.00     0.161 HD
BRANCH  40  42
HETATM   42  C23 UNL     1       0.431  -0.825  -5.211  1.00  0.00     0.117 C 
HETATM   43  C24 UNL     1      -0.740  -1.508  -5.891  1.00  0.00     0.026 C 
ENDBRANCH  40  42
ENDBRANCH  37  40
ENDBRANCH   2  37
BRANCH   5  44
HETATM   44  O7  UNL     1      -2.622   2.379  -0.116  1.00  0.00    -0.292 OA
BRANCH  44  45
HETATM   45  C26 UNL     1      -3.770   2.795   0.528  1.00  0.00     0.265 C 
HETATM   46  O8  UNL     1      -4.740   1.952   0.659  1.00  0.00    -0.265 OA
BRANCH  45  47
HETATM   47  C27 UNL     1      -4.031   4.140   1.082  1.00  0.00     0.085 C 
HETATM   48  C28 UNL     1      -2.903   4.751   1.826  1.00  0.00     0.014 C 
HETATM   49  C29 UNL     1      -3.216   6.223   1.982  1.00  0.00     0.001 C 
HETATM   50  C30 UNL     1      -4.612   6.409   2.557  1.00  0.00     0.000 C 
HETATM   51  C31 UNL     1      -5.130   5.084   3.041  1.00  0.00     0.001 C 
HETATM   52  C32 UNL     1      -5.327   4.145   1.893  1.00  0.00     0.014 C 
ENDBRANCH  45  47
ENDBRANCH  44  45
ENDBRANCH   5  44
TORSDOF 20
