REMARK  5 active torsions:
REMARK  status: ('A' for Active; 'I' for Inactive)
REMARK    1  A    between atoms: C1_2  and  C2_3 
REMARK    2  A    between atoms: C1_2  and  C14_16 
REMARK    3  A    between atoms: C2_3  and  O2_4 
REMARK    4  A    between atoms: O2_4  and  C3_5 
REMARK    5  A    between atoms: C16_20  and  C17_21 
ROOT
HETATM    1  C14 UNL     1       1.806  -0.268  -0.313  1.00  0.00     0.068 A 
HETATM    2  C15 UNL     1       1.989   0.845  -1.102  1.00  0.00     0.106 A 
HETATM    3  N1  UNL     1       3.311   1.081  -1.231  1.00  0.00    -0.365 N 
ATOM      4  H1  UNL     1       3.718   1.848  -1.766  1.00  0.00     0.165 HD
HETATM    5  C16 UNL     1       4.015   0.158  -0.551  1.00  0.00     0.053 A 
HETATM    6  C22 UNL     1       3.072  -0.680   0.018  1.00  0.00     0.154 A 
HETATM    7  F1  UNL     1       3.386  -1.747   0.786  1.00  0.00    -0.203 F 
ENDROOT
BRANCH   1   8
HETATM    8  C1  UNL     1       0.534  -0.865   0.083  1.00  0.00     0.187 C 
HETATM    9  O1  UNL     1       0.561  -1.907   0.820  1.00  0.00    -0.290 OA
BRANCH   8  10
HETATM   10  C2  UNL     1      -0.773  -0.298  -0.344  1.00  0.00     0.252 C 
BRANCH  10  11
HETATM   11  O2  UNL     1      -1.791  -1.050   0.195  1.00  0.00    -0.372 OA
BRANCH  11  12
HETATM   12  C3  UNL     1      -3.055  -0.649  -0.109  1.00  0.00     0.066 C 
HETATM   13  C4  UNL     1      -3.315   0.756   0.356  1.00  0.00     0.043 C 
HETATM   14  C5  UNL     1      -4.765   1.130   0.330  1.00  0.00    -0.011 C 
HETATM   15  C6  UNL     1      -5.476   0.707   1.574  1.00  0.00     0.005 C 
HETATM   16  C12 UNL     1      -5.427   0.678  -0.942  1.00  0.00     0.009 C 
HETATM   17  C7  UNL     1      -4.734  -0.282   2.402  1.00  0.00     0.001 C 
HETATM   18  C8  UNL     1      -4.426  -1.579   1.798  1.00  0.00     0.007 C 
HETATM   19  C9  UNL     1      -4.021  -1.669   0.401  1.00  0.00     0.021 C 
HETATM   20  C10 UNL     1      -5.206  -1.704  -0.516  1.00  0.00     0.012 C 
HETATM   21  C11 UNL     1      -4.916  -0.596  -1.500  1.00  0.00    -0.011 C 
HETATM   22  C13 UNL     1      -3.388  -0.646  -1.590  1.00  0.00     0.043 C 
ENDBRANCH  11  12
ENDBRANCH  10  11
ENDBRANCH   8  10
ENDBRANCH   1   8
BRANCH   5  23
HETATM   23  C17 UNL     1       5.513   0.042  -0.418  1.00  0.00     0.042 C 
HETATM   24  C18 UNL     1       6.192   1.221  -1.017  1.00  0.00     0.038 C 
HETATM   25  C19 UNL     1       7.499   1.582  -0.407  1.00  0.00     0.233 C 
HETATM   26  N2  UNL     1       8.080   0.438   0.291  1.00  0.00    -0.075 N 
HETATM   27  C20 UNL     1       7.202   0.240   1.453  1.00  0.00     0.233 C 
ATOM     28  H22 UNL     1       8.197  -0.392  -0.291  1.00  0.00     0.277 HD
ATOM     29  H21 UNL     1       9.066   0.549   0.526  1.00  0.00     0.277 HD
HETATM   30  C21 UNL     1       5.914  -0.322   0.968  1.00  0.00     0.038 C 
ENDBRANCH   5  23
TORSDOF 5
