REMARK  6 active torsions:
REMARK  status: ('A' for Active; 'I' for Inactive)
REMARK    1  A    between atoms: C4_4  and  O1_5 
REMARK    2  A    between atoms: C4_4  and  C5_7 
REMARK    3  A    between atoms: C5_7  and  C6_8 
REMARK    4  A    between atoms: C6_8  and  C7_9 
REMARK    5  A    between atoms: C7_9  and  C8_10 
REMARK    6  A    between atoms: C13_17  and  O3_19 
ROOT
HETATM    1  C1  UNL     1      -1.230   2.262  -1.797  1.00  0.00     0.010 C 
HETATM    2  C2  UNL     1      -0.773   1.070  -0.908  1.00  0.00    -0.007 C 
HETATM    3  C3  UNL     1       0.001   0.194  -1.787  1.00  0.00     0.046 C 
HETATM    4  C4  UNL     1       1.073  -0.663  -1.203  1.00  0.00     0.076 C 
HETATM    5  C9  UNL     1       0.685  -1.718  -0.298  1.00  0.00     0.007 C 
HETATM    6  C10 UNL     1      -0.305  -2.023   0.510  1.00  0.00    -0.015 C 
HETATM    7  C11 UNL     1      -1.562  -1.473   0.944  1.00  0.00     0.089 C 
HETATM    8  C12 UNL     1      -1.457  -0.469   2.054  1.00  0.00     0.169 C 
HETATM    9  O2  UNL     1      -1.298  -0.640   3.249  1.00  0.00    -0.294 OA
HETATM   10  C13 UNL     1      -1.585   0.890   1.455  1.00  0.00     0.119 C 
HETATM   11  C14 UNL     1      -2.633   1.730   2.116  1.00  0.00     0.055 C 
HETATM   12  C15 UNL     1      -1.845   0.650  -0.042  1.00  0.00     0.040 C 
HETATM   13  C16 UNL     1      -2.392  -0.722  -0.036  1.00  0.00    -0.027 C 
HETATM   14  C17 UNL     1      -3.786  -0.639   0.643  1.00  0.00     0.016 C 
HETATM   15  C18 UNL     1      -2.652  -1.397  -1.321  1.00  0.00     0.016 C 
ENDROOT
BRANCH   4  16
HETATM   16  O1  UNL     1       1.649  -1.307  -2.342  1.00  0.00    -0.386 OA
ATOM     17  H1  UNL     1       2.332  -1.853  -1.970  1.00  0.00     0.211 HD
ENDBRANCH   4  16
BRANCH   4  18
HETATM   18  C5  UNL     1       2.235   0.187  -0.694  1.00  0.00     0.042 C 
BRANCH  18  19
HETATM   19  C6  UNL     1       3.315  -0.643  -0.107  1.00  0.00     0.004 C 
BRANCH  19  20
HETATM   20  C7  UNL     1       4.419   0.270   0.369  1.00  0.00     0.011 C 
BRANCH  20  21
HETATM   21  C8  UNL     1       5.564  -0.534   0.986  1.00  0.00     0.085 C 
HETATM   22 BR1  UNL     1       6.939   0.661   1.575  1.00  0.00    -0.097 Br
ENDBRANCH  20  21
ENDBRANCH  19  20
ENDBRANCH  18  19
ENDBRANCH   4  18
BRANCH  10  23
HETATM   23  O3  UNL     1      -0.370   1.519   1.698  1.00  0.00    -0.382 OA
ATOM     24  H3  UNL     1      -0.452   2.385   1.316  1.00  0.00     0.211 HD
ENDBRANCH  10  23
TORSDOF 6
