REMARK  2 active torsions:
REMARK  status: ('A' for Active; 'I' for Inactive)
REMARK    1  A    between atoms: C11_17  and  N3_18 
REMARK       I    between atoms: N3_18  and  C12_20 
REMARK    2  A    between atoms: C12_20  and  C13_22 
ROOT
HETATM    1  N1  UNL     1      -8.195  -1.726  -0.741  1.00  0.00    -0.191 NA
HETATM    2  C1  UNL     1      -7.075  -1.462  -0.626  1.00  0.00     0.099 C 
HETATM    3  C2  UNL     1      -5.680  -1.130  -0.458  1.00  0.00     0.046 A 
HETATM    4  C3  UNL     1      -4.700  -2.048  -0.814  1.00  0.00     0.023 A 
HETATM    5  C4  UNL     1      -3.364  -1.770  -0.669  1.00  0.00     0.015 A 
HETATM    6  C5  UNL     1      -3.006  -0.554  -0.159  1.00  0.00    -0.002 A 
HETATM    7  C6  UNL     1      -3.956   0.417   0.217  1.00  0.00     0.092 A 
HETATM    8  C7  UNL     1      -5.290   0.091   0.052  1.00  0.00     0.048 A 
HETATM    9  S1  UNL     1      -3.723   2.026   0.852  1.00  0.00     0.260 S 
HETATM   10  O1  UNL     1      -4.035   2.012   2.331  1.00  0.00    -0.200 OA
HETATM   11  O2  UNL     1      -4.668   2.993   0.152  1.00  0.00    -0.200 OA
HETATM   12  N2  UNL     1      -2.154   2.627   0.658  1.00  0.00    -0.311 N 
ATOM     13  H2  UNL     1      -1.770   3.320   1.300  1.00  0.00     0.172 HD
HETATM   14  C8  UNL     1      -1.388   2.129  -0.437  1.00  0.00     0.171 C 
HETATM   15  C9  UNL     1      -0.827   0.789  -0.202  1.00  0.00    -0.026 A 
HETATM   16  C10 UNL     1       0.551   0.742  -0.093  1.00  0.00     0.039 A 
HETATM   17  C11 UNL     1       1.218  -0.428   0.157  1.00  0.00     0.035 A 
HETATM   18  C18 UNL     1       0.420  -1.578   0.299  1.00  0.00     0.030 A 
HETATM   19  C19 UNL     1      -0.951  -1.587   0.201  1.00  0.00     0.015 A 
HETATM   20  C20 UNL     1      -1.562  -0.393  -0.052  1.00  0.00    -0.016 A 
ENDROOT
BRANCH  17  21
HETATM   21  N3  UNL     1       2.631  -0.560   0.269  1.00  0.00    -0.323 N 
HETATM   22  C12 UNL     1       3.594   0.403  -0.035  1.00  0.00     0.256 C 
HETATM   23  O3  UNL     1       3.348   1.569  -0.467  1.00  0.00    -0.267 OA
ATOM     24  H3  UNL     1       2.978  -1.457   0.609  1.00  0.00     0.169 HD
BRANCH  22  25
HETATM   25  C13 UNL     1       5.026   0.048   0.160  1.00  0.00     0.035 A 
HETATM   26  C14 UNL     1       5.896   1.112   0.302  1.00  0.00     0.034 A 
HETATM   27  C15 UNL     1       7.251   0.866   0.480  1.00  0.00     0.088 A 
HETATM   28  N4  UNL     1       7.678  -0.398   0.511  1.00  0.00    -0.375 N 
HETATM   29  C16 UNL     1       6.836  -1.444   0.374  1.00  0.00     0.088 A 
ATOM     30  H4  UNL     1       8.673  -0.580   0.643  1.00  0.00     0.164 HD
HETATM   31  C17 UNL     1       5.471  -1.250   0.193  1.00  0.00     0.034 A 
ENDBRANCH  22  25
ENDBRANCH  17  21
TORSDOF 2
