REMARK  4 active torsions:
REMARK  status: ('A' for Active; 'I' for Inactive)
REMARK    1  A    between atoms: C1_2  and  C2_4 
REMARK    2  A    between atoms: N1_8  and  C6_9 
REMARK    3  A    between atoms: C6_9  and  C7_14 
REMARK    4  A    between atoms: N2_10  and  O3_12 
ROOT
HETATM    1  C6  UNL     1       0.022  -0.554   0.135  1.00  0.00     0.114 C 
HETATM    2  N2  UNL     1      -0.044  -1.088   1.301  1.00  0.00    -0.256 N 
ATOM      3  H2  UNL     1      -0.963  -1.422   1.590  1.00  0.00     0.195 HD
ENDROOT
BRANCH   1   4
HETATM    4  N1  UNL     1       1.232  -0.058  -0.368  1.00  0.00    -0.367 N 
HETATM    5  C5  UNL     1       1.778  -0.637  -1.571  1.00  0.00     0.124 C 
HETATM    6  C4  UNL     1       3.190  -1.076  -1.219  1.00  0.00     0.021 C 
HETATM    7  C3  UNL     1       3.971   0.159  -0.936  1.00  0.00     0.019 C 
HETATM    8  C2  UNL     1       3.384   1.105   0.044  1.00  0.00     0.105 C 
HETATM    9  C14 UNL     1       1.923   1.006   0.293  1.00  0.00     0.139 C 
BRANCH   8  10
HETATM   10  C1  UNL     1       4.142   0.986   1.336  1.00  0.00     0.178 C 
HETATM   11  O1  UNL     1       4.708   1.991   1.830  1.00  0.00    -0.648 OA
HETATM   12  O2  UNL     1       4.175  -0.263   1.926  1.00  0.00    -0.648 OA
ENDBRANCH   8  10
ENDBRANCH   1   4
BRANCH   1  13
HETATM   13  C7  UNL     1      -1.266  -0.503  -0.670  1.00  0.00     0.124 C 
HETATM   14  C8  UNL     1      -1.631   0.992  -0.947  1.00  0.00     0.050 C 
HETATM   15  C9  UNL     1      -2.815   1.444  -0.095  1.00  0.00    -0.029 C 
HETATM   16  C10 UNL     1      -4.102   0.819  -0.148  1.00  0.00    -0.030 C 
HETATM   17  C11 UNL     1      -4.504  -0.343   0.759  1.00  0.00     0.038 C 
HETATM   18  C12 UNL     1      -3.545  -1.571   0.577  1.00  0.00     0.084 C 
HETATM   19  C13 UNL     1      -2.393  -1.074  -0.051  1.00  0.00    -0.170 C 
ENDBRANCH   1  13
BRANCH   2  20
HETATM   20  O3  UNL     1       0.951  -1.259   2.185  1.00  0.00    -0.288 OA
ATOM     21  H3  UNL     1       0.902  -1.654   3.048  1.00  0.00     0.244 HD
ENDBRANCH   2  20
TORSDOF 4
