REMARK  12 active torsions:
REMARK  status: ('A' for Active; 'I' for Inactive)
REMARK    1  A    between atoms: C2_2  and  C3_3 
REMARK    2  A    between atoms: C3_3  and  N1_4 
REMARK    3  A    between atoms: C6_9  and  N3_10 
REMARK    4  A    between atoms: N3_10  and  C7_12 
REMARK    5  A    between atoms: C7_12  and  C8_13 
REMARK    6  A    between atoms: C8_13  and  C9_14 
REMARK    7  A    between atoms: C9_14  and  N4_15 
REMARK    8  A    between atoms: C12_23  and  C13_24 
REMARK    9  A    between atoms: C13_24  and  O1_25 
REMARK   10  A    between atoms: O1_25  and  C14_26 
REMARK   11  A    between atoms: C14_26  and  C15_27 
REMARK   12  A    between atoms: C18_30  and  C19_31 
ROOT
HETATM    1  N1  UNL     1      -0.091  -2.549  -0.460  1.00  0.00    -0.284 N 
HETATM    2  N2  UNL     1      -1.323  -2.341   0.027  1.00  0.00    -0.295 N 
ATOM      3  H2  UNL     1      -1.880  -3.049   0.505  1.00  0.00     0.187 HD
HETATM    4  C4  UNL     1      -1.721  -1.102  -0.192  1.00  0.00     0.079 A 
HETATM    5  C5  UNL     1      -2.874  -0.361   0.092  1.00  0.00     0.064 A 
HETATM    6  C6  UNL     1      -2.997   0.958  -0.275  1.00  0.00     0.045 A 
HETATM    7  C10 UNL     1      -1.931   1.525  -0.937  1.00  0.00     0.117 A 
HETATM    8  N5  UNL     1      -0.812   0.827  -1.218  1.00  0.00    -0.360 N 
ATOM      9  H5  UNL     1      -0.040   1.277  -1.709  1.00  0.00     0.165 HD
HETATM   10  C11 UNL     1      -0.714  -0.466  -0.850  1.00  0.00     0.091 A 
HETATM   11  C12 UNL     1       0.329  -1.428  -1.010  1.00  0.00     0.102 A 
ENDROOT
BRANCH  11  12
HETATM   12  C13 UNL     1       1.501  -1.036  -1.774  1.00  0.00     0.168 C 
BRANCH  12  13
HETATM   13  O1  UNL     1       2.584  -1.722  -1.995  1.00  0.00    -0.356 OA
BRANCH  13  14
HETATM   14  C14 UNL     1       3.562  -1.989  -1.117  1.00  0.00     0.213 C 
BRANCH  14  15
HETATM   15  C15 UNL     1       4.205  -0.717  -0.582  1.00  0.00    -0.034 A 
HETATM   16  C16 UNL     1       3.757  -0.127   0.579  1.00  0.00     0.010 A 
HETATM   17  C17 UNL     1       4.332   1.028   1.068  1.00  0.00     0.017 A 
HETATM   18  C18 UNL     1       5.383   1.640   0.413  1.00  0.00     0.029 A 
HETATM   19  C20 UNL     1       5.829   1.045  -0.750  1.00  0.00     0.017 A 
HETATM   20  C21 UNL     1       5.251  -0.112  -1.239  1.00  0.00     0.010 A 
BRANCH  18  21
HETATM   21  C19 UNL     1       6.000   2.861   0.918  1.00  0.00     0.264 C 
HETATM   22  N6  UNL     1       7.066   3.470   0.224  1.00  0.00    -0.057 NA
HETATM   23  O2  UNL     1       5.574   3.374   1.985  1.00  0.00    -0.271 OA
ENDBRANCH  18  21
ENDBRANCH  14  15
ENDBRANCH  13  14
ENDBRANCH  12  13
ENDBRANCH  11  12
BRANCH   1  24
HETATM   24  C3  UNL     1       0.538  -3.857  -0.293  1.00  0.00     0.176 C 
BRANCH  24  25
HETATM   25  C2  UNL     1       1.140  -4.035   1.056  1.00  0.00    -0.015 C 
HETATM   26  C1  UNL     1       1.097  -3.089   1.987  1.00  0.00     0.008 C 
ENDBRANCH  24  25
ENDBRANCH   1  24
BRANCH   6  27
HETATM   27  N3  UNL     1      -4.162   1.726   0.005  1.00  0.00    -0.389 N 
ATOM     28  H3  UNL     1      -4.217   2.707  -0.269  1.00  0.00     0.159 HD
BRANCH  27  29
HETATM   29  C7  UNL     1      -5.264   1.087   0.685  1.00  0.00     0.121 C 
BRANCH  29  30
HETATM   30  C8  UNL     1      -6.428   2.015   0.915  1.00  0.00     0.047 C 
BRANCH  30  31
HETATM   31  C9  UNL     1      -6.929   2.507  -0.418  1.00  0.00     0.231 C 
BRANCH  31  32
HETATM   32  N4  UNL     1      -7.351   1.361  -1.220  1.00  0.00    -0.079 N 
ATOM     33  H43 UNL     1      -6.615   0.662  -1.316  1.00  0.00     0.274 HD
ATOM     34  H42 UNL     1      -8.037   0.781  -0.737  1.00  0.00     0.274 HD
ATOM     35  H41 UNL     1      -7.690   1.694  -2.122  1.00  0.00     0.274 HD
ENDBRANCH  31  32
ENDBRANCH  30  31
ENDBRANCH  29  30
ENDBRANCH  27  29
ENDBRANCH   6  27
TORSDOF 12
