REMARK  9 active torsions:
REMARK  status: ('A' for Active; 'I' for Inactive)
REMARK    1  A    between atoms: C2_2  and  C4_4 
REMARK    2  A    between atoms: C4_4  and  C5_5 
REMARK    3  A    between atoms: C4_4  and  N1_8 
REMARK    4  A    between atoms: C6_9  and  C7_10 
REMARK    5  A    between atoms: C7_10  and  C8_11 
REMARK    6  A    between atoms: C8_11  and  C11_14 
REMARK       I    between atoms: C11_14  and  N2_16 
REMARK    7  A    between atoms: N3_19  and  C14_20 
REMARK    8  A    between atoms: C23_31  and  N5_32 
REMARK    9  A    between atoms: N6_35  and  C26_36 
ROOT
HETATM    1  N1  UNL     1       1.346  -1.223   0.222  1.00  0.00    -0.319 N 
HETATM    2  C6  UNL     1       0.175  -0.612   0.428  1.00  0.00     0.086 A 
HETATM    3  N4  UNL     1       0.299   0.737   0.261  1.00  0.00    -0.344 N 
ATOM      4  H4  UNL     1      -0.445   1.427   0.362  1.00  0.00     0.167 HD
HETATM    5  C20 UNL     1       1.578   0.992  -0.060  1.00  0.00     0.060 A 
HETATM    6  C21 UNL     1       2.275   2.163  -0.340  1.00  0.00     0.034 A 
HETATM    7  C22 UNL     1       3.614   2.116  -0.642  1.00  0.00     0.031 A 
HETATM    8  C23 UNL     1       4.304   0.902  -0.675  1.00  0.00     0.032 A 
HETATM    9  C29 UNL     1       3.569  -0.240  -0.389  1.00  0.00     0.061 A 
HETATM   10  C30 UNL     1       2.224  -0.222  -0.083  1.00  0.00     0.065 A 
ENDROOT
BRANCH   2  11
HETATM   11  C7  UNL     1      -1.112  -1.216   0.756  1.00  0.00     0.095 C 
BRANCH  11  12
HETATM   12  C8  UNL     1      -2.047  -1.440  -0.407  1.00  0.00     0.040 C 
HETATM   13  C9  UNL     1      -1.488  -2.356  -1.469  1.00  0.00     0.025 C 
HETATM   14  C10 UNL     1      -3.324  -2.123   0.081  1.00  0.00     0.025 C 
BRANCH  12  15
HETATM   15  C11 UNL     1      -2.452  -0.157  -1.034  1.00  0.00     0.228 C 
HETATM   16  O3  UNL     1      -2.137  -0.040  -2.267  1.00  0.00    -0.273 OA
HETATM   17  N2  UNL     1      -3.124   0.907  -0.435  1.00  0.00    -0.348 N 
HETATM   18  C12 UNL     1      -3.422   2.090  -1.282  1.00  0.00     0.145 C 
HETATM   19  C19 UNL     1      -3.582   1.038   0.916  1.00  0.00     0.145 C 
HETATM   20  C13 UNL     1      -4.949   2.051  -1.430  1.00  0.00     0.137 C 
HETATM   21  N3  UNL     1      -5.557   2.065  -0.155  1.00  0.00    -0.402 N 
HETATM   22  C18 UNL     1      -4.699   2.072   0.965  1.00  0.00     0.137 C 
BRANCH  21  23
HETATM   23  C14 UNL     1      -6.853   1.530  -0.027  1.00  0.00     0.017 C 
HETATM   24  C15 UNL     1      -7.841   2.337  -0.882  1.00  0.00     0.037 C 
HETATM   25  C16 UNL     1      -7.009   0.090  -0.416  1.00  0.00     0.037 C 
HETATM   26  C17 UNL     1      -7.330   1.671   1.403  1.00  0.00     0.037 C 
ENDBRANCH  21  23
ENDBRANCH  12  15
ENDBRANCH  11  12
ENDBRANCH   2  11
BRANCH   1  27
HETATM   27  C4  UNL     1       1.712  -2.601   0.309  1.00  0.00     0.195 C 
BRANCH  27  28
HETATM   28  C2  UNL     1       2.472  -2.918   1.595  1.00  0.00     0.011 C 
HETATM   29  C1  UNL     1       1.727  -2.328   2.773  1.00  0.00     0.012 C 
HETATM   30  C3  UNL     1       2.509  -4.413   1.764  1.00  0.00     0.012 C 
ENDBRANCH  27  28
BRANCH  27  31
HETATM   31  C5  UNL     1       2.408  -3.160  -0.866  1.00  0.00     0.197 C 
HETATM   32  O1  UNL     1       3.398  -3.932  -0.746  1.00  0.00    -0.646 OA
HETATM   33  O2  UNL     1       1.995  -2.853  -2.142  1.00  0.00    -0.646 OA
ENDBRANCH  27  31
ENDBRANCH   1  27
BRANCH   8  34
HETATM   34  N5  UNL     1       5.675   0.840  -1.002  1.00  0.00    -0.378 N 
HETATM   35  C24 UNL     1       6.325   1.906  -1.760  1.00  0.00     0.143 C 
HETATM   36  C25 UNL     1       7.464   2.495  -0.994  1.00  0.00     0.145 C 
HETATM   37  N6  UNL     1       7.560   1.831   0.273  1.00  0.00    -0.356 N 
HETATM   38  C27 UNL     1       7.549   0.397   0.371  1.00  0.00     0.145 C 
HETATM   39  C28 UNL     1       6.554  -0.235  -0.618  1.00  0.00     0.143 C 
BRANCH  37  40
HETATM   40  C26 UNL     1       7.669   2.622   1.456  1.00  0.00     0.350 C 
HETATM   41  O4  UNL     1       7.757   2.101   2.612  1.00  0.00    -0.284 OA
ENDBRANCH  37  40
ENDBRANCH   8  34
TORSDOF 9
