REMARK  8 active torsions:
REMARK  status: ('A' for Active; 'I' for Inactive)
REMARK    1  A    between atoms: C3_5  and  C4_6 
REMARK    2  A    between atoms: N3_10  and  C6_11 
REMARK    3  A    between atoms: C6_11  and  C7_12 
REMARK    4  A    between atoms: C15_22  and  O1_23 
REMARK    5  A    between atoms: O1_23  and  C16_24 
REMARK    6  A    between atoms: C16_24  and  C17_25 
REMARK    7  A    between atoms: C17_25  and  N6_26 
REMARK    8  A    between atoms: C25_34  and  C26_35 
ROOT
HETATM    1  C7  UNL     1       2.818  -1.352   1.857  1.00  0.00     0.161 C 
HETATM    2  C8  UNL     1       1.842  -2.016   2.689  1.00  0.00     0.061 C 
HETATM    3  N4  UNL     1       1.061  -2.566   3.343  1.00  0.00    -0.197 NA
ENDROOT
BRANCH   1   4
HETATM    4  C6  UNL     1       2.282  -1.169   0.412  1.00  0.00     0.117 C 
HETATM    5  C9  UNL     1       1.663  -2.396  -0.113  1.00  0.00     0.309 C 
HETATM    6  N5  UNL     1       2.377  -3.582  -0.411  1.00  0.00     0.096 N 
HETATM    7  C10 UNL     1       2.068  -4.050  -1.795  1.00  0.00     0.277 C 
HETATM    8  C20 UNL     1       3.740  -3.311  -0.585  1.00  0.00     0.227 C 
HETATM    9  C11 UNL     1       3.351  -4.312  -2.499  1.00  0.00     0.016 C 
HETATM   10  C12 UNL     1       4.146  -3.031  -2.850  1.00  0.00     0.013 C 
HETATM   11  C21 UNL     1       4.216  -4.623  -1.259  1.00  0.00     0.042 C 
HETATM   12  C13 UNL     1       3.719  -2.260  -1.678  1.00  0.00     0.022 C 
HETATM   13  C14 UNL     1       4.341  -1.116  -1.093  1.00  0.00     0.041 C 
HETATM   14  C15 UNL     1       3.210  -0.368  -0.341  1.00  0.00     0.154 C 
BRANCH   4  15
HETATM   15  N3  UNL     1       1.098  -0.336   0.699  1.00  0.00    -0.288 N 
HETATM   16  N2  UNL     1       1.090   0.877   1.234  1.00  0.00    -0.308 N 
HETATM   17  C5  UNL     1      -0.129   1.367   1.390  1.00  0.00     0.122 A 
ATOM     18  H2  UNL     1       1.937   1.381   1.498  1.00  0.00     0.186 HD
HETATM   19  C4  UNL     1      -1.011   0.412   0.927  1.00  0.00     0.025 A 
HETATM   20  C22 UNL     1      -0.198  -0.620   0.511  1.00  0.00     0.126 A 
BRANCH  19  21
HETATM   21  C3  UNL     1      -2.464   0.487   0.885  1.00  0.00     0.045 A 
HETATM   22  N1  UNL     1      -3.152   1.564   1.279  1.00  0.00    -0.359 N 
HETATM   23  C2  UNL     1      -4.480   1.696   1.278  1.00  0.00     0.012 A 
ATOM     24  H1  UNL     1      -2.610   2.361   1.612  1.00  0.00     0.166 HD
HETATM   25  C1  UNL     1      -5.128   2.976   1.749  1.00  0.00     0.068 C 
HETATM   26  C25 UNL     1      -5.268   0.624   0.827  1.00  0.00    -0.032 A 
HETATM   27  C24 UNL     1      -4.619  -0.507   0.409  1.00  0.00     0.012 A 
HETATM   28  C23 UNL     1      -3.225  -0.573   0.439  1.00  0.00     0.031 A 
BRANCH  26  29
HETATM   29  C26 UNL     1      -6.707   0.761   0.807  1.00  0.00     0.024 C 
HETATM   30  C27 UNL     1      -7.384  -0.559   0.535  1.00  0.00     0.028 C 
HETATM   31  C28 UNL     1      -7.806  -0.749  -0.893  1.00  0.00     0.114 C 
HETATM   32  N7  UNL     1      -7.031  -0.043  -1.857  1.00  0.00    -0.421 N 
HETATM   33  C29 UNL     1      -6.708   1.308  -1.569  1.00  0.00     0.114 C 
ATOM     34  H7  UNL     1      -6.721  -0.491  -2.719  1.00  0.00     0.153 HD
HETATM   35  C30 UNL     1      -7.259   1.695  -0.237  1.00  0.00     0.028 C 
ENDBRANCH  26  29
ENDBRANCH  19  21
ENDBRANCH   4  15
BRANCH  14  36
HETATM   36  O1  UNL     1       3.815   0.572   0.489  1.00  0.00    -0.382 OA
BRANCH  36  37
HETATM   37  C16 UNL     1       3.899   1.843   0.011  1.00  0.00     0.187 C 
BRANCH  37  38
HETATM   38  C17 UNL     1       4.530   2.695   1.126  1.00  0.00     0.142 C 
BRANCH  38  39
HETATM   39  N6  UNL     1       4.674   4.052   0.749  1.00  0.00    -0.419 N 
HETATM   40  C18 UNL     1       5.623   4.353  -0.266  1.00  0.00     0.142 C 
HETATM   41  C19 UNL     1       4.593   4.982   1.832  1.00  0.00     0.142 C 
ENDBRANCH  38  39
ENDBRANCH  37  38
ENDBRANCH  36  37
ENDBRANCH  14  36
ENDBRANCH   1   4
TORSDOF 8
