REMARK  6 active torsions:
REMARK  status: ('A' for Active; 'I' for Inactive)
REMARK       I    between atoms: N2_8  and  C7_9 
REMARK       I    between atoms: C7_9  and  N3_11 
REMARK    1  A    between atoms: N3_11  and  C8_13 
REMARK    2  A    between atoms: C8_13  and  C9_14 
REMARK    3  A    between atoms: C8_13  and  C11_20 
REMARK    4  A    between atoms: C9_14  and  C10_15 
REMARK    5  A    between atoms: C10_15  and  N4_16 
REMARK       I    between atoms: C11_20  and  N5_22 
REMARK    6  A    between atoms: N5_22  and  C12_24 
ROOT
HETATM    1  C8  UNL     1      -0.681   2.237   0.049  1.00  0.00     0.179 C 
ENDROOT
BRANCH   1   2
HETATM    2  N3  UNL     1       0.516   1.928  -0.803  1.00  0.00    -0.330 N 
HETATM    3  C7  UNL     1       1.820   2.166  -0.296  1.00  0.00     0.319 C 
HETATM    4  N2  UNL     1       2.967   1.882  -1.077  1.00  0.00    -0.334 N 
HETATM    5  O1  UNL     1       1.992   2.633   0.854  1.00  0.00    -0.247 OA
HETATM    6  C6  UNL     1       2.812   1.336  -2.407  1.00  0.00     0.128 C 
HETATM    7  C22 UNL     1       4.316   2.117  -0.594  1.00  0.00     0.128 C 
HETATM    8  C5  UNL     1       4.117   0.690  -2.810  1.00  0.00     0.031 C 
HETATM    9  C4  UNL     1       4.620  -0.120  -1.659  1.00  0.00    -0.009 C 
HETATM   10  C3  UNL     1       3.655  -1.191  -1.208  1.00  0.00     0.041 C 
HETATM   11  C23 UNL     1       4.963   0.743  -0.459  1.00  0.00     0.031 C 
HETATM   12  C24 UNL     1       5.838  -0.963  -1.978  1.00  0.00     0.281 C 
HETATM   13  C2  UNL     1       4.578  -2.100  -0.401  1.00  0.00     0.272 C 
HETATM   14  N1  UNL     1       5.935  -1.758  -0.765  1.00  0.00     0.085 N 
HETATM   15  C1  UNL     1       6.703  -2.941  -1.075  1.00  0.00     0.309 C 
ATOM     16  H3  UNL     1       0.393   1.549  -1.742  1.00  0.00     0.165 HD
ENDBRANCH   1   2
BRANCH   1  17
HETATM   17  C9  UNL     1      -1.375   3.306  -0.723  1.00  0.00     0.062 C 
BRANCH  17  18
HETATM   18  C10 UNL     1      -2.607   3.890  -0.163  1.00  0.00     0.232 C 
BRANCH  18  19
HETATM   19  N4  UNL     1      -2.425   4.548   1.120  1.00  0.00    -0.079 N 
ATOM     20  H43 UNL     1      -1.996   3.910   1.790  1.00  0.00     0.274 HD
ATOM     21  H42 UNL     1      -1.692   5.254   1.058  1.00  0.00     0.274 HD
ATOM     22  H41 UNL     1      -3.278   4.952   1.508  1.00  0.00     0.274 HD
ENDBRANCH  18  19
ENDBRANCH  17  18
ENDBRANCH   1  17
BRANCH   1  23
HETATM   23  C11 UNL     1      -1.446   0.990   0.237  1.00  0.00     0.241 C 
HETATM   24  O2  UNL     1      -1.044  -0.039  -0.399  1.00  0.00    -0.271 OA
HETATM   25  N5  UNL     1      -2.577   0.827   1.056  1.00  0.00    -0.350 N 
ATOM     26  H5  UNL     1      -2.895   1.647   1.572  1.00  0.00     0.163 HD
BRANCH  25  27
HETATM   27  C12 UNL     1      -3.330  -0.390   1.236  1.00  0.00     0.034 C 
HETATM   28  C13 UNL     1      -4.456  -0.123   2.252  1.00  0.00     0.035 C 
HETATM   29  C14 UNL     1      -5.315  -1.332   2.391  1.00  0.00    -0.012 C 
HETATM   30  C15 UNL     1      -5.942  -1.658   1.052  1.00  0.00     0.009 C 
HETATM   31  C19 UNL     1      -4.526  -2.524   2.852  1.00  0.00     0.009 C 
HETATM   32  C16 UNL     1      -4.867  -2.012   0.079  1.00  0.00    -0.012 C 
HETATM   33  C17 UNL     1      -3.989  -3.148   0.564  1.00  0.00     0.009 C 
HETATM   34  C21 UNL     1      -3.939  -0.805  -0.073  1.00  0.00     0.035 C 
HETATM   35  C18 UNL     1      -3.409  -2.751   1.883  1.00  0.00    -0.012 C 
HETATM   36  C20 UNL     1      -2.516  -1.528   1.801  1.00  0.00     0.035 C 
ENDBRANCH  25  27
ENDBRANCH   1  23
TORSDOF 6
