REMARK  8 active torsions:
REMARK  status: ('A' for Active; 'I' for Inactive)
REMARK    1  A    between atoms: C2_2  and  N1_3 
REMARK    2  A    between atoms: N1_3  and  C3_4 
REMARK    3  A    between atoms: C5_6  and  O1_7 
REMARK    4  A    between atoms: C6_9  and  N2_10 
REMARK    5  A    between atoms: C11_18  and  O5_19 
REMARK    6  A    between atoms: C12_21  and  O6_22 
REMARK    7  A    between atoms: C13_24  and  O7_25 
REMARK    8  A    between atoms: C14_27  and  O8_28 
ROOT
HETATM    1  N1  UNL     1       1.341  -0.538   0.377  1.00  0.00     0.024 N 
HETATM    2  C10 UNL     1       1.675   0.459   1.359  1.00  0.00     0.281 C 
HETATM    3  C11 UNL     1       3.005   1.133   1.120  1.00  0.00     0.176 C 
HETATM    4  C12 UNL     1       2.902   1.864  -0.188  1.00  0.00     0.181 C 
HETATM    5  C13 UNL     1       2.484   0.933  -1.282  1.00  0.00     0.206 C 
HETATM    6  C14 UNL     1       2.063  -0.411  -0.866  1.00  0.00     0.361 C 
ENDROOT
BRANCH   1   7
HETATM    7  C2  UNL     1       1.716  -1.815   0.916  1.00  0.00     0.243 C 
HETATM    8  C1  UNL     1       1.155  -2.186   2.219  1.00  0.00     0.035 C 
ENDBRANCH   1   7
BRANCH   1   9
HETATM    9  C3  UNL     1      -0.064  -0.402   0.093  1.00  0.00     0.375 C 
HETATM   10  C4  UNL     1      -0.711  -1.570  -0.566  1.00  0.00     0.138 C 
HETATM   11  C5  UNL     1      -2.224  -1.295  -0.589  1.00  0.00     0.152 C 
HETATM   12  C6  UNL     1      -2.518   0.120  -0.974  1.00  0.00     0.166 C 
HETATM   13  C9  UNL     1      -1.511   1.102  -0.417  1.00  0.00     0.327 C 
HETATM   14  O2  UNL     1      -1.492   1.021   0.948  1.00  0.00    -0.201 OA
HETATM   15  O4  UNL     1      -0.247   0.692  -0.773  1.00  0.00    -0.295 OA
HETATM   16  O3  UNL     1      -0.819  -0.049   1.197  1.00  0.00    -0.166 OA
BRANCH  11  17
HETATM   17  O1  UNL     1      -2.670  -1.596   0.695  1.00  0.00    -0.393 OA
ATOM     18  H1  UNL     1      -3.605  -1.426   0.681  1.00  0.00     0.210 HD
ENDBRANCH  11  17
BRANCH  12  19
HETATM   19  N2  UNL     1      -3.850   0.454  -0.699  1.00  0.00    -0.410 N 
HETATM   20  C7  UNL     1      -4.899  -0.200  -1.365  1.00  0.00     0.143 C 
HETATM   21  C8  UNL     1      -4.149   1.451   0.249  1.00  0.00     0.143 C 
ENDBRANCH  12  19
ENDBRANCH   1   9
BRANCH   6  22
HETATM   22  O8  UNL     1       3.199  -1.256  -0.889  1.00  0.00    -0.367 OA
ATOM     23  H8  UNL     1       3.674  -1.172  -1.707  1.00  0.00     0.212 HD
ENDBRANCH   6  22
BRANCH   3  24
HETATM   24  O5  UNL     1       3.105   2.129   2.120  1.00  0.00    -0.391 OA
ATOM     25  H5  UNL     1       3.942   2.553   1.970  1.00  0.00     0.210 HD
ENDBRANCH   3  24
BRANCH   5  26
HETATM   26  O7  UNL     1       3.614   0.802  -2.133  1.00  0.00    -0.388 OA
ATOM     27  H7  UNL     1       3.349   0.211  -2.828  1.00  0.00     0.210 HD
ENDBRANCH   5  26
BRANCH   4  28
HETATM   28  O6  UNL     1       4.069   2.569  -0.496  1.00  0.00    -0.390 OA
ATOM     29  H6  UNL     1       4.004   3.031  -1.323  1.00  0.00     0.210 HD
ENDBRANCH   4  28
TORSDOF 8
