REMARK  9 active torsions:
REMARK  status: ('A' for Active; 'I' for Inactive)
REMARK    1  A    between atoms: C2_2  and  O1_4 
REMARK    2  A    between atoms: O1_4  and  C4_5 
REMARK    3  A    between atoms: N1_8  and  C6_9 
REMARK    4  A    between atoms: C6_9  and  C7_10 
REMARK    5  A    between atoms: C6_9  and  C11_19 
REMARK       I    between atoms: C7_10  and  N2_12 
REMARK    6  A    between atoms: N2_12  and  C8_14 
REMARK    7  A    between atoms: C8_14  and  C10_16 
REMARK    8  A    between atoms: C16_24  and  N3_25 
REMARK       I    between atoms: N3_25  and  C17_27 
REMARK       I    between atoms: C17_27  and  N4_29 
REMARK    9  A    between atoms: N4_29  and  C18_31 
ROOT
HETATM    1  C4  UNL     1       0.101  -1.079  -1.199  1.00  0.00     0.236 C 
HETATM    2  C5  UNL     1      -1.266  -0.668  -1.649  1.00  0.00     0.251 C 
HETATM    3  O2  UNL     1      -1.511  -0.327  -2.834  1.00  0.00    -0.270 OA
HETATM    4  N1  UNL     1      -2.308  -0.681  -0.647  1.00  0.00    -0.336 N 
HETATM    5  C14 UNL     1      -1.934  -0.340   0.705  1.00  0.00     0.129 C 
HETATM    6  C15 UNL     1      -0.615   0.448   0.573  1.00  0.00     0.048 C 
HETATM    7  C16 UNL     1       0.479  -0.451   0.103  1.00  0.00     0.126 C 
ENDROOT
BRANCH   4   8
HETATM    8  C6  UNL     1      -3.634  -1.038  -1.036  1.00  0.00     0.182 C 
BRANCH   8   9
HETATM    9  C7  UNL     1      -4.532   0.142  -0.812  1.00  0.00     0.241 C 
HETATM   10  O3  UNL     1      -5.766  -0.085  -0.780  1.00  0.00    -0.271 OA
HETATM   11  N2  UNL     1      -4.099   1.468  -0.639  1.00  0.00    -0.345 N 
ATOM     12  H2  UNL     1      -3.104   1.689  -0.663  1.00  0.00     0.163 HD
BRANCH  11  13
HETATM   13  C8  UNL     1      -5.073   2.519  -0.426  1.00  0.00     0.181 C 
HETATM   14  C9  UNL     1      -4.810   3.233   0.894  1.00  0.00     0.043 C 
BRANCH  13  15
HETATM   15  C10 UNL     1      -5.043   3.492  -1.538  1.00  0.00     0.196 C 
HETATM   16  O4  UNL     1      -4.246   3.327  -2.479  1.00  0.00    -0.646 OA
HETATM   17  O5  UNL     1      -5.892   4.574  -1.535  1.00  0.00    -0.646 OA
ENDBRANCH  13  15
ENDBRANCH  11  13
ENDBRANCH   8   9
BRANCH   8  18
HETATM   18  C11 UNL     1      -4.232  -2.224  -0.358  1.00  0.00     0.009 C 
HETATM   19  C12 UNL     1      -4.407  -2.142   1.114  1.00  0.00     0.012 C 
HETATM   20  C13 UNL     1      -5.533  -2.602  -1.043  1.00  0.00     0.012 C 
ENDBRANCH   8  18
ENDBRANCH   4   8
BRANCH   1  21
HETATM   21  O1  UNL     1       0.168  -2.469  -1.037  1.00  0.00    -0.370 OA
BRANCH  21  22
HETATM   22  C2  UNL     1       1.075  -3.058  -1.884  1.00  0.00     0.114 C 
HETATM   23  C1  UNL     1       2.121  -3.885  -1.208  1.00  0.00     0.039 C 
HETATM   24  C3  UNL     1       0.327  -3.952  -2.862  1.00  0.00     0.039 C 
ENDBRANCH  21  22
ENDBRANCH   1  21
BRANCH   7  25
HETATM   25  N3  UNL     1       1.684   0.341  -0.058  1.00  0.00    -0.335 N 
HETATM   26  C17 UNL     1       2.861   0.138   0.727  1.00  0.00     0.316 C 
HETATM   27  O6  UNL     1       2.930  -0.747   1.613  1.00  0.00    -0.247 OA
HETATM   28  N4  UNL     1       3.999   0.954   0.511  1.00  0.00    -0.339 N 
ATOM     29  H4  UNL     1       3.970   1.682  -0.203  1.00  0.00     0.164 HD
ATOM     30  H3  UNL     1       1.691   1.077  -0.764  1.00  0.00     0.164 HD
BRANCH  28  31
HETATM   31  C18 UNL     1       5.192   0.767   1.287  1.00  0.00     0.086 C 
HETATM   32  C19 UNL     1       6.323   0.397   0.368  1.00  0.00     0.025 C 
HETATM   33  C20 UNL     1       6.713   1.557  -0.527  1.00  0.00     0.002 C 
HETATM   34  C21 UNL     1       7.175   2.688   0.364  1.00  0.00     0.000 C 
HETATM   35  C22 UNL     1       6.022   3.128   1.251  1.00  0.00     0.002 C 
HETATM   36  C23 UNL     1       5.534   1.988   2.116  1.00  0.00     0.025 C 
ENDBRANCH  28  31
ENDBRANCH   7  25
TORSDOF 9
