REMARK  11 active torsions:
REMARK  status: ('A' for Active; 'I' for Inactive)
REMARK    1  A    between atoms: C3_3  and  O1_4 
REMARK    2  A    between atoms: C3_3  and  C4_6 
REMARK    3  A    between atoms: C8_10  and  N1_11 
REMARK    4  A    between atoms: N1_11  and  C9_13 
REMARK    5  A    between atoms: C10_16  and  N3_17 
REMARK    6  A    between atoms: N3_17  and  C11_19 
REMARK    7  A    between atoms: C14_22  and  O2_23 
REMARK    8  A    between atoms: O2_23  and  C15_24 
REMARK    9  A    between atoms: C15_24  and  C16_25 
REMARK   10  A    between atoms: C16_25  and  N4_26 
REMARK   11  A    between atoms: C20_30  and  O3_31 
ROOT
HETATM    1  C1  UNL     1       4.871   0.003   5.666  1.00  0.00     0.015 C 
HETATM    2  C2  UNL     1       5.368   0.247   4.618  1.00  0.00    -0.081 C 
HETATM    3  C3  UNL     1       5.978   0.571   3.335  1.00  0.00     0.229 C 
ENDROOT
BRANCH   3   4
HETATM    4  O1  UNL     1       5.644   1.872   2.953  1.00  0.00    -0.379 OA
ATOM      5  H1  UNL     1       6.042   2.083   2.117  1.00  0.00     0.211 HD
ENDBRANCH   3   4
BRANCH   3   6
HETATM    6  C4  UNL     1       5.516  -0.333   2.246  1.00  0.00    -0.016 A 
HETATM    7  C5  UNL     1       6.338  -1.344   1.781  1.00  0.00     0.011 A 
HETATM    8  C6  UNL     1       5.942  -2.196   0.778  1.00  0.00     0.003 A 
HETATM    9  C7  UNL     1       4.697  -2.039   0.222  1.00  0.00     0.030 A 
HETATM   10  C8  UNL     1       3.847  -1.037   0.663  1.00  0.00     0.049 A 
HETATM   11  C26 UNL     1       4.268  -0.191   1.675  1.00  0.00     0.040 A 
BRANCH  10  12
HETATM   12  N1  UNL     1       2.583  -0.922   0.058  1.00  0.00    -0.192 N 
ATOM     13  H1  UNL     1       1.813  -1.466   0.447  1.00  0.00     0.184 HD
BRANCH  12  14
HETATM   14  C9  UNL     1       2.341  -0.166  -0.964  1.00  0.00     0.685 A 
HETATM   15  N2  UNL     1       1.085  -0.149  -1.446  1.00  0.00    -0.175 N 
HETATM   16  C10 UNL     1       0.766   0.615  -2.505  1.00  0.00     0.137 A 
ATOM     17  H2  UNL     1       0.367  -0.722  -1.003  1.00  0.00     0.186 HD
HETATM   18  C22 UNL     1       1.708   1.400  -3.126  1.00  0.00     0.071 A 
HETATM   19  C23 UNL     1       1.740   2.273  -4.191  1.00  0.00     0.126 A 
HETATM   20  C25 UNL     1       3.011   1.377  -2.618  1.00  0.00     0.152 A 
HETATM   21  N5  UNL     1       2.991   2.739  -4.305  1.00  0.00    -0.307 N 
HETATM   22  N6  UNL     1       3.768   2.214  -3.373  1.00  0.00    -0.280 N 
ATOM     23  H5  UNL     1       3.301   3.406  -5.012  1.00  0.00     0.186 HD
HETATM   24  C24 UNL     1       5.180   2.490  -3.194  1.00  0.00     0.179 C 
HETATM   25  N7  UNL     1       3.271   0.594  -1.559  1.00  0.00    -0.174 N 
ATOM     26  H7  UNL     1       4.222   0.577  -1.190  1.00  0.00     0.186 HD
BRANCH  16  27
HETATM   27  N3  UNL     1      -0.433   0.641  -2.977  1.00  0.00    -0.339 N 
ATOM     28  H3  UNL     1      -0.612   1.241  -3.782  1.00  0.00     0.167 HD
BRANCH  27  29
HETATM   29  C11 UNL     1      -1.515  -0.100  -2.461  1.00  0.00     0.067 A 
HETATM   30  C12 UNL     1      -1.686  -1.458  -2.602  1.00  0.00     0.035 A 
HETATM   31  C13 UNL     1      -2.760  -2.125  -2.077  1.00  0.00     0.039 A 
HETATM   32  C14 UNL     1      -3.757  -1.454  -1.357  1.00  0.00     0.071 A 
HETATM   33  C19 UNL     1      -3.573  -0.108  -1.227  1.00  0.00     0.075 A 
HETATM   34  C20 UNL     1      -2.496   0.592  -1.748  1.00  0.00     0.097 A 
BRANCH  32  35
HETATM   35  O2  UNL     1      -4.820  -2.152  -0.849  1.00  0.00    -0.349 OA
BRANCH  35  36
HETATM   36  C15 UNL     1      -5.849  -1.639  -0.089  1.00  0.00     0.206 C 
BRANCH  36  37
HETATM   37  C16 UNL     1      -5.498  -1.118   1.266  1.00  0.00     0.297 C 
BRANCH  37  38
HETATM   38  N4  UNL     1      -6.659  -0.598   1.971  1.00  0.00     0.082 N 
HETATM   39  C17 UNL     1      -6.167  -0.126   3.272  1.00  0.00     0.309 C 
HETATM   40  C18 UNL     1      -7.653  -1.629   2.188  1.00  0.00     0.309 C 
ENDBRANCH  37  38
ENDBRANCH  36  37
ENDBRANCH  35  36
ENDBRANCH  32  35
BRANCH  34  41
HETATM   41  O3  UNL     1      -2.390   1.968  -1.564  1.00  0.00    -0.354 OA
HETATM   42  C21 UNL     1      -3.405   2.623  -0.837  1.00  0.00     0.210 C 
ENDBRANCH  34  41
ENDBRANCH  27  29
ENDBRANCH  16  27
ENDBRANCH  12  14
ENDBRANCH  10  12
ENDBRANCH   3   6
TORSDOF 11
