REMARK  4 active torsions:
REMARK  status: ('A' for Active; 'I' for Inactive)
REMARK    1  A    between atoms: N3_4  and  N4_6 
REMARK    2  A    between atoms: C2_8  and  N5_9 
REMARK    3  A    between atoms: N5_9  and  C3_11 
REMARK    4  A    between atoms: N7_19  and  O3_20 
ROOT
HETATM    1  C3  UNL     1      -1.055  -0.743  -0.297  1.00  0.00     0.714 C 
HETATM    2  N6  UNL     1      -0.728   0.478  -0.048  1.00  0.00    -0.115 N 
ATOM      3  H6  UNL     1       0.182   0.837  -0.337  1.00  0.00     0.197 HD
HETATM    4  S1  UNL     1      -1.844   1.500   0.779  1.00  0.00     0.245 S 
HETATM    5  O1  UNL     1      -1.651   1.330   2.277  1.00  0.00    -0.205 OA
HETATM    6  O2  UNL     1      -1.757   2.919   0.365  1.00  0.00    -0.205 OA
HETATM    7  C4  UNL     1      -3.464   0.802   0.426  1.00  0.00     0.186 C 
HETATM    8  C5  UNL     1      -3.334  -0.662   0.831  1.00  0.00     0.192 C 
HETATM    9  N7  UNL     1      -2.295  -1.305   0.075  1.00  0.00    -0.089 N 
ENDROOT
BRANCH   1  10
HETATM   10  N5  UNL     1      -0.072  -1.544  -0.993  1.00  0.00    -0.184 N 
ATOM     11  H5  UNL     1      -0.373  -2.216  -1.698  1.00  0.00     0.185 HD
BRANCH  10  12
HETATM   12  C2  UNL     1       1.304  -1.400  -0.701  1.00  0.00     0.214 C 
HETATM   13  N4  UNL     1       2.074  -0.555  -1.279  1.00  0.00    -0.294 N 
ATOM     14  H4  UNL     1       1.682   0.056  -1.995  1.00  0.00     0.187 HD
BRANCH  13  15
HETATM   15  N3  UNL     1       3.426  -0.438  -0.967  1.00  0.00    -0.275 N 
HETATM   16  C1  UNL     1       3.850   0.613  -0.381  1.00  0.00     0.215 C 
HETATM   17  N1  UNL     1       5.218   0.763  -0.049  1.00  0.00    -0.065 NA
HETATM   18  N2  UNL     1       2.947   1.646  -0.054  1.00  0.00    -0.065 NA
ATOM     19  H3  UNL     1       4.074  -1.189  -1.206  1.00  0.00     0.189 HD
ENDBRANCH  13  15
ENDBRANCH  10  12
ENDBRANCH   1  10
BRANCH   9  20
HETATM   20  O3  UNL     1      -2.555  -2.596  -0.315  1.00  0.00    -0.274 OA
ATOM     21  H3  UNL     1      -3.390  -2.974  -0.065  1.00  0.00     0.245 HD
ENDBRANCH   9  20
TORSDOF 4
