REMARK  6 active torsions:
REMARK  status: ('A' for Active; 'I' for Inactive)
REMARK    1  A    between atoms: C4_6  and  C5_7 
REMARK    2  A    between atoms: C5_7  and  N2_8 
REMARK    3  A    between atoms: C8_13  and  C9_14 
REMARK    4  A    between atoms: C9_14  and  C10_15 
REMARK    5  A    between atoms: C10_15  and  N4_16 
REMARK       I    between atoms: C11_18  and  N5_19 
REMARK       I    between atoms: C11_18  and  N7_23 
REMARK    6  A    between atoms: N7_23  and  C13_25 
ROOT
HETATM    1  C1  UNL     1       2.624  -2.409  -1.867  1.00  0.00     0.014 C 
HETATM    2  C2  UNL     1       2.376  -1.611  -0.988  1.00  0.00    -0.090 C 
HETATM    3  C3  UNL     1       2.063  -0.660   0.073  1.00  0.00     0.184 C 
HETATM    4  N1  UNL     1       3.294  -0.292   0.746  1.00  0.00    -0.361 N 
ATOM      5  H1  UNL     1       3.672  -0.686   1.608  1.00  0.00     0.162 HD
HETATM    6  C4  UNL     1       3.859   0.736  -0.056  1.00  0.00     0.103 C 
HETATM    7  N3  UNL     1       2.916   1.306  -0.756  1.00  0.00    -0.371 N 
ATOM      8  H3  UNL     1       3.058   2.074  -1.412  1.00  0.00     0.161 HD
HETATM    9  C8  UNL     1       1.639   0.690  -0.465  1.00  0.00     0.119 C 
ENDROOT
BRANCH   9  10
HETATM   10  C9  UNL     1       0.839   0.624  -1.723  1.00  0.00     0.048 C 
BRANCH  10  11
HETATM   11  C10 UNL     1      -0.456  -0.142  -1.582  1.00  0.00     0.140 C 
BRANCH  11  12
HETATM   12  N4  UNL     1      -1.334   0.424  -0.607  1.00  0.00    -0.226 N 
HETATM   13  C11 UNL     1      -1.950  -0.336   0.233  1.00  0.00     0.683 C 
HETATM   14  N5  UNL     1      -1.792  -1.748   0.233  1.00  0.00    -0.126 N 
HETATM   15  N7  UNL     1      -2.839   0.195   1.225  1.00  0.00    -0.221 N 
HETATM   16  C12 UNL     1      -1.439  -2.471   1.355  1.00  0.00     0.196 C 
ATOM     17  H5  UNL     1      -1.947  -2.253  -0.640  1.00  0.00     0.197 HD
HETATM   18  N6  UNL     1      -1.158  -3.065   2.298  1.00  0.00    -0.171 NA
ATOM     19  H7  UNL     1      -2.587   1.059   1.705  1.00  0.00     0.178 HD
ATOM     20  H4  UNL     1      -1.474   1.434  -0.575  1.00  0.00     0.177 HD
BRANCH  15  21
HETATM   21  C13 UNL     1      -4.084  -0.461   1.565  1.00  0.00     0.099 C 
HETATM   22  C14 UNL     1      -4.763   0.351   2.626  1.00  0.00     0.026 C 
HETATM   23  C15 UNL     1      -6.115   0.861   2.225  1.00  0.00     0.002 C 
HETATM   24  C16 UNL     1      -6.202   1.398   0.842  1.00  0.00     0.000 C 
HETATM   25  C17 UNL     1      -5.233   0.826  -0.139  1.00  0.00     0.002 C 
HETATM   26  C18 UNL     1      -4.909  -0.586   0.307  1.00  0.00     0.026 C 
ENDBRANCH  15  21
ENDBRANCH  11  12
ENDBRANCH  10  11
ENDBRANCH   9  10
BRANCH   6  27
HETATM   27  C5  UNL     1       5.295   1.118  -0.092  1.00  0.00     0.346 C 
BRANCH  27  28
HETATM   28  N2  UNL     1       6.164   0.045  -0.516  1.00  0.00     0.086 N 
HETATM   29  C6  UNL     1       7.524   0.608  -0.464  1.00  0.00     0.309 C 
HETATM   30  C7  UNL     1       5.935  -0.352  -1.897  1.00  0.00     0.309 C 
ENDBRANCH  27  28
ENDBRANCH   6  27
TORSDOF 6
