REMARK  17 active torsions:
REMARK  status: ('A' for Active; 'I' for Inactive)
REMARK    1  A    between atoms: N1_1  and  C1_5 
REMARK    2  A    between atoms: C2_8  and  N4_9 
REMARK    3  A    between atoms: C5_14  and  N6_15 
REMARK       I    between atoms: N6_15  and  C6_17 
REMARK    4  A    between atoms: C6_17  and  C7_19 
REMARK    5  A    between atoms: C7_19  and  N7_20 
REMARK    6  A    between atoms: C7_19  and  C8_24 
REMARK    7  A    between atoms: C8_24  and  N8_25 
REMARK    8  A    between atoms: C8_24  and  N9_29 
REMARK       I    between atoms: N9_29  and  C9_31 
REMARK    9  A    between atoms: C9_31  and  O3_33 
REMARK   10  A    between atoms: O3_33  and  C10_34 
REMARK   11  A    between atoms: C10_34  and  C11_35 
REMARK   12  A    between atoms: C10_34  and  C12_38 
REMARK   13  A    between atoms: C12_38  and  O6_39 
REMARK   14  A    between atoms: C12_38  and  C13_41 
REMARK   15  A    between atoms: C13_41  and  O7_42 
REMARK   16  A    between atoms: C13_41  and  C14_44 
REMARK   17  A    between atoms: C14_44  and  O8_45 
ROOT
HETATM    1  C7  UNL     1      -0.384  -0.516   1.196  1.00  0.00     0.324 C 
ENDROOT
BRANCH   1   2
HETATM    2  C6  UNL     1       0.301   0.631   0.580  1.00  0.00     0.257 C 
HETATM    3  N6  UNL     1       1.676   0.881   0.875  1.00  0.00    -0.309 N 
ATOM      4  H6  UNL     1       1.934   1.553   1.598  1.00  0.00     0.170 HD
HETATM    5  O1  UNL     1      -0.272   1.409  -0.201  1.00  0.00    -0.271 OA
BRANCH   3   6
HETATM    6  C5  UNL     1       2.589   0.247   0.217  1.00  0.00     0.140 A 
HETATM    7  C4  UNL     1       3.919   0.474   0.486  1.00  0.00     0.122 A 
HETATM    8  N5  UNL     1       4.540   1.279   1.357  1.00  0.00    -0.346 N 
HETATM    9  C16 UNL     1       4.944  -0.179  -0.189  1.00  0.00     0.142 A 
HETATM   10  C3  UNL     1       5.872   1.130   1.226  1.00  0.00     0.188 A 
ATOM     11  H5  UNL     1       4.078   1.906   2.015  1.00  0.00     0.167 HD
HETATM   12  N4  UNL     1       6.127   0.228   0.269  1.00  0.00    -0.298 N 
HETATM   13  N11 UNL     1       4.562  -1.057  -1.134  1.00  0.00    -0.336 N 
HETATM   14  C15 UNL     1       3.263  -1.287  -1.404  1.00  0.00     0.183 A 
ATOM     15  H11 UNL     1       5.275  -1.562  -1.660  1.00  0.00     0.168 HD
HETATM   16  N10 UNL     1       2.275  -0.653  -0.749  1.00  0.00    -0.337 N 
ATOM     17  H10 UNL     1       1.299  -0.846  -0.976  1.00  0.00     0.168 HD
BRANCH  12  18
HETATM   18  C2  UNL     1       7.425  -0.192  -0.152  1.00  0.00     0.267 C 
HETATM   19  N3  UNL     1       7.843   0.614  -1.314  1.00  0.00    -0.108 NA
HETATM   20  N2  UNL     1       9.217   0.531  -1.400  1.00  0.00    -0.101 NA
HETATM   21  C1  UNL     1       9.764   1.212  -0.213  1.00  0.00     0.356 C 
HETATM   22  S1  UNL     1       8.688   0.408   1.049  1.00  0.00    -0.075 SA
BRANCH  21  23
HETATM   23  N1  UNL     1      11.134   0.848  -0.031  1.00  0.00    -0.051 N 
ATOM     24  H13 UNL     1      11.258  -0.163   0.017  1.00  0.00     0.277 HD
ATOM     25  H12 UNL     1      11.692   1.027  -0.866  1.00  0.00     0.277 HD
ATOM     26  H11 UNL     1      11.513   1.319   0.791  1.00  0.00     0.277 HD
ENDBRANCH  21  23
ENDBRANCH  12  18
ENDBRANCH   3   6
ENDBRANCH   1   2
BRANCH   1  27
HETATM   27  N7  UNL     1       0.570  -1.282   1.985  1.00  0.00    -0.063 N 
ATOM     28  H73 UNL     1       1.383  -1.566   1.438  1.00  0.00     0.275 HD
ATOM     29  H72 UNL     1       1.052  -0.705   2.674  1.00  0.00     0.275 HD
ATOM     30  H71 UNL     1       0.095  -2.077   2.412  1.00  0.00     0.275 HD
ENDBRANCH   1  27
BRANCH   1  31
HETATM   31  C8  UNL     1      -1.521  -0.069   2.100  1.00  0.00     0.325 C 
BRANCH  31  32
HETATM   32  N8  UNL     1      -1.014   0.773   3.148  1.00  0.00    -0.056 N 
ATOM     33  H83 UNL     1      -0.264   0.322   3.672  1.00  0.00     0.276 HD
ATOM     34  H82 UNL     1      -0.484   1.564   2.781  1.00  0.00     0.276 HD
ATOM     35  H81 UNL     1      -1.777   1.073   3.755  1.00  0.00     0.276 HD
ENDBRANCH  31  32
BRANCH  31  36
HETATM   36  N9  UNL     1      -2.584   0.579   1.396  1.00  0.00    -0.307 N 
HETATM   37  C9  UNL     1      -3.913   0.005   1.363  1.00  0.00     0.363 C 
HETATM   38  O2  UNL     1      -4.139  -1.066   1.955  1.00  0.00    -0.238 OA
ATOM     39  H9  UNL     1      -2.403   1.458   0.910  1.00  0.00     0.167 HD
BRANCH  37  40
HETATM   40  O3  UNL     1      -4.921   0.635   0.685  1.00  0.00    -0.285 OA
BRANCH  40  41
HETATM   41  C10 UNL     1      -6.226   0.082   0.647  1.00  0.00     0.265 C 
BRANCH  41  42
HETATM   42  C11 UNL     1      -7.167   0.996   1.334  1.00  0.00     0.206 C 
HETATM   43  O4  UNL     1      -8.405   0.685   1.419  1.00  0.00    -0.646 OA
HETATM   44  O5  UNL     1      -6.689   2.169   1.870  1.00  0.00    -0.646 OA
ENDBRANCH  41  42
BRANCH  41  45
HETATM   45  C12 UNL     1      -6.598  -0.180  -0.776  1.00  0.00     0.189 C 
BRANCH  45  46
HETATM   46  O6  UNL     1      -6.588   0.978  -1.525  1.00  0.00    -0.390 OA
ATOM     47  H6  UNL     1      -6.825   0.811  -2.430  1.00  0.00     0.210 HD
ENDBRANCH  45  46
BRANCH  45  48
HETATM   48  C13 UNL     1      -7.867  -0.963  -0.950  1.00  0.00     0.173 C 
BRANCH  48  49
HETATM   49  O7  UNL     1      -7.852  -2.127  -0.179  1.00  0.00    -0.391 OA
ATOM     50  H7  UNL     1      -8.655  -2.622  -0.289  1.00  0.00     0.210 HD
ENDBRANCH  48  49
BRANCH  48  51
HETATM   51  C14 UNL     1      -7.990  -1.448  -2.400  1.00  0.00     0.198 C 
BRANCH  51  52
HETATM   52  O8  UNL     1      -6.931  -2.252  -2.747  1.00  0.00    -0.398 OA
ATOM     53  H8  UNL     1      -7.007  -2.552  -3.645  1.00  0.00     0.209 HD
ENDBRANCH  51  52
ENDBRANCH  48  51
ENDBRANCH  45  48
ENDBRANCH  41  45
ENDBRANCH  40  41
ENDBRANCH  37  40
ENDBRANCH  31  36
ENDBRANCH   1  31
TORSDOF 17
