REMARK  11 active torsions:
REMARK  status: ('A' for Active; 'I' for Inactive)
REMARK    1  A    between atoms: C3_3  and  C4_4 
REMARK    2  A    between atoms: N2_9  and  C7_10 
REMARK    3  A    between atoms: C7_10  and  C8_11 
REMARK    4  A    between atoms: C8_11  and  C9_12 
REMARK    5  A    between atoms: C9_12  and  C10_13 
REMARK    6  A    between atoms: C12_18  and  C13_19 
REMARK    7  A    between atoms: C13_19  and  C14_20 
REMARK    8  A    between atoms: C14_20  and  C15_21 
REMARK    9  A    between atoms: C15_21  and  C16_22 
REMARK   10  A    between atoms: C16_22  and  N4_23 
REMARK   11  A    between atoms: C17_29  and  O2_30 
ROOT
HETATM    1  C1  UNL     1       7.216   1.626  -2.652  1.00  0.00     0.112 C 
HETATM    2  C2  UNL     1       7.039   0.624  -1.604  1.00  0.00    -0.103 C 
HETATM    3  C3  UNL     1       6.877  -0.191  -0.737  1.00  0.00    -0.030 C 
ENDROOT
BRANCH   3   4
HETATM    4  C4  UNL     1       6.664  -1.149   0.299  1.00  0.00     0.163 A 
HETATM    5  N1  UNL     1       7.376  -2.291   0.410  1.00  0.00    -0.344 N 
HETATM    6  C5  UNL     1       6.925  -2.950   1.479  1.00  0.00     0.107 A 
ATOM      7  H1  UNL     1       8.125  -2.595  -0.212  1.00  0.00     0.167 HD
HETATM    8  C6  UNL     1       5.922  -2.184   2.018  1.00  0.00     0.110 A 
HETATM    9  N2  UNL     1       5.761  -1.066   1.285  1.00  0.00    -0.335 N 
BRANCH   9  10
HETATM   10  C7  UNL     1       4.823   0.004   1.497  1.00  0.00     0.131 C 
BRANCH  10  11
HETATM   11  C8  UNL     1       3.549  -0.324   0.739  1.00  0.00     0.023 C 
BRANCH  11  12
HETATM   12  C9  UNL     1       2.595   0.792   0.971  1.00  0.00     0.036 C 
BRANCH  12  13
HETATM   13  C10 UNL     1       1.254   0.556   0.237  1.00  0.00     0.176 C 
HETATM   14  N3  UNL     1       0.380   1.652   0.488  1.00  0.00    -0.346 N 
HETATM   15  C11 UNL     1      -0.817   2.056  -0.116  1.00  0.00     0.241 C 
ATOM     16  H3  UNL     1       0.683   2.257   1.252  1.00  0.00     0.163 HD
HETATM   17  O1  UNL     1      -0.834   3.186  -0.756  1.00  0.00    -0.271 OA
HETATM   18  C12 UNL     1      -2.147   1.385  -0.157  1.00  0.00     0.175 C 
HETATM   19  N5  UNL     1      -2.352   0.421   0.878  1.00  0.00    -0.359 N 
HETATM   20  C17 UNL     1      -2.974  -0.810   0.925  1.00  0.00     0.135 C 
ATOM     21  H5  UNL     1      -1.953   0.703   1.773  1.00  0.00     0.162 HD
HETATM   22  C18 UNL     1      -3.123  -1.968   0.115  1.00  0.00     0.161 C 
HETATM   23  C19 UNL     1      -4.641  -1.983  -0.196  1.00  0.00     0.035 C 
HETATM   24  N6  UNL     1      -2.547  -2.279  -1.108  1.00  0.00    -0.338 N 
HETATM   25  C20 UNL     1      -4.820  -2.826  -1.390  1.00  0.00     0.022 C 
HETATM   26  C21 UNL     1      -3.432  -3.393  -1.578  1.00  0.00     0.127 C 
HETATM   27  C22 UNL     1      -1.457  -1.801  -1.834  1.00  0.00     0.243 C 
HETATM   28  O3  UNL     1      -1.704  -1.504  -3.069  1.00  0.00    -0.271 OA
HETATM   29  C23 UNL     1      -0.057  -1.562  -1.474  1.00  0.00     0.172 C 
HETATM   30  C24 UNL     1       0.766  -2.505  -2.377  1.00  0.00     0.042 C 
HETATM   31  N7  UNL     1       0.351  -1.826  -0.152  1.00  0.00    -0.346 N 
HETATM   32  C25 UNL     1       0.827  -0.766   0.682  1.00  0.00     0.241 C 
ATOM     33  H7  UNL     1       0.307  -2.778   0.212  1.00  0.00     0.163 HD
HETATM   34  O4  UNL     1       0.872  -1.031   1.933  1.00  0.00    -0.271 OA
BRANCH  18  35
HETATM   35  C13 UNL     1      -3.141   2.553   0.138  1.00  0.00     0.035 C 
BRANCH  35  36
HETATM   36  C14 UNL     1      -4.550   2.110   0.134  1.00  0.00     0.004 C 
BRANCH  36  37
HETATM   37  C15 UNL     1      -5.506   3.231   0.339  1.00  0.00     0.027 C 
BRANCH  37  38
HETATM   38  C16 UNL     1      -5.421   4.013   1.594  1.00  0.00     0.229 C 
BRANCH  38  39
HETATM   39  N4  UNL     1      -4.208   4.716   1.813  1.00  0.00    -0.079 N 
ATOM     40  H43 UNL     1      -3.420   4.071   1.754  1.00  0.00     0.274 HD
ATOM     41  H42 UNL     1      -4.011   5.321   1.016  1.00  0.00     0.274 HD
ATOM     42  H41 UNL     1      -4.149   5.255   2.677  1.00  0.00     0.274 HD
ENDBRANCH  38  39
ENDBRANCH  37  38
ENDBRANCH  36  37
ENDBRANCH  35  36
ENDBRANCH  18  35
BRANCH  20  43
HETATM   43  O2  UNL     1      -3.630  -0.981   2.054  1.00  0.00    -0.348 OA
ATOM     44  H2  UNL     1      -4.058  -1.828   2.086  1.00  0.00     0.219 HD
ENDBRANCH  20  43
ENDBRANCH  12  13
ENDBRANCH  11  12
ENDBRANCH  10  11
ENDBRANCH   9  10
ENDBRANCH   3   4
TORSDOF 11
