REMARK  9 active torsions:
REMARK  status: ('A' for Active; 'I' for Inactive)
REMARK    1  A    between atoms: C2_2  and  C3_3 
REMARK    2  A    between atoms: C3_3  and  C4_4 
REMARK    3  A    between atoms: C4_4  and  N1_5 
REMARK    4  A    between atoms: C9_13  and  C10_14 
REMARK    5  A    between atoms: C10_14  and  C11_15 
REMARK    6  A    between atoms: C11_15  and  C12_16 
REMARK    7  A    between atoms: C12_16  and  N3_17 
REMARK    8  A    between atoms: C15_28  and  C16_29 
REMARK    9  A    between atoms: C16_29  and  C17_30 
ROOT
HETATM    1  N1  UNL     1      -2.829  -2.011  -0.258  1.00  0.00    -0.256 N 
HETATM    2  C5  UNL     1      -2.218  -3.212  -0.812  1.00  0.00     0.244 C 
HETATM    3  O1  UNL     1      -2.861  -4.229  -1.058  1.00  0.00    -0.271 OA
HETATM    4  C6  UNL     1      -0.814  -2.793  -0.930  1.00  0.00     0.105 C 
HETATM    5  C7  UNL     1      -1.072  -1.405  -1.542  1.00  0.00     0.167 C 
HETATM    6  N2  UNL     1      -1.966  -0.932  -0.495  1.00  0.00    -0.254 N 
HETATM    7  C8  UNL     1      -1.812   0.374   0.025  1.00  0.00     0.261 C 
HETATM    8  O2  UNL     1      -2.783   0.881   0.649  1.00  0.00    -0.269 OA
HETATM    9  C9  UNL     1      -0.586   1.203  -0.106  1.00  0.00     0.180 C 
HETATM   10  N6  UNL     1       0.329   1.085   0.995  1.00  0.00    -0.330 N 
ATOM     11  H6  UNL     1       0.507   1.958   1.491  1.00  0.00     0.165 HD
HETATM   12  C14 UNL     1       1.011  -0.010   1.499  1.00  0.00     0.317 C 
HETATM   13  O3  UNL     1       0.793  -0.306   2.739  1.00  0.00    -0.247 OA
HETATM   14  N7  UNL     1       1.939  -0.891   0.865  1.00  0.00    -0.330 N 
ATOM     15  H7  UNL     1       2.103  -1.785   1.327  1.00  0.00     0.165 HD
HETATM   16  C15 UNL     1       2.656  -0.661  -0.333  1.00  0.00     0.178 C 
HETATM   17  C20 UNL     1       2.796  -1.809  -1.255  1.00  0.00     0.240 C 
HETATM   18  O4  UNL     1       3.267  -1.458  -2.409  1.00  0.00    -0.271 OA
HETATM   19  N8  UNL     1       2.520  -3.154  -1.100  1.00  0.00    -0.359 N 
ATOM     20  H8  UNL     1       3.309  -3.767  -1.305  1.00  0.00     0.162 HD
HETATM   21  C21 UNL     1       1.340  -3.840  -0.708  1.00  0.00     0.127 C 
HETATM   22  C22 UNL     1       0.136  -3.633  -1.643  1.00  0.00     0.014 C 
HETATM   23  C23 UNL     1       0.569  -3.148  -3.007  1.00  0.00     0.012 C 
ENDROOT
BRANCH   9  24
HETATM   24  C10 UNL     1      -1.122   2.639  -0.256  1.00  0.00     0.037 C 
BRANCH  24  25
HETATM   25  C11 UNL     1      -0.041   3.655  -0.409  1.00  0.00     0.022 C 
BRANCH  25  26
HETATM   26  C12 UNL     1      -0.740   5.002  -0.546  1.00  0.00     0.122 C 
BRANCH  26  27
HETATM   27  N3  UNL     1       0.213   6.079  -0.702  1.00  0.00    -0.367 N 
HETATM   28  C13 UNL     1      -0.257   7.278  -0.655  1.00  0.00     0.196 C 
HETATM   29  N4  UNL     1       0.658   8.353  -0.806  1.00  0.00    -0.067 NA
HETATM   30  N5  UNL     1      -1.625   7.604  -0.463  1.00  0.00    -0.067 NA
ATOM     31  H3  UNL     1       1.207   5.898  -0.842  1.00  0.00     0.161 HD
ENDBRANCH  26  27
ENDBRANCH  25  26
ENDBRANCH  24  25
ENDBRANCH   9  24
BRANCH   1  32
HETATM   32  C4  UNL     1      -4.093  -1.893   0.415  1.00  0.00     0.152 C 
BRANCH  32  33
HETATM   33  C3  UNL     1      -4.029  -2.091   1.891  1.00  0.00     0.022 C 
BRANCH  33  34
HETATM   34  C2  UNL     1      -5.426  -1.941   2.489  1.00  0.00    -0.003 C 
HETATM   35  C1  UNL     1      -6.372  -2.966   1.898  1.00  0.00     0.005 C 
ENDBRANCH  33  34
ENDBRANCH  32  33
ENDBRANCH   1  32
BRANCH  16  36
HETATM   36  C16 UNL     1       4.016  -0.092  -0.091  1.00  0.00     0.038 C 
BRANCH  36  37
HETATM   37  C17 UNL     1       4.974  -0.899   0.698  1.00  0.00    -0.020 C 
HETATM   38  C18 UNL     1       6.329  -0.153   0.819  1.00  0.00     0.009 C 
HETATM   39  C19 UNL     1       4.586  -1.188   2.122  1.00  0.00     0.009 C 
ENDBRANCH  36  37
ENDBRANCH  16  36
TORSDOF 9
