REMARK  6 active torsions:
REMARK  status: ('A' for Active; 'I' for Inactive)
REMARK    1  A    between atoms: C2_2  and  N1_3 
REMARK    2  A    between atoms: C5_6  and  C6_7 
REMARK    3  A    between atoms: C7_8  and  C8_9 
REMARK    4  A    between atoms: C8_9  and  O2_11 
REMARK    5  A    between atoms: C10_13  and  C11_14 
REMARK    6  A    between atoms: C19_23  and  C20_24 
ROOT
HETATM    1  C6  UNL     1       0.613   0.733  -0.162  1.00  0.00    -0.057 C 
HETATM    2  C7  UNL     1       1.645  -0.091  -0.443  1.00  0.00     0.035 C 
HETATM    3  C10 UNL     1       2.968   0.479  -0.139  1.00  0.00     0.094 C 
HETATM    4  S1  UNL     1       2.867   1.127   1.585  1.00  0.00    -0.158 SA
HETATM    5  C15 UNL     1       1.465   2.340   1.508  1.00  0.00     0.079 C 
HETATM    6  C16 UNL     1       1.029   2.193   0.105  1.00  0.00     0.046 C 
ENDROOT
BRANCH   1   7
HETATM    7  C5  UNL     1      -0.806   0.514  -0.269  1.00  0.00    -0.007 C 
HETATM    8  C4  UNL     1      -1.411   1.542   0.780  1.00  0.00     0.042 C 
HETATM    9  C3  UNL     1      -2.873   1.756   0.569  1.00  0.00     0.238 C 
HETATM   10  N1  UNL     1      -3.319   0.998  -0.554  1.00  0.00    -0.067 N 
HETATM   11  C18 UNL     1      -2.615   1.584  -1.698  1.00  0.00     0.238 C 
HETATM   12  C23 UNL     1      -3.043  -0.386  -0.393  1.00  0.00     0.243 C 
HETATM   13  C17 UNL     1      -1.227   1.002  -1.638  1.00  0.00     0.042 C 
HETATM   14  C19 UNL     1      -1.588  -0.641   0.120  1.00  0.00     0.028 C 
BRANCH  10  15
HETATM   15  C2  UNL     1      -4.719   1.163  -0.793  1.00  0.00     0.233 C 
HETATM   16  C1  UNL     1      -5.601   0.793   0.351  1.00  0.00     0.035 C 
ENDBRANCH  10  15
BRANCH  14  17
HETATM   17  C20 UNL     1      -1.774  -0.991   1.581  1.00  0.00    -0.016 C 
HETATM   18  C21 UNL     1      -0.545  -1.292   2.351  1.00  0.00     0.010 C 
HETATM   19  C22 UNL     1      -2.572  -2.323   1.579  1.00  0.00     0.010 C 
ENDBRANCH  14  17
ENDBRANCH   1   7
BRANCH   2  20
HETATM   20  C8  UNL     1       1.421  -1.408  -0.958  1.00  0.00     0.290 C 
HETATM   21  O1  UNL     1       0.406  -1.952  -1.327  1.00  0.00    -0.260 OA
BRANCH  20  22
HETATM   22  O2  UNL     1       2.473  -2.343  -1.108  1.00  0.00    -0.323 OA
HETATM   23  C9  UNL     1       2.304  -3.637  -1.595  1.00  0.00     0.213 C 
ENDBRANCH  20  22
ENDBRANCH   2  20
BRANCH   3  24
HETATM   24  C11 UNL     1       4.252  -0.181  -0.247  1.00  0.00    -0.035 C 
HETATM   25  C12 UNL     1       4.758  -0.631  -1.576  1.00  0.00     0.016 C 
HETATM   26  C13 UNL     1       5.264   0.948   0.165  1.00  0.00     0.016 C 
HETATM   27  C14 UNL     1       4.502  -1.234   0.840  1.00  0.00     0.016 C 
ENDBRANCH   3  24
TORSDOF 6
