REMARK  5 active torsions:
REMARK  status: ('A' for Active; 'I' for Inactive)
REMARK    1  A    between atoms: C2_2  and  C4_5 
REMARK    2  A    between atoms: C4_5  and  C5_6 
REMARK    3  A    between atoms: C5_6  and  O1_7 
REMARK    4  A    between atoms: N1_12  and  C9_13 
REMARK    5  A    between atoms: C11_19  and  N4_20 
ROOT
HETATM    1  C9  UNL     1       2.401  -0.538   0.027  1.00  0.00     0.129 A 
HETATM    2  N2  UNL     1       3.106  -1.686   0.287  1.00  0.00    -0.337 N 
ATOM      3  H2  UNL     1       2.634  -2.480   0.719  1.00  0.00     0.168 HD
HETATM    4  C10 UNL     1       4.406  -1.777  -0.019  1.00  0.00     0.183 A 
HETATM    5  N3  UNL     1       5.051  -0.758  -0.584  1.00  0.00    -0.338 N 
ATOM      6  H3  UNL     1       6.042  -0.857  -0.805  1.00  0.00     0.168 HD
HETATM    7  C11 UNL     1       4.428   0.394  -0.869  1.00  0.00     0.124 A 
HETATM    8  C12 UNL     1       3.068   0.493  -0.550  1.00  0.00     0.132 A 
HETATM    9  C13 UNL     1       2.424   1.707  -0.863  1.00  0.00     0.107 C 
HETATM   10  N5  UNL     1       1.912   2.717  -1.136  1.00  0.00    -0.191 NA
ENDROOT
BRANCH   1  11
HETATM   11  N1  UNL     1       1.017  -0.474   0.361  1.00  0.00    -0.365 N 
HETATM   12  C8  UNL     1       0.729  -0.575   1.769  1.00  0.00     0.124 C 
HETATM   13  C7  UNL     1      -0.649  -0.877   2.159  1.00  0.00     0.021 C 
HETATM   14  C6  UNL     1      -1.700  -0.735   1.103  1.00  0.00     0.016 C 
HETATM   15  C4  UNL     1      -1.299   0.192  -0.012  1.00  0.00     0.014 C 
HETATM   16  C14 UNL     1      -0.028  -0.341  -0.592  1.00  0.00     0.137 C 
BRANCH  15  17
HETATM   17  C2  UNL     1      -2.390   0.234  -1.070  1.00  0.00     0.022 C 
HETATM   18  C1  UNL     1      -2.629  -1.084  -1.741  1.00  0.00     0.028 C 
HETATM   19  C3  UNL     1      -3.689   0.773  -0.588  1.00  0.00     0.028 C 
HETATM   20 BR1  UNL     1      -1.822   1.445  -2.512  1.00  0.00    -0.085 Br
ENDBRANCH  15  17
BRANCH  15  21
HETATM   21  C5  UNL     1      -1.194   1.575   0.561  1.00  0.00     0.176 C 
BRANCH  21  22
HETATM   22  O1  UNL     1      -2.355   2.041   1.167  1.00  0.00    -0.400 OA
ATOM     23  H1  UNL     1      -2.289   2.917   1.530  1.00  0.00     0.209 HD
ENDBRANCH  21  22
ENDBRANCH  15  21
ENDBRANCH   1  11
BRANCH   7  24
HETATM   24  N4  UNL     1       5.021   1.393  -1.414  1.00  0.00    -0.384 N 
ATOM     25  H42 UNL     1       6.012   1.321  -1.646  1.00  0.00     0.157 HD
ATOM     26  H41 UNL     1       4.547   2.270  -1.631  1.00  0.00     0.157 HD
ENDBRANCH   7  24
TORSDOF 5
