REMARK  7 active torsions:
REMARK  status: ('A' for Active; 'I' for Inactive)
REMARK    1  A    between atoms: O1_2  and  C2_3 
REMARK    2  A    between atoms: C2_3  and  C3_5 
REMARK    3  A    between atoms: C15_17  and  C16_18 
REMARK    4  A    between atoms: C16_18  and  C19_21 
REMARK    5  A    between atoms: C19_21  and  C20_22 
REMARK    6  A    between atoms: C20_22  and  C21_23 
REMARK    7  A    between atoms: C21_23  and  O3_24 
ROOT
HETATM    1  C3  UNL     1       4.294   0.789  -0.159  1.00  0.00     0.086 C 
HETATM    2  C4  UNL     1       3.757   0.773  -1.565  1.00  0.00     0.015 C 
HETATM    3  C5  UNL     1       2.509  -0.047  -1.585  1.00  0.00     0.006 C 
HETATM    4  C6  UNL     1       1.529   0.505  -0.538  1.00  0.00    -0.006 C 
HETATM    5  C7  UNL     1       2.100   0.372   0.855  1.00  0.00    -0.009 C 
HETATM    6  C8  UNL     1       1.343  -0.560   1.723  1.00  0.00     0.006 C 
HETATM    7  C9  UNL     1      -0.134  -0.488   1.717  1.00  0.00     0.010 C 
HETATM    8  C10 UNL     1      -0.762   0.015   0.423  1.00  0.00    -0.036 C 
HETATM    9  C11 UNL     1      -0.929   1.464   0.518  1.00  0.00     0.016 C 
HETATM   10  C12 UNL     1       0.328  -0.353  -0.622  1.00  0.00    -0.002 C 
HETATM   11  C13 UNL     1      -0.384  -0.390  -1.921  1.00  0.00     0.006 C 
HETATM   12  C14 UNL     1      -1.860  -0.381  -1.568  1.00  0.00     0.006 C 
HETATM   13  C15 UNL     1      -1.827  -0.849  -0.096  1.00  0.00     0.002 C 
HETATM   14  C22 UNL     1       3.514  -0.166   0.716  1.00  0.00     0.019 C 
ENDROOT
BRANCH  13  15
HETATM   15  C16 UNL     1      -3.122  -1.059   0.479  1.00  0.00    -0.043 C 
HETATM   16  C17 UNL     1      -3.147  -1.576   1.916  1.00  0.00     0.015 C 
HETATM   17  C18 UNL     1      -3.569  -2.457  -0.211  1.00  0.00     0.015 C 
BRANCH  15  18
HETATM   18  C19 UNL     1      -4.320  -0.260   0.213  1.00  0.00     0.011 C 
BRANCH  18  19
HETATM   19  C20 UNL     1      -4.391   1.182   0.482  1.00  0.00     0.027 C 
BRANCH  19  20
HETATM   20  C21 UNL     1      -5.847   1.611   0.131  1.00  0.00     0.164 C 
BRANCH  20  21
HETATM   21  O3  UNL     1      -5.987   2.969   0.363  1.00  0.00    -0.401 OA
ATOM     22  H3  UNL     1      -6.875   3.231   0.149  1.00  0.00     0.209 HD
ENDBRANCH  20  21
ENDBRANCH  19  20
ENDBRANCH  18  19
ENDBRANCH  15  18
ENDBRANCH  13  15
BRANCH   1  23
HETATM   23  C2  UNL     1       5.727   0.506  -0.183  1.00  0.00     0.262 C 
HETATM   24  O2  UNL     1       6.298   0.299  -1.282  1.00  0.00    -0.265 OA
BRANCH  23  25
HETATM   25  O1  UNL     1       6.523   0.449   0.959  1.00  0.00    -0.326 OA
HETATM   26  C1  UNL     1       7.903   0.167   0.828  1.00  0.00     0.213 C 
ENDBRANCH  23  25
ENDBRANCH   1  23
TORSDOF 7
