REMARK  4 active torsions:
REMARK  status: ('A' for Active; 'I' for Inactive)
REMARK    1  A    between atoms: C6_6  and  C7_7 
REMARK    2  A    between atoms: C7_7  and  C8_8 
REMARK    3  A    between atoms: C8_8  and  C9_9 
REMARK    4  A    between atoms: C9_9  and  N1_10 
ROOT
HETATM    1  C7  UNL     1       0.139  -1.369  -0.114  1.00  0.00    -0.035 C 
HETATM    2  C15 UNL     1      -0.772  -1.584   1.039  1.00  0.00     0.010 C 
HETATM    3  C16 UNL     1      -1.363  -2.942   0.929  1.00  0.00     0.001 C 
HETATM    4  C17 UNL     1      -0.389  -3.716   0.067  1.00  0.00     0.001 C 
HETATM    5  C18 UNL     1       0.736  -2.792  -0.252  1.00  0.00     0.010 C 
ENDROOT
BRANCH   1   6
HETATM    6  C6  UNL     1       1.299  -0.537   0.323  1.00  0.00    -0.006 C 
HETATM    7  C5  UNL     1       2.508  -0.603  -0.577  1.00  0.00     0.006 C 
HETATM    8  C4  UNL     1       3.684  -0.204   0.329  1.00  0.00     0.009 C 
HETATM    9  C2  UNL     1       3.456   1.150   0.946  1.00  0.00    -0.048 C 
HETATM   10  C1  UNL     1       3.632   2.196  -0.115  1.00  0.00     0.015 C 
HETATM   11  C3  UNL     1       4.558   1.359   1.972  1.00  0.00     0.015 C 
HETATM   12  C20 UNL     1       2.155   1.262   1.690  1.00  0.00     0.009 C 
HETATM   13  C19 UNL     1       1.054   0.879   0.674  1.00  0.00     0.006 C 
ENDBRANCH   1   6
BRANCH   1  14
HETATM   14  C8  UNL     1      -0.451  -1.080  -1.420  1.00  0.00     0.040 C 
BRANCH  14  15
HETATM   15  C9  UNL     1      -1.037   0.235  -1.723  1.00  0.00     0.273 C 
BRANCH  15  16
HETATM   16  N1  UNL     1      -2.147   0.633  -0.923  1.00  0.00     0.088 N 
HETATM   17  C10 UNL     1      -3.314  -0.164  -1.220  1.00  0.00     0.272 C 
HETATM   18  C11 UNL     1      -4.558   0.229  -0.526  1.00  0.00     0.030 C 
HETATM   19  C12 UNL     1      -4.715   1.683  -0.201  1.00  0.00     0.003 C 
HETATM   20  C13 UNL     1      -3.402   2.390   0.041  1.00  0.00     0.030 C 
HETATM   21  C14 UNL     1      -2.497   2.020  -1.116  1.00  0.00     0.272 C 
ENDBRANCH  15  16
ENDBRANCH  14  15
ENDBRANCH   1  14
TORSDOF 4
