REMARK  5 active torsions:
REMARK  status: ('A' for Active; 'I' for Inactive)
REMARK    1  A    between atoms: C3_3  and  N1_5 
REMARK    2  A    between atoms: C3_3  and  O1_17 
REMARK    3  A    between atoms: N1_5  and  C5_7 
REMARK    4  A    between atoms: O1_17  and  C15_18 
REMARK    5  A    between atoms: C15_18  and  C18_21 
ROOT
HETATM    1  C1  UNL     1       2.156   1.266   3.489  1.00  0.00     0.102 C 
HETATM    2  C2  UNL     1       1.644   1.101   2.381  1.00  0.00    -0.129 C 
HETATM    3  C3  UNL     1       0.974   0.914   1.047  1.00  0.00     0.182 C 
HETATM    4  C4  UNL     1       1.016   2.321   0.384  1.00  0.00     0.085 C 
ENDROOT
BRANCH   3   5
HETATM    5  N1  UNL     1      -0.386   0.751   1.403  1.00  0.00    -0.374 N 
ATOM      6  H1  UNL     1      -0.658   1.129   2.310  1.00  0.00     0.158 HD
BRANCH   5   7
HETATM    7  C5  UNL     1      -1.376   0.153   0.687  1.00  0.00     0.030 C 
HETATM    8  C6  UNL     1      -1.620   0.875  -0.621  1.00  0.00     0.035 C 
HETATM    9  C7  UNL     1      -2.899   0.442  -1.309  1.00  0.00    -0.012 C 
HETATM   10  C8  UNL     1      -4.054   0.790  -0.408  1.00  0.00     0.009 C 
HETATM   11  C12 UNL     1      -2.818  -1.026  -1.599  1.00  0.00     0.009 C 
HETATM   12  C9  UNL     1      -3.896  -0.013   0.845  1.00  0.00    -0.012 C 
HETATM   13  C10 UNL     1      -3.840  -1.505   0.559  1.00  0.00     0.009 C 
HETATM   14  C14 UNL     1      -2.649   0.366   1.544  1.00  0.00     0.035 C 
HETATM   15  C11 UNL     1      -2.625  -1.734  -0.272  1.00  0.00    -0.012 C 
HETATM   16  C13 UNL     1      -1.335  -1.311   0.406  1.00  0.00     0.035 C 
ENDBRANCH   5   7
ENDBRANCH   3   5
BRANCH   3  17
HETATM   17  O1  UNL     1       1.550   0.066   0.297  1.00  0.00    -0.341 OA
BRANCH  17  18
HETATM   18  C15 UNL     1       2.640  -0.179  -0.329  1.00  0.00     0.057 C 
HETATM   19  C16 UNL     1       3.153   0.731  -1.402  1.00  0.00     0.045 C 
HETATM   20  C17 UNL     1       2.418  -1.532  -1.073  1.00  0.00     0.045 C 
BRANCH  18  21
HETATM   21  C18 UNL     1       3.804  -0.495   0.587  1.00  0.00     0.033 C 
HETATM   22  C19 UNL     1       5.093  -0.801  -0.154  1.00  0.00     0.008 C 
ENDBRANCH  18  21
ENDBRANCH  17  18
ENDBRANCH   3  17
TORSDOF 5
