REMARK  7 active torsions:
REMARK  status: ('A' for Active; 'I' for Inactive)
REMARK    1  A    between atoms: C2_2  and  C3_3 
REMARK    2  A    between atoms: C3_3  and  C4_4 
REMARK    3  A    between atoms: C4_4  and  C5_5 
REMARK    4  A    between atoms: C4_4  and  C12_15 
REMARK    5  A    between atoms: C6_6  and  C7_7 
REMARK    6  A    between atoms: C7_7  and  N1_8 
REMARK    7  A    between atoms: N1_8  and  C8_11 
ROOT
HETATM    1  C4  UNL     1      -0.771  -1.549   0.107  1.00  0.00     0.077 C 
ENDROOT
BRANCH   1   2
HETATM    2  C3  UNL     1      -0.557  -2.525  -0.976  1.00  0.00     0.044 C 
BRANCH   2   3
HETATM    3  C2  UNL     1      -1.627  -3.410  -1.404  1.00  0.00    -0.036 C 
HETATM    4  C1  UNL     1      -1.973  -3.416  -2.687  1.00  0.00     0.007 C 
ENDBRANCH   2   3
ENDBRANCH   1   2
BRANCH   1   5
HETATM    5  C5  UNL     1       0.494  -0.770   0.357  1.00  0.00    -0.099 C 
HETATM    6  C6  UNL     1       1.525  -0.167   0.560  1.00  0.00    -0.079 C 
BRANCH   6   7
HETATM    7  C7  UNL     1       2.766   0.553   0.833  1.00  0.00     0.326 C 
BRANCH   7   8
HETATM    8  N1  UNL     1       3.813   0.220  -0.111  1.00  0.00    -0.057 N 
ATOM      9  H12 UNL     1       3.967  -0.788  -0.151  1.00  0.00     0.279 HD
ATOM     10  H11 UNL     1       3.507   0.375  -1.071  1.00  0.00     0.279 HD
BRANCH   8  11
HETATM   11  C8  UNL     1       5.041   0.925   0.165  1.00  0.00     0.116 C 
HETATM   12  C9  UNL     1       5.610   0.556   1.517  1.00  0.00     0.045 C 
HETATM   13  C10 UNL     1       4.818   2.406   0.077  1.00  0.00     0.045 C 
HETATM   14  C11 UNL     1       6.048   0.505  -0.884  1.00  0.00     0.045 C 
ENDBRANCH   8  11
ENDBRANCH   7   8
ENDBRANCH   6   7
ENDBRANCH   1   5
BRANCH   1  15
HETATM   15  C12 UNL     1      -1.870  -0.573   0.076  1.00  0.00    -0.025 C 
HETATM   16  C13 UNL     1      -1.738   0.328   1.336  1.00  0.00     0.015 C 
HETATM   17  C14 UNL     1      -2.842   1.322   1.412  1.00  0.00    -0.013 C 
HETATM   18  C15 UNL     1      -2.908   2.183   0.195  1.00  0.00     0.009 C 
HETATM   19  C19 UNL     1      -4.160   0.598   1.589  1.00  0.00     0.009 C 
HETATM   20  C16 UNL     1      -3.091   1.273  -0.999  1.00  0.00    -0.013 C 
HETATM   21  C17 UNL     1      -4.417   0.563  -0.878  1.00  0.00     0.009 C 
HETATM   22  C21 UNL     1      -1.937   0.293  -1.125  1.00  0.00     0.015 C 
HETATM   23  C18 UNL     1      -4.362  -0.270   0.396  1.00  0.00    -0.013 C 
HETATM   24  C20 UNL     1      -3.205  -1.251   0.287  1.00  0.00     0.015 C 
ENDBRANCH   1  15
TORSDOF 7
