REMARK  4 active torsions:
REMARK  status: ('A' for Active; 'I' for Inactive)
REMARK    1  A    between atoms: C10_10  and  C11_11 
REMARK    2  A    between atoms: C11_11  and  C13_13 
REMARK    3  A    between atoms: C13_13  and  C14_14 
REMARK    4  A    between atoms: C20_20  and  N1_21 
ROOT
HETATM    1  C1  UNL     1      -4.723   2.047   0.356  1.00  0.00     0.010 C 
HETATM    2  C2  UNL     1      -4.116   1.126   1.339  1.00  0.00    -0.014 C 
HETATM    3  C3  UNL     1      -5.235   0.220   1.878  1.00  0.00     0.005 C 
HETATM    4  C4  UNL     1      -4.953  -1.172   1.337  1.00  0.00     0.005 C 
HETATM    5  C5  UNL     1      -4.038  -0.865   0.132  1.00  0.00    -0.010 C 
HETATM    6  C6  UNL     1      -3.279  -2.044  -0.323  1.00  0.00     0.006 C 
HETATM    7  C7  UNL     1      -1.785  -1.767  -0.578  1.00  0.00     0.010 C 
HETATM    8  C8  UNL     1      -1.641  -0.390  -1.083  1.00  0.00    -0.036 C 
HETATM    9  C9  UNL     1      -2.634  -0.191  -2.201  1.00  0.00     0.016 C 
HETATM   10  C10 UNL     1      -0.357   0.149  -1.502  1.00  0.00    -0.002 C 
HETATM   11  C21 UNL     1      -0.401   1.637  -1.088  1.00  0.00     0.006 C 
HETATM   12  C22 UNL     1      -1.765   1.847  -0.445  1.00  0.00     0.006 C 
HETATM   13  C23 UNL     1      -1.969   0.503   0.131  1.00  0.00    -0.001 C 
HETATM   14  C24 UNL     1      -3.133   0.139   0.865  1.00  0.00    -0.002 C 
ENDROOT
BRANCH  10  15
HETATM   15  C11 UNL     1       0.924  -0.484  -1.200  1.00  0.00    -0.010 C 
HETATM   16  C12 UNL     1       2.072   0.352  -1.840  1.00  0.00     0.010 C 
BRANCH  15  17
HETATM   17  C13 UNL     1       1.365  -0.562   0.250  1.00  0.00     0.032 C 
BRANCH  17  18
HETATM   18  C14 UNL     1       2.702  -1.250   0.192  1.00  0.00    -0.022 C 
HETATM   19  C15 UNL     1       3.841  -0.932   0.664  1.00  0.00    -0.054 C 
HETATM   20  C16 UNL     1       5.010  -1.888   0.402  1.00  0.00     0.036 C 
HETATM   21  C20 UNL     1       4.215   0.225   1.459  1.00  0.00     0.212 C 
HETATM   22  C17 UNL     1       5.977  -1.042  -0.419  1.00  0.00     0.004 C 
HETATM   23  C18 UNL     1       6.310   0.262   0.226  1.00  0.00     0.003 C 
HETATM   24  C19 UNL     1       5.103   1.096   0.545  1.00  0.00     0.037 C 
BRANCH  21  25
HETATM   25  N1  UNL     1       3.208   1.016   2.063  1.00  0.00    -0.071 N 
ATOM     26  H13 UNL     1       2.555   1.317   1.340  1.00  0.00     0.275 HD
ATOM     27  H12 UNL     1       2.616   0.410   2.631  1.00  0.00     0.275 HD
ATOM     28  H11 UNL     1       3.471   1.828   2.621  1.00  0.00     0.275 HD
ENDBRANCH  21  25
ENDBRANCH  17  18
ENDBRANCH  15  17
ENDBRANCH  10  15
TORSDOF 4
