REMARK  6 active torsions:
REMARK  status: ('A' for Active; 'I' for Inactive)
REMARK    1  A    between atoms: C10_16  and  S1_17 
REMARK    2  A    between atoms: S1_17  and  C11_18 
REMARK    3  A    between atoms: C13_20  and  O3_21 
REMARK    4  A    between atoms: C13_20  and  C14_23 
REMARK    5  A    between atoms: C14_23  and  C15_24 
REMARK    6  A    between atoms: C15_24  and  O4_25 
ROOT
HETATM    1  C1  UNL     1       5.211  -0.601   0.900  1.00  0.00     0.015 C 
HETATM    2  C2  UNL     1       4.457   0.673   1.226  1.00  0.00    -0.037 C 
HETATM    3  C3  UNL     1       4.395   0.793   2.722  1.00  0.00     0.015 C 
HETATM    4  C4  UNL     1       5.150   1.876   0.675  1.00  0.00     0.095 C 
HETATM    5  C5  UNL     1       4.911   1.982  -0.779  1.00  0.00     0.184 C 
HETATM    6  O1  UNL     1       5.550   2.887  -1.397  1.00  0.00    -0.290 OA
HETATM    7  C6  UNL     1       3.983   1.086  -1.467  1.00  0.00     0.131 A 
HETATM    8  O2  UNL     1       4.063   0.955  -2.765  1.00  0.00    -0.288 OA
HETATM    9  C7  UNL     1       3.261   0.166  -3.453  1.00  0.00     0.164 A 
HETATM   10  N1  UNL     1       3.387   0.074  -4.755  1.00  0.00    -0.378 N 
ATOM     11  H11 UNL     1       2.767  -0.536  -5.287  1.00  0.00     0.158 HD
ATOM     12  H12 UNL     1       4.104   0.611  -5.242  1.00  0.00     0.158 HD
HETATM   13  C8  UNL     1       2.290  -0.561  -2.794  1.00  0.00     0.112 A 
HETATM   14  C9  UNL     1       1.435  -1.408  -3.577  1.00  0.00     0.105 C 
HETATM   15  N2  UNL     1       0.741  -2.099  -4.188  1.00  0.00    -0.191 NA
HETATM   16  C10 UNL     1       2.144  -0.473  -1.408  1.00  0.00     0.035 A 
HETATM   17  C24 UNL     1       3.016   0.370  -0.755  1.00  0.00    -0.001 A 
HETATM   18  C25 UNL     1       3.016   0.580   0.712  1.00  0.00     0.052 C 
ENDROOT
BRANCH  16  19
HETATM   19  S1  UNL     1       0.937  -1.393  -0.540  1.00  0.00    -0.121 SA
BRANCH  19  20
HETATM   20  C11 UNL     1      -0.667  -0.666  -0.367  1.00  0.00     0.074 C 
HETATM   21  C12 UNL     1      -0.762   0.583   0.455  1.00  0.00     0.055 C 
HETATM   22  C13 UNL     1      -2.108   1.172   0.311  1.00  0.00     0.061 C 
HETATM   23  C16 UNL     1      -3.222   0.311  -0.133  1.00  0.00     0.045 C 
HETATM   24  C17 UNL     1      -3.032  -1.150  -0.254  1.00  0.00     0.016 C 
HETATM   25  C18 UNL     1      -4.102  -1.868   0.517  1.00  0.00    -0.034 C 
HETATM   26  C22 UNL     1      -1.697  -1.596   0.211  1.00  0.00     0.022 C 
HETATM   27  C19 UNL     1      -5.432  -1.142   0.353  1.00  0.00     0.016 C 
HETATM   28  C20 UNL     1      -4.347  -3.282   0.085  1.00  0.00     0.016 C 
HETATM   29  C21 UNL     1      -3.736  -1.770   1.998  1.00  0.00     0.083 C 
HETATM   30  S2  UNL     1      -1.942  -1.346   2.011  1.00  0.00    -0.157 SA
HETATM   31  C23 UNL     1      -1.332  -3.000  -0.004  1.00  0.00     0.028 C 
BRANCH  22  32
HETATM   32  O3  UNL     1      -2.404   1.743   1.586  1.00  0.00    -0.390 OA
ATOM     33  H3  UNL     1      -3.270   2.122   1.493  1.00  0.00     0.210 HD
ENDBRANCH  22  32
BRANCH  22  34
HETATM   34  C14 UNL     1      -2.010   2.393  -0.581  1.00  0.00     0.064 C 
BRANCH  34  35
HETATM   35  C15 UNL     1      -1.119   3.471  -0.068  1.00  0.00     0.167 C 
BRANCH  35  36
HETATM   36  O4  UNL     1      -1.560   3.935   1.174  1.00  0.00    -0.401 OA
ATOM     37  H4  UNL     1      -0.992   4.622   1.501  1.00  0.00     0.209 HD
ENDBRANCH  35  36
ENDBRANCH  34  35
ENDBRANCH  22  34
ENDBRANCH  19  20
ENDBRANCH  16  19
TORSDOF 6
