REMARK  17 active torsions:
REMARK  status: ('A' for Active; 'I' for Inactive)
REMARK    1  A    between atoms: N1_1  and  C1_5 
REMARK    2  A    between atoms: C1_5  and  C2_6 
REMARK    3  A    between atoms: C3_8  and  O2_9 
REMARK    4  A    between atoms: O2_9  and  C4_10 
REMARK    5  A    between atoms: C4_10  and  O3_11 
REMARK    6  A    between atoms: O3_11  and  O4_12 
REMARK    7  A    between atoms: C5_15  and  S1_16 
REMARK    8  A    between atoms: S1_16  and  C6_17 
REMARK    9  A    between atoms: C6_17  and  C7_18 
REMARK   10  A    between atoms: C9_20  and  O6_21 
REMARK   11  A    between atoms: O6_21  and  C10_22 
REMARK   12  A    between atoms: C12_30  and  O7_31 
REMARK   13  A    between atoms: C13_34  and  N4_35 
REMARK   14  A    between atoms: C15_40  and  N5_41 
REMARK   15  A    between atoms: C16_45  and  N6_46 
REMARK   16  A    between atoms: C17_50  and  O9_51 
REMARK   17  A    between atoms: C18_53  and  O10_54 
ROOT
HETATM    1  C4  UNL     1      -2.002  -2.075  -0.390  1.00  0.00     0.343 C 
HETATM    2  O5  UNL     1      -0.856  -1.337  -0.389  1.00  0.00    -0.311 OA
HETATM    3  C5  UNL     1       0.186  -1.821   0.330  1.00  0.00     0.219 C 
HETATM    4  C13 UNL     1       0.083  -3.184   0.901  1.00  0.00     0.224 C 
HETATM    5  C14 UNL     1      -1.279  -3.601   1.360  1.00  0.00     0.077 C 
HETATM    6  C15 UNL     1      -2.366  -2.609   0.987  1.00  0.00     0.280 C 
ENDROOT
BRANCH   1   7
HETATM    7  O2  UNL     1      -3.092  -1.417  -0.934  1.00  0.00    -0.296 OA
BRANCH   7   8
HETATM    8  C3  UNL     1      -3.469  -0.256  -0.321  1.00  0.00     0.299 C 
HETATM    9  O1  UNL     1      -4.801  -0.422   0.073  1.00  0.00    -0.349 OA
HETATM   10  C2  UNL     1      -5.317   0.624   0.787  1.00  0.00     0.181 C 
HETATM   11  C18 UNL     1      -4.499   1.863   0.645  1.00  0.00     0.179 C 
HETATM   12  C17 UNL     1      -4.025   2.103  -0.750  1.00  0.00     0.184 C 
HETATM   13  C16 UNL     1      -3.356   0.885  -1.317  1.00  0.00     0.269 C 
BRANCH  10  14
HETATM   14  C1  UNL     1      -6.776   0.804   0.440  1.00  0.00     0.264 C 
BRANCH  14  15
HETATM   15  N1  UNL     1      -7.405   1.879   1.141  1.00  0.00    -0.077 N 
ATOM     16  H13 UNL     1      -7.285   1.771   2.148  1.00  0.00     0.274 HD
ATOM     17  H12 UNL     1      -6.892   2.749   1.001  1.00  0.00     0.274 HD
ATOM     18  H11 UNL     1      -8.390   2.001   0.907  1.00  0.00     0.274 HD
ENDBRANCH  14  15
ENDBRANCH  10  14
BRANCH  11  19
HETATM   19  O10 UNL     1      -5.156   2.958   1.182  1.00  0.00    -0.390 OA
ATOM     20  H10 UNL     1      -4.635   3.747   1.092  1.00  0.00     0.210 HD
ENDBRANCH  11  19
BRANCH  12  21
HETATM   21  O9  UNL     1      -5.059   2.493  -1.601  1.00  0.00    -0.391 OA
ATOM     22  H9  UNL     1      -5.482   3.264  -1.242  1.00  0.00     0.210 HD
ENDBRANCH  12  21
BRANCH  13  23
HETATM   23  N6  UNL     1      -1.969   1.198  -1.546  1.00  0.00    -0.068 N 
ATOM     24  H63 UNL     1      -1.472   1.397  -0.677  1.00  0.00     0.275 HD
ATOM     25  H62 UNL     1      -1.435   0.380  -1.838  1.00  0.00     0.275 HD
ATOM     26  H61 UNL     1      -1.893   1.964  -2.215  1.00  0.00     0.275 HD
ENDBRANCH  13  23
ENDBRANCH   7   8
ENDBRANCH   1   7
BRANCH   1  27
HETATM   27  O3  UNL     1      -1.848  -3.223  -1.212  1.00  0.00    -0.171 OA
BRANCH  27  28
HETATM   28  O4  UNL     1      -1.629  -2.857  -2.458  1.00  0.00    -0.245 OA
ATOM     29  H4  UNL     1      -1.526  -3.625  -3.008  1.00  0.00     0.253 HD
ENDBRANCH  27  28
ENDBRANCH   1  27
BRANCH   6  30
HETATM   30  N5  UNL     1      -3.596  -3.342   0.907  1.00  0.00    -0.067 N 
ATOM     31  H53 UNL     1      -4.348  -2.788   0.497  1.00  0.00     0.275 HD
ATOM     32  H52 UNL     1      -3.559  -4.081   0.205  1.00  0.00     0.275 HD
ATOM     33  H51 UNL     1      -3.840  -3.700   1.830  1.00  0.00     0.275 HD
ENDBRANCH   6  30
BRANCH   3  34
HETATM   34  S1  UNL     1       0.701  -0.689   1.673  1.00  0.00    -0.133 SA
BRANCH  34  35
HETATM   35  C6  UNL     1       1.411   0.830   1.005  1.00  0.00     0.108 C 
BRANCH  35  36
HETATM   36  C7  UNL     1       2.712   0.582   0.289  1.00  0.00     0.138 C 
HETATM   37  C8  UNL     1       3.373   1.807  -0.301  1.00  0.00     0.093 C 
HETATM   38  C9  UNL     1       4.584   0.939   0.047  1.00  0.00     0.265 C 
HETATM   39  O8  UNL     1       3.827   0.498   1.159  1.00  0.00    -0.355 OA
BRANCH  38  40
HETATM   40  O6  UNL     1       5.734   1.611   0.364  1.00  0.00    -0.325 OA
BRANCH  40  41
HETATM   41  C10 UNL     1       6.795   1.002  -0.296  1.00  0.00     0.382 C 
HETATM   42  N2  UNL     1       7.734   0.530   0.703  1.00  0.00    -0.021 N 
HETATM   43  C11 UNL     1       9.040   0.567   0.078  1.00  0.00     0.469 C 
ATOM     44  H22 UNL     1       7.689   1.049   1.580  1.00  0.00     0.282 HD
ATOM     45  H21 UNL     1       7.493  -0.384   1.087  1.00  0.00     0.282 HD
HETATM   46  N3  UNL     1       8.973   1.512  -1.017  1.00  0.00    -0.021 N 
HETATM   47  C12 UNL     1       7.599   1.965  -1.123  1.00  0.00     0.377 C 
ATOM     48  H32 UNL     1       9.638   2.280  -0.920  1.00  0.00     0.282 HD
ATOM     49  H31 UNL     1       9.334   1.132  -1.892  1.00  0.00     0.282 HD
BRANCH  47  50
HETATM   50  O7  UNL     1       7.461   3.248  -0.647  1.00  0.00    -0.366 OA
ATOM     51  H7  UNL     1       7.969   3.857  -1.170  1.00  0.00     0.212 HD
ENDBRANCH  47  50
ENDBRANCH  40  41
ENDBRANCH  38  40
ENDBRANCH  35  36
ENDBRANCH  34  35
ENDBRANCH   3  34
BRANCH   4  52
HETATM   52  N4  UNL     1       0.702  -4.202   0.046  1.00  0.00    -0.072 N 
ATOM     53  H43 UNL     1       0.318  -4.170  -0.898  1.00  0.00     0.274 HD
ATOM     54  H42 UNL     1       1.672  -3.965  -0.163  1.00  0.00     0.274 HD
ATOM     55  H41 UNL     1       0.631  -5.141   0.439  1.00  0.00     0.274 HD
ENDBRANCH   4  52
TORSDOF 17
