REMARK  2 active torsions:
REMARK  status: ('A' for Active; 'I' for Inactive)
REMARK    1  A    between atoms: N1_1  and  N2_4 
REMARK    2  A    between atoms: N2_4  and  C1_6 
ROOT
HETATM    1  C1  UNL     1      -0.561  -0.493  -0.183  1.00  0.00     0.075 A 
HETATM    2  C2  UNL     1      -1.755   0.184  -0.178  1.00  0.00     0.041 A 
HETATM    3  C3  UNL     1      -1.947   1.511   0.107  1.00  0.00     0.071 A 
HETATM    4  S1  UNL     1      -0.484   2.338   0.487  1.00  0.00    -0.019 SA
HETATM    5  N3  UNL     1       0.866   1.339   0.426  1.00  0.00    -0.291 N 
HETATM    6  C4  UNL     1       2.163   1.611   0.655  1.00  0.00     0.105 A 
HETATM    7  C5  UNL     1       2.869   0.448   0.474  1.00  0.00     0.021 A 
HETATM    8  C6  UNL     1       1.921  -0.517   0.128  1.00  0.00     0.034 A 
HETATM    9  C7  UNL     1       0.669   0.063   0.103  1.00  0.00     0.073 A 
ENDROOT
BRANCH   1  10
HETATM   10  N2  UNL     1      -0.573  -1.755  -0.479  1.00  0.00    -0.305 N 
ATOM     11  H2  UNL     1       0.296  -2.289  -0.492  1.00  0.00     0.186 HD
BRANCH  10  12
HETATM   12  N1  UNL     1      -1.775  -2.372  -0.777  1.00  0.00    -0.345 N 
ATOM     13  H12 UNL     1      -2.635  -1.824  -0.759  1.00  0.00     0.176 HD
ATOM     14  H11 UNL     1      -1.784  -3.365  -1.010  1.00  0.00     0.176 HD
ENDBRANCH  10  12
ENDBRANCH   1  10
TORSDOF 2
