REMARK  14 active torsions:
REMARK  status: ('A' for Active; 'I' for Inactive)
REMARK    1  A    between atoms: C2_2  and  C3_3 
REMARK    2  A    between atoms: C3_3  and  O1_4 
REMARK    3  A    between atoms: O1_4  and  C4_5 
REMARK    4  A    between atoms: C5_6  and  O2_7 
REMARK    5  A    between atoms: O2_7  and  C6_8 
REMARK    6  A    between atoms: C12_14  and  O3_15 
REMARK    7  A    between atoms: C13_18  and  C14_19 
REMARK    8  A    between atoms: C14_19  and  O5_20 
REMARK    9  A    between atoms: C15_22  and  O6_23 
REMARK   10  A    between atoms: C16_25  and  O7_26 
REMARK   11  A    between atoms: C17_28  and  C18_29 
REMARK   12  A    between atoms: C17_28  and  C20_33 
REMARK   13  A    between atoms: C18_29  and  O9_31 
REMARK   14  A    between atoms: C20_33  and  C22_35 
ROOT
HETATM    1  C4  UNL     1      -0.525   1.381  -0.119  1.00  0.00     0.214 C 
HETATM    2  C5  UNL     1       0.801   1.332  -0.890  1.00  0.00     0.292 C 
HETATM    3  O4  UNL     1       1.205   2.601  -1.205  1.00  0.00    -0.348 OA
HETATM    4  C13 UNL     1       0.291   3.602  -1.076  1.00  0.00     0.179 C 
HETATM    5  C15 UNL     1      -0.253   3.758   0.321  1.00  0.00     0.180 C 
HETATM    6  C16 UNL     1      -0.288   2.354   0.973  1.00  0.00     0.183 C 
ENDROOT
BRANCH   1   7
HETATM    7  O1  UNL     1      -1.070   0.168   0.101  1.00  0.00    -0.342 OA
BRANCH   7   8
HETATM    8  C3  UNL     1      -2.177  -0.369   0.697  1.00  0.00     0.059 C 
HETATM    9  C17 UNL     1      -3.151  -0.980   0.053  1.00  0.00     0.055 C 
BRANCH   8  10
HETATM   10  C2  UNL     1      -2.199  -0.206   2.165  1.00  0.00     0.061 C 
HETATM   11  C1  UNL     1      -0.846  -0.723   2.665  1.00  0.00     0.012 C 
ENDBRANCH   8  10
BRANCH   9  12
HETATM   12  C18 UNL     1      -4.358  -1.569   0.614  1.00  0.00     0.292 C 
HETATM   13  O8  UNL     1      -5.244  -2.156  -0.124  1.00  0.00    -0.259 OA
BRANCH  12  14
HETATM   14  O9  UNL     1      -4.671  -1.560   1.932  1.00  0.00    -0.323 OA
HETATM   15  C19 UNL     1      -5.832  -2.119   2.508  1.00  0.00     0.213 C 
ENDBRANCH  12  14
ENDBRANCH   9  12
BRANCH   9  16
HETATM   16  C20 UNL     1      -3.159  -1.208  -1.417  1.00  0.00     0.061 C 
HETATM   17  C21 UNL     1      -2.112  -0.727  -2.274  1.00  0.00     0.021 C 
BRANCH  16  18
HETATM   18  C22 UNL     1      -3.238  -2.716  -1.567  1.00  0.00     0.062 C 
HETATM   19  N1  UNL     1      -3.803  -3.190  -2.595  1.00  0.00    -0.410 N 
ATOM     20  H12 UNL     1      -4.191  -2.560  -3.297  1.00  0.00     0.155 HD
ATOM     21  H11 UNL     1      -3.856  -4.204  -2.696  1.00  0.00     0.155 HD
ENDBRANCH  16  18
ENDBRANCH   9  16
ENDBRANCH   7   8
ENDBRANCH   1   7
BRANCH   2  22
HETATM   22  O2  UNL     1       1.819   0.738  -0.187  1.00  0.00    -0.351 OA
BRANCH  22  23
HETATM   23  C6  UNL     1       2.303  -0.374  -0.872  1.00  0.00     0.153 C 
HETATM   24  C7  UNL     1       2.228  -1.562   0.002  1.00  0.00     0.039 C 
HETATM   25  C8  UNL     1       3.342  -2.526  -0.057  1.00  0.00    -0.016 C 
HETATM   26  C9  UNL     1       3.424  -3.249   1.297  1.00  0.00     0.010 C 
HETATM   27  C10 UNL     1       4.690  -1.978  -0.335  1.00  0.00     0.007 C 
HETATM   28  C11 UNL     1       4.675  -0.458  -0.213  1.00  0.00     0.034 C 
HETATM   29  C12 UNL     1       3.704  -0.018  -1.317  1.00  0.00     0.147 C 
BRANCH  29  30
HETATM   30  O3  UNL     1       4.056  -0.669  -2.486  1.00  0.00    -0.393 OA
ATOM     31  H3  UNL     1       4.936  -0.445  -2.766  1.00  0.00     0.210 HD
ENDBRANCH  29  30
ENDBRANCH  22  23
ENDBRANCH   2  22
BRANCH   6  32
HETATM   32  O7  UNL     1       1.029   2.243   1.498  1.00  0.00    -0.390 OA
ATOM     33  H7  UNL     1       1.181   2.867   2.198  1.00  0.00     0.210 HD
ENDBRANCH   6  32
BRANCH   5  34
HETATM   34  O6  UNL     1       0.510   4.605   1.101  1.00  0.00    -0.390 OA
ATOM     35  H6  UNL     1       0.167   4.703   1.981  1.00  0.00     0.210 HD
ENDBRANCH   5  34
BRANCH   4  36
HETATM   36  C14 UNL     1       1.033   4.914  -1.384  1.00  0.00     0.198 C 
BRANCH  36  37
HETATM   37  O5  UNL     1       0.192   6.003  -1.281  1.00  0.00    -0.398 OA
ATOM     38  H5  UNL     1       0.650   6.813  -1.471  1.00  0.00     0.209 HD
ENDBRANCH  36  37
ENDBRANCH   4  36
TORSDOF 14
