REMARK  14 active torsions:
REMARK  status: ('A' for Active; 'I' for Inactive)
REMARK    1  A    between atoms: O1_2  and  C2_3 
REMARK    2  A    between atoms: C3_5  and  C4_6 
REMARK    3  A    between atoms: C4_6  and  O3_7 
REMARK    4  A    between atoms: C5_9  and  O4_10 
REMARK    5  A    between atoms: C6_12  and  S1_13 
REMARK    6  A    between atoms: S1_13  and  C7_14 
REMARK    7  A    between atoms: C9_17  and  O6_18 
REMARK    8  A    between atoms: C10_20  and  N1_21 
REMARK    9  A    between atoms: N1_21  and  C11_24 
REMARK   10  A    between atoms: C11_24  and  C12_25 
REMARK   11  A    between atoms: C12_25  and  C13_26 
REMARK   12  A    between atoms: C13_26  and  C14_27 
REMARK   13  A    between atoms: C14_27  and  C15_28 
REMARK   14  A    between atoms: C18_33  and  O7_34 
ROOT
HETATM    1  C15 UNL     1       7.075  -0.436  -1.322  1.00  0.00     0.089 C 
HETATM    2  C16 UNL     1       6.290  -0.342  -2.617  1.00  0.00     0.025 C 
HETATM    3  C17 UNL     1       8.428  -0.889  -1.670  1.00  0.00     0.063 C 
HETATM    4  N2  UNL     1       9.495  -1.251  -1.966  1.00  0.00    -0.197 NA
ENDROOT
BRANCH   1   5
HETATM    5  C14 UNL     1       6.485  -1.466  -0.393  1.00  0.00     0.019 C 
BRANCH   5   6
HETATM    6  C13 UNL     1       5.059  -1.161  -0.012  1.00  0.00     0.003 C 
BRANCH   6   7
HETATM    7  C12 UNL     1       4.900   0.147   0.688  1.00  0.00     0.027 C 
BRANCH   7   8
HETATM    8  C11 UNL     1       3.409   0.318   1.011  1.00  0.00     0.233 C 
BRANCH   8   9
HETATM    9  N1  UNL     1       3.160   1.554   1.686  1.00  0.00    -0.059 N 
ATOM     10  H12 UNL     1       3.526   2.349   1.163  1.00  0.00     0.278 HD
ATOM     11  H11 UNL     1       3.731   1.646   2.526  1.00  0.00     0.278 HD
BRANCH   9  12
HETATM   12  C10 UNL     1       1.774   1.706   1.973  1.00  0.00     0.280 C 
HETATM   13  C9  UNL     1       1.198   0.664   2.906  1.00  0.00     0.182 C 
HETATM   14  C8  UNL     1      -0.299   0.996   2.973  1.00  0.00     0.205 C 
HETATM   15  O5  UNL     1      -1.045   0.342   2.033  1.00  0.00    -0.363 OA
HETATM   16  C7  UNL     1      -0.691   0.513   0.725  1.00  0.00     0.247 C 
HETATM   17  S2  UNL     1       0.720   1.633   0.475  1.00  0.00    -0.091 SA
BRANCH  13  18
HETATM   18  O6  UNL     1       1.753   0.712   4.166  1.00  0.00    -0.391 OA
ATOM     19  H6  UNL     1       2.680   0.507   4.125  1.00  0.00     0.210 HD
ENDBRANCH  13  18
BRANCH  16  20
HETATM   20  S1  UNL     1      -2.017   1.068  -0.357  1.00  0.00    -0.117 SA
BRANCH  20  21
HETATM   21  C6  UNL     1      -3.336  -0.160  -0.549  1.00  0.00     0.115 C 
HETATM   22  C5  UNL     1      -4.026  -0.316   0.763  1.00  0.00     0.165 C 
HETATM   23  C3  UNL     1      -5.382  -0.916   0.725  1.00  0.00     0.178 C 
HETATM   24  O2  UNL     1      -6.070  -0.857  -0.448  1.00  0.00    -0.349 OA
HETATM   25  C2  UNL     1      -5.725   0.184  -1.296  1.00  0.00     0.289 C 
HETATM   26  C18 UNL     1      -4.264   0.173  -1.660  1.00  0.00     0.189 C 
BRANCH  22  27
HETATM   27  O4  UNL     1      -4.000   0.886   1.513  1.00  0.00    -0.392 OA
ATOM     28  H4  UNL     1      -3.132   1.270   1.537  1.00  0.00     0.210 HD
ENDBRANCH  22  27
BRANCH  23  29
HETATM   29  C4  UNL     1      -5.276  -2.390   1.104  1.00  0.00     0.198 C 
BRANCH  29  30
HETATM   30  O3  UNL     1      -4.606  -3.105   0.114  1.00  0.00    -0.398 OA
ATOM     31  H3  UNL     1      -4.540  -4.023   0.350  1.00  0.00     0.209 HD
ENDBRANCH  29  30
ENDBRANCH  23  29
BRANCH  25  32
HETATM   32  O1  UNL     1      -6.141   1.420  -0.817  1.00  0.00    -0.363 OA
HETATM   33  C1  UNL     1      -7.072   1.956  -1.687  1.00  0.00     0.204 C 
ENDBRANCH  25  32
BRANCH  26  34
HETATM   34  O7  UNL     1      -3.955   1.482  -2.088  1.00  0.00    -0.389 OA
ATOM     35  H7  UNL     1      -3.033   1.475  -2.318  1.00  0.00     0.210 HD
ENDBRANCH  26  34
ENDBRANCH  20  21
ENDBRANCH  16  20
ENDBRANCH   9  12
ENDBRANCH   8   9
ENDBRANCH   7   8
ENDBRANCH   6   7
ENDBRANCH   5   6
ENDBRANCH   1   5
TORSDOF 14
