REMARK  6 active torsions:
REMARK  status: ('A' for Active; 'I' for Inactive)
REMARK    1  A    between atoms: C2_2  and  C3_3 
REMARK    2  A    between atoms: C4_8  and  N3_9 
REMARK    3  A    between atoms: N3_9  and  C5_11 
REMARK    4  A    between atoms: C8_14  and  C9_15 
REMARK    5  A    between atoms: C9_15  and  N4_16 
REMARK    6  A    between atoms: N5_23  and  C16_24 
ROOT
HETATM    1  C3  UNL     1      -3.747  -2.085  -0.350  1.00  0.00     0.138 A 
HETATM    2  N1  UNL     1      -2.601  -2.762  -0.540  1.00  0.00    -0.273 N 
ATOM      3  H1  UNL     1      -2.518  -3.777  -0.598  1.00  0.00     0.189 HD
HETATM    4  N2  UNL     1      -1.583  -1.892  -0.641  1.00  0.00    -0.130 N 
ATOM      5  H2  UNL     1      -0.600  -2.122  -0.787  1.00  0.00     0.205 HD
HETATM    6  C4  UNL     1      -2.105  -0.660  -0.513  1.00  0.00     0.715 A 
HETATM    7  N5  UNL     1      -3.428  -0.778  -0.335  1.00  0.00     0.036 N 
ENDROOT
BRANCH   6   8
HETATM    8  N3  UNL     1      -1.428   0.444  -0.557  1.00  0.00    -0.219 N 
ATOM      9  H3  UNL     1      -1.911   1.336  -0.450  1.00  0.00     0.178 HD
BRANCH   8  10
HETATM   10  C5  UNL     1       0.008   0.425  -0.757  1.00  0.00     0.099 C 
HETATM   11  C6  UNL     1       0.421   1.826  -1.138  1.00  0.00     0.026 C 
HETATM   12  C7  UNL     1       1.898   2.028  -1.179  1.00  0.00     0.008 C 
HETATM   13  C8  UNL     1       2.615   1.447   0.018  1.00  0.00     0.014 C 
HETATM   14  C14 UNL     1       1.636   0.966   1.035  1.00  0.00     0.008 C 
HETATM   15  C15 UNL     1       0.681  -0.070   0.491  1.00  0.00     0.026 C 
BRANCH  13  16
HETATM   16  C9  UNL     1       3.511   0.342  -0.500  1.00  0.00     0.277 C 
BRANCH  16  17
HETATM   17  N4  UNL     1       4.262  -0.309   0.529  1.00  0.00     0.088 N 
HETATM   18  C10 UNL     1       5.070  -1.337  -0.091  1.00  0.00     0.272 C 
HETATM   19  C11 UNL     1       6.444  -0.709  -0.191  1.00  0.00     0.032 C 
HETATM   20  C12 UNL     1       6.528  -0.026   1.181  1.00  0.00     0.032 C 
HETATM   21  C13 UNL     1       5.123   0.549   1.278  1.00  0.00     0.272 C 
ENDBRANCH  16  17
ENDBRANCH  13  16
ENDBRANCH   8  10
ENDBRANCH   6   8
BRANCH   7  22
HETATM   22  C16 UNL     1      -4.375   0.277  -0.156  1.00  0.00     0.704 A 
HETATM   23  N6  UNL     1      -5.081   0.374   0.966  1.00  0.00    -0.198 N 
HETATM   24  C17 UNL     1      -5.987   1.343   1.193  1.00  0.00     0.149 A 
ATOM     25  H6  UNL     1      -4.928  -0.324   1.694  1.00  0.00     0.183 HD
HETATM   26  C18 UNL     1      -6.218   2.302   0.232  1.00  0.00     0.148 A 
HETATM   27  F1  UNL     1      -7.122   3.285   0.437  1.00  0.00    -0.203 F 
HETATM   28  C19 UNL     1      -5.478   2.194  -0.936  1.00  0.00     0.149 A 
HETATM   29  N7  UNL     1      -4.582   1.207  -1.120  1.00  0.00    -0.198 N 
ATOM     30  H7  UNL     1      -4.055   1.158  -1.992  1.00  0.00     0.183 HD
ENDBRANCH   7  22
BRANCH   1  31
HETATM   31  C2  UNL     1      -5.113  -2.643  -0.186  1.00  0.00     0.075 C 
HETATM   32  C1  UNL     1      -5.454  -2.921   1.241  1.00  0.00     0.013 C 
ENDBRANCH   1  31
TORSDOF 6
