REMARK  6 active torsions:
REMARK  status: ('A' for Active; 'I' for Inactive)
REMARK    1  A    between atoms: O1_2  and  C2_3 
REMARK    2  A    between atoms: C4_6  and  C5_7 
REMARK    3  A    between atoms: C5_7  and  O3_9 
REMARK    4  A    between atoms: O3_9  and  C6_10 
REMARK    5  A    between atoms: C6_10  and  C7_11 
REMARK       I    between atoms: C7_11  and  N1_13 
REMARK    6  A    between atoms: N1_13  and  C8_15 
ROOT
HETATM    1  O3  UNL     1       1.494   0.855   0.826  1.00  0.00    -0.308 OA
ENDROOT
BRANCH   1   2
HETATM    2  C5  UNL     1       1.937  -0.337   0.332  1.00  0.00     0.302 C 
HETATM    3  O2  UNL     1       1.265  -1.362   0.409  1.00  0.00    -0.259 OA
BRANCH   2   4
HETATM    4  C4  UNL     1       3.263  -0.403  -0.315  1.00  0.00     0.100 A 
HETATM    5  S1  UNL     1       4.385   0.858  -0.548  1.00  0.00    -0.092 SA
HETATM    6  C3  UNL     1       5.616  -0.004  -1.340  1.00  0.00     0.088 A 
HETATM    7  C2  UNL     1       5.114  -1.270  -1.404  1.00  0.00     0.093 A 
HETATM    8  C13 UNL     1       3.888  -1.484  -0.872  1.00  0.00     0.068 A 
HETATM    9 BR1  UNL     1       2.991  -3.225  -0.863  1.00  0.00    -0.046 Br
BRANCH   7  10
HETATM   10  O1  UNL     1       5.856  -2.316  -2.008  1.00  0.00    -0.354 OA
HETATM   11  C1  UNL     1       7.115  -2.112  -2.559  1.00  0.00     0.210 C 
ENDBRANCH   7  10
ENDBRANCH   2   4
ENDBRANCH   1   2
BRANCH   1  12
HETATM   12  C6  UNL     1       0.249   1.043   1.459  1.00  0.00     0.281 C 
BRANCH  12  13
HETATM   13  C7  UNL     1      -0.918   0.762   0.596  1.00  0.00     0.242 C 
HETATM   14  O4  UNL     1      -0.729   0.409  -0.588  1.00  0.00    -0.271 OA
HETATM   15  N1  UNL     1      -2.216   0.887   1.093  1.00  0.00    -0.355 N 
ATOM     16  H1  UNL     1      -2.326   1.178   2.065  1.00  0.00     0.162 HD
BRANCH  15  17
HETATM   17  C8  UNL     1      -3.419   0.633   0.326  1.00  0.00     0.084 C 
HETATM   18  C9  UNL     1      -4.173  -0.460   1.054  1.00  0.00     0.025 C 
HETATM   19  C10 UNL     1      -5.398   0.213   1.640  1.00  0.00     0.002 C 
HETATM   20  C11 UNL     1      -5.643   1.411   0.746  1.00  0.00     0.002 C 
HETATM   21  C12 UNL     1      -4.303   1.823   0.207  1.00  0.00     0.025 C 
ENDBRANCH  15  17
ENDBRANCH  12  13
ENDBRANCH   1  12
TORSDOF 6
