REMARK  7 active torsions:
REMARK  status: ('A' for Active; 'I' for Inactive)
REMARK    1  A    between atoms: C2_2  and  O1_3 
REMARK    2  A    between atoms: O1_3  and  C3_4 
REMARK    3  A    between atoms: C3_4  and  C4_6 
REMARK    4  A    between atoms: C5_8  and  N1_9 
REMARK    5  A    between atoms: N1_9  and  C6_11 
REMARK    6  A    between atoms: C6_11  and  C7_12 
REMARK    7  A    between atoms: C7_12  and  N2_13 
ROOT
HETATM    1  N1  UNL     1      -0.385  -0.600   0.192  1.00  0.00    -0.368 N 
ATOM      2  H1  UNL     1      -0.785  -1.127   0.968  1.00  0.00     0.161 HD
ENDROOT
BRANCH   1   3
HETATM    3  C5  UNL     1       0.915  -0.422   0.150  1.00  0.00     0.145 A 
HETATM    4  S1  UNL     1       1.861   0.402  -1.005  1.00  0.00    -0.046 SA
HETATM    5  C4  UNL     1       3.393   0.153  -0.290  1.00  0.00     0.105 A 
HETATM    6  C16 UNL     1       3.071  -0.569   0.825  1.00  0.00     0.030 A 
HETATM    7  N3  UNL     1       1.818  -0.851   1.032  1.00  0.00    -0.339 N 
HETATM    8  C17 UNL     1       4.185  -1.005   1.759  1.00  0.00     0.070 C 
ATOM      9  H3  UNL     1       1.533  -1.388   1.851  1.00  0.00     0.168 HD
BRANCH   5  10
HETATM   10  C3  UNL     1       4.703   0.611  -0.782  1.00  0.00     0.302 C 
HETATM   11  O2  UNL     1       4.757   1.258  -1.850  1.00  0.00    -0.259 OA
BRANCH  10  12
HETATM   12  O1  UNL     1       5.814   0.300  -0.030  1.00  0.00    -0.317 OA
BRANCH  12  13
HETATM   13  C2  UNL     1       7.107   0.711  -0.447  1.00  0.00     0.174 C 
HETATM   14  C1  UNL     1       8.073   0.202   0.618  1.00  0.00     0.034 C 
ENDBRANCH  12  13
ENDBRANCH  10  12
ENDBRANCH   5  10
ENDBRANCH   1   3
BRANCH   1  15
HETATM   15  C6  UNL     1      -1.253  -0.084  -0.807  1.00  0.00     0.163 C 
BRANCH  15  16
HETATM   16  C7  UNL     1      -2.636   0.243  -0.372  1.00  0.00     0.178 C 
HETATM   17  C11 UNL     1      -2.518   1.365   0.661  1.00  0.00     0.046 C 
HETATM   18  C12 UNL     1      -3.858   1.897   1.056  1.00  0.00     0.040 C 
HETATM   19  C13 UNL     1      -4.748   2.273  -0.084  1.00  0.00     0.170 C 
HETATM   20  F1  UNL     1      -4.286   3.413  -0.682  1.00  0.00    -0.249 F 
HETATM   21  C14 UNL     1      -4.807   1.153  -1.096  1.00  0.00     0.040 C 
HETATM   22  C15 UNL     1      -3.365   0.877  -1.537  1.00  0.00     0.046 C 
BRANCH  16  23
HETATM   23  N2  UNL     1      -3.430  -0.805   0.149  1.00  0.00     0.124 N 
HETATM   24  C8  UNL     1      -3.031  -1.419   1.367  1.00  0.00     0.302 C 
HETATM   25  C9  UNL     1      -2.797  -2.848   1.011  1.00  0.00     0.200 C 
HETATM   26  O3  UNL     1      -3.044  -3.015  -0.325  1.00  0.00    -0.361 OA
HETATM   27  C10 UNL     1      -3.665  -1.865  -0.804  1.00  0.00     0.441 C 
ENDBRANCH  16  23
ENDBRANCH  15  16
ENDBRANCH   1  15
TORSDOF 7
