REMARK  6 active torsions:
REMARK  status: ('A' for Active; 'I' for Inactive)
REMARK    1  A    between atoms: O1_1  and  C1_3 
REMARK    2  A    between atoms: C1_3  and  C2_4 
REMARK    3  A    between atoms: C2_4  and  C3_5 
REMARK    4  A    between atoms: C3_5  and  N1_6 
REMARK    5  A    between atoms: C6_10  and  C7_11 
REMARK    6  A    between atoms: C11_16  and  C12_17 
ROOT
HETATM    1  N1  UNL     1       1.235  -0.326   0.396  1.00  0.00    -0.366 N 
HETATM    2  C4  UNL     1       1.490  -1.428  -0.379  1.00  0.00     0.089 C 
HETATM    3  C5  UNL     1       0.708  -2.637   0.096  1.00  0.00     0.213 C 
HETATM    4  O2  UNL     1      -0.525  -2.460   0.549  1.00  0.00    -0.373 OA
HETATM    5  C6  UNL     1      -1.023  -1.210   0.830  1.00  0.00     0.189 C 
HETATM    6  C15 UNL     1      -0.061  -0.105   0.912  1.00  0.00     0.165 C 
ENDROOT
BRANCH   5   7
HETATM    7  C7  UNL     1      -2.149  -0.945  -0.162  1.00  0.00     0.040 A 
HETATM    8  C8  UNL     1      -1.982  -1.440  -1.445  1.00  0.00     0.031 A 
HETATM    9  C9  UNL     1      -2.993  -1.270  -2.343  1.00  0.00     0.046 A 
HETATM   10  C10 UNL     1      -4.113  -0.632  -1.952  1.00  0.00     0.139 A 
HETATM   11  F1  UNL     1      -5.131  -0.472  -2.837  1.00  0.00    -0.204 F 
HETATM   12  C11 UNL     1      -4.308  -0.110  -0.639  1.00  0.00     0.052 A 
HETATM   13  N2  UNL     1      -3.279  -0.302   0.195  1.00  0.00    -0.358 N 
ATOM     14  H2  UNL     1      -3.353   0.056   1.147  1.00  0.00     0.165 HD
BRANCH  12  15
HETATM   15  C12 UNL     1      -5.633   0.444  -0.398  1.00  0.00     0.039 A 
HETATM   16  C13 UNL     1      -6.094   1.709   0.221  1.00  0.00     0.011 A 
HETATM   17  C14 UNL     1      -5.960   0.532   1.124  1.00  0.00     0.011 A 
ENDBRANCH  12  15
ENDBRANCH   5   7
BRANCH   1  18
HETATM   18  C3  UNL     1       1.799   0.892  -0.014  1.00  0.00     0.103 C 
BRANCH  18  19
HETATM   19  C2  UNL     1       3.259   1.101   0.077  1.00  0.00     0.114 C 
HETATM   20  C16 UNL     1       4.131   0.509  -0.953  1.00  0.00     0.048 C 
HETATM   21  C17 UNL     1       5.198  -0.243  -0.181  1.00  0.00     0.030 C 
HETATM   22  C18 UNL     1       4.645  -0.211   1.221  1.00  0.00     0.169 C 
HETATM   23  O3  UNL     1       3.828   0.902   1.341  1.00  0.00    -0.372 OA
BRANCH  19  24
HETATM   24  C1  UNL     1       3.422   2.652  -0.100  1.00  0.00     0.207 C 
BRANCH  24  25
HETATM   25  O1  UNL     1       2.742   3.289   0.938  1.00  0.00    -0.398 OA
ATOM     26  H1  UNL     1       2.841   4.228   0.831  1.00  0.00     0.209 HD
ENDBRANCH  24  25
ENDBRANCH  19  24
ENDBRANCH  18  19
ENDBRANCH   1  18
TORSDOF 6
