REMARK  5 active torsions:
REMARK  status: ('A' for Active; 'I' for Inactive)
REMARK    1  A    between atoms: N2_5  and  C3_6 
REMARK    2  A    between atoms: C3_6  and  C5_8 
REMARK       I    between atoms: C5_8  and  N3_10 
REMARK    3  A    between atoms: N3_10  and  C6_12 
REMARK    4  A    between atoms: C6_12  and  C7_13 
REMARK    5  A    between atoms: C11_20  and  N5_21 
ROOT
HETATM    1  C1  UNL     1      -2.749  -0.113   2.840  1.00  0.00     0.074 C 
HETATM    2  C2  UNL     1      -2.165  -0.355   1.515  1.00  0.00     0.069 A 
HETATM    3  N1  UNL     1      -0.851  -0.684   1.348  1.00  0.00    -0.284 N 
ATOM      4  H1  UNL     1      -0.177  -0.788   2.107  1.00  0.00     0.188 HD
HETATM    5  N2  UNL     1      -0.577  -0.847   0.087  1.00  0.00    -0.219 N 
HETATM    6  N4  UNL     1      -1.698  -0.627  -0.580  1.00  0.00    -0.266 N 
ATOM      7  H4  UNL     1      -1.790  -0.681  -1.594  1.00  0.00     0.190 HD
HETATM    8  C11 UNL     1      -2.702  -0.321   0.266  1.00  0.00     0.144 A 
ENDROOT
BRANCH   5   9
HETATM    9  C3  UNL     1       0.695  -1.199  -0.511  1.00  0.00     0.214 C 
HETATM   10  C4  UNL     1       0.962  -2.671  -0.301  1.00  0.00     0.046 C 
BRANCH   9  11
HETATM   11  C5  UNL     1       1.825  -0.462   0.133  1.00  0.00     0.243 C 
HETATM   12  O1  UNL     1       1.526   0.328   1.065  1.00  0.00    -0.271 OA
HETATM   13  N3  UNL     1       3.163  -0.633  -0.273  1.00  0.00    -0.357 N 
ATOM     14  H3  UNL     1       3.388  -1.277  -1.031  1.00  0.00     0.162 HD
BRANCH  13  15
HETATM   15  C6  UNL     1       4.203   0.095   0.377  1.00  0.00     0.154 C 
BRANCH  15  16
HETATM   16  C7  UNL     1       5.570  -0.185  -0.156  1.00  0.00     0.139 C 
HETATM   17  C8  UNL     1       6.591   0.556   0.649  1.00  0.00     0.035 C 
HETATM   18  C9  UNL     1       7.254   1.463  -0.335  1.00  0.00     0.029 C 
HETATM   19  C10 UNL     1       6.551   1.192  -1.620  1.00  0.00     0.168 C 
HETATM   20  O2  UNL     1       5.741   0.103  -1.475  1.00  0.00    -0.384 OA
ENDBRANCH  15  16
ENDBRANCH  13  15
ENDBRANCH   9  11
ENDBRANCH   5   9
BRANCH   8  21
HETATM   21  N5  UNL     1      -4.056  -0.017  -0.029  1.00  0.00    -0.347 N 
HETATM   22  C12 UNL     1      -4.586   1.274   0.359  1.00  0.00     0.126 C 
HETATM   23  C13 UNL     1      -5.281   1.819  -0.895  1.00  0.00     0.020 C 
HETATM   24  C14 UNL     1      -6.485   0.976  -1.223  1.00  0.00     0.005 C 
HETATM   25  C15 UNL     1      -6.362  -0.335  -0.475  1.00  0.00     0.041 C 
HETATM   26  C16 UNL     1      -4.975  -0.911  -0.701  1.00  0.00     0.183 C 
HETATM   27 CL1  UNL     1      -4.944  -2.549  -0.049  1.00  0.00    -0.102 Cl
ENDBRANCH   8  21
TORSDOF 5
