REMARK  6 active torsions:
REMARK  status: ('A' for Active; 'I' for Inactive)
REMARK    1  A    between atoms: C3_3  and  C4_4 
REMARK    2  A    between atoms: C4_4  and  C5_5 
REMARK    3  A    between atoms: C5_5  and  N1_6 
REMARK    4  A    between atoms: N1_6  and  C6_8 
REMARK    5  A    between atoms: C9_17  and  C10_18 
REMARK    6  A    between atoms: C10_18  and  N5_19 
ROOT
HETATM    1  C1  UNL     1       5.297  -0.024  -3.493  1.00  0.00     0.012 C 
HETATM    2  C2  UNL     1       4.631  -0.253  -2.507  1.00  0.00    -0.117 C 
HETATM    3  C3  UNL     1       3.842  -0.539  -1.299  1.00  0.00     0.094 C 
ENDROOT
BRANCH   3   4
HETATM    4  C4  UNL     1       3.861   0.715  -0.421  1.00  0.00     0.032 C 
BRANCH   4   5
HETATM    5  C5  UNL     1       3.070   0.493   0.838  1.00  0.00     0.122 C 
BRANCH   5   6
HETATM    6  N1  UNL     1       1.696   0.180   0.564  1.00  0.00    -0.375 N 
ATOM      7  H1  UNL     1       1.395   0.050  -0.402  1.00  0.00     0.161 HD
BRANCH   6   8
HETATM    8  C6  UNL     1       0.837   0.060   1.516  1.00  0.00     0.117 A 
HETATM    9  N2  UNL     1       1.263   0.234   2.773  1.00  0.00    -0.319 N 
HETATM   10  C7  UNL     1       0.415   0.125   3.821  1.00  0.00     0.178 A 
ATOM     11  H2  UNL     1       2.245   0.453   2.944  1.00  0.00     0.170 HD
HETATM   12  S1  UNL     1       0.949   0.341   5.356  1.00  0.00    -0.040 SA
HETATM   13  N3  UNL     1      -0.865  -0.163   3.573  1.00  0.00    -0.321 N 
HETATM   14  C8  UNL     1      -1.337  -0.348   2.304  1.00  0.00     0.133 A 
ATOM     15  H3  UNL     1      -1.512  -0.248   4.357  1.00  0.00     0.169 HD
HETATM   16  N4  UNL     1      -2.712  -0.698   2.207  1.00  0.00    -0.082 NA
HETATM   17  C9  UNL     1      -0.504  -0.243   1.225  1.00  0.00     0.059 A 
BRANCH  17  18
HETATM   18  C10 UNL     1      -0.867  -0.465  -0.158  1.00  0.00     0.078 C 
BRANCH  18  19
HETATM   19  N5  UNL     1      -2.276  -0.672  -0.457  1.00  0.00    -0.292 NA
HETATM   20  C11 UNL     1      -2.293  -1.242  -1.852  1.00  0.00     0.095 C 
HETATM   21  C12 UNL     1      -3.739  -0.993  -2.208  1.00  0.00     0.016 C 
HETATM   22  C13 UNL     1      -3.845   0.473  -1.866  1.00  0.00     0.016 C 
HETATM   23  C14 UNL     1      -2.901   0.642  -0.720  1.00  0.00     0.095 C 
ENDBRANCH  18  19
ENDBRANCH  17  18
ENDBRANCH   6   8
ENDBRANCH   5   6
ENDBRANCH   4   5
ENDBRANCH   3   4
TORSDOF 6
