REMARK  7 active torsions:
REMARK  status: ('A' for Active; 'I' for Inactive)
REMARK    1  A    between atoms: C2_2  and  C4_4 
REMARK    2  A    between atoms: C4_4  and  N1_5 
REMARK    3  A    between atoms: C4_4  and  C8_13 
REMARK       I    between atoms: N1_5  and  C5_7 
REMARK    4  A    between atoms: C5_7  and  O2_9 
REMARK    5  A    between atoms: O2_9  and  C6_10 
REMARK    6  A    between atoms: C8_13  and  O4_15 
REMARK    7  A    between atoms: O4_15  and  C9_16 
ROOT
HETATM    1  C6  UNL     1       5.607   2.794  -1.615  1.00  0.00     0.304 C 
HETATM    2  C7  UNL     1       6.336   2.904  -2.896  1.00  0.00     0.086 C 
HETATM    3  N2  UNL     1       6.904   2.971  -3.899  1.00  0.00    -0.195 NA
ENDROOT
BRANCH   1   4
HETATM    4  O2  UNL     1       4.582   1.846  -1.822  1.00  0.00    -0.290 OA
BRANCH   4   5
HETATM    5  C5  UNL     1       3.678   1.469  -0.841  1.00  0.00     0.362 C 
HETATM    6  N1  UNL     1       2.663   0.510  -1.094  1.00  0.00    -0.323 N 
ATOM      7  H1  UNL     1       2.610   0.097  -2.025  1.00  0.00     0.165 HD
HETATM    8  O1  UNL     1       3.804   2.020   0.285  1.00  0.00    -0.238 OA
BRANCH   6   9
HETATM    9  C4  UNL     1       1.700   0.087  -0.103  1.00  0.00     0.190 C 
BRANCH   9  10
HETATM   10  C2  UNL     1       1.861  -1.388   0.163  1.00  0.00     0.010 C 
HETATM   11  C1  UNL     1       0.901  -1.901   1.181  1.00  0.00     0.012 C 
HETATM   12  C3  UNL     1       3.265  -1.740   0.592  1.00  0.00     0.012 C 
ENDBRANCH   9  10
BRANCH   9  13
HETATM   13  C8  UNL     1       0.315   0.356  -0.503  1.00  0.00     0.282 C 
HETATM   14  O3  UNL     1      -0.014   0.894  -1.596  1.00  0.00    -0.263 OA
BRANCH  13  15
HETATM   15  O4  UNL     1      -0.734   0.017   0.336  1.00  0.00    -0.312 OA
BRANCH  15  16
HETATM   16  C9  UNL     1      -2.084   0.257  -0.001  1.00  0.00     0.164 C 
HETATM   17  C10 UNL     1      -2.773   1.155   0.998  1.00  0.00     0.305 C 
HETATM   18  N3  UNL     1      -4.201   0.804   0.963  1.00  0.00     0.090 N 
HETATM   19  C11 UNL     1      -4.617   0.478  -0.374  1.00  0.00     0.273 C 
HETATM   20  C15 UNL     1      -4.334  -0.383   1.789  1.00  0.00     0.273 C 
HETATM   21  C12 UNL     1      -4.072  -0.892  -0.793  1.00  0.00     0.037 C 
HETATM   22  C13 UNL     1      -2.796  -1.079   0.037  1.00  0.00     0.020 C 
HETATM   23  C14 UNL     1      -3.168  -1.334   1.485  1.00  0.00     0.037 C 
ENDBRANCH  15  16
ENDBRANCH  13  15
ENDBRANCH   9  13
ENDBRANCH   6   9
ENDBRANCH   4   5
ENDBRANCH   1   4
TORSDOF 7
