REMARK  10 active torsions:
REMARK  status: ('A' for Active; 'I' for Inactive)
REMARK    1  A    between atoms: C2_7  and  C3_8 
REMARK    2  A    between atoms: C3_8  and  O1_9 
REMARK    3  A    between atoms: O1_9  and  C4_10 
REMARK    4  A    between atoms: C9_16  and  C10_17 
REMARK    5  A    between atoms: C10_17  and  C11_18 
REMARK    6  A    between atoms: C10_17  and  C18_26 
REMARK    7  A    between atoms: C11_18  and  C12_19 
REMARK    8  A    between atoms: C12_19  and  N3_20 
REMARK    9  A    between atoms: C18_26  and  O3_27 
REMARK   10  A    between atoms: O3_27  and  N4_28 
ROOT
HETATM    1  C4  UNL     1       2.788   0.895   0.522  1.00  0.00     0.070 A 
HETATM    2  C5  UNL     1       3.037   0.700   1.860  1.00  0.00     0.039 A 
HETATM    3  C6  UNL     1       2.136   0.100   2.741  1.00  0.00     0.041 A 
HETATM    4  C7  UNL     1       0.913  -0.326   2.255  1.00  0.00     0.086 A 
HETATM    5  O2  UNL     1      -0.125  -0.893   2.770  1.00  0.00    -0.321 OA
HETATM    6  C8  UNL     1      -1.081  -1.097   1.857  1.00  0.00     0.151 A 
HETATM    7  C9  UNL     1      -0.637  -0.631   0.653  1.00  0.00    -0.016 A 
HETATM    8  C19 UNL     1       0.646  -0.137   0.906  1.00  0.00     0.009 A 
HETATM    9  C20 UNL     1       1.547   0.453   0.056  1.00  0.00     0.051 A 
ENDROOT
BRANCH   7  10
HETATM   10  C10 UNL     1      -1.255  -0.655  -0.698  1.00  0.00     0.049 C 
BRANCH  10  11
HETATM   11  C11 UNL     1      -2.779  -0.622  -0.605  1.00  0.00     0.032 C 
BRANCH  11  12
HETATM   12  C12 UNL     1      -3.113   0.708   0.071  1.00  0.00     0.128 C 
BRANCH  12  13
HETATM   13  N3  UNL     1      -4.519   0.888   0.217  1.00  0.00    -0.366 N 
HETATM   14  C13 UNL     1      -5.091   0.428   1.354  1.00  0.00     0.090 A 
HETATM   15  C14 UNL     1      -6.432   0.614   1.575  1.00  0.00     0.017 A 
HETATM   16  C15 UNL     1      -7.256   1.265   0.668  1.00  0.00     0.003 A 
HETATM   17  C16 UNL     1      -6.642   1.722  -0.482  1.00  0.00     0.017 A 
HETATM   18  C17 UNL     1      -5.278   1.526  -0.690  1.00  0.00     0.090 A 
ENDBRANCH  12  13
ENDBRANCH  11  12
ENDBRANCH  10  11
BRANCH  10  19
HETATM   19  C18 UNL     1      -0.846  -1.920  -1.449  1.00  0.00     0.210 C 
BRANCH  19  20
HETATM   20  O3  UNL     1      -1.284  -3.031  -0.727  1.00  0.00    -0.287 OA
BRANCH  20  21
HETATM   21  N4  UNL     1      -0.982  -4.182  -1.291  1.00  0.00    -0.311 N 
ATOM     22  H42 UNL     1      -0.475  -4.239  -2.174  1.00  0.00     0.184 HD
ATOM     23  H41 UNL     1      -1.302  -4.994  -0.763  1.00  0.00     0.184 HD
ENDBRANCH  20  21
ENDBRANCH  19  20
ENDBRANCH  10  19
ENDBRANCH   7  10
BRANCH   1  24
HETATM   24  O1  UNL     1       3.627   1.470  -0.360  1.00  0.00    -0.344 OA
BRANCH  24  25
HETATM   25  C3  UNL     1       4.878   1.992  -0.349  1.00  0.00     0.254 C 
BRANCH  25  26
HETATM   26  C2  UNL     1       6.054   1.113  -0.151  1.00  0.00     0.129 A 
HETATM   27  N2  UNL     1       6.972   0.880  -1.166  1.00  0.00    -0.307 N 
HETATM   28  C1  UNL     1       7.932   0.063  -0.740  1.00  0.00     0.242 A 
ATOM     29  H2  UNL     1       6.918   1.278  -2.104  1.00  0.00     0.171 HD
HETATM   30  N1  UNL     1       8.967  -0.390  -1.383  1.00  0.00    -0.364 N 
HETATM   31  O4  UNL     1       7.646  -0.224   0.502  1.00  0.00    -0.200 OA
ATOM     32  H12 UNL     1       9.190  -0.166  -2.353  1.00  0.00     0.159 HD
ATOM     33  H11 UNL     1       9.703  -1.016  -1.056  1.00  0.00     0.159 HD
HETATM   34  N5  UNL     1       6.528   0.399   0.856  1.00  0.00    -0.243 N 
ATOM     35  H5  UNL     1       6.095   0.336   1.777  1.00  0.00     0.196 HD
ENDBRANCH  25  26
ENDBRANCH  24  25
ENDBRANCH   1  24
TORSDOF 10
