REMARK  1 active torsions:
REMARK  status: ('A' for Active; 'I' for Inactive)
REMARK    1  A    between atoms: O1_1  and  C1_3 
ROOT
HETATM    1  C1  UNL     1       2.261   0.798   0.141  1.00  0.00     0.170 C 
HETATM    2  C2  UNL     1       0.912   1.424   0.172  1.00  0.00     0.091 C 
HETATM    3  N1  UNL     1      -0.196   0.596   0.129  1.00  0.00    -0.386 N 
HETATM    4  C3  UNL     1      -1.348   1.045   0.917  1.00  0.00     0.122 C 
HETATM    5  C4  UNL     1      -2.553   0.668   0.070  1.00  0.00     0.020 C 
HETATM    6  C5  UNL     1      -2.566  -0.807  -0.135  1.00  0.00     0.004 C 
HETATM    7  C6  UNL     1      -1.259  -1.394  -0.553  1.00  0.00     0.025 C 
HETATM    8  C7  UNL     1      -0.100  -0.788   0.257  1.00  0.00     0.084 C 
HETATM    9  C8  UNL     1       1.189  -1.435  -0.078  1.00  0.00     0.044 C 
HETATM   10  C9  UNL     1       2.235  -0.501  -0.626  1.00  0.00     0.093 C 
HETATM   11 BR1  UNL     1       3.976  -1.338  -0.364  1.00  0.00    -0.088 Br
ENDROOT
BRANCH   1  12
HETATM   12  O1  UNL     1       3.167   1.631  -0.547  1.00  0.00    -0.389 OA
ATOM     13  H1  UNL     1       4.029   1.231  -0.567  1.00  0.00     0.210 HD
ENDBRANCH   1  12
TORSDOF 1
