REMARK  10 active torsions:
REMARK  status: ('A' for Active; 'I' for Inactive)
REMARK    1  A    between atoms: C3_3  and  C4_4 
REMARK    2  A    between atoms: C4_4  and  N1_5 
REMARK    3  A    between atoms: N1_5  and  C5_6 
REMARK    4  A    between atoms: C5_6  and  O1_7 
REMARK    5  A    between atoms: O1_7  and  C6_8 
REMARK    6  A    between atoms: C6_8  and  C7_9 
REMARK    7  A    between atoms: C7_9  and  C8_10 
REMARK    8  A    between atoms: C8_10  and  C9_11 
REMARK    9  A    between atoms: C9_11  and  C10_12 
REMARK   10  A    between atoms: C15_23  and  N4_24 
ROOT
HETATM    1  C1  UNL     1       5.124   3.191   0.144  1.00  0.00     0.112 C 
HETATM    2  C2  UNL     1       3.906   2.359   0.019  1.00  0.00    -0.109 C 
HETATM    3  C3  UNL     1       2.915   1.684  -0.103  1.00  0.00    -0.079 C 
ENDROOT
BRANCH   3   4
HETATM    4  C4  UNL     1       1.715   0.896  -0.249  1.00  0.00     0.333 C 
BRANCH   4   5
HETATM    5  N1  UNL     1       1.949  -0.493  -0.464  1.00  0.00    -0.032 N 
HETATM    6  C14 UNL     1       2.613  -1.126   0.625  1.00  0.00     0.275 C 
HETATM    7  C15 UNL     1       3.442  -1.925  -0.354  1.00  0.00     0.235 C 
HETATM    8  C16 UNL     1       3.149  -0.774  -1.262  1.00  0.00     0.275 C 
BRANCH   5   9
HETATM    9  C5  UNL     1       0.812  -1.166  -1.053  1.00  0.00     0.406 C 
BRANCH   9  10
HETATM   10  O1  UNL     1       0.056  -1.935  -0.316  1.00  0.00    -0.360 OA
BRANCH  10  11
HETATM   11  C6  UNL     1      -0.754  -1.677   0.671  1.00  0.00     0.231 C 
BRANCH  11  12
HETATM   12  C7  UNL     1      -2.045  -0.947   0.487  1.00  0.00     0.222 C 
HETATM   13  N2  UNL     1      -2.918  -1.629  -0.468  1.00  0.00    -0.038 N 
HETATM   14  C12 UNL     1      -3.174  -2.931   0.145  1.00  0.00     0.337 C 
ATOM     15  H22 UNL     1      -3.761  -1.108  -0.710  1.00  0.00     0.280 HD
ATOM     16  H21 UNL     1      -2.543  -1.680  -1.415  1.00  0.00     0.280 HD
HETATM   17  C13 UNL     1      -3.210  -2.603   1.610  1.00  0.00     0.245 C 
HETATM   18  O2  UNL     1      -3.539  -3.423   2.512  1.00  0.00    -0.272 OA
HETATM   19  N3  UNL     1      -2.816  -1.259   1.719  1.00  0.00    -0.325 N 
ATOM     20  H3  UNL     1      -3.019  -0.623   2.490  1.00  0.00     0.165 HD
BRANCH  12  21
HETATM   21  C8  UNL     1      -2.009   0.514   0.385  1.00  0.00     0.064 C 
BRANCH  21  22
HETATM   22  C9  UNL     1      -3.383   1.150   0.215  1.00  0.00     0.004 C 
BRANCH  22  23
HETATM   23  C10 UNL     1      -3.127   2.663   0.148  1.00  0.00    -0.004 C 
HETATM   24  C11 UNL     1      -4.423   3.401  -0.022  1.00  0.00     0.005 C 
ENDBRANCH  22  23
ENDBRANCH  21  22
ENDBRANCH  12  21
ENDBRANCH  11  12
ENDBRANCH  10  11
ENDBRANCH   9  10
ENDBRANCH   5   9
BRANCH   7  25
HETATM   25  N4  UNL     1       4.788  -2.051   0.111  1.00  0.00    -0.072 N 
ATOM     26  H43 UNL     1       5.207  -1.142   0.308  1.00  0.00     0.274 HD
ATOM     27  H42 UNL     1       4.828  -2.445   1.051  1.00  0.00     0.274 HD
ATOM     28  H41 UNL     1       5.347  -2.590  -0.550  1.00  0.00     0.274 HD
ENDBRANCH   7  25
ENDBRANCH   4   5
ENDBRANCH   3   4
TORSDOF 10
