REMARK  6 active torsions:
REMARK  status: ('A' for Active; 'I' for Inactive)
REMARK    1  A    between atoms: O1_2  and  C2_3 
REMARK    2  A    between atoms: C4_7  and  N2_8 
REMARK    3  A    between atoms: N2_8  and  C5_10 
REMARK    4  A    between atoms: C11_21  and  C12_22 
REMARK    5  A    between atoms: C12_22  and  O3_24 
REMARK    6  A    between atoms: O3_24  and  C13_25 
ROOT
HETATM    1  C2  UNL     1      -0.014  -2.129   0.457  1.00  0.00     0.117 A 
HETATM    2  C3  UNL     1       1.358  -2.284   0.460  1.00  0.00     0.145 A 
HETATM    3  N1  UNL     1       2.146  -1.218   0.249  1.00  0.00    -0.199 N 
ATOM      4  H1  UNL     1       3.156  -1.359   0.256  1.00  0.00     0.183 HD
HETATM    5  C4  UNL     1       1.682   0.025   0.029  1.00  0.00     0.683 A 
HETATM    6  N3  UNL     1       0.347   0.187   0.024  1.00  0.00    -0.183 N 
ATOM      7  H3  UNL     1      -0.042   1.116  -0.140  1.00  0.00     0.184 HD
HETATM    8  C11 UNL     1      -0.490  -0.853   0.231  1.00  0.00     0.159 A 
ENDROOT
BRANCH   5   9
HETATM    9  N2  UNL     1       2.445   1.046  -0.174  1.00  0.00    -0.190 N 
ATOM     10  H2  UNL     1       2.010   1.955  -0.334  1.00  0.00     0.184 HD
BRANCH   9  11
HETATM   11  C5  UNL     1       3.860   0.961  -0.184  1.00  0.00     0.072 A 
HETATM   12  C6  UNL     1       4.614   1.066  -1.328  1.00  0.00     0.057 A 
HETATM   13  C7  UNL     1       6.003   0.981  -1.326  1.00  0.00     0.058 A 
HETATM   14 CL1  UNL     1       6.876   1.127  -2.832  1.00  0.00    -0.082 Cl
HETATM   15  C8  UNL     1       6.672   0.785  -0.147  1.00  0.00     0.057 A 
HETATM   16 CL2  UNL     1       8.425   0.669  -0.086  1.00  0.00    -0.082 Cl
HETATM   17  C9  UNL     1       5.935   0.675   1.022  1.00  0.00     0.051 A 
HETATM   18  C10 UNL     1       4.560   0.761   1.005  1.00  0.00     0.063 A 
HETATM   19 CL3  UNL     1       3.672   0.620   2.489  1.00  0.00    -0.082 Cl
ENDBRANCH   9  11
ENDBRANCH   5   9
BRANCH   8  20
HETATM   20  C12 UNL     1      -1.950  -0.654   0.221  1.00  0.00     0.315 C 
HETATM   21  O2  UNL     1      -2.734  -1.614   0.413  1.00  0.00    -0.257 OA
BRANCH  20  22
HETATM   22  O3  UNL     1      -2.506   0.598   0.001  1.00  0.00    -0.285 OA
BRANCH  22  23
HETATM   23  C13 UNL     1      -3.884   0.857  -0.021  1.00  0.00     0.269 C 
HETATM   24  C14 UNL     1      -4.254   1.998   0.916  1.00  0.00     0.063 C 
HETATM   25  C15 UNL     1      -5.536   2.513   0.256  1.00  0.00     0.031 C 
HETATM   26  C16 UNL     1      -5.633   1.707  -1.027  1.00  0.00     0.171 C 
HETATM   27  O4  UNL     1      -4.273   1.401  -1.259  1.00  0.00    -0.361 OA
ENDBRANCH  22  23
ENDBRANCH  20  22
ENDBRANCH   8  20
BRANCH   1  28
HETATM   28  O1  UNL     1      -0.905  -3.151   0.662  1.00  0.00    -0.352 OA
HETATM   29  C1  UNL     1      -0.573  -4.484   0.902  1.00  0.00     0.210 C 
ENDBRANCH   1  28
TORSDOF 6
