REMARK  4 active torsions:
REMARK  status: ('A' for Active; 'I' for Inactive)
REMARK    1  A    between atoms: C3_3  and  C4_4 
REMARK    2  A    between atoms: C4_4  and  C5_5 
REMARK    3  A    between atoms: N1_8  and  C8_9 
REMARK    4  A    between atoms: C9_12  and  N3_13 
ROOT
HETATM    1  C1  UNL     1       4.798   1.807  -1.050  1.00  0.00     0.112 C 
HETATM    2  C2  UNL     1       4.091   0.531  -0.839  1.00  0.00    -0.111 C 
HETATM    3  C3  UNL     1       3.529  -0.534  -0.665  1.00  0.00    -0.107 C 
ENDROOT
BRANCH   3   4
HETATM    4  C4  UNL     1       2.892  -1.807  -0.475  1.00  0.00     0.100 C 
BRANCH   4   5
HETATM    5  C5  UNL     1       1.558  -1.678   0.132  1.00  0.00     0.017 C 
HETATM    6  C6  UNL     1       1.510  -1.022   1.492  1.00  0.00     0.027 C 
HETATM    7  C7  UNL     1      -0.016  -0.958   1.669  1.00  0.00     0.141 C 
HETATM    8  N1  UNL     1      -0.406  -0.452   0.375  1.00  0.00    -0.217 N 
HETATM    9  C12 UNL     1       0.575  -0.801  -0.630  1.00  0.00     0.146 C 
BRANCH   8  10
HETATM   10  C8  UNL     1      -1.580   0.295   0.123  1.00  0.00     0.696 A 
HETATM   11  N2  UNL     1      -1.536   1.621  -0.077  1.00  0.00    -0.022 N 
HETATM   12  C9  UNL     1      -2.600   2.399  -0.303  1.00  0.00     0.691 A 
ATOM     13  H2  UNL     1      -0.621   2.070  -0.055  1.00  0.00     0.203 HD
HETATM   14  N4  UNL     1      -3.813   1.772  -0.328  1.00  0.00    -0.180 N 
HETATM   15  C10 UNL     1      -3.901   0.445  -0.132  1.00  0.00     0.109 A 
ATOM     16  H4  UNL     1      -4.660   2.315  -0.497  1.00  0.00     0.185 HD
HETATM   17  C11 UNL     1      -5.217  -0.245  -0.148  1.00  0.00     0.090 C 
HETATM   18  N5  UNL     1      -2.806  -0.307   0.093  1.00  0.00    -0.180 N 
ATOM     19  H5  UNL     1      -2.891  -1.313   0.239  1.00  0.00     0.185 HD
BRANCH  12  20
HETATM   20  N3  UNL     1      -2.560   3.671  -0.499  1.00  0.00    -0.234 N 
ATOM     21  H32 UNL     1      -1.654   4.139  -0.480  1.00  0.00     0.174 HD
ATOM     22  H31 UNL     1      -3.372   4.264  -0.671  1.00  0.00     0.174 HD
ENDBRANCH  12  20
ENDBRANCH   8  10
ENDBRANCH   4   5
ENDBRANCH   3   4
TORSDOF 4
