REMARK  5 active torsions:
REMARK  status: ('A' for Active; 'I' for Inactive)
REMARK    1  A    between atoms: C2_2  and  N1_3 
REMARK    2  A    between atoms: N1_3  and  C3_5 
REMARK    3  A    between atoms: C6_10  and  N3_11 
REMARK    4  A    between atoms: N3_11  and  C7_13 
REMARK    5  A    between atoms: C10_16  and  O1_17 
ROOT
HETATM    1  C3  UNL     1      -2.960   0.670   0.047  1.00  0.00     0.118 A 
HETATM    2  C4  UNL     1      -2.889  -0.682   0.305  1.00  0.00     0.066 A 
HETATM    3  C5  UNL     1      -1.638  -1.277   0.352  1.00  0.00     0.110 A 
HETATM    4  N2  UNL     1      -0.550  -0.498   0.144  1.00  0.00    -0.202 N 
ATOM      5  H2  UNL     1       0.371  -0.935   0.180  1.00  0.00     0.183 HD
HETATM    6  C6  UNL     1      -0.617   0.801  -0.104  1.00  0.00     0.684 A 
HETATM    7  N4  UNL     1      -1.820   1.394  -0.154  1.00  0.00    -0.177 N 
ATOM      8  H4  UNL     1      -1.883   2.394  -0.344  1.00  0.00     0.186 HD
ENDROOT
BRANCH   6   9
HETATM    9  N3  UNL     1       0.448   1.505  -0.297  1.00  0.00    -0.192 N 
ATOM     10  H3  UNL     1       0.352   2.503  -0.484  1.00  0.00     0.184 HD
BRANCH   9  11
HETATM   11  C7  UNL     1       1.753   0.934  -0.257  1.00  0.00     0.049 A 
HETATM   12  C8  UNL     1       2.440   0.741   0.917  1.00  0.00     0.033 A 
HETATM   13  C9  UNL     1       3.696   0.182   0.869  1.00  0.00     0.039 A 
HETATM   14  C10 UNL     1       4.321  -0.202  -0.298  1.00  0.00     0.068 A 
HETATM   15  C12 UNL     1       3.604   0.005  -1.459  1.00  0.00     0.039 A 
HETATM   16  C13 UNL     1       2.346   0.562  -1.442  1.00  0.00     0.033 A 
BRANCH  14  17
HETATM   17  O1  UNL     1       5.589  -0.762  -0.302  1.00  0.00    -0.356 OA
HETATM   18  C11 UNL     1       6.249  -0.937   0.933  1.00  0.00     0.210 C 
ENDBRANCH  14  17
ENDBRANCH   9  11
ENDBRANCH   6   9
BRANCH   1  19
HETATM   19  N1  UNL     1      -4.113   1.224   0.002  1.00  0.00    -0.376 N 
ATOM     20  H1  UNL     1      -4.152   2.225  -0.189  1.00  0.00     0.161 HD
BRANCH  19  21
HETATM   21  C2  UNL     1      -5.346   0.537   0.201  1.00  0.00     0.116 C 
HETATM   22  C1  UNL     1      -5.774  -0.265  -1.009  1.00  0.00     0.026 C 
ENDBRANCH  19  21
ENDBRANCH   1  19
TORSDOF 5
