REMARK  4 active torsions:
REMARK  status: ('A' for Active; 'I' for Inactive)
REMARK    1  A    between atoms: O1_2  and  C2_3 
REMARK    2  A    between atoms: C5_6  and  C6_7 
REMARK    3  A    between atoms: C6_7  and  C7_8 
REMARK    4  A    between atoms: C7_8  and  C8_9 
ROOT
HETATM    1  C2  UNL     1      -3.224   0.313   0.054  1.00  0.00     0.083 A 
HETATM    2  C3  UNL     1      -2.509  -0.427  -0.862  1.00  0.00     0.041 A 
HETATM    3  C4  UNL     1      -1.112  -0.473  -0.806  1.00  0.00     0.042 A 
HETATM    4  C5  UNL     1      -0.443   0.218   0.161  1.00  0.00     0.087 A 
HETATM    5  N3  UNL     1      -1.155   0.950   1.068  1.00  0.00    -0.356 N 
ATOM      6  H3  UNL     1      -0.662   1.469   1.795  1.00  0.00     0.166 HD
HETATM    7  C11 UNL     1      -2.513   0.996   1.014  1.00  0.00     0.125 A 
ENDROOT
BRANCH   4   8
HETATM    8  C6  UNL     1       0.992   0.167   0.214  1.00  0.00    -0.042 C 
BRANCH   8   9
HETATM    9  C7  UNL     1       2.196   0.105   0.256  1.00  0.00    -0.040 C 
BRANCH   9  10
HETATM   10  C8  UNL     1       3.627   0.005   0.306  1.00  0.00     0.103 A 
HETATM   11  C9  UNL     1       4.482   0.436   1.307  1.00  0.00     0.128 A 
HETATM   12  N1  UNL     1       5.750   0.156   0.973  1.00  0.00    -0.359 N 
HETATM   13  C10 UNL     1       5.694  -0.446  -0.228  1.00  0.00     0.181 A 
ATOM     14  H1  UNL     1       6.587   0.359   1.519  1.00  0.00     0.166 HD
HETATM   15  N2  UNL     1       4.407  -0.535  -0.626  1.00  0.00    -0.344 N 
ATOM     16  H2  UNL     1       4.085  -0.950  -1.501  1.00  0.00     0.167 HD
ENDBRANCH   9  10
ENDBRANCH   8   9
ENDBRANCH   4   8
BRANCH   1  17
HETATM   17  O1  UNL     1      -4.604   0.365   0.008  1.00  0.00    -0.355 OA
HETATM   18  C1  UNL     1      -5.398  -0.292  -0.926  1.00  0.00     0.210 C 
ENDBRANCH   1  17
TORSDOF 4
