REMARK  2 active torsions:
REMARK  status: ('A' for Active; 'I' for Inactive)
REMARK    1  A    between atoms: C2_2  and  C3_3 
REMARK    2  A    between atoms: C13_14  and  N1_15 
ROOT
HETATM    1  C3  UNL     1       1.951  -0.572  -0.050  1.00  0.00    -0.083 C 
HETATM    2  C4  UNL     1       1.505   0.567   0.463  1.00  0.00    -0.013 C 
HETATM    3  C5  UNL     1       0.191   0.810   1.121  1.00  0.00     0.087 C 
HETATM    4  C6  UNL     1      -0.471  -0.449   1.588  1.00  0.00     0.022 C 
HETATM    5  C7  UNL     1      -1.149  -1.118   0.415  1.00  0.00     0.021 C 
HETATM    6  C8  UNL     1      -0.206  -1.670  -0.601  1.00  0.00     0.012 C 
HETATM    7  C9  UNL     1       1.199  -1.864  -0.065  1.00  0.00     0.034 C 
HETATM    8  C10 UNL     1      -2.170  -0.171  -0.124  1.00  0.00     0.061 C 
HETATM    9  C11 UNL     1      -3.440  -0.390   0.721  1.00  0.00     0.046 C 
HETATM   10  C12 UNL     1      -2.610  -0.534  -1.541  1.00  0.00     0.046 C 
HETATM   11  O1  UNL     1      -1.899   1.140  -0.068  1.00  0.00    -0.332 OA
HETATM   12  C13 UNL     1      -0.688   1.613   0.223  1.00  0.00     0.321 C 
HETATM   13  C14 UNL     1      -0.871   2.941   0.873  1.00  0.00     0.129 C 
HETATM   14  N2  UNL     1      -1.023   3.963   1.394  1.00  0.00    -0.192 NA
ENDROOT
BRANCH  12  15
HETATM   15  N1  UNL     1       0.005   1.941  -1.037  1.00  0.00    -0.032 N 
ATOM     16  H13 UNL     1       0.896   2.407  -0.866  1.00  0.00     0.279 HD
ATOM     17  H12 UNL     1       0.355   1.104  -1.503  1.00  0.00     0.279 HD
ATOM     18  H11 UNL     1      -0.596   2.490  -1.651  1.00  0.00     0.279 HD
ENDBRANCH  12  15
BRANCH   1  19
HETATM   19  C2  UNL     1       3.309  -0.582  -0.663  1.00  0.00     0.029 C 
HETATM   20  C1  UNL     1       3.974   0.758  -0.596  1.00  0.00     0.010 C 
ENDBRANCH   1  19
TORSDOF 2
