REMARK  1 active torsions:
REMARK  status: ('A' for Active; 'I' for Inactive)
REMARK    1  A    between atoms: C14_15  and  C15_17 
ROOT
HETATM    1  C1  UNL     1      -0.359  -2.671  -0.603  1.00  0.00     0.015 C 
HETATM    2  C2  UNL     1      -0.102  -1.391  -0.672  1.00  0.00    -0.076 C 
HETATM    3  C3  UNL     1       1.011  -0.922  -1.546  1.00  0.00     0.051 C 
HETATM    4  C4  UNL     1       2.088  -0.308  -0.662  1.00  0.00     0.024 C 
HETATM    5  C5  UNL     1       3.157   0.263  -1.560  1.00  0.00     0.024 C 
HETATM    6  C6  UNL     1       2.722  -1.302   0.207  1.00  0.00     0.136 C 
HETATM    7  O1  UNL     1       3.014  -2.436  -0.070  1.00  0.00    -0.297 OA
HETATM    8  C7  UNL     1       2.961  -0.680   1.531  1.00  0.00     0.079 C 
HETATM    9  C8  UNL     1       2.022   0.498   1.638  1.00  0.00     0.013 C 
HETATM   10  C9  UNL     1       1.498   0.719   0.267  1.00  0.00     0.007 C 
HETATM   11  C10 UNL     1       0.077   0.861   0.052  1.00  0.00     0.011 C 
HETATM   12  C11 UNL     1      -0.738   1.790   0.866  1.00  0.00    -0.009 C 
HETATM   13  C12 UNL     1      -0.290   3.209   0.579  1.00  0.00     0.010 C 
HETATM   14  C13 UNL     1      -2.086   1.627   0.172  1.00  0.00     0.057 C 
HETATM   15  C14 UNL     1      -1.997   0.290  -0.612  1.00  0.00     0.174 C 
HETATM   16  F1  UNL     1      -1.756   0.538  -1.946  1.00  0.00    -0.233 F 
HETATM   17  C17 UNL     1      -0.812  -0.365   0.065  1.00  0.00     0.026 C 
HETATM   18  C18 UNL     1      -1.297  -0.780   1.415  1.00  0.00     0.024 C 
ENDROOT
BRANCH  15  19
HETATM   19  C15 UNL     1      -3.285  -0.402  -0.427  1.00  0.00     0.163 C 
HETATM   20  C16 UNL     1      -3.623  -1.669  -1.116  1.00  0.00     0.094 C 
HETATM   21  O2  UNL     1      -4.169   0.041   0.323  1.00  0.00    -0.295 OA
ENDBRANCH  15  19
TORSDOF 1
