REMARK  3 active torsions:
REMARK  status: ('A' for Active; 'I' for Inactive)
REMARK    1  A    between atoms: C1_2  and  O1_3 
REMARK    2  A    between atoms: C1_2  and  N1_15 
REMARK    3  A    between atoms: O1_3  and  C2_4 
ROOT
HETATM    1  C2  UNL     1      -0.668  -0.634  -0.161  1.00  0.00     0.088 C 
HETATM    2  C3  UNL     1      -1.852  -1.605  -0.414  1.00  0.00     0.045 C 
HETATM    3  C4  UNL     1      -3.158  -0.937  -0.188  1.00  0.00    -0.011 C 
HETATM    4  C5  UNL     1      -3.326  -0.259   1.132  1.00  0.00     0.009 C 
HETATM    5  C6  UNL     1      -2.186   0.720   1.320  1.00  0.00    -0.011 C 
HETATM    6  C7  UNL     1      -2.302   1.790   0.276  1.00  0.00     0.011 C 
HETATM    7  C8  UNL     1      -2.146   1.118  -1.078  1.00  0.00     0.008 C 
HETATM    8  C9  UNL     1      -3.285   0.155  -1.259  1.00  0.00     0.011 C 
HETATM    9  C10 UNL     1      -0.794   0.493  -1.153  1.00  0.00     0.121 C 
HETATM   10 CL1  UNL     1      -0.558  -0.073  -2.824  1.00  0.00    -0.121 Cl
HETATM   11  C11 UNL     1      -0.921  -0.083   1.223  1.00  0.00     0.045 C 
ENDROOT
BRANCH   1  12
HETATM   12  O1  UNL     1       0.438  -1.364  -0.196  1.00  0.00    -0.314 OA
BRANCH  12  13
HETATM   13  C1  UNL     1       1.717  -1.577  -0.135  1.00  0.00     0.213 C 
HETATM   14  S1  UNL     1       2.174  -3.173  -0.457  1.00  0.00    -0.033 SA
BRANCH  13  15
HETATM   15  N1  UNL     1       2.757  -0.675   0.159  1.00  0.00    -0.352 N 
HETATM   16  C12 UNL     1       4.170  -1.019   0.200  1.00  0.00     0.126 C 
HETATM   17  C13 UNL     1       4.773   0.140  -0.597  1.00  0.00     0.021 C 
HETATM   18  C14 UNL     1       3.697   1.226  -0.639  1.00  0.00     0.021 C 
HETATM   19  C15 UNL     1       2.772   0.723   0.479  1.00  0.00     0.126 C 
ENDBRANCH  13  15
ENDBRANCH  12  13
ENDBRANCH   1  12
TORSDOF 3
