REMARK  1 active torsions:
REMARK  status: ('A' for Active; 'I' for Inactive)
REMARK    1  A    between atoms: N1_2  and  C3_4 
ROOT
HETATM    1  C3  UNL     1       2.151  -0.096   0.679  1.00  0.00    -0.016 C 
HETATM    2  C4  UNL     1       2.445   1.044  -0.153  1.00  0.00    -0.003 C 
HETATM    3  C5  UNL     1       1.533   1.616  -1.172  1.00  0.00     0.010 C 
HETATM    4  C6  UNL     1       0.617   2.777  -0.789  1.00  0.00     0.013 C 
HETATM    5  C7  UNL     1      -0.721   2.100  -0.325  1.00  0.00    -0.008 C 
HETATM    6  C8  UNL     1      -1.453   2.927   0.644  1.00  0.00     0.024 C 
HETATM    7  C9  UNL     1      -2.509   2.054   1.283  1.00  0.00     0.119 C 
HETATM    8  N2  UNL     1      -2.966   1.005   0.413  1.00  0.00    -0.396 N 
ATOM      9  H2  UNL     1      -3.827   1.293  -0.052  1.00  0.00     0.159 HD
HETATM   10  C10 UNL     1      -2.646  -0.160   0.037  1.00  0.00    -0.014 C 
HETATM   11  C11 UNL     1      -3.691  -0.557  -0.915  1.00  0.00     0.052 C 
HETATM   12  C12 UNL     1      -3.879  -2.063  -0.715  1.00  0.00     0.006 C 
HETATM   13  C13 UNL     1      -2.642  -2.816  -1.050  1.00  0.00     0.001 C 
HETATM   14  C14 UNL     1      -1.343  -2.114  -0.749  1.00  0.00     0.011 C 
HETATM   15  C15 UNL     1      -1.546  -1.118   0.330  1.00  0.00     0.036 C 
HETATM   16  C16 UNL     1      -0.389  -0.322   0.782  1.00  0.00     0.005 C 
HETATM   17  C17 UNL     1       0.987  -0.999   0.665  1.00  0.00     0.056 C 
HETATM   18  C18 UNL     1      -0.102   0.894   0.120  1.00  0.00    -0.005 C 
HETATM   19  C19 UNL     1       0.460   0.548  -1.235  1.00  0.00     0.014 C 
ENDROOT
BRANCH   1  20
HETATM   20  N1  UNL     1       3.312  -1.018   0.758  1.00  0.00    -0.295 NA
HETATM   21  C1  UNL     1       3.684  -1.580  -0.483  1.00  0.00     0.116 C 
HETATM   22  C2  UNL     1       4.357  -0.508   1.578  1.00  0.00     0.116 C 
ENDBRANCH   1  20
TORSDOF 1
