REMARK  1 active torsions:
REMARK  status: ('A' for Active; 'I' for Inactive)
REMARK    1  A    between atoms: C6_9  and  C7_10 
ROOT
HETATM    1  C1  UNL     1      -2.513  -0.805  -1.835  1.00  0.00     0.021 C 
HETATM    2  C2  UNL     1      -2.326  -0.949  -0.348  1.00  0.00     0.096 C 
HETATM    3  C3  UNL     1      -3.579  -0.855   0.358  1.00  0.00     0.263 C 
HETATM    4  O1  UNL     1      -4.659  -0.989  -0.292  1.00  0.00    -0.265 OA
HETATM    5  O2  UNL     1      -3.557  -0.621   1.731  1.00  0.00    -0.319 OA
HETATM    6  C4  UNL     1      -2.299  -0.935   2.311  1.00  0.00     0.211 C 
HETATM    7  C5  UNL     1      -1.249  -0.072   1.616  1.00  0.00     0.159 C 
HETATM    8  O3  UNL     1      -1.727   1.254   1.474  1.00  0.00    -0.368 OA
HETATM    9  C6  UNL     1      -1.184   1.299   0.198  1.00  0.00     0.098 C 
HETATM   10  C8  UNL     1       0.042   2.086  -0.009  1.00  0.00     0.041 C 
HETATM   11  C9  UNL     1       1.304   1.883   0.670  1.00  0.00     0.004 C 
HETATM   12  C10 UNL     1       2.430   1.606  -0.278  1.00  0.00     0.005 C 
HETATM   13  C11 UNL     1       3.058   0.289  -0.317  1.00  0.00    -0.006 A 
HETATM   14  C12 UNL     1       3.457  -0.477   0.904  1.00  0.00     0.015 A 
HETATM   15  C13 UNL     1       2.475  -0.977  -0.208  1.00  0.00    -0.040 A 
HETATM   16  C14 UNL     1       3.071  -2.124  -1.064  1.00  0.00     0.015 C 
HETATM   17  C15 UNL     1       1.152  -1.288   0.340  1.00  0.00     0.010 C 
HETATM   18  C16 UNL     1       0.074  -0.741  -0.491  1.00  0.00     0.017 C 
HETATM   19  C17 UNL     1      -1.143  -0.170   0.181  1.00  0.00     0.034 C 
ENDROOT
BRANCH   9  20
HETATM   20  C7  UNL     1      -2.235   1.979  -0.706  1.00  0.00     0.261 C 
HETATM   21  F1  UNL     1      -2.475   3.273  -0.203  1.00  0.00    -0.252 F 
ENDBRANCH   9  20
TORSDOF 1
