REMARK  4 active torsions:
REMARK  status: ('A' for Active; 'I' for Inactive)
REMARK    1  A    between atoms: O1_1  and  C1_3 
REMARK    2  A    between atoms: C1_3  and  C2_4 
REMARK    3  A    between atoms: C2_4  and  C3_5 
REMARK    4  A    between atoms: C3_5  and  C4_6 
ROOT
HETATM    1  C4  UNL     1       0.032  -0.243   0.372  1.00  0.00    -0.012 C 
HETATM    2  C5  UNL     1       0.334   1.187   0.175  1.00  0.00     0.005 C 
HETATM    3  C6  UNL     1       1.612   1.744   0.658  1.00  0.00     0.000 C 
HETATM    4  C7  UNL     1       2.544   2.133  -0.477  1.00  0.00     0.000 C 
HETATM    5  C8  UNL     1       3.321   0.978  -1.039  1.00  0.00     0.000 C 
HETATM    6  C9  UNL     1       4.267   0.340  -0.077  1.00  0.00     0.000 C 
HETATM    7  C10 UNL     1       4.180  -1.171  -0.089  1.00  0.00     0.000 C 
HETATM    8  C11 UNL     1       3.355  -1.704   1.075  1.00  0.00     0.000 C 
HETATM    9  C12 UNL     1       1.939  -1.882   0.629  1.00  0.00     0.000 C 
HETATM   10  C13 UNL     1       0.940  -1.000   1.326  1.00  0.00     0.005 C 
ENDROOT
BRANCH   1  11
HETATM   11  C3  UNL     1      -1.386  -0.621   0.605  1.00  0.00     0.045 C 
BRANCH  11  12
HETATM   12  C2  UNL     1      -2.415  -0.343  -0.393  1.00  0.00     0.082 C 
HETATM   13  C14 UNL     1      -2.871   1.049  -0.609  1.00  0.00     0.040 C 
HETATM   14  C15 UNL     1      -3.619   1.628   0.571  1.00  0.00     0.005 C 
HETATM   15  C16 UNL     1      -4.739   0.678   0.960  1.00  0.00     0.026 C 
HETATM   16  C17 UNL     1      -4.130  -0.675   1.158  1.00  0.00     0.168 C 
HETATM   17  O2  UNL     1      -3.555  -1.132   0.015  1.00  0.00    -0.378 OA
BRANCH  12  18
HETATM   18  C1  UNL     1      -2.166  -0.983  -1.759  1.00  0.00     0.202 C 
BRANCH  18  19
HETATM   19  O1  UNL     1      -1.896  -2.337  -1.649  1.00  0.00    -0.398 OA
ATOM     20  H1  UNL     1      -1.741  -2.735  -2.498  1.00  0.00     0.209 HD
ENDBRANCH  18  19
ENDBRANCH  12  18
ENDBRANCH  11  12
ENDBRANCH   1  11
TORSDOF 4
