REMARK  10 active torsions:
REMARK  status: ('A' for Active; 'I' for Inactive)
REMARK    1  A    between atoms: C4_7  and  O1_8 
REMARK    2  A    between atoms: O1_8  and  C5_9 
REMARK    3  A    between atoms: C6_13  and  O2_14 
REMARK    4  A    between atoms: O2_14  and  C7_15 
REMARK    5  A    between atoms: C8_17  and  C9_18 
REMARK    6  A    between atoms: C9_18  and  N3_19 
REMARK    7  A    between atoms: C10_23  and  O4_24 
REMARK    8  A    between atoms: C11_26  and  O5_27 
REMARK    9  A    between atoms: C12_29  and  N4_30 
REMARK   10  A    between atoms: C13_34  and  O6_35 
ROOT
HETATM    1  C7  UNL     1       1.102  -0.210   0.186  1.00  0.00     0.294 C 
HETATM    2  O3  UNL     1       1.603  -0.577   1.429  1.00  0.00    -0.349 OA
HETATM    3  C8  UNL     1       2.974  -0.443   1.555  1.00  0.00     0.181 C 
HETATM    4  C10 UNL     1       3.725  -1.182   0.483  1.00  0.00     0.179 C 
HETATM    5  C11 UNL     1       3.225  -0.765  -0.895  1.00  0.00     0.184 C 
HETATM    6  C12 UNL     1       1.741  -1.072  -0.874  1.00  0.00     0.269 C 
ENDROOT
BRANCH   1   7
HETATM    7  O2  UNL     1      -0.258  -0.486   0.149  1.00  0.00    -0.348 OA
BRANCH   7   8
HETATM    8  C6  UNL     1      -1.075   0.603   0.004  1.00  0.00     0.186 C 
HETATM    9  C4  UNL     1      -2.117   0.488  -1.082  1.00  0.00     0.186 C 
HETATM   10  C3  UNL     1      -2.960  -0.740  -0.809  1.00  0.00     0.267 C 
HETATM   11  N1  UNL     1      -2.548  -1.438   0.393  1.00  0.00    -0.066 N 
HETATM   12  C2  UNL     1      -2.741  -0.520   1.507  1.00  0.00     0.213 C 
ATOM     13  H12 UNL     1      -1.598  -1.806   0.337  1.00  0.00     0.277 HD
ATOM     14  H11 UNL     1      -3.026  -2.330   0.522  1.00  0.00     0.277 HD
HETATM   15  C1  UNL     1      -4.206  -0.221   1.601  1.00  0.00     0.043 C 
HETATM   16  C13 UNL     1      -1.880   0.693   1.317  1.00  0.00     0.180 C 
BRANCH   9  17
HETATM   17  O1  UNL     1      -2.906   1.673  -1.025  1.00  0.00    -0.337 OA
BRANCH  17  18
HETATM   18  C5  UNL     1      -3.984   1.899  -1.852  1.00  0.00     0.219 C 
HETATM   19  N2  UNL     1      -4.210   1.093  -2.819  1.00  0.00    -0.390 N 
ATOM     20  H22 UNL     1      -3.589   0.296  -2.962  1.00  0.00     0.157 HD
ATOM     21  H21 UNL     1      -5.008   1.260  -3.431  1.00  0.00     0.157 HD
ENDBRANCH  17  18
ENDBRANCH   9  17
BRANCH  16  22
HETATM   22  O6  UNL     1      -2.692   1.822   1.331  1.00  0.00    -0.391 OA
ATOM     23  H6  UNL     1      -2.147   2.590   1.211  1.00  0.00     0.210 HD
ENDBRANCH  16  22
ENDBRANCH   7   8
ENDBRANCH   1   7
BRANCH   6  24
HETATM   24  N4  UNL     1       1.123  -0.892  -2.148  1.00  0.00    -0.068 N 
ATOM     25  H43 UNL     1       0.117  -1.050  -2.098  1.00  0.00     0.275 HD
ATOM     26  H42 UNL     1       1.117   0.090  -2.422  1.00  0.00     0.275 HD
ATOM     27  H41 UNL     1       1.555  -1.475  -2.865  1.00  0.00     0.275 HD
ENDBRANCH   6  24
BRANCH   3  28
HETATM   28  C9  UNL     1       3.420   0.990   1.579  1.00  0.00     0.264 C 
BRANCH  28  29
HETATM   29  N3  UNL     1       4.844   1.158   1.727  1.00  0.00    -0.077 N 
ATOM     30  H33 UNL     1       5.179   0.665   2.555  1.00  0.00     0.274 HD
ATOM     31  H32 UNL     1       5.343   0.640   1.004  1.00  0.00     0.274 HD
ATOM     32  H31 UNL     1       5.147   2.132   1.743  1.00  0.00     0.274 HD
ENDBRANCH  28  29
ENDBRANCH   3  28
BRANCH   5  33
HETATM   33  O5  UNL     1       3.891  -1.518  -1.836  1.00  0.00    -0.391 OA
ATOM     34  H5  UNL     1       3.579  -1.258  -2.695  1.00  0.00     0.210 HD
ENDBRANCH   5  33
BRANCH   4  35
HETATM   35  O4  UNL     1       5.084  -0.951   0.559  1.00  0.00    -0.390 OA
ATOM     36  H4  UNL     1       5.559  -1.418  -0.119  1.00  0.00     0.210 HD
ENDBRANCH   4  35
TORSDOF 10
