REMARK  10 active torsions:
REMARK  status: ('A' for Active; 'I' for Inactive)
REMARK    1  A    between atoms: N1_2  and  C2_5 
REMARK    2  A    between atoms: C4_8  and  O2_9 
REMARK    3  A    between atoms: O2_9  and  C5_10 
REMARK    4  A    between atoms: C6_12  and  C7_13 
REMARK    5  A    between atoms: C7_13  and  N2_14 
REMARK    6  A    between atoms: C8_18  and  O4_19 
REMARK    7  A    between atoms: C9_21  and  O5_22 
REMARK    8  A    between atoms: C10_24  and  O6_25 
REMARK    9  A    between atoms: C12_27  and  N3_28 
REMARK   10  A    between atoms: C13_32  and  O7_33 
ROOT
HETATM    1  C5  UNL     1      -1.073   0.172  -0.082  1.00  0.00     0.295 C 
HETATM    2  O3  UNL     1      -1.418   1.008   0.975  1.00  0.00    -0.349 OA
HETATM    3  C6  UNL     1      -2.693   1.480   0.970  1.00  0.00     0.181 C 
HETATM    4  C8  UNL     1      -3.763   0.507   0.630  1.00  0.00     0.180 C 
HETATM    5  C9  UNL     1      -3.270  -0.907   0.450  1.00  0.00     0.183 C 
HETATM    6  C10 UNL     1      -1.937  -0.974  -0.293  1.00  0.00     0.207 C 
ENDROOT
BRANCH   1   7
HETATM    7  O2  UNL     1       0.252  -0.187   0.169  1.00  0.00    -0.327 OA
BRANCH   7   8
HETATM    8  C4  UNL     1       1.188   0.440  -0.601  1.00  0.00     0.296 C 
HETATM    9  O1  UNL     1       1.856   1.335   0.275  1.00  0.00    -0.357 OA
HETATM   10  C3  UNL     1       2.587   0.631   1.226  1.00  0.00     0.206 C 
HETATM   11  C2  UNL     1       3.746  -0.012   0.503  1.00  0.00     0.239 C 
HETATM   12  C13 UNL     1       3.137  -1.110  -0.370  1.00  0.00     0.186 C 
HETATM   13  C12 UNL     1       2.183  -0.401  -1.314  1.00  0.00     0.268 C 
BRANCH  11  14
HETATM   14  N1  UNL     1       4.709  -0.593   1.403  1.00  0.00    -0.070 N 
HETATM   15  C1  UNL     1       5.271   0.475   2.215  1.00  0.00     0.267 C 
ATOM     16  H12 UNL     1       5.423  -1.137   0.918  1.00  0.00     0.277 HD
ATOM     17  H11 UNL     1       4.317  -1.350   1.964  1.00  0.00     0.277 HD
ENDBRANCH  11  14
BRANCH  12  18
HETATM   18  O7  UNL     1       4.113  -1.729  -1.108  1.00  0.00    -0.391 OA
ATOM     19  H7  UNL     1       3.735  -2.411  -1.650  1.00  0.00     0.210 HD
ENDBRANCH  12  18
BRANCH  13  20
HETATM   20  N3  UNL     1       1.690  -1.337  -2.246  1.00  0.00    -0.068 N 
ATOM     21  H33 UNL     1       1.003  -1.938  -1.791  1.00  0.00     0.275 HD
ATOM     22  H32 UNL     1       1.102  -0.858  -2.928  1.00  0.00     0.275 HD
ATOM     23  H31 UNL     1       2.373  -1.915  -2.736  1.00  0.00     0.275 HD
ENDBRANCH  13  20
ENDBRANCH   7   8
ENDBRANCH   1   7
BRANCH   6  24
HETATM   24  O6  UNL     1      -2.176  -1.275  -1.620  1.00  0.00    -0.383 OA
HETATM   25  C11 UNL     1      -1.876  -2.567  -1.974  1.00  0.00     0.202 C 
ENDBRANCH   6  24
BRANCH   3  26
HETATM   26  C7  UNL     1      -2.774   2.625  -0.021  1.00  0.00     0.264 C 
BRANCH  26  27
HETATM   27  N2  UNL     1      -4.102   3.159  -0.061  1.00  0.00    -0.077 N 
ATOM     28  H23 UNL     1      -4.796   2.437  -0.257  1.00  0.00     0.274 HD
ATOM     29  H22 UNL     1      -4.428   3.435   0.865  1.00  0.00     0.274 HD
ATOM     30  H21 UNL     1      -4.156   3.929  -0.728  1.00  0.00     0.274 HD
ENDBRANCH  26  27
ENDBRANCH   3  26
BRANCH   5  31
HETATM   31  O5  UNL     1      -4.260  -1.633  -0.209  1.00  0.00    -0.390 OA
ATOM     32  H5  UNL     1      -3.949  -2.524  -0.322  1.00  0.00     0.210 HD
ENDBRANCH   5  31
BRANCH   4  33
HETATM   33  O4  UNL     1      -4.689   0.522   1.704  1.00  0.00    -0.390 OA
ATOM     34  H4  UNL     1      -5.373  -0.100   1.487  1.00  0.00     0.210 HD
ENDBRANCH   4  33
TORSDOF 10
