REMARK  8 active torsions:
REMARK  status: ('A' for Active; 'I' for Inactive)
REMARK    1  A    between atoms: C2_2  and  C3_4 
REMARK    2  A    between atoms: C4_5  and  C5_6 
REMARK    3  A    between atoms: C5_6  and  S1_9 
REMARK    4  A    between atoms: S1_9  and  C8_12 
REMARK    5  A    between atoms: C8_12  and  C9_13 
REMARK    6  A    between atoms: C9_13  and  C10_14 
REMARK    7  A    between atoms: C10_14  and  N1_15 
REMARK    8  A    between atoms: N1_15  and  C11_17 
ROOT
HETATM    1  C8  UNL     1       0.423   0.385  -2.561  1.00  0.00     0.108 C 
ENDROOT
BRANCH   1   2
HETATM    2  S1  UNL     1       1.784   0.405  -1.538  1.00  0.00     0.184 S 
HETATM    3  O1  UNL     1       2.089   1.908  -1.244  1.00  0.00    -0.222 OA
HETATM    4  O2  UNL     1       3.045   0.032  -2.377  1.00  0.00    -0.222 OA
BRANCH   2   5
HETATM    5  C5  UNL     1       1.852  -0.407  -0.014  1.00  0.00     0.123 C 
HETATM    6  C6  UNL     1       1.034   0.298   1.085  1.00  0.00     0.046 C 
HETATM    7  C7  UNL     1       1.488  -1.846  -0.009  1.00  0.00     0.046 C 
BRANCH   5   8
HETATM    8  C4  UNL     1       3.298  -0.242   0.452  1.00  0.00    -0.079 C 
HETATM    9  C3  UNL     1       4.428  -0.124   0.836  1.00  0.00    -0.085 C 
BRANCH   9  10
HETATM   10  C2  UNL     1       5.797   0.017   1.328  1.00  0.00     0.157 C 
HETATM   11  C1  UNL     1       5.833   0.833   2.617  1.00  0.00     0.040 C 
HETATM   12 CL1  UNL     1       6.708   0.875   0.066  1.00  0.00    -0.112 Cl
ENDBRANCH   9  10
ENDBRANCH   5   8
ENDBRANCH   2   5
ENDBRANCH   1   2
BRANCH   1  13
HETATM   13  C9  UNL     1      -0.916   0.847  -2.261  1.00  0.00     0.004 C 
BRANCH  13  14
HETATM   14  C10 UNL     1      -1.786   0.158  -1.276  1.00  0.00     0.149 C 
BRANCH  14  15
HETATM   15  N1  UNL     1      -3.099   0.820  -1.180  1.00  0.00    -0.373 N 
ATOM     16  H1  UNL     1      -3.272   1.656  -1.739  1.00  0.00     0.161 HD
BRANCH  15  17
HETATM   17  C11 UNL     1      -4.023   0.385  -0.425  1.00  0.00     0.100 A 
HETATM   18  C12 UNL     1      -3.921  -0.736   0.383  1.00  0.00     0.048 A 
HETATM   19  C13 UNL     1      -4.976  -1.141   1.175  1.00  0.00     0.005 A 
HETATM   20  C14 UNL     1      -6.141  -0.437   1.172  1.00  0.00     0.017 A 
HETATM   21  C15 UNL     1      -6.239   0.689   0.358  1.00  0.00     0.089 A 
HETATM   22  N2  UNL     1      -5.187   1.058  -0.405  1.00  0.00    -0.353 N 
ATOM     23  H2  UNL     1      -5.280   1.886  -0.993  1.00  0.00     0.166 HD
ENDBRANCH  15  17
ENDBRANCH  14  15
ENDBRANCH  13  14
ENDBRANCH   1  13
TORSDOF 8
