REMARK  6 active torsions:
REMARK  status: ('A' for Active; 'I' for Inactive)
REMARK    1  A    between atoms: C2_3  and  C3_4 
REMARK    2  A    between atoms: C3_4  and  O1_5 
REMARK    3  A    between atoms: C4_7  and  S1_8 
REMARK    4  A    between atoms: C8_14  and  O2_15 
REMARK    5  A    between atoms: C9_17  and  O3_18 
REMARK    6  A    between atoms: C10_20  and  O4_21 
ROOT
HETATM    1  N1  UNL     1       3.184  -1.245  -2.044  1.00  0.00    -0.197 NA
HETATM    2  C1  UNL     1       2.297  -1.293  -1.304  1.00  0.00     0.062 C 
HETATM    3  C2  UNL     1       1.176  -1.383  -0.385  1.00  0.00     0.170 C 
ENDROOT
BRANCH   3   4
HETATM    4  C3  UNL     1       0.889  -0.143   0.390  1.00  0.00     0.133 C 
HETATM    5  C4  UNL     1       0.432   1.010  -0.380  1.00  0.00     0.050 C 
HETATM    6  C6  UNL     1      -0.850   1.094  -0.688  1.00  0.00     0.070 C 
HETATM    7  C7  UNL     1      -1.303   2.230  -1.450  1.00  0.00     0.099 C 
HETATM    8  C8  UNL     1      -1.896   0.117  -0.303  1.00  0.00     0.194 C 
HETATM    9  N3  UNL     1      -1.694   3.150  -2.073  1.00  0.00    -0.192 NA
HETATM   10  C9  UNL     1      -1.518  -0.780   0.818  1.00  0.00     0.184 C 
HETATM   11  C10 UNL     1      -0.176  -0.472   1.427  1.00  0.00     0.190 C 
BRANCH   4  12
HETATM   12  O1  UNL     1       2.022   0.184   1.154  1.00  0.00    -0.381 OA
ATOM     13  H1  UNL     1       1.839   0.975   1.648  1.00  0.00     0.211 HD
ENDBRANCH   4  12
BRANCH   5  14
HETATM   14  S1  UNL     1       1.492   2.338  -0.913  1.00  0.00    -0.011 SA
HETATM   15  C5  UNL     1       3.116   2.079  -0.299  1.00  0.00     0.138 C 
HETATM   16  N2  UNL     1       4.212   1.923   0.098  1.00  0.00    -0.184 NA
ENDBRANCH   5  14
BRANCH   8  17
HETATM   17  O2  UNL     1      -2.312  -0.557  -1.450  1.00  0.00    -0.387 OA
ATOM     18  H2  UNL     1      -2.982  -1.183  -1.203  1.00  0.00     0.210 HD
ENDBRANCH   8  17
BRANCH  10  19
HETATM   19  O3  UNL     1      -1.679  -2.098   0.454  1.00  0.00    -0.390 OA
ATOM     20  H3  UNL     1      -1.437  -2.672   1.171  1.00  0.00     0.210 HD
ENDBRANCH  10  19
BRANCH  11  21
HETATM   21  O4  UNL     1      -0.302   0.644   2.253  1.00  0.00    -0.389 OA
ATOM     22  H4  UNL     1      -0.967   0.439   2.900  1.00  0.00     0.210 HD
ENDBRANCH  11  21
ENDBRANCH   3   4
TORSDOF 6
