REMARK  11 active torsions:
REMARK  status: ('A' for Active; 'I' for Inactive)
REMARK    1  A    between atoms: C2_2  and  C3_3 
REMARK    2  A    between atoms: C2_2  and  C19_27 
REMARK    3  A    between atoms: C3_3  and  C4_4 
REMARK    4  A    between atoms: C4_4  and  C5_5 
REMARK    5  A    between atoms: C5_5  and  O1_6 
REMARK    6  A    between atoms: C8_10  and  O2_11 
REMARK    7  A    between atoms: C16_20  and  O3_21 
REMARK    8  A    between atoms: C19_27  and  O6_28 
REMARK    9  A    between atoms: C19_27  and  C20_30 
REMARK   10  A    between atoms: C20_30  and  O7_31 
REMARK   11  A    between atoms: C20_30  and  O8_33 
ROOT
HETATM    1  C4  UNL     1       0.564   0.169  -0.445  1.00  0.00     0.028 C 
HETATM    2  C6  UNL     1       0.295   1.633  -0.164  1.00  0.00     0.021 C 
HETATM    3  C7  UNL     1      -0.911   2.299  -0.649  1.00  0.00     0.042 C 
HETATM    4  C8  UNL     1      -2.280   1.902  -0.171  1.00  0.00     0.092 C 
HETATM    5  C9  UNL     1      -2.248   1.539   1.349  1.00  0.00     0.081 C 
HETATM    6  C10 UNL     1      -2.978   0.283   1.552  1.00  0.00     0.093 A 
HETATM    7  C11 UNL     1      -3.907   0.527   0.485  1.00  0.00     0.082 C 
HETATM    8  C12 UNL     1      -2.751   0.576  -0.545  1.00  0.00     0.095 C 
HETATM    9  C13 UNL     1      -3.246  -0.202  -1.579  1.00  0.00     0.042 C 
HETATM   10  C14 UNL     1      -3.275  -1.632  -1.009  1.00  0.00     0.013 C 
HETATM   11  C15 UNL     1      -2.548  -1.885   0.282  1.00  0.00     0.049 C 
HETATM   12  C16 UNL     1      -0.995  -1.887   0.049  1.00  0.00     0.154 C 
HETATM   13  C17 UNL     1      -0.698  -0.444   0.254  1.00  0.00     0.166 C 
HETATM   14  O4  UNL     1      -1.590   0.087  -0.348  1.00  0.00    -0.368 OA
HETATM   15  C18 UNL     1      -2.965  -1.146   1.474  1.00  0.00     0.164 A 
HETATM   16  O5  UNL     1      -2.483  -0.477   2.452  1.00  0.00    -0.368 OA
ENDROOT
BRANCH   1  17
HETATM   17  C3  UNL     1       1.710  -0.281   0.351  1.00  0.00    -0.003 C 
BRANCH  17  18
HETATM   18  C2  UNL     1       3.092   0.087   0.185  1.00  0.00    -0.037 C 
HETATM   19  C1  UNL     1       3.697   0.987  -0.529  1.00  0.00     0.021 C 
BRANCH  18  20
HETATM   20  C19 UNL     1       4.006  -0.770   1.045  1.00  0.00     0.205 C 
BRANCH  20  21
HETATM   21  O6  UNL     1       3.547  -0.765   2.366  1.00  0.00    -0.386 OA
ATOM     22  H6  UNL     1       4.118  -1.301   2.904  1.00  0.00     0.210 HD
ENDBRANCH  20  21
BRANCH  20  23
HETATM   23  C20 UNL     1       5.452  -0.522   0.949  1.00  0.00     0.287 C 
BRANCH  23  24
HETATM   24  O7  UNL     1       5.929   0.673   1.443  1.00  0.00    -0.369 OA
ATOM     25  H7  UNL     1       6.863   0.833   1.381  1.00  0.00     0.212 HD
ENDBRANCH  23  24
BRANCH  23  26
HETATM   26  O8  UNL     1       6.054  -0.798  -0.268  1.00  0.00    -0.369 OA
ATOM     27  H8  UNL     1       6.988  -0.638  -0.330  1.00  0.00     0.212 HD
ENDBRANCH  23  26
ENDBRANCH  20  23
ENDBRANCH  18  20
ENDBRANCH  17  18
ENDBRANCH   1  17
BRANCH   1  28
HETATM   28  C5  UNL     1       0.605  -0.206  -1.864  1.00  0.00     0.180 C 
BRANCH  28  29
HETATM   29  O1  UNL     1       1.634   0.211  -2.657  1.00  0.00    -0.400 OA
ATOM     30  H1  UNL     1       1.661  -0.032  -3.575  1.00  0.00     0.209 HD
ENDBRANCH  28  29
ENDBRANCH   1  28
BRANCH  12  31
HETATM   31  O3  UNL     1      -0.403  -2.726   0.967  1.00  0.00    -0.392 OA
ATOM     32  H3  UNL     1       0.536  -2.727   0.826  1.00  0.00     0.210 HD
ENDBRANCH  12  31
BRANCH   4  33
HETATM   33  O2  UNL     1      -3.178   2.888  -0.456  1.00  0.00    -0.387 OA
ATOM     34  H2  UNL     1      -4.043   2.637  -0.154  1.00  0.00     0.210 HD
ENDBRANCH   4  33
TORSDOF 11
