REMARK  6 active torsions:
REMARK  status: ('A' for Active; 'I' for Inactive)
REMARK    1  A    between atoms: C5_7  and  S1_8 
REMARK    2  A    between atoms: S1_8  and  C6_10 
REMARK    3  A    between atoms: C6_10  and  O2_11 
REMARK    4  A    between atoms: C6_10  and  C7_13 
REMARK    5  A    between atoms: C7_13  and  N2_15 
REMARK    6  A    between atoms: C7_13  and  O3_19 
ROOT
HETATM    1  C1  UNL     1      -4.051   2.468  -0.289  1.00  0.00     0.089 C 
HETATM    2  C2  UNL     1      -2.978   1.474   0.046  1.00  0.00     0.078 A 
HETATM    3  N1  UNL     1      -2.723   0.465  -0.771  1.00  0.00    -0.349 N 
ATOM      4  H1  UNL     1      -3.272   0.383  -1.627  1.00  0.00     0.167 HD
HETATM    5  C3  UNL     1      -1.768  -0.466  -0.527  1.00  0.00     0.029 A 
HETATM    6  C4  UNL     1      -1.549  -1.567  -1.502  1.00  0.00     0.070 C 
HETATM    7  C5  UNL     1      -1.014  -0.365   0.636  1.00  0.00     0.093 A 
HETATM    8  C9  UNL     1      -1.305   0.693   1.463  1.00  0.00     0.136 A 
HETATM    9  C10 UNL     1      -0.586   0.880   2.688  1.00  0.00     0.119 C 
HETATM   10  N3  UNL     1      -0.029   1.020   3.675  1.00  0.00    -0.190 NA
HETATM   11  N4  UNL     1      -2.274   1.600   1.171  1.00  0.00    -0.336 N 
ATOM     12  H4  UNL     1      -2.462   2.373   1.809  1.00  0.00     0.168 HD
ENDROOT
BRANCH   7  13
HETATM   13  S1  UNL     1       0.185  -1.520   0.967  1.00  0.00     0.089 S 
HETATM   14  O1  UNL     1      -0.210  -2.820   1.867  1.00  0.00    -0.250 OA
BRANCH  13  15
HETATM   15  C6  UNL     1       1.827  -1.014   1.089  1.00  0.00     0.278 C 
BRANCH  15  16
HETATM   16  O2  UNL     1       2.609  -2.163   1.366  1.00  0.00    -0.378 OA
ATOM     17  H2  UNL     1       3.515  -1.884   1.433  1.00  0.00     0.211 HD
ENDBRANCH  15  16
BRANCH  15  18
HETATM   18  C7  UNL     1       2.359  -0.342  -0.158  1.00  0.00     0.256 C 
HETATM   19  C8  UNL     1       3.817   0.028   0.149  1.00  0.00     0.082 C 
BRANCH  18  20
HETATM   20  N2  UNL     1       2.361  -1.188  -1.309  1.00  0.00    -0.044 N 
ATOM     21  H23 UNL     1       2.870  -2.052  -1.120  1.00  0.00     0.278 HD
ATOM     22  H22 UNL     1       1.431  -1.571  -1.476  1.00  0.00     0.278 HD
ATOM     23  H21 UNL     1       2.720  -0.735  -2.150  1.00  0.00     0.278 HD
ENDBRANCH  18  20
BRANCH  18  24
HETATM   24  O3  UNL     1       1.690   0.854  -0.366  1.00  0.00    -0.363 OA
ATOM     25  H3  UNL     1       2.024   1.276  -1.149  1.00  0.00     0.212 HD
ENDBRANCH  18  24
ENDBRANCH  15  18
ENDBRANCH  13  15
ENDBRANCH   7  13
TORSDOF 6
