REMARK  5 active torsions:
REMARK  status: ('A' for Active; 'I' for Inactive)
REMARK    1  A    between atoms: C2_2  and  N1_4 
REMARK    2  A    between atoms: C4_7  and  C5_8 
REMARK    3  A    between atoms: C6_17  and  C7_18 
REMARK    4  A    between atoms: C10_25  and  O1_26 
REMARK    5  A    between atoms: C15_33  and  N9_34 
ROOT
HETATM    1  N1  UNL     1      -3.451  -0.228   0.307  1.00  0.00    -0.272 N 
HETATM    2  N2  UNL     1      -3.468   0.755  -0.538  1.00  0.00    -0.292 N 
ATOM      3  H2  UNL     1      -4.298   1.227  -0.896  1.00  0.00     0.187 HD
HETATM    4  C4  UNL     1      -2.155   1.047  -0.866  1.00  0.00     0.113 A 
HETATM    5  C6  UNL     1      -1.319   0.195  -0.181  1.00  0.00     0.085 A 
HETATM    6  C15 UNL     1      -2.171  -0.616   0.566  1.00  0.00     0.132 A 
ENDROOT
BRANCH   5   7
HETATM    7  C7  UNL     1       0.141   0.125  -0.206  1.00  0.00     0.122 A 
HETATM    8  N7  UNL     1       1.055   0.835  -0.869  1.00  0.00    -0.342 N 
HETATM    9  C8  UNL     1       2.314   0.461  -0.621  1.00  0.00     0.060 A 
ATOM     10  H7  UNL     1       0.815   1.594  -1.507  1.00  0.00     0.167 HD
HETATM   11  C9  UNL     1       2.214  -0.568   0.269  1.00  0.00     0.068 A 
HETATM   12  C14 UNL     1       3.637   0.973  -1.137  1.00  0.00     0.228 C 
HETATM   13  N8  UNL     1       0.887  -0.755   0.507  1.00  0.00    -0.341 N 
HETATM   14  C10 UNL     1       3.444  -1.244   0.779  1.00  0.00     0.203 C 
ATOM     15  H8  UNL     1       0.505  -1.461   1.136  1.00  0.00     0.167 HD
HETATM   16  C11 UNL     1       4.603  -0.308   0.520  1.00  0.00     0.085 C 
HETATM   17  C12 UNL     1       5.879  -1.109   0.758  1.00  0.00     0.049 C 
HETATM   18  C13 UNL     1       4.593   0.843   1.475  1.00  0.00     0.049 C 
HETATM   19  O2  UNL     1       4.638   0.098  -0.812  1.00  0.00    -0.372 OA
BRANCH  14  20
HETATM   20  O1  UNL     1       3.626  -2.496   0.210  1.00  0.00    -0.386 OA
ATOM     21  H1  UNL     1       4.408  -2.926   0.534  1.00  0.00     0.210 HD
ENDBRANCH  14  20
ENDBRANCH   5   7
BRANCH   4  22
HETATM   22  C5  UNL     1      -1.803   2.107  -1.798  1.00  0.00     0.166 A 
HETATM   23  N3  UNL     1      -0.659   2.577  -2.269  1.00  0.00    -0.267 N 
HETATM   24  N4  UNL     1      -0.839   3.570  -3.113  1.00  0.00    -0.227 N 
ATOM     25  H3  UNL     1       0.257   2.211  -2.008  1.00  0.00     0.190 HD
HETATM   26  N5  UNL     1      -2.140   3.773  -3.211  1.00  0.00    -0.227 N 
ATOM     27  H4  UNL     1      -0.108   4.088  -3.602  1.00  0.00     0.210 HD
HETATM   28  N6  UNL     1      -2.733   2.901  -2.426  1.00  0.00    -0.267 N 
ATOM     29  H5  UNL     1      -2.600   4.476  -3.789  1.00  0.00     0.210 HD
ATOM     30  H6  UNL     1      -3.742   2.824  -2.300  1.00  0.00     0.190 HD
ENDBRANCH   4  22
BRANCH   6  31
HETATM   31  N9  UNL     1      -1.801  -1.551   1.348  1.00  0.00    -0.383 N 
ATOM     32  H92 UNL     1      -2.425  -2.145   1.895  1.00  0.00     0.157 HD
ATOM     33  H91 UNL     1      -0.843  -1.841   1.542  1.00  0.00     0.157 HD
ENDBRANCH   6  31
BRANCH   1  34
HETATM   34  C2  UNL     1      -4.618  -0.861   0.920  1.00  0.00     0.102 C 
HETATM   35  C1  UNL     1      -5.859  -0.187   0.412  1.00  0.00     0.034 C 
HETATM   36  C3  UNL     1      -4.692  -2.332   0.530  1.00  0.00     0.034 C 
ENDBRANCH   1  34
TORSDOF 5
