REMARK  6 active torsions:
REMARK  status: ('A' for Active; 'I' for Inactive)
REMARK    1  A    between atoms: C4_6  and  C5_7 
REMARK       I    between atoms: C5_7  and  N2_9 
REMARK    2  A    between atoms: C7_11  and  S1_12 
REMARK    3  A    between atoms: S1_12  and  C8_13 
REMARK    4  A    between atoms: C10_19  and  N5_20 
REMARK    5  A    between atoms: C11_25  and  N7_26 
REMARK    6  A    between atoms: C13_32  and  N9_33 
ROOT
HETATM    1  C8  UNL     1      -2.030  -0.372   0.982  1.00  0.00     0.120 A 
HETATM    2  N3  UNL     1      -2.749   0.726   0.752  1.00  0.00    -0.331 N 
ATOM      3  H3  UNL     1      -2.355   1.655   0.899  1.00  0.00     0.168 HD
HETATM    4  C9  UNL     1      -4.019   0.564   0.317  1.00  0.00     0.152 A 
HETATM    5  N4  UNL     1      -4.761   1.662   0.079  1.00  0.00    -0.174 N 
ATOM      6  H4  UNL     1      -4.348   2.582   0.232  1.00  0.00     0.186 HD
HETATM    7  C10 UNL     1      -6.017   1.580  -0.350  1.00  0.00     0.679 A 
HETATM    8  N6  UNL     1      -6.544   0.378  -0.545  1.00  0.00    -0.175 N 
ATOM      9  H6  UNL     1      -7.508   0.327  -0.874  1.00  0.00     0.186 HD
HETATM   10  C11 UNL     1      -5.874  -0.800  -0.332  1.00  0.00     0.145 A 
HETATM   11  C12 UNL     1      -4.574  -0.681   0.112  1.00  0.00     0.123 A 
HETATM   12  N8  UNL     1      -3.820  -1.761   0.355  1.00  0.00    -0.334 N 
ATOM     13  H8  UNL     1      -4.213  -2.691   0.209  1.00  0.00     0.168 HD
HETATM   14  C13 UNL     1      -2.538  -1.637   0.793  1.00  0.00     0.134 A 
ENDROOT
BRANCH   1  15
HETATM   15  S1  UNL     1      -0.335  -0.156   1.564  1.00  0.00    -0.066 SA
BRANCH  15  16
HETATM   16  C7  UNL     1       0.730  -0.057   0.141  1.00  0.00     0.041 A 
HETATM   17  C6  UNL     1       2.108   0.111   0.212  1.00  0.00     0.140 A 
HETATM   18  N2  UNL     1       2.577   0.142  -1.024  1.00  0.00    -0.227 N 
HETATM   19  C5  UNL     1       3.895   0.298  -1.457  1.00  0.00     0.317 C 
HETATM   20  N10 UNL     1       1.566   0.003  -1.908  1.00  0.00    -0.301 N 
HETATM   21  O1  UNL     1       4.185   0.301  -2.686  1.00  0.00    -0.261 OA
HETATM   22  C14 UNL     1       0.449  -0.117  -1.204  1.00  0.00     0.128 A 
ATOM     23  H10 UNL     1       1.646  -0.008  -2.925  1.00  0.00     0.186 HD
BRANCH  19  24
HETATM   24  C4  UNL     1       4.997   0.462  -0.523  1.00  0.00     0.219 A 
HETATM   25  N1  UNL     1       4.968   1.005   0.705  1.00  0.00    -0.340 N 
HETATM   26  C3  UNL     1       6.197   0.965   1.236  1.00  0.00     0.122 A 
ATOM     27  H1  UNL     1       4.140   1.388   1.162  1.00  0.00     0.167 HD
HETATM   28  C2  UNL     1       7.021   0.370   0.291  1.00  0.00     0.067 A 
HETATM   29  C1  UNL     1       8.494   0.104   0.427  1.00  0.00     0.078 C 
HETATM   30  O2  UNL     1       6.260   0.091  -0.731  1.00  0.00    -0.292 OA
ENDBRANCH  19  24
ENDBRANCH  15  16
ENDBRANCH   1  15
BRANCH  14  31
HETATM   31  N9  UNL     1      -1.786  -2.646   1.036  1.00  0.00    -0.383 N 
ATOM     32  H92 UNL     1      -0.825  -2.553   1.364  1.00  0.00     0.157 HD
ATOM     33  H91 UNL     1      -2.163  -3.584   0.896  1.00  0.00     0.157 HD
ENDBRANCH  14  31
BRANCH   7  34
HETATM   34  N5  UNL     1      -6.689   2.673  -0.565  1.00  0.00    -0.234 N 
ATOM     35  H52 UNL     1      -6.284   3.597  -0.415  1.00  0.00     0.174 HD
ATOM     36  H51 UNL     1      -7.652   2.610  -0.894  1.00  0.00     0.174 HD
ENDBRANCH   7  34
BRANCH  10  37
HETATM   37  N7  UNL     1      -6.457  -1.920  -0.545  1.00  0.00    -0.383 N 
ATOM     38  H72 UNL     1      -7.419  -2.008  -0.873  1.00  0.00     0.157 HD
ATOM     39  H71 UNL     1      -5.959  -2.796  -0.387  1.00  0.00     0.157 HD
ENDBRANCH  10  37
TORSDOF 6
