REMARK  6 active torsions:
REMARK  status: ('A' for Active; 'I' for Inactive)
REMARK    1  A    between atoms: C2_2  and  C5_5 
REMARK       I    between atoms: N1_9  and  C9_10 
REMARK    2  A    between atoms: C9_10  and  C10_12 
REMARK    3  A    between atoms: C10_12  and  C11_13 
REMARK    4  A    between atoms: C11_13  and  C12_15 
REMARK    5  A    between atoms: C12_15  and  C13_17 
REMARK    6  A    between atoms: C13_17  and  C14_19 
ROOT
HETATM    1  C5  UNL     1      -2.280  -0.167   0.450  1.00  0.00     0.011 C 
HETATM    2  C6  UNL     1      -2.286  -1.534  -0.129  1.00  0.00     0.009 C 
HETATM    3  C7  UNL     1      -1.863  -1.556  -1.594  1.00  0.00     0.020 C 
HETATM    4  C8  UNL     1      -0.487  -0.992  -1.798  1.00  0.00     0.126 C 
HETATM    5  N1  UNL     1      -0.339   0.146  -0.891  1.00  0.00    -0.351 N 
HETATM    6  C9  UNL     1       0.930   0.567  -0.439  1.00  0.00     0.226 C 
HETATM    7  O1  UNL     1       0.968   1.550   0.336  1.00  0.00    -0.273 OA
HETATM    8  C15 UNL     1      -1.569   0.802  -0.494  1.00  0.00     0.131 C 
ENDROOT
BRANCH   6   9
HETATM    9  C10 UNL     1       2.193  -0.084  -0.829  1.00  0.00     0.182 C 
BRANCH   9  10
HETATM   10  C11 UNL     1       3.389   0.539  -0.226  1.00  0.00     0.153 C 
HETATM   11  O2  UNL     1       3.298   1.491   0.511  1.00  0.00    -0.296 OA
BRANCH  10  12
HETATM   12  C12 UNL     1       4.767   0.028  -0.496  1.00  0.00     0.172 C 
HETATM   13 BR1  UNL     1       4.861  -1.795   0.157  1.00  0.00    -0.080 Br
BRANCH  12  14
HETATM   14  C13 UNL     1       5.800   0.843   0.241  1.00  0.00     0.292 C 
HETATM   15  F1  UNL     1       5.616   0.813   1.606  1.00  0.00    -0.236 F 
BRANCH  14  16
HETATM   16  C14 UNL     1       7.153   0.332  -0.066  1.00  0.00     0.210 C 
HETATM   17  O3  UNL     1       8.042   1.046  -0.606  1.00  0.00    -0.646 OA
HETATM   18  O4  UNL     1       7.467  -0.969   0.245  1.00  0.00    -0.646 OA
ENDBRANCH  14  16
ENDBRANCH  12  14
ENDBRANCH  10  12
ENDBRANCH   9  10
ENDBRANCH   6   9
BRANCH   1  19
HETATM   19  C2  UNL     1      -3.638   0.350   0.837  1.00  0.00    -0.046 C 
HETATM   20  C1  UNL     1      -3.503   1.745   1.412  1.00  0.00     0.015 C 
HETATM   21  C3  UNL     1      -4.200  -0.525   1.936  1.00  0.00     0.015 C 
HETATM   22  C4  UNL     1      -4.614   0.399  -0.290  1.00  0.00     0.015 C 
ENDBRANCH   1  19
TORSDOF 6
