REMARK  6 active torsions:
REMARK  status: ('A' for Active; 'I' for Inactive)
REMARK    1  A    between atoms: C2_2  and  C3_3 
REMARK    2  A    between atoms: C11_13  and  C13_15 
REMARK       I    between atoms: C13_15  and  N2_17 
REMARK    3  A    between atoms: N2_17  and  S1_19 
REMARK    4  A    between atoms: S1_19  and  N3_22 
REMARK    5  A    between atoms: N3_22  and  C15_24 
REMARK    6  A    between atoms: C15_24  and  C16_25 
ROOT
HETATM    1  C3  UNL     1      -3.783  -0.645  -0.486  1.00  0.00     0.009 C 
HETATM    2  N1  UNL     1      -3.369  -0.115  -1.583  1.00  0.00    -0.388 N 
ATOM      3  H1  UNL     1      -3.822  -0.252  -2.487  1.00  0.00     0.159 HD
HETATM    4  C4  UNL     1      -2.197   0.690  -1.390  1.00  0.00     0.083 C 
HETATM    5  C5  UNL     1      -2.679   2.153  -1.402  1.00  0.00     0.032 C 
HETATM    6  C6  UNL     1      -1.749   0.407   0.003  1.00  0.00     0.035 C 
HETATM    7  C7  UNL     1      -2.920  -0.269   0.629  1.00  0.00     0.043 C 
HETATM    8  C8  UNL     1      -2.366  -1.425   1.424  1.00  0.00     0.016 C 
HETATM    9  C9  UNL     1      -0.864  -1.240   1.444  1.00  0.00    -0.000 C 
HETATM   10  C10 UNL     1      -0.506  -0.476   2.658  1.00  0.00     0.011 C 
HETATM   11  C11 UNL     1      -0.626  -0.575   0.140  1.00  0.00     0.048 C 
HETATM   12  C12 UNL     1      -0.785  -1.697  -0.921  1.00  0.00     0.026 C 
ENDROOT
BRANCH  11  13
HETATM   13  C13 UNL     1       0.695  -0.014  -0.090  1.00  0.00     0.241 C 
HETATM   14  O1  UNL     1       1.579  -0.833  -0.549  1.00  0.00    -0.272 OA
HETATM   15  N2  UNL     1       1.154   1.287   0.117  1.00  0.00    -0.237 N 
ATOM     16  H2  UNL     1       0.486   1.970   0.475  1.00  0.00     0.183 HD
BRANCH  15  17
HETATM   17  S1  UNL     1       2.766   1.833  -0.186  1.00  0.00     0.323 S 
HETATM   18  O2  UNL     1       3.216   2.545   1.088  1.00  0.00    -0.182 OA
HETATM   19  O3  UNL     1       2.676   2.922  -1.250  1.00  0.00    -0.182 OA
BRANCH  17  20
HETATM   20  N3  UNL     1       3.844   0.600  -0.608  1.00  0.00    -0.293 N 
HETATM   21  C14 UNL     1       4.031   0.319  -1.978  1.00  0.00     0.164 C 
BRANCH  20  22
HETATM   22  C15 UNL     1       4.894   0.314   0.292  1.00  0.00     0.207 C 
BRANCH  22  23
HETATM   23  C16 UNL     1       6.184   1.070   0.053  1.00  0.00     0.371 C 
HETATM   24  F1  UNL     1       6.030   2.431   0.131  1.00  0.00    -0.213 F 
HETATM   25  F2  UNL     1       7.121   0.680   0.998  1.00  0.00    -0.213 F 
ENDBRANCH  22  23
ENDBRANCH  20  22
ENDBRANCH  17  20
ENDBRANCH  15  17
ENDBRANCH  11  13
BRANCH   1  26
HETATM   26  C2  UNL     1      -4.985  -1.512  -0.473  1.00  0.00     0.015 C 
HETATM   27  C1  UNL     1      -5.444  -2.060   0.622  1.00  0.00     0.013 C 
ENDBRANCH   1  26
TORSDOF 6
