REMARK  13 active torsions:
REMARK  status: ('A' for Active; 'I' for Inactive)
REMARK    1  A    between atoms: C2_2  and  C3_3 
REMARK    2  A    between atoms: C3_3  and  C4_4 
REMARK    3  A    between atoms: C4_4  and  C5_5 
REMARK    4  A    between atoms: C5_5  and  C6_6 
REMARK    5  A    between atoms: C5_5  and  C23_35 
REMARK       I    between atoms: C6_6  and  N1_8 
REMARK    6  A    between atoms: N1_8  and  C7_10 
REMARK    7  A    between atoms: C8_15  and  C9_16 
REMARK    8  A    between atoms: C9_16  and  C10_17 
REMARK    9  A    between atoms: C10_17  and  C11_18 
REMARK   10  A    between atoms: C11_18  and  C12_19 
REMARK       I    between atoms: C12_19  and  N4_21 
REMARK       I    between atoms: C23_35  and  N6_37 
REMARK   11  A    between atoms: N6_37  and  C24_39 
REMARK   12  A    between atoms: C24_39  and  C25_40 
REMARK   13  A    between atoms: C25_40  and  O5_42 
ROOT
HETATM    1  C7  UNL     1      -2.994  -0.614  -0.453  1.00  0.00     0.167 A 
HETATM    2  N2  UNL     1      -2.036   0.111   0.133  1.00  0.00    -0.279 N 
ATOM      3  H2  UNL     1      -2.272   0.840   0.806  1.00  0.00     0.189 HD
HETATM    4  N3  UNL     1      -0.828  -0.129  -0.167  1.00  0.00    -0.296 N 
ATOM      5  H3  UNL     1      -0.081   0.413   0.268  1.00  0.00     0.187 HD
HETATM    6  C8  UNL     1      -0.529  -1.078  -1.041  1.00  0.00     0.069 A 
HETATM    7  S1  UNL     1      -2.079  -1.656  -1.453  1.00  0.00    -0.038 SA
ENDROOT
BRANCH   1   8
HETATM    8  N1  UNL     1      -4.292  -0.523  -0.281  1.00  0.00    -0.305 N 
HETATM    9  C6  UNL     1      -5.158  -1.389  -0.999  1.00  0.00     0.236 C 
HETATM   10  O1  UNL     1      -4.620  -2.301  -1.699  1.00  0.00    -0.272 OA
ATOM     11  H1  UNL     1      -4.676   0.166   0.365  1.00  0.00     0.171 HD
BRANCH   9  12
HETATM   12  C5  UNL     1      -6.612  -1.247  -0.938  1.00  0.00     0.170 C 
BRANCH  12  13
HETATM   13  C4  UNL     1      -7.165   0.091  -1.226  1.00  0.00     0.024 C 
BRANCH  13  14
HETATM   14  C3  UNL     1      -6.958   0.723  -2.544  1.00  0.00     0.001 C 
BRANCH  14  15
HETATM   15  C2  UNL     1      -5.574   1.008  -2.994  1.00  0.00    -0.005 C 
HETATM   16  C1  UNL     1      -5.688   1.712  -4.357  1.00  0.00     0.005 C 
ENDBRANCH  14  15
ENDBRANCH  13  14
ENDBRANCH  12  13
BRANCH  12  17
HETATM   17  C23 UNL     1      -7.068  -1.737   0.411  1.00  0.00     0.231 C 
HETATM   18  O3  UNL     1      -7.728  -2.790   0.470  1.00  0.00    -0.273 OA
HETATM   19  N6  UNL     1      -6.756  -1.022   1.593  1.00  0.00    -0.351 N 
ATOM     20  H6  UNL     1      -6.214  -0.160   1.536  1.00  0.00     0.163 HD
BRANCH  19  21
HETATM   21  C24 UNL     1      -7.201  -1.506   2.875  1.00  0.00     0.233 C 
BRANCH  21  22
HETATM   22  C25 UNL     1      -6.754  -0.595   3.948  1.00  0.00     0.276 C 
HETATM   23  O4  UNL     1      -6.088   0.422   3.662  1.00  0.00    -0.263 OA
BRANCH  22  24
HETATM   24  O5  UNL     1      -7.088  -0.892   5.279  1.00  0.00    -0.325 OA
HETATM   25  C26 UNL     1      -6.613   0.043   6.249  1.00  0.00     0.213 C 
ENDBRANCH  22  24
ENDBRANCH  21  22
ENDBRANCH  19  21
ENDBRANCH  12  17
ENDBRANCH   9  12
ENDBRANCH   1   8
BRANCH   6  26
HETATM   26  C9  UNL     1       0.846  -1.492  -1.507  1.00  0.00     0.067 C 
BRANCH  26  27
HETATM   27  C10 UNL     1       1.900  -0.660  -0.825  1.00  0.00     0.016 C 
BRANCH  27  28
HETATM   28  C11 UNL     1       3.264  -1.086  -1.301  1.00  0.00     0.103 C 
BRANCH  28  29
HETATM   29  C12 UNL     1       4.282  -0.242  -0.603  1.00  0.00     0.224 C 
HETATM   30  O2  UNL     1       3.887   0.623   0.206  1.00  0.00    -0.273 OA
HETATM   31  N4  UNL     1       5.671  -0.425  -0.859  1.00  0.00    -0.314 N 
HETATM   32  C13 UNL     1       6.163  -1.332  -1.902  1.00  0.00     0.152 C 
HETATM   33  C22 UNL     1       6.656   0.294  -0.129  1.00  0.00     0.064 A 
HETATM   34  C14 UNL     1       7.168  -0.640  -2.786  1.00  0.00     0.140 C 
HETATM   35  N5  UNL     1       7.909   0.404  -2.142  1.00  0.00    -0.387 N 
HETATM   36  C15 UNL     1       7.821   0.733  -0.771  1.00  0.00     0.055 A 
ATOM     37  H5  UNL     1       8.549   0.951  -2.718  1.00  0.00     0.159 HD
HETATM   38  C16 UNL     1       8.786   1.431  -0.085  1.00  0.00     0.038 A 
HETATM   39  C17 UNL     1       8.606   1.701   1.252  1.00  0.00    -0.054 A 
HETATM   40  C18 UNL     1       9.634   2.461   2.044  1.00  0.00     0.049 C 
HETATM   41  C19 UNL     1       7.459   1.262   1.867  1.00  0.00    -0.054 A 
HETATM   42  C20 UNL     1       7.246   1.544   3.312  1.00  0.00     0.049 C 
HETATM   43  C21 UNL     1       6.455   0.552   1.209  1.00  0.00     0.039 A 
ENDBRANCH  28  29
ENDBRANCH  27  28
ENDBRANCH  26  27
ENDBRANCH   6  26
TORSDOF 13
