REMARK  11 active torsions:
REMARK  status: ('A' for Active; 'I' for Inactive)
REMARK    1  A    between atoms: C2_2  and  C3_3 
REMARK    2  A    between atoms: C3_3  and  C4_4 
REMARK    3  A    between atoms: C4_4  and  N1_5 
REMARK    4  A    between atoms: N1_5  and  C5_7 
REMARK    5  A    between atoms: C5_7  and  C6_8 
REMARK    6  A    between atoms: C7_9  and  N2_10 
REMARK       I    between atoms: N3_13  and  C10_14 
REMARK    7  A    between atoms: C10_14  and  C11_16 
REMARK    8  A    between atoms: C11_16  and  C12_17 
REMARK    9  A    between atoms: C11_16  and  N4_24 
REMARK   10  A    between atoms: C12_17  and  C13_18 
REMARK       I    between atoms: N4_24  and  C19_25 
REMARK   11  A    between atoms: C19_25  and  C20_27 
ROOT
HETATM    1  N2  UNL     1       2.452  -0.705  -0.601  1.00  0.00    -0.374 N 
HETATM    2  C8  UNL     1       2.220   0.183  -1.696  1.00  0.00     0.143 C 
HETATM    3  C9  UNL     1       0.844  -0.139  -2.258  1.00  0.00     0.146 C 
HETATM    4  N3  UNL     1      -0.200  -0.272  -1.292  1.00  0.00    -0.343 N 
HETATM    5  C10 UNL     1      -1.564   0.161  -1.656  1.00  0.00     0.284 C 
HETATM    6  O1  UNL     1      -1.829   0.846  -2.488  1.00  0.00    -0.265 OA
HETATM    7  C27 UNL     1       0.073  -0.578   0.070  1.00  0.00     0.146 C 
HETATM    8  C28 UNL     1       1.496  -0.761   0.469  1.00  0.00     0.143 C 
ENDROOT
BRANCH   5   9
HETATM    9  C11 UNL     1      -2.549  -0.500  -0.592  1.00  0.00     0.175 C 
BRANCH   9  10
HETATM   10  C12 UNL     1      -2.494  -1.924  -0.860  1.00  0.00     0.033 C 
BRANCH  10  11
HETATM   11  C13 UNL     1      -3.106  -3.042  -0.212  1.00  0.00    -0.023 C 
HETATM   12  C14 UNL     1      -2.662  -4.269  -1.084  1.00  0.00     0.019 C 
HETATM   13  C15 UNL     1      -2.800  -3.502   1.156  1.00  0.00     0.013 C 
HETATM   14  C16 UNL     1      -3.732  -4.725   1.287  1.00  0.00     0.001 C 
HETATM   15  C17 UNL     1      -4.798  -4.577   0.262  1.00  0.00     0.001 C 
HETATM   16  C18 UNL     1      -4.632  -3.152  -0.224  1.00  0.00     0.013 C 
ENDBRANCH  10  11
ENDBRANCH   9  10
BRANCH   9  17
HETATM   17  N4  UNL     1      -3.084   0.270   0.311  1.00  0.00    -0.361 NA
HETATM   18  C19 UNL     1      -3.679   1.118   1.318  1.00  0.00     0.328 C 
HETATM   19  O2  UNL     1      -4.027   0.815   2.402  1.00  0.00    -0.251 OA
BRANCH  18  20
HETATM   20  C20 UNL     1      -3.887   2.512   0.870  1.00  0.00     0.074 A 
HETATM   21  C21 UNL     1      -4.199   2.727  -0.474  1.00  0.00     0.044 A 
HETATM   22  C22 UNL     1      -4.737   3.924  -0.875  1.00  0.00     0.006 A 
HETATM   23  C23 UNL     1      -5.126   4.185  -2.301  1.00  0.00     0.068 C 
HETATM   24  N5  UNL     1      -4.952   4.883   0.014  1.00  0.00    -0.362 N 
HETATM   25  C24 UNL     1      -4.652   4.693   1.328  1.00  0.00     0.031 A 
ATOM     26  H5  UNL     1      -5.347   5.773  -0.290  1.00  0.00     0.165 HD
HETATM   27  C25 UNL     1      -4.942   5.806   2.266  1.00  0.00     0.070 C 
HETATM   28  C26 UNL     1      -4.124   3.524   1.743  1.00  0.00     0.085 A 
HETATM   29  N6  UNL     1      -3.737   3.305   3.111  1.00  0.00    -0.099 NA
ENDBRANCH  18  20
ENDBRANCH   9  17
ENDBRANCH   5   9
BRANCH   1  30
HETATM   30  C7  UNL     1       3.558  -1.600  -0.562  1.00  0.00     0.101 A 
HETATM   31  C6  UNL     1       4.848  -1.573  -0.172  1.00  0.00     0.064 A 
HETATM   32  C30 UNL     1       4.944  -2.955  -0.356  1.00  0.00     0.237 A 
HETATM   33  C29 UNL     1       3.623  -2.961  -0.754  1.00  0.00     0.250 A 
HETATM   34  O4  UNL     1       5.833  -3.828  -0.233  1.00  0.00    -0.283 OA
HETATM   35  O3  UNL     1       2.864  -3.893  -1.126  1.00  0.00    -0.282 OA
BRANCH  31  36
HETATM   36  C5  UNL     1       5.944  -0.598   0.129  1.00  0.00     0.105 C 
BRANCH  36  37
HETATM   37  N1  UNL     1       5.616   0.349   1.111  1.00  0.00    -0.378 N 
ATOM     38  H1  UNL     1       4.664   0.407   1.474  1.00  0.00     0.164 HD
BRANCH  37  39
HETATM   39  C4  UNL     1       6.619   1.221   1.592  1.00  0.00     0.060 C 
BRANCH  39  40
HETATM   40  C3  UNL     1       7.234   2.240   0.744  1.00  0.00     0.044 C 
BRANCH  40  41
HETATM   41  C2  UNL     1       8.034   1.845  -0.431  1.00  0.00     0.001 C 
HETATM   42  C1  UNL     1       9.201   0.928  -0.045  1.00  0.00     0.005 C 
ENDBRANCH  40  41
ENDBRANCH  39  40
ENDBRANCH  37  39
ENDBRANCH  36  37
ENDBRANCH  31  36
ENDBRANCH   1  30
TORSDOF 11
