REMARK  1 active torsions:
REMARK  status: ('A' for Active; 'I' for Inactive)
REMARK    1  A    between atoms: O1_1  and  C1_3 
ROOT
HETATM    1  C1  UNL     1      -2.049  -0.539  -0.162  1.00  0.00     0.153 C 
HETATM    2  C2  UNL     1      -2.513   0.869   0.230  1.00  0.00     0.064 C 
HETATM    3  C3  UNL     1      -1.346   1.700  -0.235  1.00  0.00     0.275 C 
HETATM    4  N1  UNL     1      -0.195   0.805  -0.288  1.00  0.00     0.095 N 
HETATM    5  C4  UNL     1       0.919   1.335   0.435  1.00  0.00     0.273 C 
HETATM    6  C5  UNL     1       2.254   0.951  -0.102  1.00  0.00     0.030 C 
HETATM    7  C6  UNL     1       2.317  -0.414  -0.698  1.00  0.00     0.002 C 
HETATM    8  C7  UNL     1       1.636  -1.465   0.118  1.00  0.00     0.002 C 
HETATM    9  C8  UNL     1       0.179  -1.619  -0.171  1.00  0.00     0.038 C 
HETATM   10  C9  UNL     1      -0.595  -0.435   0.300  1.00  0.00     0.251 C 
ENDROOT
BRANCH   1  11
HETATM   11  O1  UNL     1      -2.745  -1.522   0.486  1.00  0.00    -0.393 OA
ATOM     12  H1  UNL     1      -2.458  -2.394   0.243  1.00  0.00     0.210 HD
ENDBRANCH   1  11
TORSDOF 1
