REMARK  2 active torsions:
REMARK  status: ('A' for Active; 'I' for Inactive)
REMARK    1  A    between atoms: C2_2  and  C3_3 
REMARK    2  A    between atoms: N1_9  and  N2_10 
ROOT
HETATM    1  C3  UNL     1      -0.654  -0.500   0.151  1.00  0.00     0.112 C 
HETATM    2  C4  UNL     1      -0.478  -0.763  -1.322  1.00  0.00     0.103 C 
HETATM    3  S1  UNL     1       1.348  -0.582  -1.460  1.00  0.00    -0.135 SA
HETATM    4  C5  UNL     1       1.614   0.103   0.225  1.00  0.00     0.088 C 
HETATM    5  C6  UNL     1       2.371   1.417   0.136  1.00  0.00     0.052 C 
HETATM    6  C7  UNL     1       2.412  -0.843   1.055  1.00  0.00     0.052 C 
HETATM    7  N1  UNL     1       0.302   0.357   0.641  1.00  0.00    -0.309 N 
ENDROOT
BRANCH   7   8
HETATM    8  N2  UNL     1       0.036   1.314   1.519  1.00  0.00    -0.345 N 
ATOM      9  H22 UNL     1      -0.920   1.499   1.822  1.00  0.00     0.176 HD
ATOM     10  H21 UNL     1       0.746   1.950   1.883  1.00  0.00     0.176 HD
ENDBRANCH   7   8
BRANCH   1  11
HETATM   11  C2  UNL     1      -2.043   0.094   0.338  1.00  0.00     0.023 C 
HETATM   12  C1  UNL     1      -3.124  -0.825  -0.129  1.00  0.00     0.007 C 
ENDBRANCH   1  11
TORSDOF 2
