REMARK  10 active torsions:
REMARK  status: ('A' for Active; 'I' for Inactive)
REMARK    1  A    between atoms: N1_1  and  N2_4 
REMARK    2  A    between atoms: N2_4  and  C1_5 
REMARK    3  A    between atoms: C1_5  and  C2_6 
REMARK    4  A    between atoms: C2_6  and  O1_7 
REMARK    5  A    between atoms: C2_6  and  N3_9 
REMARK    6  A    between atoms: N3_9  and  N4_10 
REMARK    7  A    between atoms: C3_12  and  C4_13 
REMARK    8  A    between atoms: C4_13  and  C5_15 
REMARK    9  A    between atoms: C5_15  and  C6_16 
REMARK       I    between atoms: C6_16  and  N5_18 
REMARK   10  A    between atoms: N5_18  and  C7_20 
ROOT
HETATM    1  N4  UNL     1       1.773   0.249  -0.862  1.00  0.00    -0.241 N 
ATOM      2  H4  UNL     1       1.337   1.105  -1.205  1.00  0.00     0.201 HD
HETATM    3  C3  UNL     1       1.142  -0.517  -0.034  1.00  0.00     0.171 C 
ENDROOT
BRANCH   3   4
HETATM    4  C4  UNL     1      -0.162  -0.268   0.455  1.00  0.00     0.175 C 
HETATM    5  O2  UNL     1      -0.645  -1.108   1.306  1.00  0.00    -0.291 OA
BRANCH   4   6
HETATM    6  C5  UNL     1      -1.006   0.859   0.055  1.00  0.00     0.187 C 
BRANCH   6   7
HETATM    7  C6  UNL     1      -2.455   0.594   0.307  1.00  0.00     0.229 C 
HETATM    8  O3  UNL     1      -2.765  -0.474   0.879  1.00  0.00    -0.273 OA
HETATM    9  N5  UNL     1      -3.469   1.482  -0.072  1.00  0.00    -0.326 N 
ATOM     10  H5  UNL     1      -3.184   2.349  -0.527  1.00  0.00     0.169 HD
BRANCH   9  11
HETATM   11  C7  UNL     1      -4.893   1.274   0.128  1.00  0.00     0.041 A 
HETATM   12  C8  UNL     1      -5.454   0.058   0.292  1.00  0.00     0.037 A 
HETATM   13  C9  UNL     1      -6.804   0.007   0.530  1.00  0.00     0.052 A 
HETATM   14  S1  UNL     1      -7.259   1.647   0.520  1.00  0.00    -0.111 SA
HETATM   15  C10 UNL     1      -5.753   2.355   0.220  1.00  0.00     0.079 A 
ENDBRANCH   9  11
ENDBRANCH   6   7
ENDBRANCH   4   6
ENDBRANCH   3   4
BRANCH   1  16
HETATM   16  N3  UNL     1       3.058  -0.105  -1.283  1.00  0.00    -0.304 NA
BRANCH  16  17
HETATM   17  C2  UNL     1       4.245  -0.431  -1.674  1.00  0.00     0.230 C 
BRANCH  17  18
HETATM   18  C1  UNL     1       5.320  -1.013  -0.743  1.00  0.00     0.236 C 
BRANCH  18  19
HETATM   19  N2  UNL     1       4.711  -1.146   0.554  1.00  0.00    -0.139 NA
BRANCH  19  20
HETATM   20  N1  UNL     1       5.623  -1.644   1.504  1.00  0.00    -0.348 N 
ATOM     21  H12 UNL     1       6.592  -1.877   1.285  1.00  0.00     0.172 HD
ATOM     22  H11 UNL     1       5.191  -1.738   2.423  1.00  0.00     0.172 HD
ENDBRANCH  19  20
ENDBRANCH  18  19
ENDBRANCH  17  18
BRANCH  17  23
HETATM   23  O1  UNL     1       4.743  -0.331  -2.881  1.00  0.00    -0.336 OA
ATOM     24  H1  UNL     1       4.078   0.029  -3.457  1.00  0.00     0.220 HD
ENDBRANCH  17  23
ENDBRANCH  16  17
ENDBRANCH   1  16
TORSDOF 10
