REMARK  7 active torsions:
REMARK  status: ('A' for Active; 'I' for Inactive)
REMARK    1  A    between atoms: C2_2  and  O1_4 
REMARK    2  A    between atoms: C2_2  and  C4_6 
REMARK    3  A    between atoms: C4_6  and  C5_7 
REMARK    4  A    between atoms: C5_7  and  C6_8 
REMARK    5  A    between atoms: C7_11  and  C8_12 
REMARK    6  A    between atoms: C13_18  and  N2_19 
REMARK    7  A    between atoms: N2_19  and  C14_21 
ROOT
HETATM    1  C6  UNL     1      -2.920   0.061   0.575  1.00  0.00     0.083 A 
HETATM    2  N1  UNL     1      -2.824   1.390   0.620  1.00  0.00    -0.342 N 
ATOM      3  H1  UNL     1      -3.610   2.040   0.585  1.00  0.00     0.167 HD
HETATM    4  C7  UNL     1      -1.505   1.747   0.721  1.00  0.00     0.084 A 
HETATM    5  C13 UNL     1      -0.771   0.591   0.737  1.00  0.00     0.135 A 
HETATM    6  N6  UNL     1      -1.695  -0.416   0.645  1.00  0.00    -0.330 N 
ATOM      7  H6  UNL     1      -1.463  -1.409   0.632  1.00  0.00     0.168 HD
ENDROOT
BRANCH   5   8
HETATM    8  N2  UNL     1       0.619   0.465   0.829  1.00  0.00    -0.339 N 
ATOM      9  H2  UNL     1       1.058   0.814   1.681  1.00  0.00     0.167 HD
BRANCH   8  10
HETATM   10  C14 UNL     1       1.400  -0.051  -0.061  1.00  0.00     0.063 A 
HETATM   11  C15 UNL     1       0.878  -0.535  -1.217  1.00  0.00     0.049 A 
HETATM   12  C16 UNL     1       1.769  -1.084  -2.140  1.00  0.00     0.090 A 
HETATM   13  N3  UNL     1       3.093  -1.142  -1.915  1.00  0.00    -0.365 N 
HETATM   14  C17 UNL     1       3.637  -0.669  -0.776  1.00  0.00     0.076 A 
ATOM     15  H3  UNL     1       3.701  -1.554  -2.623  1.00  0.00     0.165 HD
HETATM   16  C18 UNL     1       2.765  -0.125   0.141  1.00  0.00     0.080 A 
HETATM   17  C20 UNL     1       5.027  -0.595  -0.257  1.00  0.00     0.185 C 
HETATM   18  N4  UNL     1       3.573   0.303   1.252  1.00  0.00    -0.384 N 
HETATM   19  C19 UNL     1       4.938   0.529   0.758  1.00  0.00     0.165 C 
ATOM     20  H4  UNL     1       3.254   0.428   2.213  1.00  0.00     0.159 HD
HETATM   21  C21 UNL     1       6.045  -0.211  -1.272  1.00  0.00     0.049 C 
HETATM   22  N5  UNL     1       5.507  -1.814   0.307  1.00  0.00    -0.059 N 
HETATM   23  C22 UNL     1       6.560  -1.516  -1.789  1.00  0.00     0.030 C 
HETATM   24  C23 UNL     1       6.222  -2.510  -0.717  1.00  0.00     0.233 C 
ATOM     25  H52 UNL     1       6.061  -1.670   1.151  1.00  0.00     0.278 HD
ATOM     26  H51 UNL     1       4.767  -2.376   0.727  1.00  0.00     0.278 HD
ENDBRANCH   8  10
ENDBRANCH   5   8
BRANCH   4  27
HETATM   27  C8  UNL     1      -1.116   3.137   0.789  1.00  0.00    -0.027 C 
HETATM   28  C9  UNL     1       0.131   3.521   0.896  1.00  0.00     0.009 C 
HETATM   29  C10 UNL     1       0.392   5.002   0.956  1.00  0.00     0.195 C 
HETATM   30  O2  UNL     1      -0.385   5.546  -0.065  1.00  0.00    -0.387 OA
HETATM   31  C11 UNL     1      -1.732   5.490   0.212  1.00  0.00     0.172 C 
HETATM   32  C12 UNL     1      -2.216   4.175   0.733  1.00  0.00     0.067 C 
ENDBRANCH   4  27
BRANCH   1  33
HETATM   33  C5  UNL     1      -4.222  -0.650   0.465  1.00  0.00     0.079 C 
BRANCH  33  34
HETATM   34  C4  UNL     1      -4.040  -2.142   0.434  1.00  0.00     0.044 C 
BRANCH  34  35
HETATM   35  C2  UNL     1      -5.310  -2.905   0.326  1.00  0.00     0.051 C 
HETATM   36  C1  UNL     1      -6.087  -2.572  -0.928  1.00  0.00     0.045 C 
HETATM   37  C3  UNL     1      -6.223  -2.741   1.512  1.00  0.00     0.045 C 
BRANCH  35  38
HETATM   38  O1  UNL     1      -4.972  -4.272   0.270  1.00  0.00    -0.391 OA
ATOM     39  H1  UNL     1      -4.484  -4.481   1.058  1.00  0.00     0.210 HD
ENDBRANCH  35  38
ENDBRANCH  34  35
ENDBRANCH  33  34
ENDBRANCH   1  33
TORSDOF 7
