REMARK  10 active torsions:
REMARK  status: ('A' for Active; 'I' for Inactive)
REMARK    1  A    between atoms: C2_2  and  O1_3 
REMARK    2  A    between atoms: C2_2  and  C3_5 
REMARK    3  A    between atoms: C3_5  and  C4_6 
REMARK    4  A    between atoms: C4_6  and  C6_8 
REMARK    5  A    between atoms: C6_8  and  C7_9 
REMARK    6  A    between atoms: C7_9  and  O2_10 
REMARK    7  A    between atoms: C7_9  and  C8_12 
REMARK    8  A    between atoms: C11_15  and  O3_16 
REMARK    9  A    between atoms: C15_21  and  O4_22 
REMARK   10  A    between atoms: C24_33  and  O5_34 
ROOT
HETATM    1  C8  UNL     1      -0.507  -1.372  -0.131  1.00  0.00     0.003 C 
HETATM    2  C9  UNL     1       0.446  -0.629   0.370  1.00  0.00    -0.058 C 
HETATM    3  C10 UNL     1       0.262   0.853   0.585  1.00  0.00     0.068 C 
HETATM    4  C11 UNL     1       1.510   1.629   0.096  1.00  0.00     0.131 C 
HETATM    5  C12 UNL     1       2.800   1.130   0.617  1.00  0.00    -0.009 C 
HETATM    6  C13 UNL     1       2.911   1.556   2.060  1.00  0.00     0.018 C 
HETATM    7  C14 UNL     1       3.907   1.857  -0.113  1.00  0.00     0.065 C 
HETATM    8  C15 UNL     1       4.901   1.029  -0.823  1.00  0.00     0.147 C 
HETATM    9  C16 UNL     1       4.550   0.931  -2.266  1.00  0.00     0.097 C 
HETATM   10  N1  UNL     1       4.258   0.846  -3.386  1.00  0.00    -0.194 NA
HETATM   11  C17 UNL     1       5.215  -0.307  -0.271  1.00  0.00     0.054 C 
HETATM   12  C18 UNL     1       4.244  -0.820   0.748  1.00  0.00     0.010 C 
HETATM   13  C19 UNL     1       2.889  -0.324   0.363  1.00  0.00     0.009 C 
HETATM   14  C20 UNL     1       1.778  -1.153   0.881  1.00  0.00    -0.015 C 
HETATM   15  C21 UNL     1       1.739  -1.196   2.407  1.00  0.00     0.020 C 
HETATM   16  C22 UNL     1       2.034  -2.573   0.465  1.00  0.00     0.017 C 
HETATM   17  C23 UNL     1       0.717  -3.376   0.609  1.00  0.00     0.037 C 
HETATM   18  C24 UNL     1      -0.132  -2.842  -0.472  1.00  0.00     0.154 C 
ENDROOT
BRANCH   8  19
HETATM   19  O4  UNL     1       6.133   1.738  -0.841  1.00  0.00    -0.375 OA
ATOM     20  H4  UNL     1       6.773   1.205  -1.298  1.00  0.00     0.211 HD
ENDBRANCH   8  19
BRANCH   4  21
HETATM   21  O3  UNL     1       1.252   2.961   0.453  1.00  0.00    -0.394 OA
ATOM     22  H3  UNL     1       2.017   3.437   0.153  1.00  0.00     0.210 HD
ENDBRANCH   4  21
BRANCH   1  23
HETATM   23  C7  UNL     1      -1.865  -1.071  -0.567  1.00  0.00     0.052 C 
BRANCH  23  24
HETATM   24  C6  UNL     1      -2.617   0.118  -0.258  1.00  0.00     0.069 C 
BRANCH  24  25
HETATM   25  C4  UNL     1      -4.149  -0.058  -0.384  1.00  0.00    -0.010 C 
HETATM   26  C5  UNL     1      -4.596  -0.632  -1.649  1.00  0.00     0.010 C 
BRANCH  25  27
HETATM   27  C3  UNL     1      -4.822   1.229  -0.042  1.00  0.00     0.035 C 
BRANCH  27  28
HETATM   28  C2  UNL     1      -6.286   1.238   0.141  1.00  0.00     0.114 C 
HETATM   29  C1  UNL     1      -6.681   2.699   0.522  1.00  0.00     0.039 C 
BRANCH  28  30
HETATM   30  O1  UNL     1      -7.055   1.006  -0.995  1.00  0.00    -0.396 OA
ATOM     31  H1  UNL     1      -6.815   0.117  -1.227  1.00  0.00     0.210 HD
ENDBRANCH  28  30
ENDBRANCH  27  28
ENDBRANCH  25  27
ENDBRANCH  24  25
ENDBRANCH  23  24
BRANCH  23  32
HETATM   32  O2  UNL     1      -2.061  -1.504  -1.926  1.00  0.00    -0.364 OA
ATOM     33  H2  UNL     1      -1.565  -2.288  -2.130  1.00  0.00     0.217 HD
ENDBRANCH  23  32
ENDBRANCH   1  23
BRANCH  18  34
HETATM   34  O5  UNL     1       0.561  -2.841  -1.689  1.00  0.00    -0.391 OA
ATOM     35  H5  UNL     1       0.790  -3.739  -1.897  1.00  0.00     0.210 HD
ENDBRANCH  18  34
TORSDOF 10
