REMARK  14 active torsions:
REMARK  status: ('A' for Active; 'I' for Inactive)
REMARK    1  A    between atoms: C3_4  and  N2_5 
REMARK    2  A    between atoms: C4_9  and  N5_10 
REMARK       I    between atoms: N5_10  and  C5_12 
REMARK       I    between atoms: C5_12  and  N6_14 
REMARK    3  A    between atoms: N6_14  and  N7_16 
REMARK    4  A    between atoms: C6_23  and  O2_24 
REMARK    5  A    between atoms: C7_26  and  C8_27 
REMARK    6  A    between atoms: C8_27  and  O3_28 
REMARK    7  A    between atoms: C8_27  and  N10_30 
REMARK    8  A    between atoms: N10_30  and  C9_32 
REMARK    9  A    between atoms: C9_32  and  C10_33 
REMARK   10  A    between atoms: C9_32  and  C11_36 
REMARK   11  A    between atoms: C10_33  and  O4_34 
REMARK   12  A    between atoms: C11_36  and  O5_37 
REMARK   13  A    between atoms: C12_39  and  N11_40 
REMARK   14  A    between atoms: N11_40  and  C13_42 
ROOT
HETATM    1  N1  UNL     1       2.084   2.900  -0.186  1.00  0.00    -0.191 NA
HETATM    2  C1  UNL     1       1.482   1.931  -0.112  1.00  0.00     0.105 C 
HETATM    3  C2  UNL     1       0.756   0.698  -0.022  1.00  0.00     0.119 A 
HETATM    4  C3  UNL     1       1.496  -0.464  -0.066  1.00  0.00     0.169 A 
HETATM    5  N9  UNL     1       0.881  -1.654   0.013  1.00  0.00    -0.319 N 
ATOM      6  H9  UNL     1       1.431  -2.512  -0.020  1.00  0.00     0.169 HD
HETATM    7  C6  UNL     1      -0.458  -1.722   0.136  1.00  0.00     0.158 A 
HETATM    8  C7  UNL     1      -1.238  -0.603   0.185  1.00  0.00     0.093 A 
HETATM    9  C12 UNL     1      -0.615   0.651   0.103  1.00  0.00     0.077 A 
ENDROOT
BRANCH   4  10
HETATM   10  N2  UNL     1       2.915  -0.483  -0.195  1.00  0.00    -0.147 N 
HETATM   11  N3  UNL     1       3.512  -0.840  -1.333  1.00  0.00     0.018 NA
HETATM   12  N4  UNL     1       4.840  -0.765  -1.165  1.00  0.00    -0.113 N 
HETATM   13  C4  UNL     1       5.075  -0.354   0.095  1.00  0.00     0.715 A 
ATOM     14  H4  UNL     1       5.547  -0.981  -1.868  1.00  0.00     0.203 HD
HETATM   15  N8  UNL     1       3.861  -0.194   0.652  1.00  0.00    -0.109 N 
ATOM     16  H8  UNL     1       3.702   0.113   1.612  1.00  0.00     0.207 HD
BRANCH  13  17
HETATM   17  N5  UNL     1       6.208  -0.144   0.688  1.00  0.00    -0.138 N 
HETATM   18  C5  UNL     1       7.450  -0.325   0.065  1.00  0.00     0.352 C 
HETATM   19  O1  UNL     1       7.850   0.452  -0.837  1.00  0.00    -0.245 OA
HETATM   20  N6  UNL     1       8.259  -1.422   0.479  1.00  0.00    -0.258 N 
ATOM     21  H6  UNL     1       7.932  -2.052   1.211  1.00  0.00     0.191 HD
ATOM     22  H5  UNL     1       6.195   0.169   1.659  1.00  0.00     0.189 HD
BRANCH  20  23
HETATM   23  N7  UNL     1       9.492  -1.628  -0.118  1.00  0.00    -0.341 N 
ATOM     24  H72 UNL     1       9.804  -0.988  -0.849  1.00  0.00     0.177 HD
ATOM     25  H71 UNL     1      10.071  -2.413   0.178  1.00  0.00     0.177 HD
ENDBRANCH  20  23
ENDBRANCH  13  17
ENDBRANCH   4  10
BRANCH   9  26
HETATM   26  N11 UNL     1      -1.350   1.646   0.147  1.00  0.00    -0.343 N 
ATOM     27  H11 UNL     1      -2.320   1.344   0.242  1.00  0.00     0.167 HD
BRANCH  26  28
HETATM   28  C13 UNL     1      -1.304   3.004   0.112  1.00  0.00     0.105 C 
HETATM   29  N12 UNL     1      -1.172   3.830   1.126  1.00  0.00    -0.355 N 
HETATM   30  C14 UNL     1      -1.169   5.197   0.652  1.00  0.00     0.356 C 
ATOM     31  H12 UNL     1      -1.085   3.549   2.103  1.00  0.00     0.162 HD
HETATM   32  N13 UNL     1      -1.973   5.091  -0.556  1.00  0.00    -0.053 N 
HETATM   33  C15 UNL     1      -1.420   3.858  -1.127  1.00  0.00     0.309 C 
ATOM     34 2H13 UNL     1      -2.984   5.102  -0.419  1.00  0.00     0.279 HD
ATOM     35 1H13 UNL     1      -1.964   5.907  -1.168  1.00  0.00     0.279 HD
ENDBRANCH  26  28
ENDBRANCH   9  26
BRANCH   8  36
HETATM   36  C8  UNL     1      -2.686  -0.747   0.315  1.00  0.00     0.153 C 
BRANCH  36  37
HETATM   37  O3  UNL     1      -3.429   0.417   0.366  1.00  0.00    -0.346 OA
ATOM     38  H3  UNL     1      -4.371   0.323   0.451  1.00  0.00     0.219 HD
ENDBRANCH  36  37
BRANCH  36  39
HETATM   39  N10 UNL     1      -3.264  -1.867   0.381  1.00  0.00    -0.361 N 
ATOM     40  H10 UNL     1      -2.638  -2.671   0.336  1.00  0.00     0.162 HD
BRANCH  39  41
HETATM   41  C9  UNL     1      -4.628  -2.192   0.506  1.00  0.00     0.130 C 
BRANCH  41  42
HETATM   42  C10 UNL     1      -5.589  -1.039   0.627  1.00  0.00     0.191 C 
BRANCH  42  43
HETATM   43  O4  UNL     1      -6.875  -1.623   0.733  1.00  0.00    -0.399 OA
ATOM     44  H4  UNL     1      -7.481  -0.896   0.809  1.00  0.00     0.209 HD
ENDBRANCH  42  43
ENDBRANCH  41  42
BRANCH  41  45
HETATM   45  C11 UNL     1      -5.138  -3.046  -0.663  1.00  0.00     0.191 C 
BRANCH  45  46
HETATM   46  O5  UNL     1      -4.950  -2.307  -1.813  1.00  0.00    -0.399 OA
ATOM     47  H5  UNL     1      -5.266  -2.836  -2.537  1.00  0.00     0.209 HD
ENDBRANCH  45  46
ENDBRANCH  41  45
ENDBRANCH  39  41
ENDBRANCH  36  39
ENDBRANCH   8  36
BRANCH   7  48
HETATM   48  O2  UNL     1      -1.027  -3.008   0.213  1.00  0.00    -0.345 OA
ATOM     49  H2  UNL     1      -1.972  -3.056   0.300  1.00  0.00     0.219 HD
ENDBRANCH   7  48
TORSDOF 14
