REMARK  3 active torsions:
REMARK  status: ('A' for Active; 'I' for Inactive)
REMARK    1  A    between atoms: S1_2  and  C2_3 
REMARK    2  A    between atoms: C5_8  and  N2_9 
REMARK    3  A    between atoms: N4_17  and  C11_18 
ROOT
HETATM    1  C2  UNL     1      -1.708   2.921  -0.293  1.00  0.00     0.147 A 
HETATM    2  N1  UNL     1      -0.431   3.326  -0.249  1.00  0.00    -0.321 N 
ATOM      3  H1  UNL     1      -0.227   4.324  -0.303  1.00  0.00     0.169 HD
HETATM    4  C3  UNL     1       0.588   2.459  -0.136  1.00  0.00     0.138 A 
HETATM    5  C4  UNL     1       0.282   1.091  -0.062  1.00  0.00     0.124 A 
HETATM    6  C5  UNL     1      -0.994   0.650  -0.115  1.00  0.00     0.136 A 
HETATM    7  N3  UNL     1      -1.991   1.647  -0.231  1.00  0.00    -0.321 N 
ATOM      8  H3  UNL     1      -2.969   1.360  -0.268  1.00  0.00     0.169 HD
HETATM    9  N4  UNL     1       1.385   0.223   0.021  1.00  0.00    -0.335 N 
HETATM   10  C14 UNL     1       2.727   0.680  -0.005  1.00  0.00     0.052 A 
HETATM   11  C15 UNL     1       3.767  -0.047  -0.211  1.00  0.00    -0.059 C 
HETATM   12  C16 UNL     1       5.122   0.623  -0.175  1.00  0.00     0.045 C 
HETATM   13  C17 UNL     1       3.796  -1.434  -0.655  1.00  0.00     0.045 C 
HETATM   14  C18 UNL     1       2.947   2.156  -0.094  1.00  0.00     0.119 A 
HETATM   15  N5  UNL     1       1.929   2.901  -0.147  1.00  0.00    -0.348 N 
ATOM     16  H5  UNL     1       2.089   3.907  -0.202  1.00  0.00     0.167 HD
ENDROOT
BRANCH   6  17
HETATM   17  N2  UNL     1      -1.520  -0.618  -0.308  1.00  0.00    -0.365 N 
HETATM   18  C6  UNL     1      -2.647  -1.027   0.505  1.00  0.00     0.124 C 
HETATM   19  C7  UNL     1      -3.098  -2.421   0.127  1.00  0.00     0.020 C 
HETATM   20  C8  UNL     1      -3.551  -2.390  -1.304  1.00  0.00     0.003 C 
HETATM   21  C9  UNL     1      -2.526  -1.751  -2.205  1.00  0.00     0.020 C 
HETATM   22  C10 UNL     1      -1.238  -1.497  -1.384  1.00  0.00     0.124 C 
ENDBRANCH   6  17
BRANCH   9  23
HETATM   23  C11 UNL     1       1.141  -1.134   0.566  1.00  0.00     0.091 A 
HETATM   24  C12 UNL     1       1.965  -1.267   1.912  1.00  0.00     0.028 A 
HETATM   25  C13 UNL     1       0.545  -1.186   1.965  1.00  0.00     0.028 A 
ENDBRANCH   9  23
BRANCH   1  26
HETATM   26  S1  UNL     1      -3.039   4.140  -0.439  1.00  0.00    -0.098 SA
HETATM   27  C1  UNL     1      -3.552   4.643   1.245  1.00  0.00     0.099 C 
ENDBRANCH   1  26
TORSDOF 3
