REMARK  3 active torsions:
REMARK  status: ('A' for Active; 'I' for Inactive)
REMARK    1  A    between atoms: C2_2  and  C4_4 
REMARK    2  A    between atoms: C4_4  and  C5_5 
REMARK    3  A    between atoms: C5_5  and  C6_6 
ROOT
HETATM    1  C6  UNL     1      -1.315   0.441   0.215  1.00  0.00     0.019 C 
HETATM    2  C7  UNL     1      -0.328  -0.032   1.208  1.00  0.00     0.051 C 
HETATM    3  C8  UNL     1       0.732  -0.928   0.755  1.00  0.00     0.073 C 
HETATM    4  N1  UNL     1       1.669  -0.512  -0.197  1.00  0.00    -0.314 N 
HETATM    5  S1  UNL     1       3.100  -1.586  -0.234  1.00  0.00     0.040 SA
HETATM    6  C9  UNL     1       4.417  -0.426  -0.493  1.00  0.00     0.236 A 
HETATM    7  N2  UNL     1       5.562   0.052  -0.626  1.00  0.00    -0.345 N 
ATOM      8  H2  UNL     1       6.364  -0.574  -0.552  1.00  0.00     0.163 HD
HETATM    9  C10 UNL     1       5.809   1.508  -0.890  1.00  0.00     0.150 A 
HETATM   10  C11 UNL     1       6.587   1.636  -2.182  1.00  0.00     0.044 C 
HETATM   11  S2  UNL     1       4.299   2.606  -0.998  1.00  0.00    -0.075 SA
HETATM   12  C12 UNL     1       2.959   1.488  -0.751  1.00  0.00     0.152 A 
HETATM   13  N3  UNL     1       3.653   0.596  -0.631  1.00  0.00    -0.374 NA
HETATM   14  C13 UNL     1       1.644   0.887  -0.591  1.00  0.00     0.203 C 
HETATM   15  C14 UNL     1       0.982   0.944  -1.941  1.00  0.00     0.282 A 
HETATM   16  C15 UNL     1      -0.066   2.065  -2.017  1.00  0.00     0.311 A 
HETATM   17  N4  UNL     1      -0.371   0.710  -2.054  1.00  0.00     0.100 N 
HETATM   18  C16 UNL     1      -1.095  -0.081  -1.183  1.00  0.00     0.278 C 
ENDROOT
BRANCH   1  19
HETATM   19  C5  UNL     1      -2.713   0.106   0.693  1.00  0.00     0.007 C 
BRANCH  19  20
HETATM   20  C4  UNL     1      -2.966  -1.353   0.884  1.00  0.00     0.004 C 
BRANCH  20  21
HETATM   21  C2  UNL     1      -4.418  -1.482   1.357  1.00  0.00    -0.023 C 
HETATM   22  C1  UNL     1      -4.480  -0.686   2.667  1.00  0.00     0.009 C 
HETATM   23  C3  UNL     1      -4.773  -2.896   1.691  1.00  0.00     0.009 C 
ENDBRANCH  20  21
ENDBRANCH  19  20
ENDBRANCH   1  19
TORSDOF 3
