REMARK  11 active torsions:
REMARK  status: ('A' for Active; 'I' for Inactive)
REMARK    1  A    between atoms: C2_2  and  C3_3 
REMARK    2  A    between atoms: C3_3  and  C4_4 
REMARK    3  A    between atoms: C4_4  and  C5_5 
REMARK    4  A    between atoms: C5_5  and  C6_6 
REMARK    5  A    between atoms: C6_6  and  C7_7 
REMARK    6  A    between atoms: C7_7  and  C8_8 
REMARK       I    between atoms: C8_8  and  N1_10 
REMARK    7  A    between atoms: N1_10  and  C9_12 
REMARK    8  A    between atoms: C10_17  and  S1_18 
REMARK    9  A    between atoms: S1_18  and  C11_19 
REMARK   10  A    between atoms: C11_19  and  C12_20 
REMARK   11  A    between atoms: N4_24  and  O4_26 
ROOT
HETATM    1  C8  UNL     1       0.727  -1.010  -2.187  1.00  0.00     0.246 C 
HETATM    2  O1  UNL     1       0.258  -1.547  -3.244  1.00  0.00    -0.268 OA
HETATM    3  N1  UNL     1       2.052  -0.607  -2.062  1.00  0.00    -0.302 N 
ATOM      4  H1  UNL     1       2.410   0.008  -2.792  1.00  0.00     0.171 HD
ENDROOT
BRANCH   3   5
HETATM    5  C9  UNL     1       2.880  -0.927  -1.121  1.00  0.00     0.168 A 
HETATM    6  N2  UNL     1       2.699  -1.705  -0.050  1.00  0.00    -0.278 N 
HETATM    7  N3  UNL     1       3.659  -1.873   0.757  1.00  0.00    -0.286 N 
ATOM      8  H2  UNL     1       1.800  -2.157   0.115  1.00  0.00     0.189 HD
HETATM    9  C10 UNL     1       4.826  -1.283   0.539  1.00  0.00     0.130 A 
ATOM     10  H3  UNL     1       3.534  -2.465   1.578  1.00  0.00     0.188 HD
HETATM   11  S2  UNL     1       4.508  -0.444  -0.913  1.00  0.00    -0.026 SA
BRANCH   9  12
HETATM   12  S1  UNL     1       6.327  -1.363   1.504  1.00  0.00    -0.093 SA
BRANCH  12  13
HETATM   13  C11 UNL     1       7.600  -0.323   0.745  1.00  0.00     0.194 C 
BRANCH  13  14
HETATM   14  C12 UNL     1       7.209   1.089   0.870  1.00  0.00     0.182 C 
HETATM   15  O2  UNL     1       7.463   1.672   1.945  1.00  0.00    -0.647 OA
HETATM   16  O3  UNL     1       6.582   1.745  -0.175  1.00  0.00    -0.647 OA
ENDBRANCH  13  14
ENDBRANCH  12  13
ENDBRANCH   9  12
ENDBRANCH   3   5
BRANCH   1  17
HETATM   17  C7  UNL     1      -0.196  -0.825  -1.083  1.00  0.00     0.070 C 
BRANCH  17  18
HETATM   18  C6  UNL     1      -1.463  -1.185  -1.143  1.00  0.00    -0.021 C 
BRANCH  18  19
HETATM   19  C5  UNL     1      -2.322  -0.954   0.036  1.00  0.00     0.027 C 
BRANCH  19  20
HETATM   20  C4  UNL     1      -3.497  -0.044  -0.252  1.00  0.00     0.009 C 
BRANCH  20  21
HETATM   21  C3  UNL     1      -4.255   0.076   1.064  1.00  0.00     0.054 C 
BRANCH  21  22
HETATM   22  C2  UNL     1      -5.415   0.954   0.865  1.00  0.00     0.006 C 
HETATM   23  C1  UNL     1      -5.185   2.343   0.424  1.00  0.00     0.065 C 
HETATM   24  N4  UNL     1      -6.590   0.461   1.089  1.00  0.00    -0.278 N 
ATOM     25  H4  UNL     1      -6.675  -0.510   1.391  1.00  0.00     0.193 HD
BRANCH  24  26
HETATM   26  O4  UNL     1      -7.716   1.210   0.930  1.00  0.00    -0.290 OA
ATOM     27  H4  UNL     1      -8.579   0.848   1.094  1.00  0.00     0.244 HD
ENDBRANCH  24  26
ENDBRANCH  21  22
ENDBRANCH  20  21
ENDBRANCH  19  20
ENDBRANCH  18  19
ENDBRANCH  17  18
ENDBRANCH   1  17
TORSDOF 11
