REMARK  10 active torsions:
REMARK  status: ('A' for Active; 'I' for Inactive)
REMARK    1  A    between atoms: C2_2  and  C3_3 
REMARK    2  A    between atoms: C2_2  and  C5_8 
REMARK    3  A    between atoms: C3_3  and  O1_4 
REMARK    4  A    between atoms: C3_3  and  O2_6 
REMARK    5  A    between atoms: C5_8  and  C6_9 
REMARK    6  A    between atoms: C5_8  and  N1_14 
REMARK    7  A    between atoms: C6_9  and  O3_10 
REMARK    8  A    between atoms: C6_9  and  O4_12 
REMARK    9  A    between atoms: C8_16  and  C9_17 
REMARK   10  A    between atoms: C10_18  and  N2_19 
ROOT
HETATM    1  N1  UNL     1       0.554   0.583  -0.537  1.00  0.00    -0.303 N 
HETATM    2  C7  UNL     1      -0.565   0.471   0.161  1.00  0.00     0.117 A 
HETATM    3  C8  UNL     1      -1.513  -0.400  -0.257  1.00  0.00     0.056 A 
HETATM    4  S1  UNL     1      -0.755  -1.055  -1.679  1.00  0.00    -0.025 SA
HETATM    5  C13 UNL     1       0.685  -0.177  -1.623  1.00  0.00     0.291 A 
HETATM    6  O7  UNL     1       1.639  -0.259  -2.449  1.00  0.00    -0.259 OA
ENDROOT
BRANCH   1   7
HETATM    7  C5  UNL     1       1.662   1.524  -0.149  1.00  0.00     0.180 C 
BRANCH   7   8
HETATM    8  C2  UNL     1       2.951   0.846  -0.247  1.00  0.00    -0.007 C 
HETATM    9  C1  UNL     1       3.938   1.349  -0.957  1.00  0.00     0.021 C 
BRANCH   8  10
HETATM   10  C3  UNL     1       3.225  -0.441   0.455  1.00  0.00     0.288 C 
BRANCH  10  11
HETATM   11  O1  UNL     1       3.138  -0.294   1.841  1.00  0.00    -0.367 OA
ATOM     12  H1  UNL     1       3.313  -1.114   2.288  1.00  0.00     0.213 HD
ENDBRANCH  10  11
BRANCH  10  13
HETATM   13  O2  UNL     1       4.409  -1.023   0.090  1.00  0.00    -0.362 OA
HETATM   14  C4  UNL     1       4.182  -2.285  -0.441  1.00  0.00     0.205 C 
ENDBRANCH  10  13
ENDBRANCH   8  10
ENDBRANCH   7   8
BRANCH   7  15
HETATM   15  C6  UNL     1       1.526   2.789  -0.954  1.00  0.00     0.281 C 
BRANCH  15  16
HETATM   16  O3  UNL     1       1.678   2.628  -2.303  1.00  0.00    -0.369 OA
ATOM     17  H3  UNL     1       1.592   3.426  -2.811  1.00  0.00     0.212 HD
ENDBRANCH  15  16
BRANCH  15  18
HETATM   18  O4  UNL     1       0.212   3.259  -0.711  1.00  0.00    -0.369 OA
ATOM     19  H4  UNL     1       0.126   4.057  -1.219  1.00  0.00     0.212 HD
ENDBRANCH  15  18
ENDBRANCH   7  15
ENDBRANCH   1   7
BRANCH   3  20
HETATM   20  C9  UNL     1      -2.844  -0.777   0.257  1.00  0.00     0.105 A 
HETATM   21  C10 UNL     1      -3.661  -1.734  -0.334  1.00  0.00     0.177 A 
HETATM   22  C11 UNL     1      -4.828  -1.779   0.437  1.00  0.00     0.149 A 
HETATM   23  N3  UNL     1      -5.807  -2.560   0.173  1.00  0.00    -0.382 N 
HETATM   24  N4  UNL     1      -4.672  -0.886   1.419  1.00  0.00    -0.281 N 
ATOM     25  H32 UNL     1      -5.926  -3.242  -0.576  1.00  0.00     0.157 HD
ATOM     26  H31 UNL     1      -6.658  -2.593   0.735  1.00  0.00     0.157 HD
HETATM   27  N5  UNL     1      -3.473  -0.280   1.312  1.00  0.00    -0.291 N 
ATOM     28  H4  UNL     1      -5.361  -0.691   2.145  1.00  0.00     0.189 HD
HETATM   29  C12 UNL     1      -3.048   0.735   2.256  1.00  0.00     0.178 C 
BRANCH  21  30
HETATM   30  N2  UNL     1      -3.351  -2.479  -1.474  1.00  0.00    -0.109 N 
HETATM   31  O5  UNL     1      -2.604  -3.474  -1.399  1.00  0.00    -0.532 OA
HETATM   32  O6  UNL     1      -3.878  -2.149  -2.695  1.00  0.00    -0.532 OA
ENDBRANCH  21  30
ENDBRANCH   3  20
TORSDOF 10
