REMARK  12 active torsions:
REMARK  status: ('A' for Active; 'I' for Inactive)
REMARK    1  A    between atoms: C2_2  and  O1_3 
REMARK    2  A    between atoms: O1_3  and  C3_4 
REMARK    3  A    between atoms: C3_4  and  C4_6 
REMARK    4  A    between atoms: C4_6  and  N1_7 
REMARK    5  A    between atoms: N1_7  and  O3_8 
REMARK    6  A    between atoms: N1_7  and  C6_13 
REMARK    7  A    between atoms: O3_8  and  S1_9 
REMARK    8  A    between atoms: C7_16  and  N3_17 
REMARK    9  A    between atoms: C8_22  and  N5_23 
REMARK   10  A    between atoms: C9_26  and  C10_27 
REMARK   11  A    between atoms: C10_27  and  O7_29 
REMARK   12  A    between atoms: O7_29  and  C11_30 
ROOT
HETATM    1  C6  UNL     1      -0.695  -0.229  -1.061  1.00  0.00     0.165 A 
HETATM    2  N2  UNL     1      -0.400  -1.035  -2.096  1.00  0.00    -0.174 N 
ATOM      3  H2  UNL     1       0.546  -1.412  -2.158  1.00  0.00     0.186 HD
HETATM    4  C7  UNL     1      -1.282  -1.371  -3.053  1.00  0.00     0.679 A 
HETATM    5  N4  UNL     1      -2.525  -0.869  -2.960  1.00  0.00    -0.176 N 
ATOM      6  H4  UNL     1      -3.217  -1.106  -3.671  1.00  0.00     0.186 HD
HETATM    7  C8  UNL     1      -2.871  -0.059  -1.943  1.00  0.00     0.135 A 
HETATM    8  C9  UNL     1      -1.982   0.298  -0.952  1.00  0.00     0.130 A 
ENDROOT
BRANCH   1   9
HETATM    9  N1  UNL     1       0.243   0.129  -0.057  1.00  0.00    -0.214 N 
BRANCH   9  10
HETATM   10  C4  UNL     1       1.010   1.349  -0.345  1.00  0.00     0.270 C 
BRANCH  10  11
HETATM   11  C3  UNL     1       2.467   1.082  -0.383  1.00  0.00     0.279 C 
HETATM   12  O2  UNL     1       2.861  -0.091  -0.172  1.00  0.00    -0.263 OA
BRANCH  11  13
HETATM   13  O1  UNL     1       3.398   2.070  -0.641  1.00  0.00    -0.321 OA
BRANCH  13  14
HETATM   14  C2  UNL     1       4.767   1.729  -0.658  1.00  0.00     0.174 C 
HETATM   15  C1  UNL     1       5.131   1.178   0.702  1.00  0.00     0.034 C 
ENDBRANCH  13  14
ENDBRANCH  11  13
ENDBRANCH  10  11
ENDBRANCH   9  10
BRANCH   9  16
HETATM   16  O3  UNL     1       0.487  -0.492   1.081  1.00  0.00    -0.147 OA
BRANCH  16  17
HETATM   17  S1  UNL     1       0.126  -2.095   1.044  1.00  0.00     0.282 S 
HETATM   18  C5  UNL     1       0.108  -2.819   2.677  1.00  0.00     0.196 C 
HETATM   19  O4  UNL     1       1.059  -2.923   0.208  1.00  0.00    -0.197 OA
HETATM   20  O5  UNL     1      -1.260  -2.289   0.502  1.00  0.00    -0.197 OA
ENDBRANCH  16  17
ENDBRANCH   9  16
ENDBRANCH   1   9
BRANCH   8  21
HETATM   21  C10 UNL     1      -2.396   1.179   0.133  1.00  0.00     0.309 C 
HETATM   22  O6  UNL     1      -2.264   2.424   0.003  1.00  0.00    -0.258 OA
BRANCH  21  23
HETATM   23  O7  UNL     1      -2.936   0.720   1.322  1.00  0.00    -0.225 OA
BRANCH  23  24
HETATM   24  C11 UNL     1      -3.330   1.569   2.357  1.00  0.00     0.380 C 
HETATM   25  N6  UNL     1      -3.881   1.077   3.566  1.00  0.00    -0.032 NA
HETATM   26  O8  UNL     1      -3.164   2.803   2.147  1.00  0.00    -0.242 OA
ENDBRANCH  23  24
ENDBRANCH  21  23
ENDBRANCH   8  21
BRANCH   4  27
HETATM   27  N3  UNL     1      -0.948  -2.155  -4.037  1.00  0.00    -0.234 N 
ATOM     28  H32 UNL     1      -0.004  -2.536  -4.108  1.00  0.00     0.174 HD
ATOM     29  H31 UNL     1      -1.617  -2.410  -4.763  1.00  0.00     0.174 HD
ENDBRANCH   4  27
BRANCH   7  30
HETATM   30  N5  UNL     1      -4.068   0.415  -1.868  1.00  0.00    -0.384 N 
ATOM     31  H52 UNL     1      -4.726   0.151  -2.601  1.00  0.00     0.157 HD
ATOM     32  H51 UNL     1      -4.330   1.029  -1.097  1.00  0.00     0.157 HD
ENDBRANCH   7  30
TORSDOF 12
