REMARK  9 active torsions:
REMARK  status: ('A' for Active; 'I' for Inactive)
REMARK    1  A    between atoms: C2_2  and  O1_3 
REMARK    2  A    between atoms: O1_3  and  C3_4 
REMARK    3  A    between atoms: C3_4  and  C4_6 
REMARK    4  A    between atoms: C4_6  and  C5_7 
REMARK    5  A    between atoms: C5_7  and  C6_9 
REMARK    6  A    between atoms: C10_15  and  N1_16 
REMARK    7  A    between atoms: N1_16  and  C11_18 
REMARK    8  A    between atoms: C13_25  and  N4_26 
REMARK    9  A    between atoms: C14_32  and  O7_33 
ROOT
HETATM    1  C6  UNL     1       0.951  -0.546  -0.352  1.00  0.00     0.075 A 
HETATM    2  C7  UNL     1       0.833  -1.866  -0.704  1.00  0.00     0.070 A 
HETATM    3  C8  UNL     1       1.981  -2.784  -0.803  1.00  0.00     0.078 C 
HETATM    4  O4  UNL     1      -0.369  -2.372  -0.980  1.00  0.00    -0.278 OA
HETATM    5  C9  UNL     1      -1.460  -1.662  -0.931  1.00  0.00     0.317 A 
HETATM    6  O5  UNL     1      -2.587  -2.195  -1.205  1.00  0.00    -0.257 OA
HETATM    7  C10 UNL     1      -1.440  -0.340  -0.591  1.00  0.00     0.142 A 
HETATM    8  C14 UNL     1      -0.200   0.237  -0.295  1.00  0.00     0.117 A 
ENDROOT
BRANCH   7   9
HETATM    9  N1  UNL     1      -2.595   0.458  -0.490  1.00  0.00    -0.345 N 
ATOM     10  H1  UNL     1      -2.441   1.443  -0.277  1.00  0.00     0.163 HD
BRANCH   9  11
HETATM   11  C11 UNL     1      -3.969   0.054  -0.651  1.00  0.00     0.291 C 
HETATM   12  N2  UNL     1      -4.851   1.233  -0.634  1.00  0.00    -0.305 N 
HETATM   13  C12 UNL     1      -6.233   0.990  -0.482  1.00  0.00     0.321 C 
ATOM     14  H2  UNL     1      -4.481   2.179  -0.727  1.00  0.00     0.168 HD
HETATM   15  O6  UNL     1      -7.090   1.882  -0.713  1.00  0.00    -0.247 OA
HETATM   16  N3  UNL     1      -6.627  -0.306  -0.056  1.00  0.00    -0.299 N 
HETATM   17  C13 UNL     1      -5.666  -1.112   0.638  1.00  0.00     0.389 C 
ATOM     18  H3  UNL     1      -7.568  -0.654  -0.239  1.00  0.00     0.168 HD
HETATM   19  N5  UNL     1      -4.317  -0.672   0.565  1.00  0.00    -0.343 N 
ATOM     20  H5  UNL     1      -3.642  -0.851   1.308  1.00  0.00     0.160 HD
BRANCH  17  21
HETATM   21  N4  UNL     1      -6.067  -1.078   2.056  1.00  0.00    -0.041 N 
ATOM     22  H43 UNL     1      -6.158  -0.134   2.433  1.00  0.00     0.279 HD
ATOM     23  H42 UNL     1      -7.033  -1.365   2.215  1.00  0.00     0.279 HD
ATOM     24  H41 UNL     1      -5.383  -1.652   2.550  1.00  0.00     0.279 HD
ENDBRANCH  17  21
ENDBRANCH   9  11
ENDBRANCH   7   9
BRANCH   8  25
HETATM   25  O7  UNL     1      -0.156   1.579   0.038  1.00  0.00    -0.352 OA
HETATM   26  C15 UNL     1      -0.069   2.623  -0.949  1.00  0.00     0.210 C 
ENDBRANCH   8  25
BRANCH   1  27
HETATM   27  C5  UNL     1       2.193   0.049   0.020  1.00  0.00     0.174 C 
HETATM   28  O3  UNL     1       2.171   1.297   0.343  1.00  0.00    -0.292 OA
BRANCH  27  29
HETATM   29  C4  UNL     1       3.519  -0.541   0.097  1.00  0.00     0.195 C 
BRANCH  29  30
HETATM   30  C3  UNL     1       4.592   0.452   0.486  1.00  0.00     0.266 C 
HETATM   31  O2  UNL     1       4.371   1.640   0.716  1.00  0.00    -0.265 OA
BRANCH  30  32
HETATM   32  O1  UNL     1       5.911   0.005   0.593  1.00  0.00    -0.322 OA
BRANCH  32  33
HETATM   33  C2  UNL     1       6.955   0.908   0.959  1.00  0.00     0.174 C 
HETATM   34  C1  UNL     1       8.236   0.117   0.987  1.00  0.00     0.034 C 
ENDBRANCH  32  33
ENDBRANCH  30  32
ENDBRANCH  29  30
ENDBRANCH  27  29
ENDBRANCH   1  27
TORSDOF 9
