REMARK  7 active torsions:
REMARK  status: ('A' for Active; 'I' for Inactive)
REMARK    1  A    between atoms: C2_2  and  O1_3 
REMARK    2  A    between atoms: C3_5  and  O2_6 
REMARK    3  A    between atoms: C11_15  and  C12_16 
REMARK    4  A    between atoms: C13_17  and  C14_18 
REMARK    5  A    between atoms: C16_22  and  C17_23 
REMARK       I    between atoms: C17_23  and  N2_25 
REMARK    6  A    between atoms: N2_25  and  C18_27 
REMARK    7  A    between atoms: C18_27  and  C19_28 
ROOT
HETATM    1  C12 UNL     1      -0.717  -0.868  -1.065  1.00  0.00    -0.019 C 
HETATM    2  C13 UNL     1       0.557  -0.870  -1.167  1.00  0.00     0.027 C 
ENDROOT
BRANCH   2   3
HETATM    3  C14 UNL     1       1.516   0.202  -1.066  1.00  0.00     0.050 A 
HETATM    4  N1  UNL     1       1.340   1.524  -0.924  1.00  0.00    -0.364 N 
HETATM    5  C15 UNL     1       2.535   2.119  -0.875  1.00  0.00     0.106 A 
ATOM      6  H1  UNL     1       0.439   1.998  -0.863  1.00  0.00     0.165 HD
HETATM    7  C16 UNL     1       3.546   1.153  -0.990  1.00  0.00     0.067 A 
HETATM    8  C24 UNL     1       2.907  -0.048  -1.110  1.00  0.00     0.054 A 
HETATM    9 BR1  UNL     1       3.743  -1.773  -1.337  1.00  0.00    -0.048 Br
BRANCH   7  10
HETATM   10  C17 UNL     1       4.952   1.455  -0.929  1.00  0.00     0.258 C 
HETATM   11  O3  UNL     1       5.273   2.618  -1.388  1.00  0.00    -0.267 OA
HETATM   12  N2  UNL     1       5.928   0.583  -0.411  1.00  0.00    -0.335 N 
ATOM     13  H2  UNL     1       5.690  -0.337  -0.042  1.00  0.00     0.168 HD
BRANCH  12  14
HETATM   14  C18 UNL     1       7.281   1.068  -0.434  1.00  0.00     0.091 C 
BRANCH  14  15
HETATM   15  C19 UNL     1       8.316   0.248   0.141  1.00  0.00     0.085 C 
HETATM   16 CL1  UNL     1       9.899   1.156  -0.057  1.00  0.00    -0.112 Cl
HETATM   17  C20 UNL     1       8.255  -0.006   1.644  1.00  0.00     0.033 C 
HETATM   18  C21 UNL     1       9.583  -0.762   1.809  1.00  0.00     0.004 C 
HETATM   19  C22 UNL     1       9.835  -1.459   0.463  1.00  0.00     0.022 C 
HETATM   20  C23 UNL     1       8.571  -1.124  -0.373  1.00  0.00     0.111 C 
HETATM   21 CL2  UNL     1       7.364  -2.326   0.117  1.00  0.00    -0.123 Cl
ENDBRANCH  14  15
ENDBRANCH  12  14
ENDBRANCH   7  10
ENDBRANCH   2   3
BRANCH   1  22
HETATM   22  C11 UNL     1      -1.678   0.153  -0.812  1.00  0.00     0.017 C 
HETATM   23  C9  UNL     1      -2.752  -0.349   0.232  1.00  0.00    -0.033 C 
HETATM   24  C8  UNL     1      -3.368  -1.628  -0.162  1.00  0.00     0.011 C 
HETATM   25  C10 UNL     1      -2.085  -0.365   1.585  1.00  0.00     0.016 C 
HETATM   26  C27 UNL     1      -3.689   0.831   0.183  1.00  0.00    -0.001 C 
HETATM   27  C7  UNL     1      -4.880  -1.657  -0.151  1.00  0.00     0.009 C 
HETATM   28  C6  UNL     1      -5.502  -0.789   0.876  1.00  0.00     0.027 C 
HETATM   29  C2  UNL     1      -6.972  -0.646   0.656  1.00  0.00     0.084 C 
HETATM   30  C5  UNL     1      -4.978   0.613   0.917  1.00  0.00    -0.000 C 
HETATM   31  C1  UNL     1      -7.416  -0.872  -0.761  1.00  0.00     0.049 C 
HETATM   32  C3  UNL     1      -7.313   0.770   1.061  1.00  0.00     0.152 C 
HETATM   33  C4  UNL     1      -6.087   1.527   0.526  1.00  0.00     0.040 C 
HETATM   34  C26 UNL     1      -3.807   1.188  -1.251  1.00  0.00     0.006 C 
HETATM   35  C25 UNL     1      -2.665   0.431  -1.948  1.00  0.00     0.010 C 
BRANCH  29  36
HETATM   36  O1  UNL     1      -7.706  -1.505   1.474  1.00  0.00    -0.387 OA
ATOM     37  H1  UNL     1      -7.425  -1.362   2.370  1.00  0.00     0.210 HD
ENDBRANCH  29  36
BRANCH  32  38
HETATM   38  O2  UNL     1      -8.474   1.233   0.447  1.00  0.00    -0.393 OA
ATOM     39  H2  UNL     1      -8.688   2.123   0.702  1.00  0.00     0.210 HD
ENDBRANCH  32  38
ENDBRANCH   1  22
TORSDOF 7
