REMARK  6 active torsions:
REMARK  status: ('A' for Active; 'I' for Inactive)
REMARK    1  A    between atoms: C2_2  and  C4_4 
REMARK    2  A    between atoms: C4_4  and  C6_6 
REMARK    3  A    between atoms: C6_6  and  O1_7 
REMARK    4  A    between atoms: C6_6  and  O2_9 
REMARK    5  A    between atoms: O2_9  and  C7_10 
REMARK    6  A    between atoms: C11_14  and  O3_15 
ROOT
HETATM    1  C7  UNL     1       1.599   0.482   0.464  1.00  0.00     0.170 C 
HETATM    2  C8  UNL     1       1.120  -0.586  -0.460  1.00  0.00     0.043 C 
HETATM    3  C9  UNL     1      -0.355  -0.390  -0.552  1.00  0.00     0.001 C 
HETATM    4  C10 UNL     1      -1.137  -1.381   0.281  1.00  0.00     0.042 C 
HETATM    5  C11 UNL     1      -2.039  -2.238  -0.504  1.00  0.00     0.147 C 
HETATM    6  C12 UNL     1      -3.442  -2.310   0.008  1.00  0.00    -0.059 C 
HETATM    7  C13 UNL     1      -3.712  -3.575   0.803  1.00  0.00     0.046 C 
HETATM    8  C14 UNL     1      -4.382  -1.422  -0.163  1.00  0.00    -0.021 C 
HETATM    9  C15 UNL     1      -4.342  -0.127  -0.887  1.00  0.00     0.032 C 
HETATM   10  C16 UNL     1      -4.175   0.955   0.139  1.00  0.00     0.037 C 
HETATM   11  C17 UNL     1      -3.676   2.247  -0.340  1.00  0.00    -0.087 C 
HETATM   12  C18 UNL     1      -4.652   3.405  -0.132  1.00  0.00     0.043 C 
HETATM   13  C19 UNL     1      -2.547   2.549  -0.908  1.00  0.00    -0.024 C 
HETATM   14  C20 UNL     1      -1.395   1.714  -1.263  1.00  0.00     0.038 C 
HETATM   15  C21 UNL     1      -0.689   1.030  -0.142  1.00  0.00     0.041 C 
HETATM   16  C22 UNL     1       0.679   1.605   0.118  1.00  0.00     0.014 C 
HETATM   17  N1  UNL     1       1.034   2.827   0.064  1.00  0.00    -0.403 N 
ATOM     18  H11 UNL     1       0.405   3.595  -0.172  1.00  0.00     0.155 HD
ATOM     19  H12 UNL     1       1.960   3.216   0.240  1.00  0.00     0.155 HD
ENDROOT
BRANCH   1  20
HETATM   20  O2  UNL     1       2.899   0.806   0.159  1.00  0.00    -0.346 OA
BRANCH  20  21
HETATM   21  C6  UNL     1       3.701   0.593   1.264  1.00  0.00     0.292 C 
BRANCH  21  22
HETATM   22  C4  UNL     1       4.789  -0.387   0.960  1.00  0.00    -0.008 C 
HETATM   23  C5  UNL     1       4.800  -1.505   1.672  1.00  0.00     0.024 C 
BRANCH  22  24
HETATM   24  C2  UNL     1       5.796  -0.155  -0.053  1.00  0.00    -0.061 C 
HETATM   25  C1  UNL     1       5.797   0.941  -0.763  1.00  0.00     0.019 C 
HETATM   26  C3  UNL     1       6.836  -1.191  -0.272  1.00  0.00     0.048 C 
ENDBRANCH  22  24
ENDBRANCH  21  22
BRANCH  21  27
HETATM   27  O1  UNL     1       4.268   1.792   1.699  1.00  0.00    -0.367 OA
ATOM     28  H1  UNL     1       3.577   2.415   1.892  1.00  0.00     0.213 HD
ENDBRANCH  21  27
ENDBRANCH  20  21
ENDBRANCH   1  20
BRANCH   5  29
HETATM   29  O3  UNL     1      -2.036  -1.877  -1.858  1.00  0.00    -0.391 OA
ATOM     30  H3  UNL     1      -2.618  -2.430  -2.365  1.00  0.00     0.210 HD
ENDBRANCH   5  29
TORSDOF 6
