REMARK  0 active torsions:
REMARK  status: ('A' for Active; 'I' for Inactive)
ROOT
HETATM    1  O1  UNL     1      -3.472  -2.672   0.688  1.00  0.00    -0.272 OA
HETATM    2  C1  UNL     1      -2.528  -1.886   0.550  1.00  0.00     0.234 C 
HETATM    3  C2  UNL     1      -1.195  -2.446   0.976  1.00  0.00     0.177 C 
HETATM    4  S1  UNL     1      -0.196  -0.990   1.443  1.00  0.00    -0.149 SA
HETATM    5  C3  UNL     1       0.444  -0.127  -0.014  1.00  0.00     0.015 C 
HETATM    6  C4  UNL     1       1.084   1.156   0.503  1.00  0.00     0.021 C 
HETATM    7  C5  UNL     1       2.068   1.735  -0.470  1.00  0.00     0.002 C 
HETATM    8  C6  UNL     1       3.465   1.390   0.029  1.00  0.00     0.000 C 
HETATM    9  C7  UNL     1       4.099   0.341  -0.820  1.00  0.00     0.000 C 
HETATM   10  C8  UNL     1       3.956  -1.051  -0.273  1.00  0.00     0.000 C 
HETATM   11  C9  UNL     1       2.586  -1.312   0.315  1.00  0.00     0.002 C 
HETATM   12  C10 UNL     1       1.483  -1.026  -0.660  1.00  0.00     0.021 C 
HETATM   13  C11 UNL     1      -0.620   0.272  -0.992  1.00  0.00     0.097 C 
HETATM   14  C12 UNL     1      -1.964   0.433  -0.382  1.00  0.00     0.083 C 
HETATM   15  N1  UNL     1      -2.317   1.666  -0.220  1.00  0.00    -0.379 N 
ATOM     16  H1  UNL     1      -1.715   2.443  -0.492  1.00  0.00     0.160 HD
HETATM   17  C13 UNL     1      -3.624   1.874   0.373  1.00  0.00     0.122 C 
HETATM   18  C14 UNL     1      -4.609   1.041  -0.414  1.00  0.00     0.040 C 
HETATM   19  C15 UNL     1      -4.313  -0.419  -0.090  1.00  0.00     0.135 C 
HETATM   20  N2  UNL     1      -2.856  -0.603   0.020  1.00  0.00    -0.307 N 
ENDROOT
TORSDOF 0
