REMARK  6 active torsions:
REMARK  status: ('A' for Active; 'I' for Inactive)
REMARK    1  A    between atoms: C9_10  and  O2_11 
REMARK    2  A    between atoms: C13_16  and  O3_17 
REMARK    3  A    between atoms: C13_16  and  C14_19 
REMARK    4  A    between atoms: C14_19  and  C15_20 
REMARK    5  A    between atoms: C15_20  and  C16_21 
REMARK    6  A    between atoms: C16_21  and  O4_23 
ROOT
HETATM    1  C1  UNL     1       0.593   2.429  -3.405  1.00  0.00     0.013 C 
HETATM    2  C2  UNL     1       0.011   2.087  -2.404  1.00  0.00    -0.097 C 
HETATM    3  C3  UNL     1      -0.695   1.641  -1.171  1.00  0.00     0.110 C 
HETATM    4  C4  UNL     1      -1.052   2.890  -0.451  1.00  0.00     0.041 C 
HETATM    5  C5  UNL     1      -1.834   0.828  -1.641  1.00  0.00     0.150 C 
HETATM    6  O1  UNL     1      -2.764   1.469  -2.151  1.00  0.00    -0.296 OA
HETATM    7  C6  UNL     1      -1.964  -0.637  -1.564  1.00  0.00     0.092 C 
HETATM    8  C7  UNL     1      -1.382  -1.214  -0.295  1.00  0.00    -0.005 C 
HETATM    9  C8  UNL     1      -0.657  -2.522  -0.565  1.00  0.00     0.019 C 
HETATM   10  C9  UNL     1      -2.530  -1.598   0.653  1.00  0.00     0.127 C 
HETATM   11  C10 UNL     1      -2.136  -0.956   1.989  1.00  0.00     0.033 C 
HETATM   12  C11 UNL     1      -1.533   0.350   1.431  1.00  0.00     0.011 C 
HETATM   13  C12 UNL     1      -0.548  -0.244   0.465  1.00  0.00     0.033 C 
HETATM   14  C13 UNL     1       0.219   0.695  -0.381  1.00  0.00     0.087 C 
ENDROOT
BRANCH  14  15
HETATM   15  O3  UNL     1       0.869  -0.069  -1.342  1.00  0.00    -0.387 OA
ATOM     16  H3  UNL     1       1.435  -0.655  -0.853  1.00  0.00     0.210 HD
ENDBRANCH  14  15
BRANCH  14  17
HETATM   17  C14 UNL     1       1.256   1.486   0.351  1.00  0.00     0.043 C 
BRANCH  17  18
HETATM   18  C15 UNL     1       2.229   0.750   1.180  1.00  0.00     0.034 C 
BRANCH  18  19
HETATM   19  C16 UNL     1       3.190  -0.198   0.605  1.00  0.00     0.114 C 
HETATM   20  C17 UNL     1       4.095  -0.758   1.761  1.00  0.00     0.039 C 
BRANCH  19  21
HETATM   21  O4  UNL     1       2.716  -1.375   0.052  1.00  0.00    -0.396 OA
ATOM     22  H4  UNL     1       3.338  -1.989  -0.320  1.00  0.00     0.210 HD
ENDBRANCH  19  21
ENDBRANCH  18  19
ENDBRANCH  17  18
ENDBRANCH  14  17
BRANCH  10  23
HETATM   23  O2  UNL     1      -2.670  -2.950   0.813  1.00  0.00    -0.395 OA
ATOM     24  H2  UNL     1      -3.379  -3.187   1.399  1.00  0.00     0.210 HD
ENDBRANCH  10  23
TORSDOF 6
