REMARK  9 active torsions:
REMARK  status: ('A' for Active; 'I' for Inactive)
REMARK    1  A    between atoms: C2_2  and  O2_4 
REMARK    2  A    between atoms: O2_4  and  C3_5 
REMARK    3  A    between atoms: C3_5  and  C5_7 
REMARK    4  A    between atoms: C5_7  and  C6_8 
REMARK    5  A    between atoms: C5_7  and  N1_14 
REMARK    6  A    between atoms: C6_8  and  C7_9 
REMARK       I    between atoms: N1_14  and  C12_16 
REMARK       I    between atoms: C12_16  and  N2_18 
REMARK    7  A    between atoms: C15_21  and  C16_22 
REMARK    8  A    between atoms: C16_22  and  O4_23 
REMARK    9  A    between atoms: N3_25  and  O5_27 
ROOT
HETATM    1  N1  UNL     1       0.009  -0.606  -0.087  1.00  0.00    -0.336 N 
ATOM      2  H1  UNL     1       0.336  -0.317   0.835  1.00  0.00     0.164 HD
HETATM    3  C12 UNL     1       0.948  -0.712  -1.147  1.00  0.00     0.318 C 
HETATM    4  O3  UNL     1       0.509  -1.072  -2.270  1.00  0.00    -0.247 OA
HETATM    5  N2  UNL     1       2.313  -0.436  -0.990  1.00  0.00    -0.333 N 
HETATM    6  C13 UNL     1       3.311  -0.509  -2.034  1.00  0.00     0.128 C 
HETATM    7  C14 UNL     1       4.626  -0.137  -1.389  1.00  0.00     0.034 C 
HETATM    8  C15 UNL     1       4.342  -0.630   0.047  1.00  0.00     0.082 C 
HETATM    9  C17 UNL     1       2.966  -0.035   0.232  1.00  0.00     0.140 C 
ENDROOT
BRANCH   1  10
HETATM   10  C5  UNL     1      -1.396  -0.894  -0.273  1.00  0.00     0.115 C 
BRANCH  10  11
HETATM   11  C3  UNL     1      -1.786  -2.100   0.604  1.00  0.00     0.150 C 
HETATM   12  C4  UNL     1      -0.942  -3.304   0.280  1.00  0.00     0.042 C 
BRANCH  11  13
HETATM   13  O2  UNL     1      -3.146  -2.377   0.406  1.00  0.00    -0.315 OA
BRANCH  13  14
HETATM   14  C2  UNL     1      -4.076  -2.296   1.402  1.00  0.00     0.255 C 
HETATM   15  C1  UNL     1      -5.534  -2.598   1.162  1.00  0.00     0.126 C 
HETATM   16  O1  UNL     1      -3.771  -1.966   2.570  1.00  0.00    -0.266 OA
ENDBRANCH  13  14
ENDBRANCH  11  13
ENDBRANCH  10  11
BRANCH  10  17
HETATM   17  C6  UNL     1      -2.278   0.272   0.031  1.00  0.00     0.032 C 
BRANCH  17  18
HETATM   18  C7  UNL     1      -2.042   1.517  -0.743  1.00  0.00    -0.013 C 
HETATM   19  C8  UNL     1      -3.098   2.527  -0.248  1.00  0.00     0.005 C 
HETATM   20  C9  UNL     1      -2.551   3.858  -0.709  1.00  0.00     0.000 C 
HETATM   21  C10 UNL     1      -1.100   3.720  -0.258  1.00  0.00     0.000 C 
HETATM   22  C11 UNL     1      -0.777   2.241  -0.464  1.00  0.00     0.005 C 
ENDBRANCH  17  18
ENDBRANCH  10  17
ENDBRANCH   1  10
BRANCH   8  23
HETATM   23  C16 UNL     1       5.359  -0.186   0.974  1.00  0.00     0.141 C 
HETATM   24  N3  UNL     1       5.181   0.471   2.015  1.00  0.00    -0.251 N 
ATOM     25  H3  UNL     1       6.040   0.680   2.524  1.00  0.00     0.196 HD
BRANCH  23  26
HETATM   26  O4  UNL     1       6.692  -0.539   0.663  1.00  0.00    -0.348 OA
ATOM     27  H4  UNL     1       7.360  -0.247   1.272  1.00  0.00     0.219 HD
ENDBRANCH  23  26
BRANCH  24  28
HETATM   28  O5  UNL     1       4.069   0.959   2.597  1.00  0.00    -0.288 OA
ATOM     29  H5  UNL     1       3.933   1.461   3.392  1.00  0.00     0.244 HD
ENDBRANCH  24  28
ENDBRANCH   8  23
TORSDOF 9
