REMARK  4 active torsions:
REMARK  status: ('A' for Active; 'I' for Inactive)
REMARK    1  A    between atoms: O1_1  and  C1_3 
REMARK    2  A    between atoms: C1_3  and  C2_4 
REMARK    3  A    between atoms: C4_6  and  N1_7 
REMARK    4  A    between atoms: N3_20  and  C13_21 
ROOT
HETATM    1  C2  UNL     1      -0.261  -0.855   0.794  1.00  0.00     0.017 C 
HETATM    2  C3  UNL     1      -1.496  -0.234   1.298  1.00  0.00     0.050 C 
HETATM    3  C4  UNL     1      -2.745  -0.382   0.529  1.00  0.00     0.234 C 
HETATM    4  C8  UNL     1      -2.616  -0.626  -0.930  1.00  0.00     0.076 C 
HETATM    5  C9  UNL     1      -2.649  -2.086  -1.342  1.00  0.00     0.241 C 
HETATM    6  N2  UNL     1      -1.764  -1.684  -2.449  1.00  0.00    -0.070 N 
ATOM      7  H21 UNL     1      -2.124  -1.440  -3.372  1.00  0.00     0.277 HD
ATOM      8  H22 UNL     1      -1.144  -2.345  -2.917  1.00  0.00     0.277 HD
HETATM    9  C10 UNL     1      -1.259  -0.663  -1.504  1.00  0.00     0.200 C 
HETATM   10  C11 UNL     1      -0.182  -1.214  -0.630  1.00  0.00     0.057 C 
HETATM   11  C12 UNL     1       1.149  -0.666  -1.139  1.00  0.00     0.280 C 
HETATM   12  N3  UNL     1       1.673   0.190  -0.142  1.00  0.00     0.094 N 
HETATM   13  C18 UNL     1       0.914   0.105   1.040  1.00  0.00     0.285 C 
ENDROOT
BRANCH  12  14
HETATM   14  C13 UNL     1       3.082   0.053  -0.013  1.00  0.00     0.227 C 
HETATM   15  C14 UNL     1       3.725   0.481  -1.329  1.00  0.00     0.062 C 
HETATM   16  C15 UNL     1       5.232   0.420  -1.073  1.00  0.00     0.169 C 
HETATM   17  O3  UNL     1       5.625   1.391  -0.170  1.00  0.00    -0.391 OA
HETATM   18  C16 UNL     1       4.593   1.959   0.543  1.00  0.00     0.169 C 
HETATM   19  C17 UNL     1       3.648   0.931   1.100  1.00  0.00     0.062 C 
ENDBRANCH  12  14
BRANCH   1  20
HETATM   20  C1  UNL     1       0.107  -2.108   1.606  1.00  0.00     0.176 C 
BRANCH  20  21
HETATM   21  O1  UNL     1       1.273  -2.682   1.105  1.00  0.00    -0.400 OA
ATOM     22  H1  UNL     1       1.500  -3.456   1.607  1.00  0.00     0.209 HD
ENDBRANCH  20  21
ENDBRANCH   1  20
BRANCH   3  23
HETATM   23  N1  UNL     1      -3.512   0.850   0.667  1.00  0.00     0.118 N 
HETATM   24  C5  UNL     1      -2.889   2.001   0.114  1.00  0.00     0.301 C 
HETATM   25  C6  UNL     1      -4.081   2.794  -0.375  1.00  0.00     0.200 C 
HETATM   26  O2  UNL     1      -5.223   2.116  -0.010  1.00  0.00    -0.361 OA
HETATM   27  C7  UNL     1      -4.860   0.780   0.253  1.00  0.00     0.441 C 
ENDBRANCH   3  23
TORSDOF 4
