REMARK  6 active torsions:
REMARK  status: ('A' for Active; 'I' for Inactive)
REMARK    1  A    between atoms: O1_1  and  C1_3 
REMARK    2  A    between atoms: C1_3  and  C2_4 
REMARK    3  A    between atoms: C1_3  and  N1_7 
REMARK    4  A    between atoms: C2_4  and  O2_5 
REMARK       I    between atoms: N2_11  and  C6_12 
REMARK    5  A    between atoms: C6_12  and  C7_14 
REMARK    6  A    between atoms: C7_14  and  C8_15 
ROOT
HETATM    1  N1  UNL     1       2.912   0.881   0.774  1.00  0.00    -0.362 N 
HETATM    2  C3  UNL     1       2.516   2.232   0.433  1.00  0.00     0.126 C 
HETATM    3  C4  UNL     1       1.814   2.356  -0.866  1.00  0.00     0.040 C 
HETATM    4  C5  UNL     1       1.369   1.033  -1.448  1.00  0.00     0.127 C 
HETATM    5  N2  UNL     1       0.381   0.387  -0.598  1.00  0.00    -0.349 N 
HETATM    6  C6  UNL     1      -0.809   0.028  -1.230  1.00  0.00     0.236 C 
HETATM    7  O3  UNL     1      -0.846   0.288  -2.500  1.00  0.00    -0.272 OA
HETATM    8  C15 UNL     1       0.617   0.121   0.790  1.00  0.00     0.145 C 
HETATM    9  C16 UNL     1       2.096  -0.283   0.925  1.00  0.00     0.144 C 
ENDROOT
BRANCH   6  10
HETATM   10  C7  UNL     1      -2.009  -0.596  -0.672  1.00  0.00     0.115 C 
HETATM   11  C12 UNL     1      -1.784  -1.955  -0.050  1.00  0.00     0.055 C 
HETATM   12  C13 UNL     1      -2.722  -2.934  -0.703  1.00  0.00     0.234 C 
HETATM   13  N3  UNL     1      -3.703  -2.113  -1.354  1.00  0.00    -0.073 N 
HETATM   14  C14 UNL     1      -2.925  -1.014  -1.845  1.00  0.00     0.258 C 
ATOM     15  H32 UNL     1      -4.258  -2.593  -2.063  1.00  0.00     0.277 HD
ATOM     16  H31 UNL     1      -4.494  -1.847  -0.767  1.00  0.00     0.277 HD
BRANCH  10  17
HETATM   17  C8  UNL     1      -2.771   0.271   0.251  1.00  0.00     0.072 A 
HETATM   18  C9  UNL     1      -4.142   0.419   0.257  1.00  0.00     0.036 A 
HETATM   19  C10 UNL     1      -4.468   1.311   1.261  1.00  0.00     0.027 A 
HETATM   20  C11 UNL     1      -3.264   1.670   1.828  1.00  0.00     0.142 A 
HETATM   21  O4  UNL     1      -2.312   1.030   1.194  1.00  0.00    -0.326 OA
ENDBRANCH  10  17
ENDBRANCH   6  10
BRANCH   1  22
HETATM   22  C1  UNL     1       4.285   0.713   0.978  1.00  0.00     0.137 C 
BRANCH  22  23
HETATM   23  O1  UNL     1       5.061   1.749   0.852  1.00  0.00    -0.348 OA
ATOM     24  H1  UNL     1       4.591   2.543   0.625  1.00  0.00     0.219 HD
ENDBRANCH  22  23
BRANCH  22  25
HETATM   25  C2  UNL     1       5.012  -0.516   1.329  1.00  0.00     0.247 C 
BRANCH  25  26
HETATM   26  O2  UNL     1       4.263  -1.657   1.473  1.00  0.00    -0.393 OA
ATOM     27  H2  UNL     1       4.733  -2.451   1.700  1.00  0.00     0.210 HD
ENDBRANCH  25  26
ENDBRANCH  22  25
ENDBRANCH   1  22
TORSDOF 6
