REMARK  7 active torsions:
REMARK  status: ('A' for Active; 'I' for Inactive)
REMARK    1  A    between atoms: C1_2  and  C2_3 
REMARK       I    between atoms: C1_2  and  N4_24 
REMARK    2  A    between atoms: C2_3  and  N1_4 
REMARK       I    between atoms: N1_4  and  C3_5 
REMARK    3  A    between atoms: C3_5  and  C4_7 
REMARK       I    between atoms: C4_7  and  N2_9 
REMARK    4  A    between atoms: N3_13  and  C8_14 
REMARK    5  A    between atoms: C8_14  and  C9_15 
REMARK    6  A    between atoms: C9_15  and  C10_16 
REMARK    7  A    between atoms: N4_24  and  C16_26 
ROOT
HETATM    1  C4  UNL     1       1.792   0.358   0.637  1.00  0.00     0.326 C 
HETATM    2  O3  UNL     1       1.750   1.582   1.052  1.00  0.00    -0.261 OA
HETATM    3  N2  UNL     1       0.802  -0.131  -0.222  1.00  0.00    -0.341 N 
HETATM    4  C5  UNL     1       0.727  -1.485  -0.617  1.00  0.00     0.128 C 
HETATM    5  C6  UNL     1      -0.452  -1.984  -1.335  1.00  0.00     0.050 C 
HETATM    6  C7  UNL     1      -1.482  -0.981  -1.701  1.00  0.00     0.274 C 
HETATM    7  N3  UNL     1      -2.071  -0.469  -0.485  1.00  0.00     0.090 N 
HETATM    8  C14 UNL     1      -1.469   0.800  -0.120  1.00  0.00     0.292 C 
HETATM    9  C15 UNL     1      -0.099   0.947  -0.677  1.00  0.00     0.156 C 
ENDROOT
BRANCH   1  10
HETATM   10  C3  UNL     1       2.968  -0.410   1.159  1.00  0.00     0.379 C 
HETATM   11  N1  UNL     1       3.806   0.111   1.954  1.00  0.00    -0.398 NA
HETATM   12  O2  UNL     1       2.997  -1.606   0.696  1.00  0.00    -0.246 OA
BRANCH  11  13
HETATM   13  C2  UNL     1       4.786   0.717   2.881  1.00  0.00     0.325 C 
BRANCH  13  14
HETATM   14  C1  UNL     1       6.108   0.724   2.273  1.00  0.00     0.248 C 
HETATM   15  O1  UNL     1       7.092   1.166   2.953  1.00  0.00    -0.271 OA
HETATM   16  N4  UNL     1       6.339   0.263   0.965  1.00  0.00    -0.354 N 
ATOM     17  H4  UNL     1       5.551  -0.090   0.421  1.00  0.00     0.162 HD
BRANCH  16  18
HETATM   18  C16 UNL     1       7.651   0.271   0.364  1.00  0.00     0.084 A 
HETATM   19  C17 UNL     1       7.711   1.259  -0.823  1.00  0.00     0.027 A 
HETATM   20  C18 UNL     1       7.855  -0.201  -1.010  1.00  0.00     0.027 A 
ENDBRANCH  16  18
ENDBRANCH  13  14
ENDBRANCH  11  13
ENDBRANCH   1  10
BRANCH   7  21
HETATM   21  C8  UNL     1      -3.518  -0.364  -0.536  1.00  0.00     0.275 C 
BRANCH  21  22
HETATM   22  C9  UNL     1      -3.938   0.153   0.817  1.00  0.00     0.064 C 
BRANCH  22  23
HETATM   23  C10 UNL     1      -5.405   0.350   0.988  1.00  0.00     0.146 C 
HETATM   24  C11 UNL     1      -6.116  -0.956   0.790  1.00  0.00     0.199 C 
HETATM   25  O4  UNL     1      -7.473  -0.693   0.983  1.00  0.00    -0.387 OA
HETATM   26  C12 UNL     1      -7.938   0.090  -0.045  1.00  0.00     0.193 C 
HETATM   27  C13 UNL     1      -6.962   1.070  -0.588  1.00  0.00     0.194 C 
HETATM   28  O5  UNL     1      -5.930   1.389   0.263  1.00  0.00    -0.382 OA
ENDBRANCH  22  23
ENDBRANCH  21  22
ENDBRANCH   7  21
TORSDOF 7
