REMARK  2 active torsions:
REMARK  status: ('A' for Active; 'I' for Inactive)
REMARK    1  A    between atoms: C1_2  and  N1_3 
REMARK    2  A    between atoms: N1_3  and  C2_5 
ROOT
HETATM    1  C2  UNL     1       0.120  -0.226   0.229  1.00  0.00     0.127 A 
HETATM    2  C3  UNL     1      -0.978  -1.098   0.356  1.00  0.00     0.141 A 
HETATM    3  N2  UNL     1      -2.113  -0.429   0.105  1.00  0.00    -0.315 N 
ATOM      4  H2  UNL     1      -3.058  -0.812   0.125  1.00  0.00     0.170 HD
HETATM    5  C4  UNL     1      -1.777   0.821  -0.174  1.00  0.00     0.325 A 
HETATM    6  O2  UNL     1      -2.573   1.762  -0.465  1.00  0.00    -0.247 OA
HETATM    7  N3  UNL     1      -0.430   0.946  -0.100  1.00  0.00    -0.293 N 
ATOM      8  H3  UNL     1       0.088   1.808  -0.270  1.00  0.00     0.172 HD
ENDROOT
BRANCH   1   9
HETATM    9  N1  UNL     1       1.461  -0.625   0.430  1.00  0.00    -0.319 N 
ATOM     10  H1  UNL     1       1.646  -1.596   0.682  1.00  0.00     0.169 HD
BRANCH   9  11
HETATM   11  C1  UNL     1       2.553   0.252   0.300  1.00  0.00     0.354 C 
HETATM   12  O1  UNL     1       2.467   1.462  -0.002  1.00  0.00    -0.283 OA
ENDBRANCH   9  11
ENDBRANCH   1   9
TORSDOF 2
