REMARK  4 active torsions:
REMARK  status: ('A' for Active; 'I' for Inactive)
REMARK    1  A    between atoms: C2_2  and  N1_3 
REMARK    2  A    between atoms: N1_3  and  C3_6 
REMARK    3  A    between atoms: C3_6  and  C4_7 
REMARK    4  A    between atoms: C10_13  and  C11_14 
ROOT
HETATM    1  C4  UNL     1       2.699  -0.412   0.446  1.00  0.00     0.011 C 
HETATM    2  C5  UNL     1       2.674   0.884   1.181  1.00  0.00     0.006 C 
HETATM    3  C6  UNL     1       1.856   0.929   2.423  1.00  0.00     0.000 C 
HETATM    4  C7  UNL     1       1.417  -0.347   3.022  1.00  0.00     0.000 C 
HETATM    5  C8  UNL     1       0.296  -1.103   2.421  1.00  0.00     0.000 C 
HETATM    6  C9  UNL     1      -0.749  -0.306   1.728  1.00  0.00     0.005 C 
HETATM    7  C10 UNL     1      -0.755  -0.480   0.210  1.00  0.00    -0.006 C 
HETATM    8  C21 UNL     1       0.404   0.173  -0.459  1.00  0.00     0.006 C 
HETATM    9  C22 UNL     1       1.661  -0.632  -0.559  1.00  0.00     0.007 C 
ENDROOT
BRANCH   7  10
HETATM   10  C11 UNL     1      -2.113  -0.074  -0.249  1.00  0.00    -0.036 C 
HETATM   11  C12 UNL     1      -2.240   0.014  -1.784  1.00  0.00     0.014 C 
HETATM   12  C13 UNL     1      -3.670   0.213  -2.199  1.00  0.00    -0.013 C 
HETATM   13  C14 UNL     1      -4.109   1.570  -1.647  1.00  0.00     0.009 C 
HETATM   14  C18 UNL     1      -4.614  -0.856  -1.746  1.00  0.00     0.009 C 
HETATM   15  C15 UNL     1      -4.017   1.466  -0.152  1.00  0.00    -0.013 C 
HETATM   16  C16 UNL     1      -4.914   0.376   0.377  1.00  0.00     0.009 C 
HETATM   17  C20 UNL     1      -2.588   1.227   0.291  1.00  0.00     0.014 C 
HETATM   18  C17 UNL     1      -4.498  -0.914  -0.238  1.00  0.00    -0.013 C 
HETATM   19  C19 UNL     1      -3.070  -1.215   0.102  1.00  0.00     0.014 C 
ENDBRANCH   7  10
BRANCH   1  20
HETATM   20  C3  UNL     1       4.096  -0.524  -0.167  1.00  0.00     0.237 C 
BRANCH  20  21
HETATM   21  N1  UNL     1       4.390   0.547  -1.083  1.00  0.00    -0.075 N 
ATOM     22  H12 UNL     1       4.069   1.443  -0.715  1.00  0.00     0.277 HD
ATOM     23  H11 UNL     1       3.802   0.491  -1.914  1.00  0.00     0.277 HD
BRANCH  21  24
HETATM   24  C2  UNL     1       5.789   0.602  -1.439  1.00  0.00     0.228 C 
HETATM   25  C1  UNL     1       6.297  -0.546  -2.248  1.00  0.00     0.034 C 
ENDBRANCH  21  24
ENDBRANCH  20  21
ENDBRANCH   1  20
TORSDOF 4
