REMARK  8 active torsions:
REMARK  status: ('A' for Active; 'I' for Inactive)
REMARK    1  A    between atoms: C6_7  and  C7_8 
REMARK       I    between atoms: C7_8  and  N1_10 
REMARK    2  A    between atoms: N1_10  and  C8_12 
REMARK    3  A    between atoms: C11_15  and  C12_16 
REMARK       I    between atoms: C12_16  and  N2_18 
REMARK    4  A    between atoms: N2_18  and  C13_20 
REMARK    5  A    between atoms: C13_20  and  C14_21 
REMARK    6  A    between atoms: C13_20  and  C21_28 
REMARK    7  A    between atoms: C14_21  and  C15_22 
REMARK    8  A    between atoms: C26_35  and  C27_36 
ROOT
HETATM    1  C8  UNL     1      -1.268  -0.056   2.036  1.00  0.00     0.084 C 
HETATM    2  C9  UNL     1      -0.473   1.204   2.154  1.00  0.00     0.026 C 
HETATM    3  C10 UNL     1       0.348   1.528   0.965  1.00  0.00     0.016 C 
HETATM    4  C11 UNL     1       1.068   0.371   0.335  1.00  0.00     0.078 C 
HETATM    5  C22 UNL     1       0.393  -0.939   0.494  1.00  0.00     0.016 C 
HETATM    6  C23 UNL     1      -0.289  -1.184   1.795  1.00  0.00     0.026 C 
ENDROOT
BRANCH   1   7
HETATM    7  N1  UNL     1      -2.193  -0.040   0.922  1.00  0.00    -0.356 N 
HETATM    8  C7  UNL     1      -3.565  -0.306   1.071  1.00  0.00     0.230 C 
HETATM    9  O2  UNL     1      -4.029  -0.570   2.196  1.00  0.00    -0.273 OA
ATOM     10  H1  UNL     1      -1.834   0.173  -0.009  1.00  0.00     0.162 HD
BRANCH   8  11
HETATM   11  C6  UNL     1      -4.453  -0.273  -0.102  1.00  0.00     0.155 C 
HETATM   12  C5  UNL     1      -4.527   1.039  -0.748  1.00  0.00     0.141 C 
HETATM   13  C4  UNL     1      -5.700   1.935  -0.805  1.00  0.00     0.088 C 
HETATM   14  O1  UNL     1      -3.497   1.440  -1.307  1.00  0.00    -0.297 OA
HETATM   15  C3  UNL     1      -6.941   1.054  -0.592  1.00  0.00     0.026 C 
HETATM   16  C2  UNL     1      -6.636   0.324   0.681  1.00  0.00    -0.079 C 
HETATM   17  C28 UNL     1      -6.907   0.032  -1.685  1.00  0.00     0.005 A 
HETATM   18  C1  UNL     1      -6.999   0.685   1.882  1.00  0.00     0.015 C 
HETATM   19  C24 UNL     1      -5.849  -0.843   0.212  1.00  0.00     0.039 C 
HETATM   20  C25 UNL     1      -6.402  -1.264  -1.098  1.00  0.00     0.006 A 
HETATM   21  C26 UNL     1      -7.767  -1.175  -1.567  1.00  0.00     0.010 A 
BRANCH  21  22
HETATM   22  C27 UNL     1      -9.001  -1.214  -0.726  1.00  0.00     0.120 C 
HETATM   23 CL1  UNL     1      -9.124  -2.746   0.201  1.00  0.00    -0.130 Cl
ENDBRANCH  21  22
ENDBRANCH   8  11
ENDBRANCH   1   7
BRANCH   4  24
HETATM   24  C12 UNL     1       2.475   0.257   0.856  1.00  0.00     0.222 C 
HETATM   25  O3  UNL     1       2.898   0.994   1.759  1.00  0.00    -0.273 OA
HETATM   26  N2  UNL     1       3.302  -0.734   0.269  1.00  0.00    -0.346 N 
ATOM     27  H2  UNL     1       2.889  -1.302  -0.471  1.00  0.00     0.163 HD
BRANCH  26  28
HETATM   28  C13 UNL     1       4.659  -1.012   0.617  1.00  0.00     0.185 C 
BRANCH  28  29
HETATM   29  C14 UNL     1       5.528   0.176   0.328  1.00  0.00     0.041 C 
BRANCH  29  30
HETATM   30  C15 UNL     1       5.490   0.552  -1.141  1.00  0.00    -0.012 C 
HETATM   31  C16 UNL     1       5.957  -0.542  -2.047  1.00  0.00     0.005 C 
HETATM   32  C17 UNL     1       7.300  -1.037  -1.582  1.00  0.00     0.000 C 
HETATM   33  C18 UNL     1       8.306   0.092  -1.798  1.00  0.00     0.000 C 
HETATM   34  C19 UNL     1       7.874   1.318  -1.060  1.00  0.00     0.000 C 
HETATM   35  C20 UNL     1       6.448   1.721  -1.324  1.00  0.00     0.005 C 
ENDBRANCH  29  30
ENDBRANCH  28  29
BRANCH  28  36
HETATM   36  C21 UNL     1       4.778  -1.405   2.037  1.00  0.00     0.196 C 
HETATM   37  O4  UNL     1       3.762  -1.496   2.757  1.00  0.00    -0.646 OA
HETATM   38  O5  UNL     1       6.046  -1.679   2.587  1.00  0.00    -0.646 OA
ENDBRANCH  28  36
ENDBRANCH  26  28
ENDBRANCH   4  24
TORSDOF 8
