REMARK  5 active torsions:
REMARK  status: ('A' for Active; 'I' for Inactive)
REMARK    1  A    between atoms: N1_1  and  C1_4 
REMARK    2  A    between atoms: C4_13  and  C5_14 
REMARK    3  A    between atoms: C5_14  and  C6_15 
REMARK    4  A    between atoms: C11_20  and  N5_21 
REMARK    5  A    between atoms: N5_21  and  C12_23 
ROOT
HETATM    1  C1  UNL     1       0.900   4.390   0.523  1.00  0.00     0.690 A 
HETATM    2  N2  UNL     1       0.014   4.349   1.544  1.00  0.00    -0.132 N 
ATOM      3  H2  UNL     1      -0.123   5.161   2.145  1.00  0.00     0.205 HD
HETATM    4  N3  UNL     1      -0.665   3.249   1.747  1.00  0.00    -0.289 N 
ATOM      5  H3  UNL     1      -1.336   3.210   2.514  1.00  0.00     0.187 HD
HETATM    6  C2  UNL     1      -0.492   2.143   0.946  1.00  0.00     0.051 A 
HETATM    7  C3  UNL     1       0.398   2.170  -0.086  1.00  0.00     0.057 A 
HETATM    8  N4  UNL     1       1.074   3.316  -0.260  1.00  0.00    -0.192 N 
ATOM      9  H4  UNL     1       1.750   3.372  -1.022  1.00  0.00     0.184 HD
HETATM   10  C4  UNL     1       0.386   0.858  -0.781  1.00  0.00     0.061 A 
HETATM   11  C11 UNL     1      -0.528  -0.015  -0.031  1.00  0.00     0.092 A 
HETATM   12  C17 UNL     1      -1.159   0.849   1.022  1.00  0.00     0.086 A 
ENDROOT
BRANCH  11  13
HETATM   13  N5  UNL     1      -1.479  -0.594  -0.947  1.00  0.00    -0.412 N 
ATOM     14  H5  UNL     1      -1.225  -0.785  -1.916  1.00  0.00     0.154 HD
BRANCH  13  15
HETATM   15  C12 UNL     1      -2.766  -0.888  -0.465  1.00  0.00     0.081 C 
HETATM   16  C13 UNL     1      -3.486  -1.686  -1.569  1.00  0.00     0.051 C 
HETATM   17  C14 UNL     1      -4.687  -2.306  -0.871  1.00  0.00     0.169 C 
HETATM   18  O1  UNL     1      -5.103  -1.533   0.212  1.00  0.00    -0.391 OA
HETATM   19  C15 UNL     1      -4.247  -1.755   1.290  1.00  0.00     0.169 C 
HETATM   20  C16 UNL     1      -2.814  -1.773   0.739  1.00  0.00     0.051 C 
ENDBRANCH  13  15
ENDBRANCH  11  13
BRANCH  10  21
HETATM   21  C5  UNL     1       1.720   0.408  -1.209  1.00  0.00     0.017 C 
BRANCH  21  22
HETATM   22  C6  UNL     1       2.805   0.200  -0.244  1.00  0.00    -0.014 C 
HETATM   23  C7  UNL     1       2.531  -0.860   0.755  1.00  0.00     0.005 C 
HETATM   24  C8  UNL     1       3.892  -1.443   1.137  1.00  0.00     0.000 C 
HETATM   25  C9  UNL     1       4.796  -1.163  -0.021  1.00  0.00     0.000 C 
HETATM   26  C10 UNL     1       4.090  -0.198  -0.950  1.00  0.00     0.005 C 
ENDBRANCH  21  22
ENDBRANCH  10  21
BRANCH   1  27
HETATM   27  N1  UNL     1       1.553   5.485   0.350  1.00  0.00    -0.233 N 
ATOM     28  H12 UNL     1       1.421   6.302   0.946  1.00  0.00     0.174 HD
ATOM     29  H11 UNL     1       2.221   5.516  -0.420  1.00  0.00     0.174 HD
ENDBRANCH   1  27
TORSDOF 5
