REMARK  3 active torsions:
REMARK  status: ('A' for Active; 'I' for Inactive)
REMARK    1  A    between atoms: C2_2  and  C3_3 
REMARK    2  A    between atoms: C14_16  and  C15_17 
REMARK    3  A    between atoms: N2_19  and  O1_21 
ROOT
HETATM    1  C1  UNL     1       0.849  -0.907   2.119  1.00  0.00     0.016 C 
HETATM    2  C2  UNL     1       0.229  -0.590   0.782  1.00  0.00    -0.028 C 
HETATM    3  C9  UNL     1      -0.456  -1.807   0.231  1.00  0.00    -0.005 C 
HETATM    4  C10 UNL     1      -1.334  -2.497   1.245  1.00  0.00     0.005 C 
HETATM    5  C11 UNL     1      -2.290  -1.633   1.977  1.00  0.00     0.001 C 
HETATM    6  C12 UNL     1      -1.811  -0.217   2.177  1.00  0.00     0.006 C 
HETATM    7  C13 UNL     1      -1.026   0.265   0.943  1.00  0.00     0.006 C 
HETATM    8  C14 UNL     1      -1.920  -0.056  -0.234  1.00  0.00     0.057 C 
HETATM    9  C16 UNL     1      -1.330  -1.262  -0.916  1.00  0.00     0.017 C 
ENDROOT
BRANCH   2  10
HETATM   10  C3  UNL     1       1.203   0.051  -0.121  1.00  0.00     0.050 C 
HETATM   11  C4  UNL     1       1.735   1.379   0.392  1.00  0.00     0.010 C 
HETATM   12  C5  UNL     1       2.361   2.088  -0.793  1.00  0.00     0.001 C 
HETATM   13  C6  UNL     1       3.412   1.302  -1.495  1.00  0.00     0.004 C 
HETATM   14  C7  UNL     1       2.924  -0.094  -1.833  1.00  0.00     0.061 C 
HETATM   15  C8  UNL     1       2.431  -0.677  -0.487  1.00  0.00     0.183 C 
HETATM   16  F1  UNL     1       2.427  -1.998  -0.671  1.00  0.00    -0.225 F 
HETATM   17 CL1  UNL     1       3.814  -0.338   0.625  1.00  0.00    -0.082 Cl
ENDBRANCH   2  10
BRANCH   8  18
HETATM   18  C15 UNL     1      -2.188   1.067  -1.126  1.00  0.00     0.117 C 
HETATM   19  N1  UNL     1      -2.970   0.878  -2.276  1.00  0.00    -0.085 NA
HETATM   20  N2  UNL     1      -1.720   2.223  -0.865  1.00  0.00    -0.259 N 
ATOM     21  H2  UNL     1      -1.158   2.330  -0.021  1.00  0.00     0.195 HD
BRANCH  20  22
HETATM   22  O1  UNL     1      -1.922   3.331  -1.644  1.00  0.00    -0.289 OA
ATOM     23  H1  UNL     1      -1.573   4.193  -1.449  1.00  0.00     0.244 HD
ENDBRANCH  20  22
ENDBRANCH   8  18
TORSDOF 3
