REMARK  7 active torsions:
REMARK  status: ('A' for Active; 'I' for Inactive)
REMARK    1  A    between atoms: C2_7  and  N3_8 
REMARK    2  A    between atoms: C4_13  and  C5_14 
REMARK    3  A    between atoms: C7_16  and  C8_17 
REMARK    4  A    between atoms: C9_25  and  S1_26 
REMARK    5  A    between atoms: S1_26  and  C10_27 
REMARK    6  A    between atoms: C10_27  and  N10_28 
REMARK    7  A    between atoms: C12_40  and  N16_41 
ROOT
HETATM    1  C5  UNL     1      -0.930  -0.285  -1.094  1.00  0.00     0.067 A 
HETATM    2  C6  UNL     1      -0.018  -1.205  -0.622  1.00  0.00     0.050 A 
HETATM    3  C7  UNL     1       1.344  -0.970  -0.532  1.00  0.00     0.047 A 
HETATM    4  C9  UNL     1       1.780   0.280  -0.951  1.00  0.00     0.100 A 
HETATM    5  N14 UNL     1       0.868   1.154  -1.405  1.00  0.00    -0.293 N 
ATOM      6  H14 UNL     1       1.196   2.070  -1.711  1.00  0.00     0.187 HD
HETATM    7  N15 UNL     1      -0.436   0.902  -1.482  1.00  0.00    -0.299 N 
ATOM      8  H15 UNL     1      -1.068   1.618  -1.840  1.00  0.00     0.187 HD
ENDROOT
BRANCH   1   9
HETATM    9  C4  UNL     1      -2.337  -0.642  -1.156  1.00  0.00     0.081 A 
HETATM   10  C2  UNL     1      -3.183  -0.346  -0.113  1.00  0.00     0.139 A 
HETATM   11  N2  UNL     1      -4.502  -0.694  -0.178  1.00  0.00    -0.176 N 
HETATM   12  C1  UNL     1      -5.017  -1.327  -1.243  1.00  0.00     0.679 A 
ATOM     13  H2  UNL     1      -5.113  -0.466   0.606  1.00  0.00     0.186 HD
HETATM   14  N1  UNL     1      -6.280  -1.661  -1.307  1.00  0.00    -0.234 N 
HETATM   15  N17 UNL     1      -4.200  -1.620  -2.265  1.00  0.00    -0.176 N 
ATOM     16  H12 UNL     1      -6.902  -1.438  -0.530  1.00  0.00     0.174 HD
ATOM     17  H11 UNL     1      -6.672  -2.142  -2.117  1.00  0.00     0.174 HD
HETATM   18  C12 UNL     1      -2.895  -1.299  -2.248  1.00  0.00     0.131 A 
ATOM     19  H17 UNL     1      -4.580  -2.101  -3.080  1.00  0.00     0.186 HD
BRANCH  10  20
HETATM   20  N3  UNL     1      -2.623   0.323   0.999  1.00  0.00    -0.318 N 
HETATM   21  C3  UNL     1      -3.051   1.486   1.316  1.00  0.00     0.202 C 
HETATM   22  N4  UNL     1      -4.079   2.078   0.540  1.00  0.00    -0.066 NA
HETATM   23  N5  UNL     1      -2.532   2.205   2.413  1.00  0.00    -0.066 NA
ATOM     24  H3  UNL     1      -1.883  -0.118   1.545  1.00  0.00     0.169 HD
ENDBRANCH  10  20
BRANCH  18  25
HETATM   25  N16 UNL     1      -2.086  -1.585  -3.243  1.00  0.00    -0.384 N 
ATOM     26 2H16 UNL     1      -1.096  -1.341  -3.230  1.00  0.00     0.157 HD
ATOM     27 1H16 UNL     1      -2.495  -2.067  -4.044  1.00  0.00     0.157 HD
ENDBRANCH  18  25
ENDBRANCH   1   9
BRANCH   3  28
HETATM   28  C8  UNL     1       2.268  -1.980  -0.031  1.00  0.00     0.147 A 
HETATM   29  N6  UNL     1       1.886  -3.197   0.384  1.00  0.00    -0.271 N 
HETATM   30  N7  UNL     1       2.922  -3.898   0.779  1.00  0.00    -0.225 N 
ATOM     31  H6  UNL     1       0.922  -3.531   0.391  1.00  0.00     0.190 HD
HETATM   32  N8  UNL     1       3.985  -3.127   0.618  1.00  0.00    -0.005 NA
ATOM     33  H7  UNL     1       2.910  -4.852   1.140  1.00  0.00     0.205 HD
HETATM   34  N9  UNL     1       3.596  -1.964   0.128  1.00  0.00    -0.266 N 
ATOM     35  H9  UNL     1       4.209  -1.180  -0.094  1.00  0.00     0.186 HD
ENDBRANCH   3  28
BRANCH   4  36
HETATM   36  S1  UNL     1       3.529   0.678  -0.867  1.00  0.00    -0.088 SA
BRANCH  36  37
HETATM   37  C10 UNL     1       3.947   1.414   0.736  1.00  0.00     0.232 C 
BRANCH  37  38
HETATM   38  N10 UNL     1       5.365   1.714   0.766  1.00  0.00    -0.261 N 
HETATM   39  C11 UNL     1       5.893   2.891   0.370  1.00  0.00     0.220 A 
HETATM   40  N11 UNL     1       7.210   2.779   0.546  1.00  0.00    -0.279 N 
HETATM   41  N12 UNL     1       7.481   1.578   1.032  1.00  0.00    -0.227 N 
ATOM     42  H11 UNL     1       7.898   3.503   0.339  1.00  0.00     0.189 HD
HETATM   43  N13 UNL     1       6.358   0.915   1.171  1.00  0.00    -0.224 N 
ATOM     44  H12 UNL     1       8.411   1.226   1.261  1.00  0.00     0.210 HD
ATOM     45  H13 UNL     1       6.260  -0.037   1.524  1.00  0.00     0.210 HD
ENDBRANCH  37  38
ENDBRANCH  36  37
ENDBRANCH   4  36
TORSDOF 7
