REMARK  11 active torsions:
REMARK  status: ('A' for Active; 'I' for Inactive)
REMARK    1  A    between atoms: O1_1  and  C1_3 
REMARK    2  A    between atoms: C1_3  and  N1_4 
REMARK    3  A    between atoms: C1_3  and  O7_25 
REMARK    4  A    between atoms: N1_4  and  C2_6 
REMARK    5  A    between atoms: C2_6  and  O2_7 
REMARK    6  A    between atoms: C2_6  and  C3_9 
REMARK    7  A    between atoms: C5_15  and  S1_16 
REMARK    8  A    between atoms: C6_22  and  O6_23 
REMARK    9  A    between atoms: O7_25  and  C7_26 
REMARK   10  A    between atoms: C7_26  and  C8_27 
REMARK   11  A    between atoms: C10_34  and  O9_35 
ROOT
HETATM    1  C2  UNL     1       1.032   1.122   0.697  1.00  0.00     0.277 C 
ENDROOT
BRANCH   1   2
HETATM    2  N1  UNL     1      -0.055   0.487  -0.011  1.00  0.00    -0.319 N 
ATOM      3  H1  UNL     1       0.110  -0.025  -0.878  1.00  0.00     0.166 HD
BRANCH   2   4
HETATM    4  C1  UNL     1      -1.355   0.596   0.534  1.00  0.00     0.260 C 
BRANCH   4   5
HETATM    5  O1  UNL     1      -1.445   1.276   1.685  1.00  0.00    -0.327 OA
ATOM      6  H1  UNL     1      -2.319   1.349   2.051  1.00  0.00     0.221 HD
ENDBRANCH   4   5
BRANCH   4   7
HETATM    7  O7  UNL     1      -2.538   0.127   0.100  1.00  0.00    -0.311 OA
BRANCH   7   8
HETATM    8  C7  UNL     1      -3.738   0.377   0.856  1.00  0.00     0.241 C 
BRANCH   8   9
HETATM    9  C8  UNL     1      -4.948  -0.223   0.350  1.00  0.00     0.089 A 
HETATM   10  N5  UNL     1      -5.773  -1.047   1.075  1.00  0.00    -0.306 N 
HETATM   11  C9  UNL     1      -6.845  -1.367   0.356  1.00  0.00     0.326 A 
ATOM     12  H5  UNL     1      -5.590  -1.367   2.026  1.00  0.00     0.170 HD
HETATM   13  O8  UNL     1      -7.778  -2.113   0.769  1.00  0.00    -0.247 OA
HETATM   14  N6  UNL     1      -6.704  -0.747  -0.837  1.00  0.00    -0.287 N 
HETATM   15  C10 UNL     1      -5.577  -0.049  -0.873  1.00  0.00     0.169 A 
ATOM     16  H6  UNL     1      -7.373  -0.808  -1.605  1.00  0.00     0.172 HD
BRANCH  15  17
HETATM   17  O9  UNL     1      -5.028   0.742  -1.889  1.00  0.00    -0.344 OA
ATOM     18  H9  UNL     1      -5.459   0.861  -2.727  1.00  0.00     0.219 HD
ENDBRANCH  15  17
ENDBRANCH   8   9
ENDBRANCH   7   8
ENDBRANCH   4   7
ENDBRANCH   2   4
ENDBRANCH   1   2
BRANCH   1  19
HETATM   19  O2  UNL     1       0.925   0.377   2.006  1.00  0.00    -0.371 OA
ATOM     20  H2  UNL     1       1.640   0.795   2.472  1.00  0.00     0.212 HD
ENDBRANCH   1  19
BRANCH   1  21
HETATM   21  C3  UNL     1       2.376   0.708   0.262  1.00  0.00     0.127 A 
HETATM   22  N2  UNL     1       2.937  -0.505   0.253  1.00  0.00    -0.185 N 
HETATM   23  C4  UNL     1       4.242  -0.440  -0.138  1.00  0.00     0.699 A 
ATOM     24  H2  UNL     1       2.453  -1.366   0.505  1.00  0.00     0.184 HD
HETATM   25  N3  UNL     1       5.210  -1.299  -0.295  1.00  0.00    -0.169 N 
HETATM   26  N4  UNL     1       4.467   0.835  -0.376  1.00  0.00    -0.089 N 
HETATM   27  C5  UNL     1       6.397  -0.890  -0.688  1.00  0.00     0.224 A 
ATOM     28  H3  UNL     1       5.047  -2.289  -0.113  1.00  0.00     0.185 HD
HETATM   29  S2  UNL     1       6.127   0.782  -0.840  1.00  0.00     0.046 SA
HETATM   30  C6  UNL     1       3.369   1.581  -0.150  1.00  0.00     0.198 A 
BRANCH  27  31
HETATM   31  S1  UNL     1       7.787  -1.889  -0.977  1.00  0.00     0.163 S 
HETATM   32  O3  UNL     1       7.621  -3.185  -0.166  1.00  0.00    -0.590 OA
HETATM   33  O4  UNL     1       9.024  -1.234  -0.530  1.00  0.00    -0.590 OA
HETATM   34  O5  UNL     1       7.776  -2.357  -2.593  1.00  0.00    -0.590 OA
ENDBRANCH  27  31
BRANCH  30  35
HETATM   35  O6  UNL     1       3.377   2.953  -0.336  1.00  0.00    -0.343 OA
ATOM     36  H6  UNL     1       4.058   3.552  -0.619  1.00  0.00     0.219 HD
ENDBRANCH  30  35
ENDBRANCH   1  21
TORSDOF 11
