REMARK  7 active torsions:
REMARK  status: ('A' for Active; 'I' for Inactive)
REMARK    1  A    between atoms: C2_2  and  C3_3 
REMARK    2  A    between atoms: C3_3  and  O1_4 
REMARK    3  A    between atoms: O1_4  and  C4_5 
REMARK    4  A    between atoms: C5_6  and  O2_7 
REMARK    5  A    between atoms: C8_11  and  O4_12 
REMARK    6  A    between atoms: C10_14  and  O5_15 
REMARK    7  A    between atoms: C11_17  and  O6_18 
ROOT
HETATM    1  C4  UNL     1       0.579   0.058  -0.012  1.00  0.00     0.184 C 
HETATM    2  C5  UNL     1      -0.029  -1.071  -0.800  1.00  0.00     0.176 C 
HETATM    3  C7  UNL     1      -1.464  -0.772  -1.217  1.00  0.00     0.205 C 
HETATM    4  O3  UNL     1      -2.280  -0.470  -0.163  1.00  0.00    -0.356 OA
HETATM    5  C8  UNL     1      -2.499   0.879   0.059  1.00  0.00     0.290 C 
HETATM    6  C10 UNL     1      -1.251   1.618   0.464  1.00  0.00     0.204 C 
HETATM    7  C11 UNL     1      -0.074   1.358  -0.411  1.00  0.00     0.183 C 
ENDROOT
BRANCH   1   8
HETATM    8  O1  UNL     1       1.962   0.104  -0.154  1.00  0.00    -0.377 OA
BRANCH   8   9
HETATM    9  C3  UNL     1       2.617  -0.102   1.059  1.00  0.00     0.195 C 
BRANCH   9  10
HETATM   10  C2  UNL     1       4.093  -0.047   0.876  1.00  0.00    -0.011 C 
HETATM   11  C1  UNL     1       4.857  -1.077   1.171  1.00  0.00     0.009 C 
ENDBRANCH   9  10
ENDBRANCH   8   9
ENDBRANCH   1   8
BRANCH   2  12
HETATM   12  O2  UNL     1       0.116  -2.296  -0.222  1.00  0.00    -0.386 OA
HETATM   13  C6  UNL     1       0.878  -3.200  -0.935  1.00  0.00     0.202 C 
ENDBRANCH   2  12
BRANCH   7  14
HETATM   14  O6  UNL     1       0.876   2.372  -0.140  1.00  0.00    -0.390 OA
ATOM     15  H6  UNL     1       0.465   3.191  -0.391  1.00  0.00     0.210 HD
ENDBRANCH   7  14
BRANCH   6  16
HETATM   16  O5  UNL     1      -0.905   1.270   1.775  1.00  0.00    -0.388 OA
ATOM     17  H5  UNL     1      -0.118   1.736   2.030  1.00  0.00     0.210 HD
ENDBRANCH   6  16
BRANCH   5  18
HETATM   18  O4  UNL     1      -3.265   1.495  -0.874  1.00  0.00    -0.363 OA
HETATM   19  C9  UNL     1      -4.494   1.942  -0.514  1.00  0.00     0.204 C 
ENDBRANCH   5  18
TORSDOF 7
