REMARK  8 active torsions:
REMARK  status: ('A' for Active; 'I' for Inactive)
REMARK    1  A    between atoms: O1_2  and  C2_3 
REMARK    2  A    between atoms: C2_3  and  C3_4 
REMARK    3  A    between atoms: C3_4  and  C4_5 
REMARK    4  A    between atoms: C4_5  and  C5_6 
REMARK    5  A    between atoms: C6_8  and  O3_9 
REMARK    6  A    between atoms: O3_9  and  C7_10 
REMARK    7  A    between atoms: C10_14  and  O5_15 
REMARK    8  A    between atoms: C11_17  and  O6_18 
ROOT
HETATM    1  C5  UNL     1       0.168  -0.867   0.646  1.00  0.00     0.156 C 
HETATM    2  O2  UNL     1      -0.245   0.261  -0.009  1.00  0.00    -0.353 OA
HETATM    3  C6  UNL     1      -1.630   0.334  -0.115  1.00  0.00     0.272 C 
HETATM    4  C9  UNL     1      -2.313  -0.354   1.056  1.00  0.00     0.095 C 
HETATM    5  C10 UNL     1      -2.071  -1.859   0.894  1.00  0.00     0.154 C 
HETATM    6  C11 UNL     1      -0.760  -1.994   0.155  1.00  0.00     0.176 C 
ENDROOT
BRANCH   1   7
HETATM    7  C4  UNL     1       1.555  -1.328   0.363  1.00  0.00     0.037 C 
BRANCH   7   8
HETATM    8  C3  UNL     1       2.678  -0.403   0.703  1.00  0.00     0.029 C 
BRANCH   8   9
HETATM    9  C2  UNL     1       2.590   0.877  -0.032  1.00  0.00     0.167 C 
BRANCH   9  10
HETATM   10  O1  UNL     1       3.655   1.744   0.230  1.00  0.00    -0.396 OA
HETATM   11  C1  UNL     1       4.879   1.233  -0.099  1.00  0.00     0.201 C 
ENDBRANCH   9  10
ENDBRANCH   8   9
ENDBRANCH   7   8
ENDBRANCH   1   7
BRANCH   6  12
HETATM   12  O6  UNL     1      -0.134  -3.209   0.432  1.00  0.00    -0.390 OA
ATOM     13  H6  UNL     1      -0.706  -3.904   0.129  1.00  0.00     0.210 HD
ENDBRANCH   6  12
BRANCH   3  14
HETATM   14  O3  UNL     1      -2.088   1.664  -0.177  1.00  0.00    -0.290 OA
BRANCH  14  15
HETATM   15  C7  UNL     1      -2.828   2.063  -1.276  1.00  0.00     0.257 C 
HETATM   16  C8  UNL     1      -3.351   3.450  -1.421  1.00  0.00     0.126 C 
HETATM   17  O4  UNL     1      -3.088   1.249  -2.208  1.00  0.00    -0.266 OA
ENDBRANCH  14  15
ENDBRANCH   3  14
BRANCH   5  18
HETATM   18  O5  UNL     1      -3.069  -2.428   0.100  1.00  0.00    -0.393 OA
ATOM     19  H5  UNL     1      -2.919  -3.361  -0.000  1.00  0.00     0.210 HD
ENDBRANCH   5  18
TORSDOF 8
