REMARK  7 active torsions:
REMARK  status: ('A' for Active; 'I' for Inactive)
REMARK    1  A    between atoms: C3_4  and  S1_5 
REMARK    2  A    between atoms: S1_5  and  C4_6 
REMARK    3  A    between atoms: C4_6  and  C5_7 
REMARK    4  A    between atoms: C5_7  and  O1_8 
REMARK    5  A    between atoms: O1_8  and  C6_9 
REMARK    6  A    between atoms: C8_12  and  O3_13 
REMARK    7  A    between atoms: C9_15  and  O4_16 
ROOT
HETATM    1  C6  UNL     1      -1.959   0.611   0.952  1.00  0.00     0.290 C 
HETATM    2  O2  UNL     1      -2.957   1.582   1.120  1.00  0.00    -0.356 OA
HETATM    3  C7  UNL     1      -3.907   1.314   0.142  1.00  0.00     0.205 C 
HETATM    4  C8  UNL     1      -4.083  -0.180   0.278  1.00  0.00     0.175 C 
HETATM    5  C9  UNL     1      -2.670  -0.646   0.523  1.00  0.00     0.204 C 
ENDROOT
BRANCH   1   6
HETATM    6  O1  UNL     1      -1.129   1.112  -0.046  1.00  0.00    -0.358 OA
BRANCH   6   7
HETATM    7  C5  UNL     1       0.115   1.327   0.500  1.00  0.00     0.181 C 
BRANCH   7   8
HETATM    8  C4  UNL     1       1.123   1.864  -0.454  1.00  0.00     0.100 C 
BRANCH   8   9
HETATM    9  S1  UNL     1       1.504   0.929  -1.882  1.00  0.00    -0.159 SA
BRANCH   9  10
HETATM   10  C3  UNL     1       2.378  -0.577  -1.783  1.00  0.00     0.104 C 
HETATM   11  C2  UNL     1       3.828  -0.387  -1.312  1.00  0.00     0.288 C 
HETATM   12  N1  UNL     1       3.739  -1.516  -0.422  1.00  0.00     0.086 N 
HETATM   13  C1  UNL     1       4.054  -1.226   0.978  1.00  0.00     0.310 C 
HETATM   14  C10 UNL     1       2.284  -1.521  -0.666  1.00  0.00     0.288 C 
ENDBRANCH   9  10
ENDBRANCH   8   9
ENDBRANCH   7   8
ENDBRANCH   6   7
ENDBRANCH   1   6
BRANCH   5  15
HETATM   15  O4  UNL     1      -2.675  -1.524   1.601  1.00  0.00    -0.388 OA
ATOM     16  H4  UNL     1      -3.123  -2.317   1.330  1.00  0.00     0.210 HD
ENDBRANCH   5  15
BRANCH   4  17
HETATM   17  O3  UNL     1      -4.616  -0.709  -0.898  1.00  0.00    -0.391 OA
ATOM     18  H3  UNL     1      -4.727  -1.649  -0.812  1.00  0.00     0.210 HD
ENDBRANCH   4  17
TORSDOF 7
