REMARK  2 active torsions:
REMARK  status: ('A' for Active; 'I' for Inactive)
REMARK    1  A    between atoms: C1_4  and  O1_5 
REMARK    2  A    between atoms: C1_4  and  C2_7 
ROOT
HETATM    1  C2  UNL     1       0.579  -0.579   0.211  1.00  0.00     0.064 C 
HETATM    2  C3  UNL     1       0.062   0.487   1.191  1.00  0.00     0.017 C 
HETATM    3  C4  UNL     1      -1.270   0.758   0.560  1.00  0.00    -0.013 C 
HETATM    4  C5  UNL     1      -1.001   0.807  -0.945  1.00  0.00     0.010 C 
HETATM    5  C6  UNL     1      -0.575  -0.632  -0.724  1.00  0.00    -0.002 C 
HETATM    6  C7  UNL     1      -1.763  -0.665   0.251  1.00  0.00     0.010 C 
ENDROOT
BRANCH   1   7
HETATM    7  C1  UNL     1       1.860  -0.251  -0.393  1.00  0.00     0.113 C 
HETATM    8  N1  UNL     1       2.867  -1.038  -0.225  1.00  0.00    -0.383 N 
ATOM      9  H12 UNL     1       3.766  -0.808  -0.649  1.00  0.00     0.157 HD
ATOM     10  H11 UNL     1       2.686  -1.866   0.342  1.00  0.00     0.157 HD
BRANCH   7  11
HETATM   11  O1  UNL     1       2.107   0.877  -1.165  1.00  0.00    -0.349 OA
ATOM     12  H1  UNL     1       1.365   1.457  -1.289  1.00  0.00     0.219 HD
ENDBRANCH   7  11
ENDBRANCH   1   7
TORSDOF 2
