REMARK  5 active torsions:
REMARK  status: ('A' for Active; 'I' for Inactive)
REMARK    1  A    between atoms: C2_2  and  N1_5 
REMARK    2  A    between atoms: N1_5  and  C5_7 
REMARK    3  A    between atoms: C5_7  and  N2_8 
REMARK    4  A    between atoms: C5_7  and  C6_12 
REMARK    5  A    between atoms: N2_8  and  N3_9 
ROOT
HETATM    1  C5  UNL     1       1.507   0.598   0.240  1.00  0.00     0.276 C 
ENDROOT
BRANCH   1   2
HETATM    2  N1  UNL     1       0.323   0.761  -0.505  1.00  0.00    -0.350 N 
ATOM      3  H1  UNL     1       0.326   1.444  -1.262  1.00  0.00     0.163 HD
BRANCH   2   4
HETATM    4  C2  UNL     1      -0.890   0.025  -0.266  1.00  0.00     0.022 C 
HETATM    5  C1  UNL     1      -1.421   0.258   1.134  1.00  0.00     0.037 C 
HETATM    6  C3  UNL     1      -1.964   0.461  -1.229  1.00  0.00     0.037 C 
HETATM    7  C4  UNL     1      -0.676  -1.483  -0.403  1.00  0.00     0.037 C 
ENDBRANCH   2   4
ENDBRANCH   1   2
BRANCH   1   8
HETATM    8  N2  UNL     1       1.571   1.029   1.401  1.00  0.00    -0.307 NA
BRANCH   8   9
HETATM    9  N3  UNL     1       1.634   1.501   2.559  1.00  0.00    -0.278 N 
ATOM     10  H32 UNL     1       1.571   2.110   1.743  1.00  0.00     0.191 HD
ATOM     11  H31 UNL     1       1.687   1.856   3.514  1.00  0.00     0.191 HD
ENDBRANCH   8   9
ENDBRANCH   1   8
BRANCH   1  12
HETATM   12  C6  UNL     1       2.640  -0.068  -0.344  1.00  0.00     0.262 C 
HETATM   13  O1  UNL     1       2.541  -0.492  -1.520  1.00  0.00    -0.641 OA
HETATM   14  O2  UNL     1       3.846  -0.270   0.324  1.00  0.00    -0.641 OA
ENDBRANCH   1  12
TORSDOF 5
