REMARK  11 active torsions:
REMARK  status: ('A' for Active; 'I' for Inactive)
REMARK    1  A    between atoms: C2_2  and  C3_3 
REMARK    2  A    between atoms: C3_3  and  C4_4 
REMARK    3  A    between atoms: C4_4  and  C5_5 
REMARK    4  A    between atoms: C5_5  and  O2_7 
REMARK    5  A    between atoms: O2_7  and  C6_8 
REMARK    6  A    between atoms: C6_8  and  C7_9 
REMARK    7  A    between atoms: C11_13  and  O3_15 
REMARK    8  A    between atoms: C17_21  and  O4_22 
REMARK    9  A    between atoms: O4_22  and  C18_23 
REMARK   10  A    between atoms: C18_23  and  C19_25 
REMARK   11  A    between atoms: C22_28  and  O6_29 
ROOT
HETATM    1  C7  UNL     1       1.941  -1.255  -0.945  1.00  0.00    -0.027 C 
HETATM    2  C8  UNL     1       2.347  -1.074  -2.211  1.00  0.00    -0.019 C 
HETATM    3  C9  UNL     1       1.548  -0.377  -3.254  1.00  0.00     0.030 C 
HETATM    4  C10 UNL     1       1.117   0.968  -2.780  1.00  0.00     0.046 C 
HETATM    5  C11 UNL     1      -0.146   0.895  -1.884  1.00  0.00     0.081 C 
HETATM    6  C12 UNL     1      -0.805   2.225  -2.073  1.00  0.00     0.051 C 
HETATM    7  C13 UNL     1       0.288   0.588  -0.513  1.00  0.00    -0.013 C 
HETATM    8  C14 UNL     1      -0.437   1.081   0.651  1.00  0.00     0.014 C 
HETATM    9  C15 UNL     1      -1.608   0.989   1.184  1.00  0.00    -0.054 C 
HETATM   10  C16 UNL     1      -1.758   1.798   2.497  1.00  0.00     0.046 C 
HETATM   11  C17 UNL     1      -2.865   0.310   0.861  1.00  0.00     0.163 C 
HETATM   12  C21 UNL     1      -2.912  -1.068   0.379  1.00  0.00     0.069 C 
HETATM   13  C22 UNL     1      -2.349  -2.118   1.317  1.00  0.00     0.130 C 
HETATM   14  C23 UNL     1      -1.709  -3.249   0.562  1.00  0.00    -0.000 C 
HETATM   15  C24 UNL     1      -1.707  -4.514   1.410  1.00  0.00     0.020 C 
HETATM   16  C25 UNL     1      -2.418  -3.568  -0.721  1.00  0.00     0.020 C 
HETATM   17  C26 UNL     1      -0.271  -2.883   0.289  1.00  0.00     0.180 C 
HETATM   18  O7  UNL     1      -0.287  -1.777  -0.557  1.00  0.00    -0.376 OA
HETATM   19  C27 UNL     1       0.679  -0.854  -0.294  1.00  0.00     0.184 C 
ENDROOT
BRANCH   1  20
HETATM   20  C6  UNL     1       2.936  -1.982  -0.122  1.00  0.00     0.215 C 
BRANCH  20  21
HETATM   21  O2  UNL     1       3.328  -1.175   0.956  1.00  0.00    -0.317 OA
BRANCH  21  22
HETATM   22  C5  UNL     1       3.949   0.058   0.858  1.00  0.00     0.259 C 
HETATM   23  O1  UNL     1       4.184   0.493  -0.284  1.00  0.00    -0.265 OA
BRANCH  22  24
HETATM   24  C4  UNL     1       4.296   0.779   2.085  1.00  0.00     0.111 C 
BRANCH  24  25
HETATM   25  C3  UNL     1       4.984   2.079   1.852  1.00  0.00     0.009 C 
BRANCH  25  26
HETATM   26  C2  UNL     1       6.286   2.012   1.133  1.00  0.00    -0.004 C 
HETATM   27  C1  UNL     1       7.316   1.173   1.852  1.00  0.00     0.005 C 
ENDBRANCH  25  26
ENDBRANCH  24  25
ENDBRANCH  22  24
ENDBRANCH  21  22
ENDBRANCH  20  21
ENDBRANCH   1  20
BRANCH   5  28
HETATM   28  O3  UNL     1      -0.898  -0.078  -2.534  1.00  0.00    -0.386 OA
ATOM     29  H3  UNL     1      -1.672  -0.123  -1.985  1.00  0.00     0.211 HD
ENDBRANCH   5  28
BRANCH  11  30
HETATM   30  O4  UNL     1      -3.578   1.136  -0.066  1.00  0.00    -0.311 OA
BRANCH  30  31
HETATM   31  C18 UNL     1      -4.782   1.730   0.182  1.00  0.00     0.259 C 
HETATM   32  O5  UNL     1      -5.311   1.538   1.317  1.00  0.00    -0.265 OA
BRANCH  31  33
HETATM   33  C19 UNL     1      -5.516   2.582  -0.779  1.00  0.00     0.106 C 
HETATM   34  C20 UNL     1      -6.811   3.087  -0.206  1.00  0.00     0.015 C 
ENDBRANCH  31  33
ENDBRANCH  30  31
ENDBRANCH  11  30
BRANCH  13  35
HETATM   35  O6  UNL     1      -1.485  -1.584   2.268  1.00  0.00    -0.395 OA
ATOM     36  H6  UNL     1      -1.132  -2.242   2.856  1.00  0.00     0.210 HD
ENDBRANCH  13  35
TORSDOF 11
