REMARK  6 active torsions:
REMARK  status: ('A' for Active; 'I' for Inactive)
REMARK    1  A    between atoms: N1_1  and  C1_4 
REMARK    2  A    between atoms: C4_15  and  N6_16 
REMARK    3  A    between atoms: N6_16  and  C5_18 
REMARK    4  A    between atoms: N9_27  and  O1_28 
REMARK    5  A    between atoms: O1_28  and  S1_29 
REMARK    6  A    between atoms: S1_29  and  N10_30 
ROOT
HETATM    1  C1  UNL     1       4.595  -2.394  -0.383  1.00  0.00     0.692 A 
HETATM    2  N2  UNL     1       4.154  -1.158  -0.059  1.00  0.00    -0.169 N 
ATOM      3  H2  UNL     1       4.843  -0.428   0.122  1.00  0.00     0.186 HD
HETATM    4  C2  UNL     1       2.849  -0.847   0.036  1.00  0.00     0.214 A 
HETATM    5  C3  UNL     1       1.954  -1.872  -0.219  1.00  0.00     0.184 A 
HETATM    6  N3  UNL     1       2.421  -3.092  -0.540  1.00  0.00    -0.268 N 
ATOM      7  H3  UNL     1       1.745  -3.833  -0.725  1.00  0.00     0.189 HD
HETATM    8  N4  UNL     1       3.706  -3.384  -0.629  1.00  0.00    -0.131 N 
ATOM      9  H4  UNL     1       4.018  -4.324  -0.875  1.00  0.00     0.205 HD
HETATM   10  N5  UNL     1       0.734  -1.327  -0.065  1.00  0.00    -0.169 N 
ATOM     11  H5  UNL     1      -0.151  -1.819  -0.183  1.00  0.00     0.186 HD
HETATM   12  C4  UNL     1       0.865  -0.030   0.269  1.00  0.00     0.728 A 
HETATM   13  N9  UNL     1       2.153   0.275   0.334  1.00  0.00    -0.010 N 
ENDROOT
BRANCH  12  14
HETATM   14  N6  UNL     1      -0.094   0.823   0.500  1.00  0.00    -0.020 N 
ATOM     15  H6  UNL     1       0.128   1.787   0.747  1.00  0.00     0.203 HD
BRANCH  14  16
HETATM   16  C5  UNL     1      -1.463   0.402   0.406  1.00  0.00     0.688 C 
HETATM   17  N7  UNL     1      -1.918  -0.363   1.331  1.00  0.00    -0.226 N 
HETATM   18  C6  UNL     1      -3.208  -0.967   1.559  1.00  0.00     0.138 C 
ATOM     19  H7  UNL     1      -1.229  -0.589   2.049  1.00  0.00     0.177 HD
HETATM   20  C7  UNL     1      -4.332  -0.107   1.072  1.00  0.00     0.022 C 
HETATM   21  C8  UNL     1      -4.378  -0.128  -0.446  1.00  0.00     0.022 C 
HETATM   22  C9  UNL     1      -3.584   1.071  -0.921  1.00  0.00     0.138 C 
HETATM   23  N8  UNL     1      -2.164   0.894  -0.727  1.00  0.00    -0.226 N 
ATOM     24  H8  UNL     1      -1.579   1.161  -1.519  1.00  0.00     0.177 HD
ENDBRANCH  14  16
ENDBRANCH  12  14
BRANCH  13  25
HETATM   25  O1  UNL     1       2.698   1.501   0.645  1.00  0.00    -0.111 OA
BRANCH  25  26
HETATM   26  S1  UNL     1       2.541   2.742  -0.512  1.00  0.00     0.377 S 
HETATM   27  O2  UNL     1       1.525   2.396  -1.550  1.00  0.00    -0.174 OA
HETATM   28  O3  UNL     1       3.873   2.871  -1.200  1.00  0.00    -0.174 OA
BRANCH  26  29
HETATM   29  N10 UNL     1       2.056   4.230   0.217  1.00  0.00    -0.304 N 
ATOM     30 2H10 UNL     1       1.888   4.337   1.217  1.00  0.00     0.171 HD
ATOM     31 1H10 UNL     1       1.962   4.973  -0.476  1.00  0.00     0.171 HD
ENDBRANCH  26  29
ENDBRANCH  25  26
ENDBRANCH  13  25
BRANCH   1  32
HETATM   32  N1  UNL     1       5.862  -2.638  -0.460  1.00  0.00    -0.233 N 
ATOM     33  H12 UNL     1       6.532  -1.892  -0.275  1.00  0.00     0.174 HD
ATOM     34  H11 UNL     1       6.195  -3.571  -0.704  1.00  0.00     0.174 HD
ENDBRANCH   1  32
TORSDOF 6
