REMARK  5 active torsions:
REMARK  status: ('A' for Active; 'I' for Inactive)
REMARK    1  A    between atoms: O1_2  and  C2_3 
REMARK    2  A    between atoms: C2_3  and  C3_4 
REMARK    3  A    between atoms: C3_4  and  N1_5 
REMARK       I    between atoms: C4_7  and  N3_9 
REMARK    4  A    between atoms: N3_9  and  N4_11 
REMARK    5  A    between atoms: C5_13  and  C6_14 
ROOT
HETATM    1  N4  UNL     1      -1.013   0.393  -0.541  1.00  0.00    -0.309 N 
ATOM      2  H4  UNL     1      -0.854  -0.612  -0.472  1.00  0.00     0.186 HD
HETATM    3  C5  UNL     1      -2.220   0.823  -0.461  1.00  0.00     0.122 C 
ENDROOT
BRANCH   1   4
HETATM    4  N3  UNL     1       0.084   1.218  -0.716  1.00  0.00    -0.274 N 
HETATM    5  C4  UNL     1       1.279   0.967   0.003  1.00  0.00     0.203 C 
HETATM    6  N1  UNL     1       2.418   0.815  -0.570  1.00  0.00    -0.361 N 
HETATM    7  N2  UNL     1       1.253   0.872   1.422  1.00  0.00    -0.062 NA
ATOM      8  H1  UNL     1       2.463   0.878  -1.587  1.00  0.00     0.162 HD
ATOM      9  H3  UNL     1       0.033   2.006  -1.362  1.00  0.00     0.189 HD
BRANCH   6  10
HETATM   10  C3  UNL     1       3.643   0.558   0.160  1.00  0.00     0.148 C 
BRANCH  10  11
HETATM   11  C2  UNL     1       3.987  -0.888  -0.027  1.00  0.00     0.186 C 
BRANCH  11  12
HETATM   12  O1  UNL     1       5.136  -1.300   0.612  1.00  0.00    -0.394 OA
HETATM   13  C1  UNL     1       6.280  -0.630   0.206  1.00  0.00     0.201 C 
ENDBRANCH  11  12
ENDBRANCH  10  11
ENDBRANCH   6  10
ENDBRANCH   1   4
BRANCH   3  14
HETATM   14  C6  UNL     1      -3.360  -0.063  -0.276  1.00  0.00     0.028 A 
HETATM   15  C7  UNL     1      -3.251  -1.451  -0.170  1.00  0.00     0.035 A 
HETATM   16  C8  UNL     1      -1.975  -2.212  -0.230  1.00  0.00     0.070 C 
HETATM   17  N5  UNL     1      -4.510  -1.890  -0.012  1.00  0.00    -0.304 N 
HETATM   18  N6  UNL     1      -5.357  -0.862  -0.016  1.00  0.00    -0.304 N 
ATOM     19  H5  UNL     1      -4.779  -2.868   0.095  1.00  0.00     0.186 HD
HETATM   20  C9  UNL     1      -4.688   0.292  -0.178  1.00  0.00     0.035 A 
ATOM     21  H6  UNL     1      -6.369  -0.940   0.089  1.00  0.00     0.186 HD
HETATM   22  C10 UNL     1      -5.212   1.680  -0.243  1.00  0.00     0.070 C 
ENDBRANCH   3  14
TORSDOF 5
