REMARK  8 active torsions:
REMARK  status: ('A' for Active; 'I' for Inactive)
REMARK    1  A    between atoms: C2_2  and  N1_3 
REMARK    2  A    between atoms: N1_3  and  C3_4 
REMARK    3  A    between atoms: N1_3  and  C9_17 
REMARK    4  A    between atoms: C3_4  and  C4_5 
REMARK    5  A    between atoms: C4_5  and  S1_6 
REMARK    6  A    between atoms: S1_6  and  C5_7 
REMARK    7  A    between atoms: C6_10  and  C7_11 
REMARK    8  A    between atoms: C11_26  and  N6_27 
ROOT
HETATM    1  C9  UNL     1      -0.614   0.528   0.183  1.00  0.00     0.709 A 
HETATM    2  N3  UNL     1      -0.615   1.277   1.313  1.00  0.00    -0.022 N 
ATOM      3  H3  UNL     1       0.288   1.537   1.710  1.00  0.00     0.203 HD
HETATM    4  C10 UNL     1      -1.701   1.693   1.935  1.00  0.00     0.705 A 
HETATM    5  N4  UNL     1      -1.724   2.390   3.024  1.00  0.00    -0.234 N 
ATOM      6  H41 UNL     1      -2.564   2.712   3.505  1.00  0.00     0.174 HD
ATOM      7  H42 UNL     1      -0.823   2.650   3.425  1.00  0.00     0.174 HD
HETATM    8  N5  UNL     1      -2.916   1.343   1.395  1.00  0.00    -0.022 N 
ATOM      9  H5  UNL     1      -3.772   1.653   1.855  1.00  0.00     0.203 HD
HETATM   10  C11 UNL     1      -3.004   0.599   0.271  1.00  0.00     0.709 A 
HETATM   11  N7  UNL     1      -1.850   0.227  -0.284  1.00  0.00    -0.021 N 
ATOM     12  H7  UNL     1      -1.902  -0.333  -1.135  1.00  0.00     0.203 HD
ENDROOT
BRANCH   1  13
HETATM   13  N1  UNL     1       0.527   0.099  -0.530  1.00  0.00    -0.216 N 
BRANCH  13  14
HETATM   14  C2  UNL     1       0.366  -1.148  -1.332  1.00  0.00     0.137 C 
HETATM   15  C1  UNL     1       1.345  -2.160  -0.732  1.00  0.00     0.027 C 
ENDBRANCH  13  14
BRANCH  13  16
HETATM   16  C3  UNL     1       1.786   0.752  -0.633  1.00  0.00     0.151 C 
BRANCH  16  17
HETATM   17  C4  UNL     1       2.066   1.956   0.175  1.00  0.00     0.101 C 
BRANCH  17  18
HETATM   18  S1  UNL     1       3.787   2.454  -0.309  1.00  0.00    -0.103 SA
BRANCH  18  19
HETATM   19  C5  UNL     1       4.873   1.120   0.275  1.00  0.00     0.112 A 
HETATM   20  N2  UNL     1       6.169   0.991   0.042  1.00  0.00    -0.341 N 
HETATM   21  C6  UNL     1       6.814  -0.028   0.537  1.00  0.00     0.124 A 
ATOM     22  H2  UNL     1       6.661   1.685  -0.522  1.00  0.00     0.167 HD
HETATM   23  C8  UNL     1       6.103  -0.926   1.289  1.00  0.00     0.086 A 
HETATM   24  S2  UNL     1       4.537  -0.244   1.230  1.00  0.00    -0.075 SA
BRANCH  21  25
HETATM   25  C7  UNL     1       8.302  -0.217   0.255  1.00  0.00     0.433 C 
HETATM   26  F1  UNL     1       8.398  -0.593  -1.077  1.00  0.00    -0.165 F 
HETATM   27  F2  UNL     1       8.805  -1.154   1.091  1.00  0.00    -0.165 F 
HETATM   28  F3  UNL     1       8.989   0.964   0.425  1.00  0.00    -0.165 F 
ENDBRANCH  21  25
ENDBRANCH  18  19
ENDBRANCH  17  18
ENDBRANCH  16  17
ENDBRANCH  13  16
ENDBRANCH   1  13
BRANCH  10  29
HETATM   29  N6  UNL     1      -4.273   0.259  -0.238  1.00  0.00    -0.213 N 
HETATM   30  C12 UNL     1      -4.484  -0.604  -1.379  1.00  0.00     0.167 C 
HETATM   31  C13 UNL     1      -5.230  -1.838  -0.879  1.00  0.00     0.188 C 
HETATM   32  O1  UNL     1      -6.129  -1.514   0.118  1.00  0.00    -0.388 OA
HETATM   33  C14 UNL     1      -6.592  -0.227   0.059  1.00  0.00     0.188 C 
HETATM   34  C15 UNL     1      -5.477   0.791   0.381  1.00  0.00     0.167 C 
ENDBRANCH  10  29
TORSDOF 8
