REMARK  0 active torsions:
REMARK  status: ('A' for Active; 'I' for Inactive)
ROOT
HETATM    1  C1  UNL     1      -1.859  -1.612   0.772  1.00  0.00     0.054 C 
HETATM    2  C2  UNL     1      -2.401  -0.593  -0.202  1.00  0.00     0.234 C 
HETATM    3  N1  UNL     1      -2.592   0.684   0.458  1.00  0.00    -0.073 N 
ATOM      4  H11 UNL     1      -2.295   0.641   1.433  1.00  0.00     0.277 HD
ATOM      5  H12 UNL     1      -3.583   0.880   0.596  1.00  0.00     0.277 HD
HETATM    6  C3  UNL     1      -1.939   1.771  -0.236  1.00  0.00     0.258 C 
HETATM    7  C4  UNL     1      -0.513   1.986   0.256  1.00  0.00     0.195 C 
HETATM    8  O1  UNL     1       0.304   2.009  -0.843  1.00  0.00    -0.387 OA
HETATM    9  C5  UNL     1       1.597   2.423  -0.590  1.00  0.00     0.193 C 
HETATM   10  C6  UNL     1       2.468   1.280  -0.064  1.00  0.00     0.193 C 
HETATM   11  O2  UNL     1       1.686   0.149  -0.064  1.00  0.00    -0.387 OA
HETATM   12  C7  UNL     1       2.382  -1.032  -0.171  1.00  0.00     0.193 C 
HETATM   13  C8  UNL     1       1.359  -2.112  -0.544  1.00  0.00     0.193 C 
HETATM   14  O3  UNL     1       0.458  -2.157   0.536  1.00  0.00    -0.389 OA
HETATM   15  C9  UNL     1      -0.815  -2.513   0.134  1.00  0.00     0.169 C 
ENDROOT
TORSDOF 0
