REMARK  2 active torsions:
REMARK  status: ('A' for Active; 'I' for Inactive)
REMARK    1  A    between atoms: C4_4  and  O1_5 
REMARK    2  A    between atoms: C9_11  and  O2_12 
ROOT
HETATM    1  C1  UNL     1      -1.942  -0.334  -0.996  1.00  0.00     0.018 C 
HETATM    2  C2  UNL     1      -0.925  -0.251   0.095  1.00  0.00    -0.015 C 
HETATM    3  C3  UNL     1      -1.560  -0.713   1.360  1.00  0.00     0.018 C 
HETATM    4  C4  UNL     1      -0.437   1.201   0.216  1.00  0.00     0.133 C 
HETATM    5  C5  UNL     1       1.003   1.176  -0.214  1.00  0.00     0.044 C 
HETATM    6  C6  UNL     1       1.796   0.526   0.894  1.00  0.00     0.010 C 
HETATM    7  C7  UNL     1       1.357  -0.939   0.819  1.00  0.00     0.009 C 
HETATM    8  C8  UNL     1       0.335  -0.994  -0.271  1.00  0.00     0.025 C 
HETATM    9  C9  UNL     1       0.973   0.027  -1.236  1.00  0.00     0.129 C 
ENDROOT
BRANCH   4  10
HETATM   10  O1  UNL     1      -1.202   2.049  -0.560  1.00  0.00    -0.394 OA
ATOM     11  H1  UNL     1      -0.900   2.947  -0.485  1.00  0.00     0.210 HD
ENDBRANCH   4  10
BRANCH   9  12
HETATM   12  O2  UNL     1       2.230  -0.440  -1.523  1.00  0.00    -0.395 OA
ATOM     13  H2  UNL     1       2.211  -1.150  -2.154  1.00  0.00     0.210 HD
ENDBRANCH   9  12
TORSDOF 2
