REMARK  2 active torsions:
REMARK  status: ('A' for Active; 'I' for Inactive)
REMARK    1  A    between atoms: C3_3  and  N1_4 
REMARK    2  A    between atoms: N2_8  and  C7_9 
ROOT
HETATM    1  N1  UNL     1      -1.461   0.289  -0.426  1.00  0.00    -0.363 N 
HETATM    2  C4  UNL     1      -1.006   1.164  -1.485  1.00  0.00     0.126 C 
HETATM    3  C5  UNL     1       0.174   1.943  -1.024  1.00  0.00     0.040 C 
HETATM    4  C6  UNL     1       1.461   1.119  -1.154  1.00  0.00     0.126 C 
HETATM    5  N2  UNL     1       1.600   0.217  -0.044  1.00  0.00    -0.368 N 
HETATM    6  C13 UNL     1       0.585  -0.194   0.884  1.00  0.00     0.144 C 
HETATM    7  C14 UNL     1      -0.645  -0.725   0.229  1.00  0.00     0.144 C 
ENDROOT
BRANCH   1   8
HETATM    8  C3  UNL     1      -2.812   0.410   0.009  1.00  0.00     0.144 C 
HETATM    9  C2  UNL     1      -3.500   1.441   0.433  1.00  0.00     0.049 C 
HETATM   10  C1  UNL     1      -2.932   2.827   0.551  1.00  0.00     0.072 C 
HETATM   11  N9  UNL     1      -4.850   1.058   0.765  1.00  0.00    -0.354 N 
HETATM   12  C15 UNL     1      -5.071  -0.206   0.096  1.00  0.00     0.324 C 
ATOM     13  H9  UNL     1      -5.511   1.571   1.349  1.00  0.00     0.163 HD
HETATM   14  N4  UNL     1      -3.706  -0.715   0.040  1.00  0.00    -0.221 N 
HETATM   15  N8  UNL     1      -5.887  -1.105   0.865  1.00  0.00    -0.079 NA
HETATM   16  N5  UNL     1      -3.555  -2.101   0.028  1.00  0.00    -0.001 NA
HETATM   17  N6  UNL     1      -4.748  -2.638  -0.467  1.00  0.00     0.004 NA
HETATM   18  N7  UNL     1      -5.851  -2.360   0.302  1.00  0.00    -0.229 N 
ATOM     19  H7  UNL     1      -6.597  -3.041   0.447  1.00  0.00     0.201 HD
ENDBRANCH   1   8
BRANCH   5  20
HETATM   20  C7  UNL     1       2.875  -0.326   0.156  1.00  0.00     0.099 C 
HETATM   21  N3  UNL     1       3.579  -0.919  -0.757  1.00  0.00    -0.371 N 
HETATM   22  C8  UNL     1       4.879  -1.414  -0.349  1.00  0.00     0.112 C 
ATOM     23  H3  UNL     1       3.237  -1.031  -1.711  1.00  0.00     0.161 HD
HETATM   24  C9  UNL     1       5.970  -1.174  -1.402  1.00  0.00     0.030 C 
HETATM   25  C11 UNL     1       5.594  -0.398   0.512  1.00  0.00     0.144 C 
HETATM   26  C10 UNL     1       6.114   0.226  -0.789  1.00  0.00     0.036 C 
HETATM   27  O1  UNL     1       4.766   0.405   1.251  1.00  0.00    -0.376 OA
HETATM   28  C12 UNL     1       3.541  -0.253   1.506  1.00  0.00     0.244 C 
ENDBRANCH   5  20
TORSDOF 2
