REMARK  8 active torsions:
REMARK  status: ('A' for Active; 'I' for Inactive)
REMARK    1  A    between atoms: C3_3  and  O1_4 
REMARK    2  A    between atoms: C5_6  and  O2_7 
REMARK    3  A    between atoms: N1_13  and  O3_15 
REMARK    4  A    between atoms: O3_15  and  C10_16 
REMARK    5  A    between atoms: C10_16  and  O5_18 
REMARK    6  A    between atoms: C12_20  and  O6_21 
REMARK    7  A    between atoms: C13_23  and  O7_24 
REMARK    8  A    between atoms: C14_26  and  O8_27 
ROOT
HETATM    1  C1  UNL     1      -2.994   0.024   1.725  1.00  0.00     0.017 C 
HETATM    2  C2  UNL     1      -2.417  -0.007   0.565  1.00  0.00    -0.051 C 
HETATM    3  C3  UNL     1      -2.852   0.878  -0.541  1.00  0.00     0.178 C 
HETATM    4  C5  UNL     1      -1.796   0.945  -1.628  1.00  0.00     0.155 C 
HETATM    5  C6  UNL     1      -0.403   0.903  -1.130  1.00  0.00     0.024 C 
HETATM    6  C7  UNL     1       0.126   2.329  -0.907  1.00  0.00     0.013 C 
HETATM    7  C8  UNL     1      -0.111   0.031   0.033  1.00  0.00     0.053 C 
HETATM    8  C9  UNL     1       1.179  -0.651  -0.025  1.00  0.00     0.047 C 
HETATM    9  N1  UNL     1       2.158  -0.048  -0.622  1.00  0.00    -0.261 N 
ATOM     10  H1  UNL     1       1.981   0.873  -1.023  1.00  0.00     0.194 HD
HETATM   11  C12 UNL     1       1.465  -1.982   0.545  1.00  0.00     0.197 C 
HETATM   12  C13 UNL     1       0.194  -2.758   0.819  1.00  0.00     0.182 C 
HETATM   13  C14 UNL     1      -0.899  -1.835   1.377  1.00  0.00     0.158 C 
HETATM   14  C15 UNL     1      -1.293  -0.914   0.268  1.00  0.00     0.058 C 
ENDROOT
BRANCH   9  15
HETATM   15  O3  UNL     1       3.412  -0.573  -0.746  1.00  0.00    -0.175 OA
BRANCH  15  16
HETATM   16  C10 UNL     1       4.517   0.190  -0.390  1.00  0.00     0.428 C 
HETATM   17  O4  UNL     1       4.314   1.354   0.040  1.00  0.00    -0.227 OA
BRANCH  16  18
HETATM   18  O5  UNL     1       5.823  -0.287  -0.492  1.00  0.00    -0.302 OA
HETATM   19  C11 UNL     1       6.934   0.536  -0.113  1.00  0.00     0.215 C 
ENDBRANCH  16  18
ENDBRANCH  15  16
ENDBRANCH   9  15
BRANCH  11  20
HETATM   20  O6  UNL     1       2.257  -1.904   1.705  1.00  0.00    -0.387 OA
ATOM     21  H6  UNL     1       2.441  -2.761   2.072  1.00  0.00     0.210 HD
ENDBRANCH  11  20
BRANCH  12  22
HETATM   22  O7  UNL     1       0.401  -3.845   1.631  1.00  0.00    -0.390 OA
ATOM     23  H7  UNL     1      -0.396  -4.332   1.803  1.00  0.00     0.210 HD
ENDBRANCH  12  22
BRANCH   4  24
HETATM   24  O2  UNL     1      -1.996   2.147  -2.307  1.00  0.00    -0.392 OA
ATOM     25  H2  UNL     1      -1.335   2.189  -2.988  1.00  0.00     0.210 HD
ENDBRANCH   4  24
BRANCH  13  26
HETATM   26  O8  UNL     1      -1.939  -2.689   1.755  1.00  0.00    -0.392 OA
ATOM     27  H8  UNL     1      -2.615  -2.118   2.100  1.00  0.00     0.210 HD
ENDBRANCH  13  26
BRANCH   3  28
HETATM   28  O1  UNL     1      -3.192   2.144  -0.124  1.00  0.00    -0.384 OA
HETATM   29  C4  UNL     1      -4.548   2.415  -0.405  1.00  0.00     0.202 C 
ENDBRANCH   3  28
TORSDOF 8
