REMARK  9 active torsions:
REMARK  status: ('A' for Active; 'I' for Inactive)
REMARK    1  A    between atoms: C5_5  and  N1_6 
REMARK       I    between atoms: C6_8  and  N2_9 
REMARK       I    between atoms: C6_8  and  N6_30 
REMARK    2  A    between atoms: N2_9  and  N3_11 
REMARK    3  A    between atoms: N3_11  and  C7_13 
REMARK    4  A    between atoms: C7_13  and  N4_15 
REMARK    5  A    between atoms: N4_15  and  C8_17 
REMARK    6  A    between atoms: C8_17  and  C10_19 
REMARK       I    between atoms: C10_19  and  N5_21 
REMARK    7  A    between atoms: N5_21  and  C11_23 
REMARK    8  A    between atoms: C11_23  and  C12_24 
REMARK    9  A    between atoms: N6_30  and  C18_32 
ROOT
HETATM    1  N1  UNL     1      -1.942  -1.076  -0.591  1.00  0.00    -0.191 N 
ATOM      2  H1  UNL     1      -0.982  -1.331  -0.823  1.00  0.00     0.184 HD
HETATM    3  C6  UNL     1      -2.230   0.162  -0.499  1.00  0.00     0.693 C 
HETATM    4  N2  UNL     1      -1.201   1.131  -0.724  1.00  0.00    -0.130 N 
ATOM      5  H2  UNL     1      -1.265   1.770  -1.517  1.00  0.00     0.205 HD
HETATM    6  N6  UNL     1      -3.517   0.639  -0.181  1.00  0.00    -0.220 N 
ATOM      7  H6  UNL     1      -4.115   0.107   0.451  1.00  0.00     0.178 HD
ENDROOT
BRANCH   4   8
HETATM    8  N3  UNL     1      -0.091   1.201   0.159  1.00  0.00    -0.262 N 
ATOM      9  H3  UNL     1       0.324   0.358   0.555  1.00  0.00     0.190 HD
BRANCH   8  10
HETATM   10  C7  UNL     1       0.415   2.478   0.467  1.00  0.00     0.187 C 
HETATM   11  S1  UNL     1      -0.286   3.795  -0.194  1.00  0.00    -0.040 SA
BRANCH  10  12
HETATM   12  N4  UNL     1       1.509   2.630   1.331  1.00  0.00    -0.353 N 
ATOM     13  H4  UNL     1       1.822   3.584   1.512  1.00  0.00     0.162 HD
BRANCH  12  14
HETATM   14  C8  UNL     1       2.233   1.576   1.987  1.00  0.00     0.172 C 
HETATM   15  C9  UNL     1       1.428   0.701   2.878  1.00  0.00     0.042 C 
BRANCH  14  16
HETATM   16  C10 UNL     1       3.011   0.729   0.982  1.00  0.00     0.240 C 
HETATM   17  O1  UNL     1       2.956   1.039  -0.216  1.00  0.00    -0.271 OA
HETATM   18  N5  UNL     1       3.727  -0.337   1.503  1.00  0.00    -0.359 N 
ATOM     19  H5  UNL     1       3.650  -0.476   2.511  1.00  0.00     0.162 HD
BRANCH  18  20
HETATM   20  C11 UNL     1       4.549  -1.254   0.814  1.00  0.00     0.127 C 
BRANCH  20  21
HETATM   21  C12 UNL     1       5.849  -0.803   0.254  1.00  0.00     0.003 C 
HETATM   22  C13 UNL     1       6.455  -2.034  -0.421  1.00  0.00     0.006 C 
HETATM   23  C14 UNL     1       7.669  -1.791  -1.215  1.00  0.00     0.000 C 
HETATM   24  C15 UNL     1       7.702  -0.453  -1.915  1.00  0.00     0.000 C 
HETATM   25  C16 UNL     1       7.363   0.651  -0.941  1.00  0.00     0.000 C 
HETATM   26  C17 UNL     1       5.868   0.397  -0.569  1.00  0.00     0.006 C 
ENDBRANCH  20  21
ENDBRANCH  18  20
ENDBRANCH  14  16
ENDBRANCH  12  14
ENDBRANCH  10  12
ENDBRANCH   8  10
ENDBRANCH   4   8
BRANCH   1  27
HETATM   27  C5  UNL     1      -2.878  -2.116  -0.389  1.00  0.00     0.049 A 
HETATM   28  C4  UNL     1      -4.119  -2.155  -0.977  1.00  0.00     0.030 A 
HETATM   29  C3  UNL     1      -4.999  -3.216  -0.733  1.00  0.00     0.009 A 
HETATM   30  C2  UNL     1      -4.662  -4.259   0.102  1.00  0.00    -0.062 A 
HETATM   31  C1  UNL     1      -5.604  -5.386   0.357  1.00  0.00     0.048 C 
HETATM   32  C25 UNL     1      -3.417  -4.227   0.697  1.00  0.00     0.009 A 
HETATM   33  C24 UNL     1      -2.550  -3.183   0.457  1.00  0.00     0.030 A 
ENDBRANCH   1  27
BRANCH   6  34
HETATM   34  C18 UNL     1      -3.988   1.872  -0.744  1.00  0.00     0.099 C 
HETATM   35  C19 UNL     1      -5.373   2.182  -0.207  1.00  0.00     0.026 C 
HETATM   36  C20 UNL     1      -6.077   3.192  -1.065  1.00  0.00     0.002 C 
HETATM   37  C21 UNL     1      -5.154   3.978  -1.965  1.00  0.00     0.000 C 
HETATM   38  C22 UNL     1      -4.340   3.070  -2.865  1.00  0.00     0.002 C 
HETATM   39  C23 UNL     1      -4.126   1.713  -2.229  1.00  0.00     0.026 C 
ENDBRANCH   6  34
TORSDOF 9
