REMARK  5 active torsions:
REMARK  status: ('A' for Active; 'I' for Inactive)
REMARK    1  A    between atoms: C2_2  and  O1_4 
REMARK    2  A    between atoms: C2_2  and  C4_6 
REMARK    3  A    between atoms: C4_6  and  S1_9 
REMARK    4  A    between atoms: S1_9  and  C7_10 
REMARK    5  A    between atoms: C7_10  and  C8_11 
ROOT
HETATM    1  S1  UNL     1      -0.307  -0.816   0.818  1.00  0.00    -0.155 SA
ENDROOT
BRANCH   1   2
HETATM    2  C4  UNL     1      -1.418   0.254  -0.085  1.00  0.00     0.031 C 
HETATM    3  C5  UNL     1      -1.856   1.363   0.865  1.00  0.00     0.030 C 
HETATM    4  C6  UNL     1      -0.774   0.892  -1.273  1.00  0.00     0.030 C 
BRANCH   2   5
HETATM    5  C2  UNL     1      -2.608  -0.606  -0.481  1.00  0.00     0.067 C 
HETATM    6  C1  UNL     1      -3.685   0.140  -1.167  1.00  0.00     0.047 C 
HETATM    7  C3  UNL     1      -3.109  -1.300   0.765  1.00  0.00     0.047 C 
BRANCH   5   8
HETATM    8  O1  UNL     1      -2.141  -1.614  -1.344  1.00  0.00    -0.389 OA
ATOM      9  H1  UNL     1      -1.449  -2.093  -0.903  1.00  0.00     0.210 HD
ENDBRANCH   5   8
ENDBRANCH   2   5
ENDBRANCH   1   2
BRANCH   1  10
HETATM   10  C7  UNL     1       1.139  -0.083   1.515  1.00  0.00     0.107 C 
BRANCH  10  11
HETATM   11  C8  UNL     1       2.122   0.319   0.452  1.00  0.00     0.195 C 
HETATM   12  C9  UNL     1       2.564  -0.858  -0.357  1.00  0.00     0.035 C 
HETATM   13  C10 UNL     1       4.022  -0.599  -0.602  1.00  0.00     0.029 C 
HETATM   14  C11 UNL     1       4.455   0.430   0.387  1.00  0.00     0.233 C 
HETATM   15  N1  UNL     1       3.307   0.846   1.126  1.00  0.00    -0.070 N 
ATOM     16  H12 UNL     1       3.268   1.856   1.260  1.00  0.00     0.277 HD
ATOM     17  H11 UNL     1       3.353   0.580   2.110  1.00  0.00     0.277 HD
ENDBRANCH  10  11
ENDBRANCH   1  10
TORSDOF 5
