REMARK  17 active torsions:
REMARK  status: ('A' for Active; 'I' for Inactive)
REMARK    1  A    between atoms: C2_2  and  C3_3 
REMARK    2  A    between atoms: C3_3  and  C5_5 
REMARK    3  A    between atoms: C5_5  and  N1_6 
REMARK    4  A    between atoms: C5_5  and  C11_22 
REMARK       I    between atoms: N1_6  and  C6_8 
REMARK    5  A    between atoms: C6_8  and  C7_10 
REMARK    6  A    between atoms: C7_10  and  N2_11 
REMARK    7  A    between atoms: C7_10  and  C8_15 
REMARK    8  A    between atoms: C8_15  and  C9_16 
REMARK    9  A    between atoms: C9_16  and  C10_17 
REMARK   10  A    between atoms: C10_17  and  N3_18 
REMARK   11  A    between atoms: C11_22  and  N5_26 
REMARK   12  A    between atoms: N5_26  and  C12_28 
REMARK   13  A    between atoms: N6_31  and  C15_32 
REMARK   14  A    between atoms: C15_32  and  C17_34 
REMARK   15  A    between atoms: C18_35  and  C19_36 
REMARK   16  A    between atoms: C19_36  and  C20_37 
REMARK       I    between atoms: N7_40  and  C23_41 
REMARK   17  A    between atoms: C23_41  and  C24_43 
ROOT
HETATM    1  C11 UNL     1      -2.395  -1.348   0.401  1.00  0.00     0.094 C 
HETATM    2  N4  UNL     1      -2.022  -1.178   1.612  1.00  0.00    -0.387 N 
ATOM      3  H41 UNL     1      -1.040  -1.205   1.888  1.00  0.00     0.157 HD
ATOM      4  H42 UNL     1      -2.755  -1.013   2.302  1.00  0.00     0.157 HD
ENDROOT
BRANCH   1   5
HETATM    5  C5  UNL     1      -3.798  -1.310   0.007  1.00  0.00     0.155 C 
BRANCH   5   6
HETATM    6  C3  UNL     1      -4.593  -2.553   0.077  1.00  0.00     0.011 C 
HETATM    7  C4  UNL     1      -5.253  -2.822   1.420  1.00  0.00     0.012 C 
BRANCH   6   8
HETATM    8  C2  UNL     1      -4.030  -3.785  -0.539  1.00  0.00     0.002 C 
HETATM    9  C1  UNL     1      -3.000  -4.510   0.259  1.00  0.00     0.005 C 
ENDBRANCH   6   8
ENDBRANCH   5   6
BRANCH   5  10
HETATM   10  N1  UNL     1      -4.554  -0.262   0.683  1.00  0.00    -0.347 N 
HETATM   11  C6  UNL     1      -5.137   0.825  -0.007  1.00  0.00     0.248 C 
HETATM   12  O1  UNL     1      -4.997   0.893  -1.259  1.00  0.00    -0.271 OA
ATOM     13  H1  UNL     1      -4.667  -0.316   1.695  1.00  0.00     0.163 HD
BRANCH  11  14
HETATM   14  C7  UNL     1      -5.889   1.839   0.767  1.00  0.00     0.274 C 
BRANCH  14  15
HETATM   15  N2  UNL     1      -5.902   1.516   2.168  1.00  0.00    -0.067 N 
ATOM     16  H23 UNL     1      -6.261   0.575   2.333  1.00  0.00     0.275 HD
ATOM     17  H22 UNL     1      -4.958   1.389   2.533  1.00  0.00     0.275 HD
ATOM     18  H21 UNL     1      -6.420   2.214   2.701  1.00  0.00     0.275 HD
ENDBRANCH  14  15
BRANCH  14  19
HETATM   19  C8  UNL     1      -7.323   1.951   0.273  1.00  0.00     0.044 C 
BRANCH  19  20
HETATM   20  C9  UNL     1      -8.090   2.974   1.052  1.00  0.00     0.030 C 
BRANCH  20  21
HETATM   21  C10 UNL     1      -9.507   3.036   0.496  1.00  0.00     0.230 C 
BRANCH  21  22
HETATM   22  N3  UNL     1     -10.227   4.025   1.261  1.00  0.00    -0.079 N 
ATOM     23  H33 UNL     1     -10.200   3.849   2.265  1.00  0.00     0.274 HD
ATOM     24  H32 UNL     1      -9.764   4.934   1.274  1.00  0.00     0.274 HD
ATOM     25  H31 UNL     1     -11.176   4.067   0.889  1.00  0.00     0.274 HD
ENDBRANCH  21  22
ENDBRANCH  20  21
ENDBRANCH  19  20
ENDBRANCH  14  19
ENDBRANCH  11  14
ENDBRANCH   5  10
ENDBRANCH   1   5
BRANCH   1  26
HETATM   26  N5  UNL     1      -1.367  -1.579  -0.567  1.00  0.00    -0.374 N 
ATOM     27  H5  UNL     1      -0.907  -2.489  -0.595  1.00  0.00     0.161 HD
BRANCH  26  28
HETATM   28  C12 UNL     1      -0.963  -0.556  -1.507  1.00  0.00     0.086 C 
HETATM   29  C13 UNL     1      -0.358   0.642  -0.816  1.00  0.00     0.055 C 
HETATM   30  C14 UNL     1       0.985   0.327  -0.191  1.00  0.00     0.275 C 
HETATM   31  N6  UNL     1       1.720  -0.694  -0.905  1.00  0.00     0.096 N 
HETATM   32  C26 UNL     1       1.396  -0.528  -2.326  1.00  0.00     0.275 C 
HETATM   33  C27 UNL     1      -0.003  -1.129  -2.491  1.00  0.00     0.055 C 
BRANCH  31  34
HETATM   34  C15 UNL     1       3.192  -0.319  -0.858  1.00  0.00     0.241 C 
HETATM   35  C16 UNL     1       3.826  -1.590  -1.510  1.00  0.00     0.047 C 
BRANCH  34  36
HETATM   36  C17 UNL     1       3.624  -0.264   0.541  1.00  0.00     0.004 C 
HETATM   37  C18 UNL     1       4.907   0.183   1.036  1.00  0.00    -0.028 C 
BRANCH  37  38
HETATM   38  C19 UNL     1       6.242  -0.269   0.673  1.00  0.00     0.033 C 
BRANCH  38  39
HETATM   39  C20 UNL     1       6.809   0.056  -0.662  1.00  0.00     0.009 C 
HETATM   40  C21 UNL     1       6.868   1.584  -0.840  1.00  0.00     0.026 C 
HETATM   41  C22 UNL     1       7.917   1.932   0.179  1.00  0.00     0.126 C 
HETATM   42  N7  UNL     1       8.830   0.799   0.190  1.00  0.00    -0.350 N 
HETATM   43  C23 UNL     1      10.056   0.767   0.901  1.00  0.00     0.248 C 
HETATM   44  C25 UNL     1       8.331  -0.290  -0.614  1.00  0.00     0.130 C 
HETATM   45  O2  UNL     1      10.817  -0.243   0.877  1.00  0.00    -0.271 OA
BRANCH  43  46
HETATM   46  C24 UNL     1      10.522   1.926   1.720  1.00  0.00     0.325 C 
HETATM   47  F1  UNL     1      11.278   2.750   0.901  1.00  0.00    -0.246 F 
ENDBRANCH  43  46
ENDBRANCH  38  39
ENDBRANCH  37  38
ENDBRANCH  34  36
ENDBRANCH  31  34
ENDBRANCH  26  28
ENDBRANCH   1  26
TORSDOF 17
