REMARK  18 active torsions:
REMARK  status: ('A' for Active; 'I' for Inactive)
REMARK    1  A    between atoms: N1_1  and  C1_5 
REMARK    2  A    between atoms: C1_5  and  C2_6 
REMARK    3  A    between atoms: C2_6  and  C3_7 
REMARK    4  A    between atoms: C3_7  and  C4_8 
REMARK    5  A    between atoms: C4_8  and  C5_9 
REMARK    6  A    between atoms: C5_9  and  N2_10 
REMARK    7  A    between atoms: C7_15  and  N4_16 
REMARK    8  A    between atoms: N4_16  and  C8_18 
REMARK    9  A    between atoms: C8_18  and  C9_19 
REMARK   10  A    between atoms: C9_19  and  C10_20 
REMARK   11  A    between atoms: C10_20  and  N5_21 
REMARK   12  A    between atoms: C11_27  and  N7_28 
REMARK   13  A    between atoms: N7_28  and  C12_30 
REMARK   14  A    between atoms: C12_30  and  C13_31 
REMARK   15  A    between atoms: C13_31  and  C14_32 
REMARK   16  A    between atoms: C14_32  and  C15_33 
REMARK   17  A    between atoms: C15_33  and  C16_34 
REMARK   18  A    between atoms: C16_34  and  N8_35 
ROOT
HETATM    1  N2  UNL     1       1.878  -0.316  -0.759  1.00  0.00    -0.225 N 
ATOM      2  H2  UNL     1       2.639   0.361  -0.712  1.00  0.00     0.177 HD
HETATM    3  C6  UNL     1       0.710   0.171  -0.804  1.00  0.00     0.707 A 
HETATM    4  N3  UNL     1       0.623   1.536  -0.784  1.00  0.00    -0.022 N 
ATOM      5  H3  UNL     1       1.477   2.092  -0.735  1.00  0.00     0.203 HD
HETATM    6  C7  UNL     1      -0.563   2.155  -0.827  1.00  0.00     0.707 A 
HETATM    7  N6  UNL     1      -1.694   1.435  -0.891  1.00  0.00    -0.022 N 
ATOM      8  H6  UNL     1      -2.595   1.913  -0.924  1.00  0.00     0.203 HD
HETATM    9  C11 UNL     1      -1.653   0.088  -0.912  1.00  0.00     0.707 A 
HETATM   10  N9  UNL     1      -0.445  -0.499  -0.868  1.00  0.00    -0.022 N 
ATOM     11  H9  UNL     1      -0.407  -1.518  -0.884  1.00  0.00     0.203 HD
ENDROOT
BRANCH   1  12
HETATM   12  C5  UNL     1       2.268  -1.689  -0.765  1.00  0.00     0.138 C 
BRANCH  12  13
HETATM   13  C4  UNL     1       3.401  -1.839   0.253  1.00  0.00     0.020 C 
BRANCH  13  14
HETATM   14  C3  UNL     1       3.886  -3.260   0.319  1.00  0.00     0.003 C 
BRANCH  14  15
HETATM   15  C2  UNL     1       4.998  -3.363   1.335  1.00  0.00     0.027 C 
BRANCH  15  16
HETATM   16  C1  UNL     1       6.183  -2.497   1.011  1.00  0.00     0.229 C 
BRANCH  16  17
HETATM   17  N1  UNL     1       7.182  -2.679   2.048  1.00  0.00    -0.079 N 
ATOM     18  H13 UNL     1       6.813  -2.504   2.983  1.00  0.00     0.274 HD
ATOM     19  H12 UNL     1       7.436  -3.658   2.179  1.00  0.00     0.274 HD
ATOM     20  H11 UNL     1       7.986  -2.091   1.828  1.00  0.00     0.274 HD
ENDBRANCH  16  17
ENDBRANCH  15  16
ENDBRANCH  14  15
ENDBRANCH  13  14
ENDBRANCH  12  13
ENDBRANCH   1  12
BRANCH   6  21
HETATM   21  N4  UNL     1      -0.656   3.434  -0.808  1.00  0.00    -0.225 N 
ATOM     22  H4  UNL     1      -1.570   3.885  -0.841  1.00  0.00     0.177 HD
BRANCH  21  23
HETATM   23  C8  UNL     1       0.545   4.228  -0.739  1.00  0.00     0.139 C 
BRANCH  23  24
HETATM   24  C9  UNL     1       0.262   5.707  -0.760  1.00  0.00     0.047 C 
BRANCH  24  25
HETATM   25  C10 UNL     1       1.617   6.411  -0.681  1.00  0.00     0.231 C 
BRANCH  25  26
HETATM   26  N5  UNL     1       2.221   5.976   0.570  1.00  0.00    -0.079 N 
ATOM     27  H53 UNL     1       1.630   6.137   1.385  1.00  0.00     0.274 HD
ATOM     28  H52 UNL     1       2.283   4.962   0.662  1.00  0.00     0.274 HD
ATOM     29  H51 UNL     1       3.125   6.446   0.623  1.00  0.00     0.274 HD
ENDBRANCH  25  26
ENDBRANCH  24  25
ENDBRANCH  23  24
ENDBRANCH  21  23
ENDBRANCH   6  21
BRANCH   9  30
HETATM   30  N7  UNL     1      -2.717  -0.621  -0.972  1.00  0.00    -0.225 N 
ATOM     31  H7  UNL     1      -3.613  -0.135  -1.004  1.00  0.00     0.177 HD
BRANCH  30  32
HETATM   32  C12 UNL     1      -2.730  -2.048  -0.997  1.00  0.00     0.138 C 
BRANCH  32  33
HETATM   33  C13 UNL     1      -4.106  -2.596  -1.090  1.00  0.00     0.020 C 
BRANCH  33  34
HETATM   34  C14 UNL     1      -4.986  -2.272   0.055  1.00  0.00     0.003 C 
BRANCH  34  35
HETATM   35  C15 UNL     1      -5.270  -0.846   0.353  1.00  0.00     0.027 C 
BRANCH  35  36
HETATM   36  C16 UNL     1      -6.252  -0.845   1.558  1.00  0.00     0.229 C 
BRANCH  36  37
HETATM   37  N8  UNL     1      -7.448  -1.566   1.148  1.00  0.00    -0.079 N 
ATOM     38  H83 UNL     1      -7.865  -1.193   0.295  1.00  0.00     0.274 HD
ATOM     39  H82 UNL     1      -7.247  -2.503   0.799  1.00  0.00     0.274 HD
ATOM     40  H81 UNL     1      -8.092  -1.565   1.939  1.00  0.00     0.274 HD
ENDBRANCH  36  37
ENDBRANCH  35  36
ENDBRANCH  34  35
ENDBRANCH  33  34
ENDBRANCH  32  33
ENDBRANCH  30  32
ENDBRANCH   9  30
TORSDOF 18
