REMARK  6 active torsions:
REMARK  status: ('A' for Active; 'I' for Inactive)
REMARK    1  A    between atoms: O1_2  and  C2_3 
REMARK    2  A    between atoms: C2_3  and  C3_4 
REMARK    3  A    between atoms: C13_22  and  N5_23 
REMARK    4  A    between atoms: N5_23  and  C14_25 
REMARK    5  A    between atoms: C18_31  and  C19_32 
REMARK    6  A    between atoms: C19_32  and  O2_33 
ROOT
HETATM    1  C3  UNL     1      -4.710   0.709   0.344  1.00  0.00    -0.003 A 
HETATM    2  C4  UNL     1      -5.977   0.918   0.911  1.00  0.00     0.100 A 
HETATM    3  N1  UNL     1      -6.695  -0.200   0.858  1.00  0.00    -0.351 N 
ATOM      4  H1  UNL     1      -7.648  -0.306   1.205  1.00  0.00     0.166 HD
HETATM    5  C5  UNL     1      -5.967  -1.167   0.276  1.00  0.00     0.119 A 
HETATM    6  N2  UNL     1      -6.227  -2.459   0.024  1.00  0.00    -0.338 N 
ATOM      7  H2  UNL     1      -7.133  -2.861   0.262  1.00  0.00     0.168 HD
HETATM    8  C6  UNL     1      -5.278  -3.211  -0.545  1.00  0.00     0.182 A 
HETATM    9  N3  UNL     1      -4.081  -2.734  -0.876  1.00  0.00    -0.351 N 
ATOM     10  H3  UNL     1      -3.394  -3.352  -1.307  1.00  0.00     0.166 HD
HETATM   11  C7  UNL     1      -3.758  -1.411  -0.642  1.00  0.00     0.058 A 
HETATM   12  C8  UNL     1      -2.427  -0.973  -0.984  1.00  0.00    -0.006 A 
HETATM   13  C9  UNL     1      -2.122  -0.163  -2.036  1.00  0.00     0.015 A 
HETATM   14  C10 UNL     1      -0.848   0.258  -2.365  1.00  0.00     0.016 A 
HETATM   15  C11 UNL     1       0.195  -0.171  -1.574  1.00  0.00     0.007 A 
HETATM   16  C12 UNL     1       1.477   0.234  -1.880  1.00  0.00     0.120 A 
HETATM   17  N4  UNL     1       2.492  -0.198  -1.089  1.00  0.00    -0.201 N 
ATOM     18  H4  UNL     1       3.446   0.092  -1.302  1.00  0.00     0.183 HD
HETATM   19  C13 UNL     1       2.271  -0.997  -0.035  1.00  0.00     0.683 A 
HETATM   20  N6  UNL     1       1.006  -1.378   0.241  1.00  0.00    -0.191 N 
ATOM     21  H6  UNL     1       0.847  -1.986   1.044  1.00  0.00     0.184 HD
HETATM   22  C21 UNL     1      -0.055  -0.995  -0.491  1.00  0.00     0.061 A 
HETATM   23  C22 UNL     1      -1.338  -1.386  -0.205  1.00  0.00     0.044 A 
HETATM   24  C23 UNL     1      -4.712  -0.614  -0.057  1.00  0.00     0.045 A 
ENDROOT
BRANCH   1  25
HETATM   25  C2  UNL     1      -3.652   1.697   0.148  1.00  0.00     0.208 C 
BRANCH  25  26
HETATM   26  O1  UNL     1      -4.014   2.880   0.844  1.00  0.00    -0.391 OA
HETATM   27  C1  UNL     1      -3.914   2.692   2.209  1.00  0.00     0.201 C 
ENDBRANCH  25  26
ENDBRANCH   1  25
BRANCH  19  28
HETATM   28  N5  UNL     1       3.240  -1.392   0.696  1.00  0.00    -0.189 N 
ATOM     29  H5  UNL     1       3.050  -2.000   1.493  1.00  0.00     0.184 HD
BRANCH  28  30
HETATM   30  C14 UNL     1       4.581  -1.001   0.421  1.00  0.00     0.091 A 
HETATM   31  C15 UNL     1       5.327  -1.653  -0.538  1.00  0.00     0.078 A 
HETATM   32  C16 UNL     1       6.618  -1.232  -0.762  1.00  0.00     0.157 A 
HETATM   33  F1  UNL     1       7.369  -1.857  -1.699  1.00  0.00    -0.203 F 
HETATM   34  C17 UNL     1       7.136  -0.173  -0.027  1.00  0.00     0.166 A 
HETATM   35  F2  UNL     1       8.401   0.220  -0.265  1.00  0.00    -0.202 F 
HETATM   36  C18 UNL     1       6.391   0.477   0.929  1.00  0.00     0.048 A 
HETATM   37  C20 UNL     1       5.106   0.061   1.154  1.00  0.00     0.155 A 
HETATM   38  F3  UNL     1       4.333   0.670   2.087  1.00  0.00    -0.203 F 
BRANCH  36  39
HETATM   39  C19 UNL     1       6.946   1.612   1.717  1.00  0.00     0.209 C 
BRANCH  39  40
HETATM   40  O2  UNL     1       6.004   2.088   2.606  1.00  0.00    -0.396 OA
ATOM     41  H2  UNL     1       6.358   2.812   3.109  1.00  0.00     0.209 HD
ENDBRANCH  39  40
ENDBRANCH  36  39
ENDBRANCH  28  30
ENDBRANCH  19  28
TORSDOF 6
