REMARK  16 active torsions:
REMARK  status: ('A' for Active; 'I' for Inactive)
REMARK    1  A    between atoms: C2_2  and  O1_3 
REMARK    2  A    between atoms: C2_2  and  C3_5 
REMARK    3  A    between atoms: C3_5  and  C4_6 
REMARK    4  A    between atoms: C3_5  and  C11_35 
REMARK    5  A    between atoms: C4_6  and  O2_7 
REMARK    6  A    between atoms: O2_7  and  S1_8 
REMARK    7  A    between atoms: S1_8  and  C6_11 
REMARK    8  A    between atoms: C7_15  and  N2_16 
REMARK    9  A    between atoms: C8_22  and  C9_23 
REMARK   10  A    between atoms: C9_23  and  O4_24 
REMARK   11  A    between atoms: C10_30  and  N6_31 
REMARK   12  A    between atoms: C11_35  and  C12_36 
REMARK   13  A    between atoms: C11_35  and  O6_39 
REMARK   14  A    between atoms: C12_36  and  O5_37 
REMARK   15  A    between atoms: O6_39  and  C13_40 
REMARK   16  A    between atoms: C16_45  and  O7_46 
ROOT
HETATM    1  S1  UNL     1      -0.883  -1.200   1.253  1.00  0.00     0.091 S 
HETATM    2  C5  UNL     1      -1.951  -1.311   2.794  1.00  0.00     0.146 C 
HETATM    3  O3  UNL     1      -0.899  -3.140   0.362  1.00  0.00    -0.241 OA
ENDROOT
BRANCH   1   4
HETATM    4  O2  UNL     1       0.080  -0.139   0.576  1.00  0.00    -0.274 OA
BRANCH   4   5
HETATM    5  C4  UNL     1       1.147   0.456   1.237  1.00  0.00     0.166 C 
BRANCH   5   6
HETATM    6  C3  UNL     1       1.962   1.401   0.506  1.00  0.00     0.025 C 
BRANCH   6   7
HETATM    7  C2  UNL     1       1.797   1.761  -0.732  1.00  0.00     0.050 C 
HETATM    8  C1  UNL     1       0.714   1.215  -1.568  1.00  0.00     0.076 C 
BRANCH   7   9
HETATM    9  O1  UNL     1       2.644   2.707  -1.358  1.00  0.00    -0.365 OA
ATOM     10  H1  UNL     1       3.342   3.059  -0.819  1.00  0.00     0.217 HD
ENDBRANCH   7   9
ENDBRANCH   6   7
BRANCH   6  11
HETATM   11  C11 UNL     1       3.087   2.033   1.300  1.00  0.00     0.193 C 
BRANCH  11  12
HETATM   12  C12 UNL     1       3.366   1.306   2.594  1.00  0.00     0.201 C 
BRANCH  12  13
HETATM   13  O5  UNL     1       3.939   0.060   2.474  1.00  0.00    -0.398 OA
ATOM     14  H5  UNL     1       4.115  -0.397   3.288  1.00  0.00     0.209 HD
ENDBRANCH  12  13
ENDBRANCH  11  12
BRANCH  11  15
HETATM   15  O6  UNL     1       4.234   2.259   0.556  1.00  0.00    -0.310 OA
BRANCH  15  16
HETATM   16  C13 UNL     1       5.011   1.313  -0.070  1.00  0.00     0.218 C 
HETATM   17  N7  UNL     1       4.611   0.128  -0.327  1.00  0.00    -0.348 N 
HETATM   18  C14 UNL     1       5.660  -0.645  -0.998  1.00  0.00     0.129 C 
ATOM     19  H7  UNL     1       3.685  -0.233  -0.096  1.00  0.00     0.163 HD
HETATM   20  C15 UNL     1       5.717  -2.063  -0.512  1.00  0.00     0.036 C 
HETATM   21  C16 UNL     1       6.919   0.130  -0.578  1.00  0.00     0.243 C 
HETATM   22  N8  UNL     1       6.369   1.468  -0.539  1.00  0.00    -0.328 N 
ATOM     23  H8  UNL     1       6.840   2.337  -0.790  1.00  0.00     0.165 HD
BRANCH  21  24
HETATM   24  O7  UNL     1       7.917  -0.001  -1.533  1.00  0.00    -0.375 OA
ATOM     25  H7  UNL     1       8.695   0.478  -1.273  1.00  0.00     0.212 HD
ENDBRANCH  21  24
ENDBRANCH  15  16
ENDBRANCH  11  15
ENDBRANCH   6  11
ENDBRANCH   5   6
ENDBRANCH   4   5
ENDBRANCH   1   4
BRANCH   1  26
HETATM   26  C6  UNL     1      -2.302  -0.957   0.048  1.00  0.00     0.347 C 
HETATM   27  N1  UNL     1      -3.478  -1.827   0.263  1.00  0.00    -0.009 N 
HETATM   28  C7  UNL     1      -4.238  -2.019  -0.930  1.00  0.00     0.481 C 
ATOM     29  H12 UNL     1      -3.205  -2.720   0.673  1.00  0.00     0.283 HD
ATOM     30  H11 UNL     1      -4.064  -1.473   1.019  1.00  0.00     0.283 HD
HETATM   31  N3  UNL     1      -4.162  -0.968  -1.882  1.00  0.00    -0.350 N 
HETATM   32  C8  UNL     1      -4.882   0.218  -1.587  1.00  0.00     0.219 C 
ATOM     33  H3  UNL     1      -3.615  -1.062  -2.738  1.00  0.00     0.159 HD
HETATM   34  N4  UNL     1      -5.216   0.450  -0.244  1.00  0.00    -0.314 N 
HETATM   35  N5  UNL     1      -4.240   0.457   0.694  1.00  0.00    -0.306 N 
ATOM     36  H4  UNL     1      -6.187   0.612   0.023  1.00  0.00     0.182 HD
HETATM   37  C10 UNL     1      -2.895   0.452   0.264  1.00  0.00     0.341 C 
ATOM     38  H5  UNL     1      -4.471   0.466   1.688  1.00  0.00     0.182 HD
BRANCH  28  39
HETATM   39  N2  UNL     1      -5.594  -2.368  -0.539  1.00  0.00    -0.033 N 
ATOM     40  H23 UNL     1      -5.631  -3.171   0.088  1.00  0.00     0.278 HD
ATOM     41  H22 UNL     1      -6.013  -1.685   0.092  1.00  0.00     0.278 HD
ATOM     42  H21 UNL     1      -6.137  -2.505  -1.391  1.00  0.00     0.278 HD
ENDBRANCH  28  39
BRANCH  32  43
HETATM   43  C9  UNL     1      -6.190   0.172  -2.394  1.00  0.00     0.211 C 
BRANCH  43  44
HETATM   44  O4  UNL     1      -6.938   1.338  -2.128  1.00  0.00    -0.397 OA
ATOM     45  H4  UNL     1      -7.746   1.310  -2.627  1.00  0.00     0.209 HD
ENDBRANCH  43  44
ENDBRANCH  32  43
BRANCH  37  46
HETATM   46  N6  UNL     1      -2.114   1.198   1.254  1.00  0.00    -0.054 N 
ATOM     47  H63 UNL     1      -2.029   0.686   2.132  1.00  0.00     0.276 HD
ATOM     48  H62 UNL     1      -1.126   1.238   1.003  1.00  0.00     0.276 HD
ATOM     49  H61 UNL     1      -2.506   2.129   1.397  1.00  0.00     0.276 HD
ENDBRANCH  37  46
ENDBRANCH   1  26
TORSDOF 16
