REMARK  3 active torsions:
REMARK  status: ('A' for Active; 'I' for Inactive)
REMARK    1  A    between atoms: C1_2  and  N1_3 
REMARK    2  A    between atoms: C1_2  and  C9_15 
REMARK    3  A    between atoms: N1_3  and  C2_5 
ROOT
HETATM    1  S1  UNL     1      -0.160  -2.462   0.918  1.00  0.00    -0.059 SA
HETATM    2  C1  UNL     1       0.111  -1.340  -0.233  1.00  0.00     0.113 C 
ENDROOT
BRANCH   2   3
HETATM    3  N1  UNL     1      -0.922  -0.798  -1.038  1.00  0.00    -0.327 N 
ATOM      4  H1  UNL     1      -0.784  -0.648  -2.038  1.00  0.00     0.169 HD
BRANCH   3   5
HETATM    5  C2  UNL     1      -2.065  -0.493  -0.458  1.00  0.00     0.150 A 
HETATM    6  N2  UNL     1      -3.156   0.023  -1.029  1.00  0.00    -0.335 N 
HETATM    7  C3  UNL     1      -4.203   0.257  -0.278  1.00  0.00     0.051 A 
ATOM      8  H2  UNL     1      -3.174   0.230  -2.028  1.00  0.00     0.168 HD
HETATM    9  C4  UNL     1      -5.439   0.795  -0.690  1.00  0.00     0.031 A 
HETATM   10  C8  UNL     1      -4.122  -0.041   1.050  1.00  0.00     0.035 A 
HETATM   11  C5  UNL     1      -6.457   0.995   0.176  1.00  0.00     0.002 A 
HETATM   12  C6  UNL     1      -6.376   0.695   1.516  1.00  0.00     0.002 A 
HETATM   13  C7  UNL     1      -5.171   0.164   1.949  1.00  0.00     0.021 A 
HETATM   14  S2  UNL     1      -2.532  -0.651   1.176  1.00  0.00    -0.052 SA
ENDBRANCH   3   5
ENDBRANCH   2   3
BRANCH   2  15
HETATM   15  C9  UNL     1       1.465  -0.859  -0.462  1.00  0.00     0.003 A 
HETATM   16  C10 UNL     1       1.897  -0.512  -1.732  1.00  0.00     0.015 A 
HETATM   17  C11 UNL     1       3.155  -0.058  -1.992  1.00  0.00     0.013 A 
HETATM   18  C12 UNL     1       4.049   0.067  -0.952  1.00  0.00    -0.026 A 
HETATM   19  C13 UNL     1       5.339   0.525  -1.175  1.00  0.00     0.012 A 
HETATM   20  C17 UNL     1       3.656  -0.270   0.334  1.00  0.00    -0.025 A 
HETATM   21  C14 UNL     1       6.209   0.642  -0.136  1.00  0.00     0.001 A 
HETATM   22  C15 UNL     1       5.821   0.308   1.147  1.00  0.00     0.001 A 
HETATM   23  C16 UNL     1       4.557  -0.141   1.364  1.00  0.00     0.012 A 
HETATM   24  C18 UNL     1       2.357  -0.733   0.565  1.00  0.00     0.027 A 
ENDBRANCH   2  15
TORSDOF 3
