REMARK  2 active torsions:
REMARK  status: ('A' for Active; 'I' for Inactive)
REMARK       I    between atoms: C1_2  and  N4_13 
REMARK       I    between atoms: N2_3  and  C2_5 
REMARK       I    between atoms: C2_5  and  N3_7 
REMARK    1  A    between atoms: N4_13  and  C8_15 
REMARK    2  A    between atoms: C8_15  and  C9_16 
ROOT
HETATM    1  N1  UNL     1      -0.744   0.369   1.381  1.00  0.00    -0.063 NA
HETATM    2  C1  UNL     1      -1.022  -0.739   0.534  1.00  0.00     0.192 C 
HETATM    3  N2  UNL     1      -0.099  -1.657   0.426  1.00  0.00    -0.283 N 
ATOM      4  H2  UNL     1      -0.268  -2.464  -0.174  1.00  0.00     0.173 HD
HETATM    5  C2  UNL     1       1.137  -1.558   1.125  1.00  0.00     0.324 C 
HETATM    6  O1  UNL     1       1.241  -2.094   2.273  1.00  0.00    -0.247 OA
HETATM    7  N3  UNL     1       2.266  -0.896   0.614  1.00  0.00    -0.334 N 
HETATM    8  C3  UNL     1       3.484  -0.828   1.363  1.00  0.00     0.127 C 
HETATM    9  C4  UNL     1       4.115   0.538   1.359  1.00  0.00     0.020 C 
HETATM   10  C5  UNL     1       4.165   1.153  -0.012  1.00  0.00     0.003 C 
HETATM   11  C6  UNL     1       2.855   1.069  -0.746  1.00  0.00     0.020 C 
HETATM   12  C7  UNL     1       2.206  -0.272  -0.679  1.00  0.00     0.127 C 
HETATM   13  N4  UNL     1      -2.242  -0.873  -0.179  1.00  0.00    -0.364 N 
ATOM     14  H4  UNL     1      -2.727  -1.770  -0.207  1.00  0.00     0.162 HD
ENDROOT
BRANCH  13  15
HETATM   15  C8  UNL     1      -2.783   0.262  -0.856  1.00  0.00     0.127 C 
BRANCH  15  16
HETATM   16  C9  UNL     1      -4.068  -0.009  -1.569  1.00  0.00     0.003 A 
HETATM   17  C10 UNL     1      -5.272  -0.473  -0.868  1.00  0.00     0.007 A 
HETATM   18  C11 UNL     1      -5.173   0.985  -1.267  1.00  0.00     0.007 A 
ENDBRANCH  15  16
ENDBRANCH  13  15
TORSDOF 2
