REMARK  2 active torsions:
REMARK  status: ('A' for Active; 'I' for Inactive)
REMARK       I    between atoms: C1_4  and  N2_5 
REMARK       I    between atoms: C1_4  and  N3_12 
REMARK    1  A    between atoms: N2_5  and  C2_7 
REMARK    2  A    between atoms: C9_15  and  C10_16 
ROOT
HETATM    1  N1  UNL     1       0.875   1.830  -1.803  1.00  0.00    -0.235 N 
ATOM      2  H11 UNL     1       0.171   1.929  -2.534  1.00  0.00     0.174 HD
ATOM      3  H12 UNL     1       1.804   2.234  -1.922  1.00  0.00     0.174 HD
HETATM    4  C1  UNL     1       0.550   1.187  -0.741  1.00  0.00     0.670 C 
HETATM    5  N2  UNL     1       1.531   1.049   0.278  1.00  0.00    -0.222 N 
ATOM      6  H2  UNL     1       1.672   1.823   0.927  1.00  0.00     0.178 HD
HETATM    7  N3  UNL     1      -0.742   0.625  -0.575  1.00  0.00    -0.218 N 
HETATM    8  C7  UNL     1      -1.283   0.304   0.719  1.00  0.00     0.142 C 
HETATM    9  C8  UNL     1      -2.309  -0.781   0.663  1.00  0.00     0.034 C 
HETATM   10  C9  UNL     1      -3.333  -0.621  -0.403  1.00  0.00     0.078 C 
HETATM   11  C11 UNL     1      -3.010   0.577  -1.292  1.00  0.00     0.034 C 
HETATM   12  C12 UNL     1      -1.557   0.361  -1.741  1.00  0.00     0.142 C 
ENDROOT
BRANCH   5  13
HETATM   13  C2  UNL     1       2.326  -0.124   0.433  1.00  0.00     0.099 C 
HETATM   14  C3  UNL     1       3.171  -0.444  -0.781  1.00  0.00     0.026 C 
HETATM   15  C4  UNL     1       4.490  -0.976  -0.259  1.00  0.00     0.002 C 
HETATM   16  C5  UNL     1       4.277  -1.121   1.242  1.00  0.00     0.002 C 
HETATM   17  C6  UNL     1       3.369   0.092   1.495  1.00  0.00     0.026 C 
ENDBRANCH   5  13
BRANCH  10  18
HETATM   18  C10 UNL     1      -4.718  -0.521   0.135  1.00  0.00     0.235 C 
HETATM   19  N4  UNL     1      -5.113   0.506   1.026  1.00  0.00    -0.062 NA
HETATM   20  O1  UNL     1      -5.623  -1.361  -0.182  1.00  0.00    -0.277 OA
ENDBRANCH  10  18
TORSDOF 2
