REMARK  6 active torsions:
REMARK  status: ('A' for Active; 'I' for Inactive)
REMARK    1  A    between atoms: N2_7  and  C5_8 
REMARK    2  A    between atoms: C5_8  and  C6_9 
REMARK    3  A    between atoms: C6_9  and  O1_10 
REMARK    4  A    between atoms: C6_9  and  C7_12 
REMARK    5  A    between atoms: C7_12  and  N3_13 
REMARK    6  A    between atoms: C11_19  and  C12_20 
ROOT
HETATM    1  C1  UNL     1      -1.248  -5.477  -1.207  1.00  0.00     0.049 C 
HETATM    2  C2  UNL     1      -1.022  -4.038  -1.068  1.00  0.00    -0.052 A 
HETATM    3  C3  UNL     1       0.091  -3.379  -1.604  1.00  0.00     0.039 A 
HETATM    4  C4  UNL     1       0.300  -2.027  -1.471  1.00  0.00     0.064 A 
HETATM    5  N1  UNL     1       1.233  -1.125  -1.855  1.00  0.00    -0.296 N 
ATOM      6  H1  UNL     1       2.072  -1.336  -2.395  1.00  0.00     0.187 HD
HETATM    7  N2  UNL     1       0.880   0.085  -1.415  1.00  0.00    -0.273 N 
HETATM    8  C10 UNL     1      -0.290  -0.006  -0.736  1.00  0.00     0.137 A 
HETATM    9  N4  UNL     1      -0.993   0.963  -0.135  1.00  0.00    -0.334 N 
ATOM     10  H4  UNL     1      -0.616   1.910  -0.179  1.00  0.00     0.168 HD
HETATM   11  C11 UNL     1      -2.151   0.792   0.520  1.00  0.00     0.090 A 
HETATM   12  S1  UNL     1      -2.788  -0.816   0.595  1.00  0.00    -0.070 SA
HETATM   13  C17 UNL     1      -1.742  -1.910  -0.234  1.00  0.00     0.029 A 
HETATM   14  C18 UNL     1      -1.943  -3.266  -0.374  1.00  0.00    -0.038 A 
HETATM   15  C19 UNL     1      -3.168  -3.821   0.250  1.00  0.00     0.050 C 
HETATM   16  C20 UNL     1      -0.640  -1.319  -0.777  1.00  0.00     0.055 A 
ENDROOT
BRANCH  11  17
HETATM   17  C12 UNL     1      -2.870   1.887   1.150  1.00  0.00     0.045 A 
HETATM   18  C13 UNL     1      -2.468   3.187   1.165  1.00  0.00     0.037 A 
HETATM   19  C14 UNL     1      -1.233   3.747   0.555  1.00  0.00     0.070 C 
HETATM   20  N5  UNL     1      -3.412   3.862   1.844  1.00  0.00    -0.304 N 
HETATM   21  N6  UNL     1      -4.379   3.066   2.255  1.00  0.00    -0.304 N 
ATOM     22  H5  UNL     1      -3.383   4.866   2.019  1.00  0.00     0.186 HD
HETATM   23  C15 UNL     1      -4.055   1.816   1.827  1.00  0.00     0.037 A 
ATOM     24  H6  UNL     1      -5.206   3.334   2.788  1.00  0.00     0.186 HD
HETATM   25  C16 UNL     1      -4.873   0.599   2.071  1.00  0.00     0.070 C 
ENDBRANCH  11  17
BRANCH   7  26
HETATM   26  C5  UNL     1       1.632   1.294  -1.636  1.00  0.00     0.188 C 
BRANCH  26  27
HETATM   27  C6  UNL     1       2.637   1.532  -0.536  1.00  0.00     0.176 C 
BRANCH  27  28
HETATM   28  O1  UNL     1       3.304   2.737  -0.866  1.00  0.00    -0.389 OA
ATOM     29  H1  UNL     1       3.937   2.887  -0.173  1.00  0.00     0.210 HD
ENDBRANCH  27  28
BRANCH  27  30
HETATM   30  C7  UNL     1       3.737   0.471  -0.561  1.00  0.00     0.090 C 
BRANCH  30  31
HETATM   31  N3  UNL     1       4.721   0.825   0.384  1.00  0.00    -0.399 N 
HETATM   32  C8  UNL     1       4.416   0.783   1.752  1.00  0.00     0.148 C 
HETATM   33  C9  UNL     1       5.937   1.371  -0.053  1.00  0.00     0.148 C 
ENDBRANCH  30  31
ENDBRANCH  27  30
ENDBRANCH  26  27
ENDBRANCH   7  26
TORSDOF 6
