REMARK  2 active torsions:
REMARK  status: ('A' for Active; 'I' for Inactive)
REMARK    1  A    between atoms: N1_2  and  N2_3 
REMARK       I    between atoms: N2_3  and  C2_5 
REMARK       I    between atoms: C2_5  and  N3_7 
REMARK    2  A    between atoms: C5_17  and  C6_18 
ROOT
HETATM    1  N2  UNL     1      -4.797   0.104  -0.576  1.00  0.00    -0.255 N 
ATOM      2  H2  UNL     1      -4.683  -0.232  -1.532  1.00  0.00     0.187 HD
HETATM    3  C2  UNL     1      -3.705   0.313   0.244  1.00  0.00     0.359 C 
HETATM    4  O1  UNL     1      -3.974   0.735   1.428  1.00  0.00    -0.244 OA
HETATM    5  N3  UNL     1      -2.336   0.124  -0.051  1.00  0.00    -0.056 N 
HETATM    6  C3  UNL     1      -1.819  -0.299  -1.209  1.00  0.00     0.691 A 
HETATM    7  N4  UNL     1      -2.599  -0.577  -2.187  1.00  0.00    -0.234 N 
ATOM      8  H41 UNL     1      -2.205  -0.900  -3.071  1.00  0.00     0.174 HD
ATOM      9  H42 UNL     1      -3.602  -0.465  -2.039  1.00  0.00     0.174 HD
HETATM   10  N5  UNL     1      -0.468  -0.450  -1.409  1.00  0.00    -0.174 N 
ATOM     11  H5  UNL     1      -0.138  -0.775  -2.318  1.00  0.00     0.186 HD
HETATM   12  C4  UNL     1       0.419  -0.189  -0.465  1.00  0.00     0.156 A 
HETATM   13  N6  UNL     1       1.750  -0.313  -0.593  1.00  0.00    -0.323 N 
ATOM     14  H6  UNL     1       2.140  -0.635  -1.479  1.00  0.00     0.169 HD
HETATM   15  C5  UNL     1       2.577  -0.020   0.425  1.00  0.00     0.156 A 
HETATM   16  N8  UNL     1       2.090   0.405   1.598  1.00  0.00    -0.282 N 
ATOM     17  H8  UNL     1       2.730   0.625   2.362  1.00  0.00     0.188 HD
HETATM   18  N9  UNL     1       0.790   0.542   1.774  1.00  0.00    -0.291 N 
ATOM     19  H9  UNL     1       0.421   0.864   2.669  1.00  0.00     0.187 HD
HETATM   20  C10 UNL     1      -0.052   0.248   0.748  1.00  0.00     0.162 A 
HETATM   21  C11 UNL     1      -1.404   0.390   0.917  1.00  0.00     0.302 A 
HETATM   22  O2  UNL     1      -1.832   0.795   2.040  1.00  0.00    -0.264 OA
ENDROOT
BRANCH  15  23
HETATM   23  C6  UNL     1       4.041  -0.150   0.270  1.00  0.00     0.120 A 
HETATM   24  N7  UNL     1       4.976   0.098   1.171  1.00  0.00    -0.351 N 
HETATM   25  C7  UNL     1       6.221  -0.064   0.866  1.00  0.00     0.012 A 
ATOM     26  H7  UNL     1       4.715   0.416   2.104  1.00  0.00     0.166 HD
HETATM   27  C8  UNL     1       7.336   0.205   1.861  1.00  0.00     0.068 C 
HETATM   28  C9  UNL     1       6.520  -0.493  -0.402  1.00  0.00     0.076 A 
HETATM   29  S1  UNL     1       4.957  -0.638  -1.085  1.00  0.00    -0.079 SA
ENDBRANCH  15  23
BRANCH   1  30
HETATM   30  N1  UNL     1      -6.094   0.375  -0.036  1.00  0.00    -0.142 NA
HETATM   31  C1  UNL     1      -7.138  -0.247  -0.819  1.00  0.00     0.159 C 
ENDBRANCH   1  30
TORSDOF 2
