REMARK  2 active torsions:
REMARK  status: ('A' for Active; 'I' for Inactive)
REMARK    1  A    between atoms: C4_7  and  C5_8 
REMARK    2  A    between atoms: C11_28  and  N9_29 
ROOT
HETATM    1  C1  UNL     1      -2.544   2.960  -0.752  1.00  0.00     0.070 C 
HETATM    2  C2  UNL     1      -1.776   1.706  -0.469  1.00  0.00     0.035 A 
HETATM    3  N1  UNL     1      -0.456   1.687  -0.345  1.00  0.00    -0.338 N 
ATOM      4  H1  UNL     1       0.061   2.560  -0.446  1.00  0.00     0.168 HD
HETATM    5  C3  UNL     1       0.220   0.561  -0.092  1.00  0.00     0.167 A 
HETATM    6  O1  UNL     1       1.523   0.578   0.024  1.00  0.00    -0.272 OA
HETATM    7  C4  UNL     1       2.210  -0.506   0.271  1.00  0.00     0.199 A 
HETATM    8  N6  UNL     1       1.610  -1.691   0.418  1.00  0.00    -0.300 N 
ATOM      9  H6  UNL     1       2.171  -2.521   0.611  1.00  0.00     0.171 HD
HETATM   10  C7  UNL     1       0.240  -1.803   0.311  1.00  0.00     0.263 A 
HETATM   11  O2  UNL     1      -0.178  -2.915   0.462  1.00  0.00    -0.267 OA
HETATM   12  C8  UNL     1      -0.437  -0.665   0.056  1.00  0.00     0.100 A 
HETATM   13  C9  UNL     1      -1.825  -0.670  -0.070  1.00  0.00     0.057 A 
HETATM   14  C10 UNL     1      -2.530  -1.822   0.062  1.00  0.00     0.128 A 
HETATM   15  N7  UNL     1      -2.058  -2.951   0.296  1.00  0.00    -0.384 N 
ATOM     16  H71 UNL     1      -2.588  -3.817   0.395  1.00  0.00     0.157 HD
ATOM     17  H72 UNL     1      -1.045  -3.016   0.400  1.00  0.00     0.157 HD
HETATM   18  N8  UNL     1      -3.894  -1.734  -0.078  1.00  0.00    -0.176 N 
ATOM     19  H8  UNL     1      -4.449  -2.585   0.016  1.00  0.00     0.186 HD
HETATM   20  C11 UNL     1      -4.525  -0.587  -0.331  1.00  0.00     0.678 A 
HETATM   21  N10 UNL     1      -3.820   0.540  -0.458  1.00  0.00    -0.189 N 
ATOM     22  H10 UNL     1      -4.307   1.415  -0.652  1.00  0.00     0.184 HD
HETATM   23  C12 UNL     1      -2.503   0.545  -0.338  1.00  0.00     0.086 A 
ENDROOT
BRANCH   7  24
HETATM   24  C5  UNL     1       3.652  -0.359   0.378  1.00  0.00     0.187 A 
HETATM   25  N2  UNL     1       4.487  -1.383   0.628  1.00  0.00    -0.263 N 
HETATM   26  N3  UNL     1       5.719  -0.905   0.659  1.00  0.00    -0.003 NA
ATOM     27  H2  UNL     1       4.217  -2.357   0.769  1.00  0.00     0.186 HD
HETATM   28  N4  UNL     1       5.694   0.396   0.436  1.00  0.00    -0.221 N 
HETATM   29  C6  UNL     1       6.858   1.247   0.398  1.00  0.00     0.197 C 
HETATM   30  N5  UNL     1       4.420   0.714   0.266  1.00  0.00    -0.266 N 
ATOM     31  H5  UNL     1       4.077   1.656   0.075  1.00  0.00     0.190 HD
ENDBRANCH   7  24
BRANCH  20  32
HETATM   32  N9  UNL     1      -5.793  -0.606  -0.443  1.00  0.00    -0.234 N 
ATOM     33  H92 UNL     1      -6.331  -1.467  -0.346  1.00  0.00     0.174 HD
ATOM     34  H91 UNL     1      -6.276   0.271  -0.637  1.00  0.00     0.174 HD
ENDBRANCH  20  32
TORSDOF 2
