REMARK  11 active torsions:
REMARK  status: ('A' for Active; 'I' for Inactive)
REMARK    1  A    between atoms: C2_2  and  C3_3 
REMARK    2  A    between atoms: C3_3  and  N1_4 
REMARK    3  A    between atoms: N1_4  and  C4_6 
REMARK    4  A    between atoms: C4_6  and  C5_12 
REMARK    5  A    between atoms: N2_7  and  N3_9 
REMARK    6  A    between atoms: C6_16  and  C7_17 
REMARK    7  A    between atoms: N5_18  and  C8_20 
REMARK    8  A    between atoms: C8_20  and  C9_21 
REMARK    9  A    between atoms: C9_21  and  N6_22 
REMARK   10  A    between atoms: N6_22  and  N7_24 
REMARK   11  A    between atoms: N7_24  and  N8_25 
ROOT
HETATM    1  C5  UNL     1      -0.409  -0.497   0.169  1.00  0.00     0.290 A 
HETATM    2  N4  UNL     1      -0.030   0.436  -0.895  1.00  0.00    -0.050 N 
ATOM      3  H41 UNL     1       0.212   1.426  -0.941  1.00  0.00     0.279 HD
ATOM      4  H42 UNL     1      -0.510   0.878  -1.679  1.00  0.00     0.279 HD
HETATM    5  C6  UNL     1       0.715  -0.817  -0.694  1.00  0.00     0.262 A 
ENDROOT
BRANCH   1   6
HETATM    6  C4  UNL     1      -1.707  -1.185   0.019  1.00  0.00     0.125 C 
HETATM    7  N2  UNL     1      -1.735  -2.456  -0.037  1.00  0.00    -0.294 N 
ATOM      8  H2  UNL     1      -0.839  -2.939   0.027  1.00  0.00     0.187 HD
BRANCH   6   9
HETATM    9  N1  UNL     1      -2.890  -0.418  -0.059  1.00  0.00    -0.373 N 
ATOM     10  H1  UNL     1      -3.725  -0.816  -0.488  1.00  0.00     0.161 HD
BRANCH   9  11
HETATM   11  C3  UNL     1      -2.923   0.947   0.474  1.00  0.00     0.147 C 
BRANCH  11  12
HETATM   12  C2  UNL     1      -4.268   1.541   0.274  1.00  0.00    -0.018 C 
HETATM   13  C1  UNL     1      -4.470   2.641  -0.437  1.00  0.00     0.008 C 
ENDBRANCH  11  12
ENDBRANCH   9  11
ENDBRANCH   6   9
BRANCH   7  14
HETATM   14  N3  UNL     1      -2.855  -3.241  -0.175  1.00  0.00    -0.344 N 
ATOM     15  H32 UNL     1      -3.741  -2.740  -0.237  1.00  0.00     0.176 HD
ATOM     16  H31 UNL     1      -2.877  -4.260  -0.220  1.00  0.00     0.176 HD
ENDBRANCH   7  14
ENDBRANCH   1   6
BRANCH   5  17
HETATM   17  C7  UNL     1       2.118  -0.698  -0.281  1.00  0.00     0.091 C 
HETATM   18  N5  UNL     1       2.485  -0.392   0.901  1.00  0.00    -0.398 N 
ATOM     19  H5  UNL     1       1.756  -0.222   1.594  1.00  0.00     0.158 HD
BRANCH  18  20
HETATM   20  C8  UNL     1       3.829  -0.272   1.320  1.00  0.00     0.141 C 
BRANCH  20  21
HETATM   21  C9  UNL     1       4.514   0.979   0.829  1.00  0.00     0.175 C 
BRANCH  21  22
HETATM   22  N6  UNL     1       4.556   1.070  -0.608  1.00  0.00    -0.251 N 
ATOM     23  H6  UNL     1       3.755   1.450  -1.112  1.00  0.00     0.197 HD
BRANCH  22  24
HETATM   24  N7  UNL     1       5.543   0.696  -1.232  1.00  0.00    -0.249 NA
BRANCH  24  25
HETATM   25  N8  UNL     1       6.641   0.502  -1.740  1.00  0.00    -0.261 N 
ATOM     26  H82 UNL     1       7.024   1.282  -1.206  1.00  0.00     0.193 HD
ATOM     27  H81 UNL     1       7.462   0.191  -2.259  1.00  0.00     0.193 HD
ENDBRANCH  24  25
ENDBRANCH  22  24
ENDBRANCH  21  22
ENDBRANCH  20  21
ENDBRANCH  18  20
ENDBRANCH   5  17
TORSDOF 11
