REMARK  14 active torsions:
REMARK  status: ('A' for Active; 'I' for Inactive)
REMARK       I    between atoms: C2_2  and  N1_4 
REMARK    1  A    between atoms: C4_6  and  C5_7 
REMARK       I    between atoms: C5_7  and  N2_9 
REMARK    2  A    between atoms: N2_9  and  N3_11 
REMARK       I    between atoms: N3_11  and  C6_13 
REMARK    3  A    between atoms: C6_13  and  C7_15 
REMARK    4  A    between atoms: C7_15  and  N4_16 
REMARK    5  A    between atoms: C7_15  and  C8_20 
REMARK    6  A    between atoms: C8_20  and  N5_21 
REMARK    7  A    between atoms: C9_25  and  N7_26 
REMARK    8  A    between atoms: N7_26  and  O4_27 
REMARK    9  A    between atoms: N7_26  and  N8_29 
REMARK   10  A    between atoms: N8_29  and  N9_31 
REMARK   11  A    between atoms: C10_34  and  N10_35 
REMARK   12  A    between atoms: N10_35  and  O5_37 
REMARK   13  A    between atoms: C11_39  and  O6_40 
REMARK   14  A    between atoms: C12_42  and  O7_43 
ROOT
HETATM    1  C7  UNL     1       1.970  -1.273  -0.233  1.00  0.00     0.295 C 
ENDROOT
BRANCH   1   2
HETATM    2  C6  UNL     1       0.536  -1.070  -0.324  1.00  0.00     0.268 C 
HETATM    3  N3  UNL     1      -0.108   0.123   0.087  1.00  0.00    -0.265 N 
ATOM      4  H3  UNL     1       0.449   0.883   0.477  1.00  0.00     0.190 HD
HETATM    5  O3  UNL     1      -0.208  -2.000  -0.805  1.00  0.00    -0.269 OA
BRANCH   3   6
HETATM    6  N2  UNL     1      -1.476   0.278  -0.030  1.00  0.00    -0.263 N 
HETATM    7  C5  UNL     1      -2.350   1.176   0.511  1.00  0.00     0.274 C 
HETATM    8  O2  UNL     1      -2.001   2.099   1.309  1.00  0.00    -0.266 OA
ATOM      9  H2  UNL     1      -1.918  -0.412  -0.638  1.00  0.00     0.190 HD
BRANCH   7  10
HETATM   10  C4  UNL     1      -3.787   1.056   0.131  1.00  0.00     0.087 A 
HETATM   11  C3  UNL     1      -4.336   0.154  -0.721  1.00  0.00     0.122 A 
HETATM   12  N1  UNL     1      -5.663   0.340  -0.856  1.00  0.00    -0.270 N 
HETATM   13  C2  UNL     1      -6.539  -0.447  -1.656  1.00  0.00     0.226 C 
HETATM   14  C12 UNL     1      -5.966   1.385  -0.071  1.00  0.00     0.184 A 
HETATM   15  C1  UNL     1      -7.975  -0.205  -1.796  1.00  0.00     0.118 C 
HETATM   16  O1  UNL     1      -6.053  -1.420  -2.290  1.00  0.00    -0.273 OA
HETATM   17  C11 UNL     1      -4.811   1.849   0.556  1.00  0.00     0.134 A 
BRANCH  14  18
HETATM   18  O7  UNL     1      -7.214   1.925   0.100  1.00  0.00    -0.344 OA
ATOM     19  H7  UNL     1      -7.429   2.665   0.656  1.00  0.00     0.219 HD
ENDBRANCH  14  18
BRANCH  17  20
HETATM   20  O6  UNL     1      -4.764   2.939   1.451  1.00  0.00    -0.356 OA
ATOM     21  H6  UNL     1      -5.478   3.492   1.747  1.00  0.00     0.218 HD
ENDBRANCH  17  20
ENDBRANCH   7  10
ENDBRANCH   3   6
ENDBRANCH   1   2
BRANCH   1  22
HETATM   22  N4  UNL     1       2.365  -2.558  -0.804  1.00  0.00    -0.065 N 
ATOM     23  H43 UNL     1       1.851  -3.329  -0.379  1.00  0.00     0.275 HD
ATOM     24  H42 UNL     1       2.034  -2.658  -1.764  1.00  0.00     0.275 HD
ATOM     25  H41 UNL     1       3.373  -2.701  -0.740  1.00  0.00     0.275 HD
ENDBRANCH   1  22
BRANCH   1  26
HETATM   26  C8  UNL     1       2.469  -1.093   1.160  1.00  0.00     0.183 C 
BRANCH  26  27
HETATM   27  N5  UNL     1       3.925  -1.315   1.240  1.00  0.00    -0.282 N 
HETATM   28  S1  UNL     1       4.664  -2.846   1.503  1.00  0.00     0.072 SA
HETATM   29  N6  UNL     1       6.262  -2.360   1.442  1.00  0.00    -0.292 N 
HETATM   30  C9  UNL     1       6.193  -1.058   1.224  1.00  0.00     0.207 A 
ATOM     31  H6  UNL     1       7.098  -2.935   1.548  1.00  0.00     0.177 HD
HETATM   32  C10 UNL     1       4.956  -0.491   1.115  1.00  0.00     0.184 A 
BRANCH  30  33
HETATM   33  N7  UNL     1       7.452  -0.336   1.091  1.00  0.00    -0.128 N 
BRANCH  33  34
HETATM   34  O4  UNL     1       8.223  -0.006   2.165  1.00  0.00    -0.265 OA
ATOM     35  H4  UNL     1       9.044   0.465   2.078  1.00  0.00     0.247 HD
ENDBRANCH  33  34
BRANCH  33  36
HETATM   36  N8  UNL     1       7.836  -0.004  -0.056  1.00  0.00    -0.221 N 
ATOM     37  H8  UNL     1       7.203  -0.286  -0.805  1.00  0.00     0.210 HD
BRANCH  36  38
HETATM   38  N9  UNL     1       8.922   0.652  -0.478  1.00  0.00    -0.329 N 
ATOM     39  H92 UNL     1       9.541   0.925   0.286  1.00  0.00     0.178 HD
ATOM     40  H91 UNL     1       9.234   0.922  -1.411  1.00  0.00     0.178 HD
ENDBRANCH  36  38
ENDBRANCH  33  36
ENDBRANCH  30  33
BRANCH  32  41
HETATM   41  N10 UNL     1       4.855   0.782   0.877  1.00  0.00    -0.249 N 
ATOM     42  H10 UNL     1       5.712   1.330   0.800  1.00  0.00     0.196 HD
BRANCH  41  43
HETATM   43  O5  UNL     1       3.687   1.409   0.728  1.00  0.00    -0.288 OA
ATOM     44  H5  UNL     1       3.613   2.340   0.554  1.00  0.00     0.244 HD
ENDBRANCH  41  43
ENDBRANCH  32  41
ENDBRANCH  26  27
ENDBRANCH   1  26
TORSDOF 14
