REMARK  15 active torsions:
REMARK  status: ('A' for Active; 'I' for Inactive)
REMARK    1  A    between atoms: O1_1  and  C1_3 
REMARK    2  A    between atoms: C1_3  and  C2_4 
REMARK    3  A    between atoms: C3_6  and  O3_7 
REMARK    4  A    between atoms: O3_7  and  C4_8 
REMARK    5  A    between atoms: C5_10  and  O5_11 
REMARK    6  A    between atoms: C5_10  and  O6_13 
REMARK    7  A    between atoms: C6_15  and  O7_16 
REMARK    8  A    between atoms: C6_15  and  C7_18 
REMARK    9  A    between atoms: C7_18  and  O8_19 
REMARK   10  A    between atoms: C8_21  and  O9_22 
REMARK   11  A    between atoms: C9_24  and  O10_25 
REMARK   12  A    between atoms: C10_27  and  O11_28 
REMARK   13  A    between atoms: C12_31  and  O12_32 
REMARK   14  A    between atoms: C12_31  and  O13_34 
REMARK   15  A    between atoms: O13_34  and  C13_35 
ROOT
HETATM    1  O3  UNL     1      -1.522  -1.029  -0.796  1.00  0.00    -0.326 OA
ENDROOT
BRANCH   1   2
HETATM    2  C3  UNL     1      -0.235  -0.760  -0.342  1.00  0.00     0.292 C 
HETATM    3  O2  UNL     1       0.395  -1.835   0.194  1.00  0.00    -0.346 OA
HETATM    4  C2  UNL     1       1.719  -1.763   0.469  1.00  0.00     0.210 C 
HETATM    5  C12 UNL     1       2.548  -0.874  -0.431  1.00  0.00     0.193 C 
HETATM    6  C11 UNL     1       1.828   0.324  -0.926  1.00  0.00     0.108 C 
HETATM    7  C10 UNL     1       0.495  -0.142  -1.532  1.00  0.00     0.178 C 
BRANCH   4   8
HETATM    8  C1  UNL     1       1.989  -1.256   1.894  1.00  0.00     0.201 C 
BRANCH   8   9
HETATM    9  O1  UNL     1       1.459   0.004   2.041  1.00  0.00    -0.398 OA
ATOM     10  H1  UNL     1       1.626   0.317   2.922  1.00  0.00     0.209 HD
ENDBRANCH   8   9
ENDBRANCH   4   8
BRANCH   5  11
HETATM   11  O12 UNL     1       2.848  -1.671  -1.564  1.00  0.00    -0.363 OA
ATOM     12  H12 UNL     1       3.369  -1.113  -2.129  1.00  0.00     0.213 HD
ENDBRANCH   5  11
BRANCH   5  13
HETATM   13  O13 UNL     1       3.740  -0.638   0.201  1.00  0.00    -0.347 OA
BRANCH  13  14
HETATM   14  C13 UNL     1       4.693   0.016  -0.526  1.00  0.00     0.125 C 
HETATM   15  C14 UNL     1       6.061  -0.576  -0.452  1.00  0.00     0.032 C 
HETATM   16  C15 UNL     1       6.769   0.043   0.729  1.00  0.00     0.002 C 
HETATM   17  C16 UNL     1       5.865   1.101   1.290  1.00  0.00     0.002 C 
HETATM   18  C17 UNL     1       4.910   1.377   0.155  1.00  0.00     0.032 C 
ENDBRANCH  13  14
ENDBRANCH   5  13
BRANCH   7  19
HETATM   19  O11 UNL     1      -0.245   0.956  -1.949  1.00  0.00    -0.390 OA
ATOM     20  H11 UNL     1       0.209   1.341  -2.689  1.00  0.00     0.210 HD
ENDBRANCH   7  19
ENDBRANCH   1   2
BRANCH   1  21
HETATM   21  C4  UNL     1      -2.484  -0.212  -0.204  1.00  0.00     0.300 C 
HETATM   22  O4  UNL     1      -3.157   0.419  -1.236  1.00  0.00    -0.297 OA
HETATM   23  C5  UNL     1      -4.265   1.129  -0.841  1.00  0.00     0.318 C 
HETATM   24  C6  UNL     1      -5.214   0.378   0.031  1.00  0.00     0.191 C 
HETATM   25  C8  UNL     1      -4.570  -0.378   1.144  1.00  0.00     0.196 C 
HETATM   26  C9  UNL     1      -3.409  -1.157   0.569  1.00  0.00     0.205 C 
BRANCH  23  27
HETATM   27  O5  UNL     1      -4.965   1.444  -2.032  1.00  0.00    -0.341 OA
ATOM     28  H5  UNL     1      -5.731   1.935  -1.759  1.00  0.00     0.215 HD
ENDBRANCH  23  27
BRANCH  23  29
HETATM   29  O6  UNL     1      -3.969   2.344  -0.235  1.00  0.00    -0.341 OA
ATOM     30  H6  UNL     1      -4.735   2.835   0.038  1.00  0.00     0.215 HD
ENDBRANCH  23  29
BRANCH  24  31
HETATM   31  O7  UNL     1      -5.925  -0.534  -0.757  1.00  0.00    -0.378 OA
ATOM     32  H7  UNL     1      -6.529  -1.012  -0.202  1.00  0.00     0.211 HD
ENDBRANCH  24  31
BRANCH  24  33
HETATM   33  C7  UNL     1      -6.214   1.355   0.622  1.00  0.00     0.213 C 
BRANCH  33  34
HETATM   34  O8  UNL     1      -6.914   2.052  -0.347  1.00  0.00    -0.398 OA
ATOM     35  H8  UNL     1      -7.540   2.663   0.023  1.00  0.00     0.209 HD
ENDBRANCH  33  34
ENDBRANCH  24  33
BRANCH  25  36
HETATM   36  O9  UNL     1      -4.185   0.417   2.214  1.00  0.00    -0.389 OA
ATOM     37  H9  UNL     1      -3.775  -0.064   2.923  1.00  0.00     0.210 HD
ENDBRANCH  25  36
BRANCH  26  38
HETATM   38  O10 UNL     1      -3.908  -2.071  -0.354  1.00  0.00    -0.388 OA
ATOM     39  H10 UNL     1      -4.482  -2.657   0.125  1.00  0.00     0.210 HD
ENDBRANCH  26  38
ENDBRANCH   1  21
TORSDOF 15
