REMARK  8 active torsions:
REMARK  status: ('A' for Active; 'I' for Inactive)
REMARK    1  A    between atoms: N2_5  and  C3_6 
REMARK    2  A    between atoms: C8_11  and  C9_12 
REMARK    3  A    between atoms: C11_14  and  N3_15 
REMARK       I    between atoms: N3_15  and  C12_17 
REMARK       I    between atoms: C12_17  and  N4_19 
REMARK    4  A    between atoms: N4_19  and  C13_21 
REMARK    5  A    between atoms: C18_28  and  C19_29 
REMARK    6  A    between atoms: C19_29  and  C20_30 
REMARK    7  A    between atoms: C23_33  and  C24_34 
REMARK    8  A    between atoms: C24_34  and  O2_35 
ROOT
HETATM    1  C1  UNL     1      -3.340  -1.348  -0.877  1.00  0.00     0.045 C 
HETATM    2  C2  UNL     1      -2.145  -1.288  -0.301  1.00  0.00     0.053 A 
HETATM    3  N1  UNL     1      -1.347  -2.364  -0.137  1.00  0.00    -0.292 N 
ATOM      4  H1  UNL     1      -1.589  -3.308  -0.438  1.00  0.00     0.187 HD
HETATM    5  N2  UNL     1      -0.212  -2.042   0.463  1.00  0.00    -0.238 N 
HETATM    6  C11 UNL     1      -0.252  -0.721   0.704  1.00  0.00     0.144 A 
HETATM    7  C18 UNL     1      -1.501  -0.210   0.215  1.00  0.00     0.040 A 
ENDROOT
BRANCH   6   8
HETATM    8  N3  UNL     1       0.563   0.013   1.242  1.00  0.00    -0.292 N 
HETATM    9  C12 UNL     1       1.721   0.258   1.847  1.00  0.00     0.327 C 
HETATM   10  O1  UNL     1       2.661  -0.567   2.061  1.00  0.00    -0.247 OA
HETATM   11  N4  UNL     1       2.027   1.607   2.354  1.00  0.00    -0.294 N 
ATOM     12  H4  UNL     1       1.597   1.962   3.208  1.00  0.00     0.172 HD
ATOM     13  H3  UNL     1       0.115   0.929   1.210  1.00  0.00     0.172 HD
BRANCH  11  14
HETATM   14  C13 UNL     1       2.867   2.329   1.671  1.00  0.00     0.108 A 
HETATM   15  C14 UNL     1       3.472   1.892   0.513  1.00  0.00     0.049 A 
HETATM   16  C15 UNL     1       4.358   2.718  -0.164  1.00  0.00     0.005 A 
HETATM   17  C16 UNL     1       4.652   3.983   0.299  1.00  0.00     0.017 A 
HETATM   18  C17 UNL     1       4.020   4.384   1.469  1.00  0.00     0.089 A 
HETATM   19  N5  UNL     1       3.162   3.564   2.111  1.00  0.00    -0.352 N 
ATOM     20  H5  UNL     1       2.718   3.896   2.967  1.00  0.00     0.166 HD
ENDBRANCH  11  14
ENDBRANCH   6   8
BRANCH   5  21
HETATM   21  C3  UNL     1       0.818  -2.984   0.763  1.00  0.00     0.064 A 
HETATM   22  C4  UNL     1       0.839  -3.672   1.986  1.00  0.00     0.032 A 
HETATM   23  C5  UNL     1       1.840  -4.583   2.251  1.00  0.00     0.002 A 
HETATM   24  C6  UNL     1       2.835  -4.835   1.328  1.00  0.00     0.001 A 
HETATM   25  C7  UNL     1       2.809  -4.156   0.128  1.00  0.00     0.009 A 
HETATM   26  C8  UNL     1       1.812  -3.241  -0.150  1.00  0.00    -0.030 A 
BRANCH  26  27
HETATM   27  C9  UNL     1       1.796  -2.532  -1.435  1.00  0.00     0.036 C 
HETATM   28  C10 UNL     1       0.820  -3.052  -2.432  1.00  0.00     0.010 C 
ENDBRANCH  26  27
ENDBRANCH   5  21
BRANCH   7  29
HETATM   29  C19 UNL     1      -1.854   1.047   0.295  1.00  0.00     0.055 C 
BRANCH  29  30
HETATM   30  C20 UNL     1      -3.059   1.704  -0.146  1.00  0.00     0.076 A 
HETATM   31  C21 UNL     1      -4.161   1.981   0.679  1.00  0.00     0.040 A 
HETATM   32  C22 UNL     1      -5.073   2.605  -0.115  1.00  0.00     0.038 A 
HETATM   33  C23 UNL     1      -4.546   2.706  -1.381  1.00  0.00     0.077 A 
HETATM   34  O3  UNL     1      -3.375   2.165  -1.336  1.00  0.00    -0.313 OA
BRANCH  33  35
HETATM   35  C24 UNL     1      -5.268   3.337  -2.522  1.00  0.00     0.229 C 
BRANCH  35  36
HETATM   36  O2  UNL     1      -5.001   4.698  -2.609  1.00  0.00    -0.394 OA
ATOM     37  H2  UNL     1      -5.461   5.100  -3.336  1.00  0.00     0.209 HD
ENDBRANCH  35  36
ENDBRANCH  33  35
ENDBRANCH  29  30
ENDBRANCH   7  29
TORSDOF 8
