REMARK  5 active torsions:
REMARK  status: ('A' for Active; 'I' for Inactive)
REMARK    1  A    between atoms: C2_2  and  O1_3 
REMARK    2  A    between atoms: C7_9  and  O2_10 
REMARK    3  A    between atoms: O2_10  and  C8_11 
REMARK    4  A    between atoms: C8_11  and  C9_13 
REMARK    5  A    between atoms: C10_14  and  C11_15 
ROOT
HETATM    1  C1  UNL     1      -3.871   2.574  -1.154  1.00  0.00     0.046 C 
HETATM    2  C2  UNL     1      -4.133   1.817   0.087  1.00  0.00     0.059 C 
HETATM    3  C3  UNL     1      -4.240   2.819   1.245  1.00  0.00     0.038 C 
HETATM    4  C4  UNL     1      -3.057   2.580   2.131  1.00  0.00     0.008 C 
HETATM    5  C5  UNL     1      -2.108   1.822   1.260  1.00  0.00    -0.005 C 
HETATM    6  C6  UNL     1      -1.180   0.905   2.033  1.00  0.00     0.038 C 
HETATM    7  C7  UNL     1      -0.379   0.144   0.997  1.00  0.00     0.141 C 
HETATM    8  C17 UNL     1      -1.317  -0.743   0.204  1.00  0.00    -0.009 C 
HETATM    9  C18 UNL     1      -1.889  -1.865   0.979  1.00  0.00     0.013 C 
HETATM   10  C19 UNL     1      -2.269  -2.885  -0.093  1.00  0.00     0.005 C 
HETATM   11  C20 UNL     1      -1.544  -2.486  -1.341  1.00  0.00    -0.014 C 
HETATM   12  C21 UNL     1      -2.510  -1.696  -2.202  1.00  0.00     0.005 C 
HETATM   13  C22 UNL     1      -3.225  -0.646  -1.416  1.00  0.00     0.006 C 
HETATM   14  C23 UNL     1      -2.353   0.127  -0.481  1.00  0.00     0.004 C 
HETATM   15  C24 UNL     1      -3.090   0.887   0.539  1.00  0.00     0.029 C 
HETATM   16  C25 UNL     1      -0.492  -1.475  -0.863  1.00  0.00     0.017 C 
ENDROOT
BRANCH   7  17
HETATM   17  O2  UNL     1       0.711  -0.534   1.514  1.00  0.00    -0.312 OA
BRANCH  17  18
HETATM   18  C8  UNL     1       2.021  -0.239   1.138  1.00  0.00     0.283 C 
HETATM   19  O3  UNL     1       2.136   0.674   0.309  1.00  0.00    -0.260 OA
BRANCH  18  20
HETATM   20  C9  UNL     1       3.167  -0.935   1.665  1.00  0.00     0.078 C 
HETATM   21  C10 UNL     1       4.416  -0.739   1.392  1.00  0.00    -0.015 C 
BRANCH  21  22
HETATM   22  C11 UNL     1       4.948   0.256   0.467  1.00  0.00     0.017 A 
HETATM   23  C12 UNL     1       6.498   0.367   0.380  1.00  0.00     0.019 A 
HETATM   24  C13 UNL     1       5.708  -0.186  -0.683  1.00  0.00    -0.033 A 
HETATM   25  C14 UNL     1       5.764  -1.597  -1.173  1.00  0.00     0.010 C 
HETATM   26  C16 UNL     1       5.575   0.336  -2.062  1.00  0.00     0.010 C 
HETATM   27  C15 UNL     1       6.068  -1.024  -2.563  1.00  0.00     0.002 C 
ENDBRANCH  21  22
ENDBRANCH  18  20
ENDBRANCH  17  18
ENDBRANCH   7  17
BRANCH   2  28
HETATM   28  O1  UNL     1      -5.364   1.124   0.035  1.00  0.00    -0.390 OA
ATOM     29  H1  UNL     1      -5.533   0.637   0.833  1.00  0.00     0.210 HD
ENDBRANCH   2  28
TORSDOF 5
