REMARK  16 active torsions:
REMARK  status: ('A' for Active; 'I' for Inactive)
REMARK    1  A    between atoms: C2_2  and  C12_14 
REMARK    2  A    between atoms: C3_3  and  C4_4 
REMARK    3  A    between atoms: C4_4  and  C5_5 
REMARK    4  A    between atoms: C5_5  and  C7_7 
REMARK    5  A    between atoms: C7_7  and  O2_9 
REMARK    6  A    between atoms: O2_9  and  C8_10 
REMARK    7  A    between atoms: C18_20  and  O3_21 
REMARK    8  A    between atoms: C22_27  and  O4_28 
REMARK    9  A    between atoms: C23_30  and  C24_31 
REMARK   10  A    between atoms: C23_30  and  C29_38 
REMARK   11  A    between atoms: C24_31  and  C25_32 
REMARK   12  A    between atoms: C25_32  and  C26_33 
REMARK   13  A    between atoms: C26_33  and  O5_36 
REMARK   14  A    between atoms: C31_42  and  C32_43 
REMARK   15  A    between atoms: C32_43  and  C33_44 
REMARK   16  A    between atoms: C33_44  and  O6_45 
ROOT
HETATM    1  C12 UNL     1       1.068  -0.420   0.061  1.00  0.00     0.007 C 
HETATM    2  C13 UNL     1       1.961  -0.143  -1.158  1.00  0.00     0.025 C 
HETATM    3  C14 UNL     1       0.924   0.920   0.732  1.00  0.00    -0.002 C 
HETATM    4  C15 UNL     1       1.615   2.090   0.084  1.00  0.00     0.011 C 
HETATM    5  C16 UNL     1      -0.420   1.365   1.130  1.00  0.00     0.009 C 
HETATM    6  C17 UNL     1      -1.399   1.716   0.052  1.00  0.00     0.041 C 
HETATM    7  C18 UNL     1      -2.180   0.516  -0.481  1.00  0.00     0.097 C 
HETATM    8  C19 UNL     1      -1.239  -0.429  -1.163  1.00  0.00     0.093 C 
HETATM    9 CL1  UNL     1      -0.328   0.313  -2.488  1.00  0.00    -0.111 Cl
HETATM   10  C20 UNL     1      -1.943  -1.579  -1.876  1.00  0.00     0.036 C 
HETATM   11  C21 UNL     1      -3.419  -1.533  -1.765  1.00  0.00     0.035 C 
HETATM   12  C22 UNL     1      -3.795  -0.137  -2.185  1.00  0.00     0.134 C 
HETATM   13  C23 UNL     1      -3.455   0.905  -1.131  1.00  0.00     0.069 C 
HETATM   14  C31 UNL     1      -0.202  -1.104  -0.271  1.00  0.00    -0.042 C 
ENDROOT
BRANCH   1  15
HETATM   15  C2  UNL     1       1.915  -1.218   0.987  1.00  0.00    -0.074 C 
HETATM   16  C1  UNL     1       1.530  -1.263   2.479  1.00  0.00     0.044 C 
HETATM   17  C3  UNL     1       2.980  -1.952   0.836  1.00  0.00    -0.022 C 
BRANCH  17  18
HETATM   18  C4  UNL     1       3.891  -2.387  -0.191  1.00  0.00     0.041 C 
BRANCH  18  19
HETATM   19  C5  UNL     1       5.333  -2.178   0.217  1.00  0.00     0.085 C 
HETATM   20  C6  UNL     1       5.554  -2.995   1.482  1.00  0.00     0.020 C 
BRANCH  19  21
HETATM   21  C7  UNL     1       5.805  -0.832   0.401  1.00  0.00     0.263 C 
HETATM   22  O1  UNL     1       6.209  -0.462   1.562  1.00  0.00    -0.265 OA
BRANCH  21  23
HETATM   23  O2  UNL     1       5.877   0.144  -0.576  1.00  0.00    -0.311 OA
BRANCH  23  24
HETATM   24  C8  UNL     1       6.379   1.443  -0.310  1.00  0.00     0.060 C 
HETATM   25  C9  UNL     1       5.647   2.192   0.743  1.00  0.00     0.045 C 
HETATM   26  C10 UNL     1       7.837   1.344   0.123  1.00  0.00     0.045 C 
HETATM   27  C11 UNL     1       6.357   2.207  -1.604  1.00  0.00     0.045 C 
ENDBRANCH  23  24
ENDBRANCH  21  23
ENDBRANCH  19  21
ENDBRANCH  18  19
ENDBRANCH  17  18
ENDBRANCH   1  15
BRANCH  14  28
HETATM   28  C32 UNL     1      -0.786  -2.221   0.485  1.00  0.00     0.005 C 
BRANCH  28  29
HETATM   29  C33 UNL     1      -0.227  -3.567   0.613  1.00  0.00     0.191 C 
BRANCH  29  30
HETATM   30  O6  UNL     1      -1.098  -4.388   1.429  1.00  0.00    -0.397 OA
ATOM     31  H6  UNL     1      -0.735  -5.262   1.512  1.00  0.00     0.209 HD
ENDBRANCH  29  30
ENDBRANCH  28  29
ENDBRANCH  14  28
BRANCH   7  32
HETATM   32  O3  UNL     1      -2.508  -0.095   0.728  1.00  0.00    -0.386 OA
ATOM     33  H3  UNL     1      -2.994  -0.841   0.397  1.00  0.00     0.210 HD
ENDBRANCH   7  32
BRANCH  13  34
HETATM   34  C24 UNL     1      -4.633   1.014  -0.180  1.00  0.00     0.023 C 
BRANCH  34  35
HETATM   35  C25 UNL     1      -5.174  -0.071   0.583  1.00  0.00     0.038 C 
BRANCH  35  36
HETATM   36  C26 UNL     1      -6.354   0.573   1.390  1.00  0.00     0.051 C 
HETATM   37  C27 UNL     1      -6.975  -0.507   2.218  1.00  0.00     0.045 C 
HETATM   38  C28 UNL     1      -5.846   1.684   2.249  1.00  0.00     0.045 C 
BRANCH  36  39
HETATM   39  O5  UNL     1      -7.303   1.046   0.492  1.00  0.00    -0.391 OA
ATOM     40  H5  UNL     1      -8.018   1.436   0.981  1.00  0.00     0.210 HD
ENDBRANCH  36  39
ENDBRANCH  35  36
ENDBRANCH  34  35
ENDBRANCH  13  34
BRANCH  13  41
HETATM   41  C29 UNL     1      -3.528   2.224  -1.846  1.00  0.00     0.188 C 
HETATM   42  C30 UNL     1      -2.694   2.595  -2.963  1.00  0.00     0.071 C 
HETATM   43  F1  UNL     1      -3.635   3.330  -0.994  1.00  0.00    -0.225 F 
HETATM   44 CL2  UNL     1      -5.198   2.290  -2.601  1.00  0.00    -0.082 Cl
ENDBRANCH  13  41
BRANCH  12  45
HETATM   45  O4  UNL     1      -5.086  -0.182  -2.615  1.00  0.00    -0.395 OA
ATOM     46  H4  UNL     1      -5.323   0.699  -2.880  1.00  0.00     0.210 HD
ENDBRANCH  12  45
TORSDOF 16
