REMARK  2 active torsions:
REMARK  status: ('A' for Active; 'I' for Inactive)
REMARK    1  A    between atoms: O1_2  and  C2_3 
REMARK    2  A    between atoms: C12_21  and  N2_22 
ROOT
HETATM    1  C2  UNL     1      -1.784  -0.260  -0.548  1.00  0.00     0.230 C 
HETATM    2  O2  UNL     1      -2.871   0.567  -0.527  1.00  0.00    -0.314 OA
HETATM    3  C3  UNL     1      -3.935  -0.091   0.091  1.00  0.00     0.164 C 
HETATM    4  C4  UNL     1      -5.195  -0.118  -0.750  1.00  0.00     0.078 C 
HETATM    5  C5  UNL     1      -4.389   0.561   1.381  1.00  0.00     0.078 C 
HETATM    6  O3  UNL     1      -3.458  -1.397   0.371  1.00  0.00    -0.317 OA
HETATM    7  C6  UNL     1      -2.155  -1.120   0.655  1.00  0.00     0.363 C 
HETATM    8  O4  UNL     1      -1.292  -2.092   0.972  1.00  0.00    -0.202 OA
HETATM    9  O5  UNL     1      -0.173  -1.483   1.395  1.00  0.00    -0.231 OA
HETATM   10  C7  UNL     1       0.370  -0.830   0.281  1.00  0.00     0.184 C 
HETATM   11  C8  UNL     1       1.831  -0.628   0.325  1.00  0.00     0.014 C 
HETATM   12  C9  UNL     1       2.556  -1.315  -0.829  1.00  0.00     0.020 C 
HETATM   13  C10 UNL     1       2.472  -1.201   1.597  1.00  0.00     0.189 C 
HETATM   14  O6  UNL     1       3.867  -1.234   1.347  1.00  0.00    -0.337 OA
HETATM   15  C11 UNL     1       4.491  -0.179   0.723  1.00  0.00     0.142 C 
HETATM   16  N1  UNL     1       5.782  -0.109   0.692  1.00  0.00    -0.382 N 
ATOM     17  H11 UNL     1       6.245   0.673   0.229  1.00  0.00     0.158 HD
ATOM     18  H12 UNL     1       6.283  -0.870   1.151  1.00  0.00     0.158 HD
HETATM   19  C12 UNL     1       3.760   0.932   0.053  1.00  0.00     0.262 C 
HETATM   20  C13 UNL     1       2.260   0.825   0.292  1.00  0.00     0.037 C 
HETATM   21  C14 UNL     1       1.554   1.605  -0.754  1.00  0.00     0.009 C 
HETATM   22  C15 UNL     1       0.248   1.046  -1.226  1.00  0.00     0.018 C 
HETATM   23  C16 UNL     1      -0.463   0.386  -0.072  1.00  0.00     0.048 C 
HETATM   24  C17 UNL     1      -0.647   1.378   1.007  1.00  0.00     0.024 C 
ENDROOT
BRANCH  19  25
HETATM   25  N2  UNL     1       4.228   2.159   0.726  1.00  0.00    -0.067 N 
ATOM     26  H23 UNL     1       4.115   2.143   1.740  1.00  0.00     0.275 HD
ATOM     27  H22 UNL     1       5.242   2.271   0.723  1.00  0.00     0.275 HD
ATOM     28  H21 UNL     1       3.727   2.920   0.267  1.00  0.00     0.275 HD
ENDBRANCH  19  25
BRANCH   1  29
HETATM   29  O1  UNL     1      -1.452  -0.904  -1.658  1.00  0.00    -0.355 OA
HETATM   30  C1  UNL     1      -2.186  -1.772  -2.330  1.00  0.00     0.205 C 
ENDBRANCH   1  29
TORSDOF 2
