REMARK  3 active torsions:
REMARK  status: ('A' for Active; 'I' for Inactive)
REMARK    1  A    between atoms: S1_2  and  C2_3 
REMARK    2  A    between atoms: C3_8  and  S2_9 
REMARK    3  A    between atoms: S2_9  and  C4_10 
ROOT
HETATM    1  C4  UNL     1      -0.754  -0.192   0.553  1.00  0.00     0.039 A 
HETATM    2  C5  UNL     1      -0.351  -0.211   1.800  1.00  0.00     0.093 A 
HETATM    3  C6  UNL     1      -1.462  -0.030   2.720  1.00  0.00     0.244 A 
HETATM    4  O1  UNL     1      -1.411   0.001   3.990  1.00  0.00    -0.269 OA
HETATM    5  N3  UNL     1      -2.606   0.106   1.914  1.00  0.00    -0.326 N 
ATOM      6  H3  UNL     1      -3.557   0.249   2.253  1.00  0.00     0.165 HD
HETATM    7  C7  UNL     1      -2.218   0.011   0.546  1.00  0.00     0.144 A 
HETATM    8  C8  UNL     1      -2.949  -1.098  -0.145  1.00  0.00     0.070 C 
HETATM    9  C9  UNL     1      -4.414  -0.913  -0.253  1.00  0.00     0.087 C 
HETATM   10  S3  UNL     1      -4.755   0.546  -1.277  1.00  0.00    -0.095 SA
HETATM   11  C10 UNL     1      -3.317   1.572  -1.124  1.00  0.00     0.135 C 
HETATM   12  N4  UNL     1      -3.112   2.509  -1.963  1.00  0.00    -0.380 N 
ATOM     13  H41 UNL     1      -2.285   3.099  -1.875  1.00  0.00     0.158 HD
ATOM     14  H42 UNL     1      -3.750   2.701  -2.736  1.00  0.00     0.158 HD
HETATM   15  N5  UNL     1      -2.441   1.309  -0.063  1.00  0.00    -0.340 N 
ATOM     16  H5  UNL     1      -1.915   2.097   0.314  1.00  0.00     0.164 HD
ENDROOT
BRANCH   1  17
HETATM   17  S2  UNL     1       0.248  -0.376  -0.953  1.00  0.00    -0.064 SA
BRANCH  17  18
HETATM   18  C3  UNL     1       1.965  -0.605  -0.565  1.00  0.00     0.134 A 
HETATM   19  N2  UNL     1       2.565  -0.655   0.605  1.00  0.00    -0.286 N 
HETATM   20  N1  UNL     1       3.812  -0.827   0.694  1.00  0.00    -0.287 N 
ATOM     21  H2  UNL     1       2.012  -0.553   1.456  1.00  0.00     0.188 HD
HETATM   22  C2  UNL     1       4.533  -0.960  -0.418  1.00  0.00     0.128 A 
ATOM     23  H1  UNL     1       4.263  -0.864   1.608  1.00  0.00     0.188 HD
HETATM   24  S4  UNL     1       3.315  -0.824  -1.612  1.00  0.00    -0.037 SA
BRANCH  22  25
HETATM   25  S1  UNL     1       6.306  -1.213  -0.582  1.00  0.00    -0.108 SA
HETATM   26  C1  UNL     1       7.181   0.376  -0.679  1.00  0.00     0.097 C 
ENDBRANCH  22  25
ENDBRANCH  17  18
ENDBRANCH   1  17
TORSDOF 3
