REMARK  7 active torsions:
REMARK  status: ('A' for Active; 'I' for Inactive)
REMARK    1  A    between atoms: N1_2  and  C2_3 
REMARK    2  A    between atoms: N1_2  and  C7_12 
REMARK    3  A    between atoms: C2_3  and  C3_4 
REMARK    4  A    between atoms: C6_7  and  N2_8 
REMARK    5  A    between atoms: C7_12  and  C8_18 
REMARK    6  A    between atoms: N3_13  and  N4_15 
REMARK    7  A    between atoms: N5_23  and  C13_24 
ROOT
HETATM    1  C7  UNL     1       0.725  -1.988   0.445  1.00  0.00     0.127 C 
HETATM    2  N3  UNL     1       0.381  -2.582   1.535  1.00  0.00    -0.294 N 
ATOM      3  H3  UNL     1       1.074  -2.607   2.283  1.00  0.00     0.187 HD
ENDROOT
BRANCH   1   4
HETATM    4  N1  UNL     1       2.048  -1.459   0.478  1.00  0.00    -0.367 N 
HETATM    5  C1  UNL     1       2.830  -1.309  -0.730  1.00  0.00     0.151 C 
BRANCH   4   6
HETATM    6  C2  UNL     1       2.674  -1.056   1.718  1.00  0.00     0.169 C 
BRANCH   6   7
HETATM    7  C3  UNL     1       3.063   0.371   1.769  1.00  0.00     0.003 A 
HETATM    8  C4  UNL     1       2.886   1.433   0.946  1.00  0.00     0.019 A 
HETATM    9  C5  UNL     1       3.393   2.621   1.324  1.00  0.00     0.045 A 
HETATM   10  C6  UNL     1       4.055   2.670   2.519  1.00  0.00     0.144 A 
HETATM   11  S1  UNL     1       3.940   1.040   3.071  1.00  0.00    -0.069 SA
BRANCH  10  12
HETATM   12  N2  UNL     1       4.685   3.793   3.156  1.00  0.00    -0.108 N 
HETATM   13  O1  UNL     1       4.643   4.882   2.571  1.00  0.00    -0.531 OA
HETATM   14  O2  UNL     1       5.311   3.686   4.360  1.00  0.00    -0.531 OA
ENDBRANCH  10  12
ENDBRANCH   6   7
ENDBRANCH   4   6
ENDBRANCH   1   4
BRANCH   1  15
HETATM   15  C8  UNL     1      -0.188  -1.914  -0.684  1.00  0.00     0.291 C 
HETATM   16  C9  UNL     1       0.415  -2.717  -1.857  1.00  0.00     0.044 C 
HETATM   17  C10 UNL     1      -0.772  -3.369  -2.596  1.00  0.00     0.004 C 
HETATM   18  C11 UNL     1      -1.815  -2.279  -2.770  1.00  0.00     0.030 C 
HETATM   19  C12 UNL     1      -1.225  -0.920  -2.526  1.00  0.00     0.274 C 
HETATM   20  N5  UNL     1      -0.637  -0.718  -1.210  1.00  0.00     0.105 N 
BRANCH  20  21
HETATM   21  C13 UNL     1      -1.442   0.198  -0.483  1.00  0.00     0.224 C 
HETATM   22  C14 UNL     1      -1.503   1.525  -1.225  1.00  0.00     0.036 C 
HETATM   23  C15 UNL     1      -2.921   2.062  -1.278  1.00  0.00     0.002 C 
HETATM   24  C16 UNL     1      -3.240   2.916  -0.049  1.00  0.00     0.000 C 
HETATM   25  C17 UNL     1      -3.137   2.011   1.137  1.00  0.00     0.000 C 
HETATM   26  C18 UNL     1      -1.686   1.787   1.464  1.00  0.00     0.002 C 
HETATM   27  C19 UNL     1      -1.175   0.470   0.923  1.00  0.00     0.036 C 
ENDBRANCH  20  21
ENDBRANCH   1  15
BRANCH   2  28
HETATM   28  N4  UNL     1      -0.830  -3.187   1.791  1.00  0.00    -0.344 N 
ATOM     29  H42 UNL     1      -1.510  -3.152   1.032  1.00  0.00     0.176 HD
ATOM     30  H41 UNL     1      -1.102  -3.657   2.654  1.00  0.00     0.176 HD
ENDBRANCH   2  28
TORSDOF 7
