REMARK  5 active torsions:
REMARK  status: ('A' for Active; 'I' for Inactive)
REMARK    1  A    between atoms: O1_2  and  C2_3 
REMARK    2  A    between atoms: C2_3  and  C3_5 
REMARK    3  A    between atoms: C3_5  and  N1_6 
REMARK    4  A    between atoms: C3_5  and  C6_11 
REMARK       I    between atoms: N1_6  and  C4_8 
REMARK    5  A    between atoms: C7_13  and  C8_14 
ROOT
HETATM    1  C6  UNL     1      -1.517   0.021   0.325  1.00  0.00     0.298 C 
HETATM    2  O4  UNL     1      -1.054   0.642  -0.828  1.00  0.00    -0.328 OA
HETATM    3  C7  UNL     1      -0.476   1.839  -0.473  1.00  0.00     0.267 C 
HETATM    4  O5  UNL     1       0.918   1.788  -0.615  1.00  0.00    -0.348 OA
HETATM    5  C11 UNL     1       1.438   1.151   0.507  1.00  0.00     0.213 C 
HETATM    6  C12 UNL     1       0.755  -0.177   0.676  1.00  0.00     0.298 C 
HETATM    7  O6  UNL     1      -0.490   0.065   1.258  1.00  0.00    -0.326 OA
HETATM    8  O7  UNL     1       1.437  -1.027   1.533  1.00  0.00    -0.323 OA
HETATM    9  C13 UNL     1       2.783  -1.140   1.243  1.00  0.00     0.161 C 
HETATM   10  C14 UNL     1       3.019  -2.009   0.010  1.00  0.00     0.078 C 
HETATM   11  C15 UNL     1       3.383  -1.931   2.415  1.00  0.00     0.078 C 
HETATM   12  O8  UNL     1       3.461   0.045   1.202  1.00  0.00    -0.343 OA
HETATM   13  C16 UNL     1       2.940   1.007   0.388  1.00  0.00     0.088 C 
HETATM   14  C17 UNL     1       3.324   0.834  -1.075  1.00  0.00     0.048 C 
HETATM   15  C18 UNL     1       3.543   2.343   0.819  1.00  0.00     0.048 C 
ENDROOT
BRANCH   1  16
HETATM   16  C3  UNL     1      -1.962  -1.388   0.095  1.00  0.00     0.240 C 
BRANCH  16  17
HETATM   17  C2  UNL     1      -2.502  -1.924   1.366  1.00  0.00     0.286 C 
HETATM   18  O2  UNL     1      -3.701  -2.303   1.488  1.00  0.00    -0.263 OA
BRANCH  17  19
HETATM   19  O1  UNL     1      -1.681  -2.018   2.461  1.00  0.00    -0.325 OA
HETATM   20  C1  UNL     1      -2.080  -2.512   3.723  1.00  0.00     0.213 C 
ENDBRANCH  17  19
ENDBRANCH  16  17
BRANCH  16  21
HETATM   21  N1  UNL     1      -3.045  -1.405  -0.879  1.00  0.00    -0.343 N 
HETATM   22  C4  UNL     1      -2.934  -2.203  -2.035  1.00  0.00     0.214 C 
HETATM   23  C5  UNL     1      -4.014  -2.241  -3.039  1.00  0.00     0.117 C 
HETATM   24  O3  UNL     1      -1.914  -2.895  -2.230  1.00  0.00    -0.274 OA
ATOM     25  H1  UNL     1      -3.881  -0.841  -0.725  1.00  0.00     0.163 HD
ENDBRANCH  16  21
ENDBRANCH   1  16
BRANCH   3  26
HETATM   26  C8  UNL     1      -1.004   3.020  -1.249  1.00  0.00     0.033 C 
HETATM   27  C9  UNL     1      -2.500   3.146  -1.010  1.00  0.00     0.014 C 
HETATM   28  C10 UNL     1      -0.647   2.992  -2.698  1.00  0.00     0.014 C 
ENDBRANCH   3  26
TORSDOF 5
