REMARK  12 active torsions:
REMARK  status: ('A' for Active; 'I' for Inactive)
REMARK    1  A    between atoms: C2_2  and  C3_3 
REMARK    2  A    between atoms: C4_4  and  S1_5 
REMARK    3  A    between atoms: C6_8  and  N1_9 
REMARK       I    between atoms: N1_9  and  C7_11 
REMARK    4  A    between atoms: N3_17  and  C10_18 
REMARK    5  A    between atoms: C10_18  and  C11_19 
REMARK    6  A    between atoms: C11_19  and  C12_20 
REMARK    7  A    between atoms: C12_20  and  C13_21 
REMARK    8  A    between atoms: C13_21  and  C14_22 
REMARK    9  A    between atoms: C14_22  and  N4_23 
REMARK   10  A    between atoms: C16_27  and  C17_28 
REMARK   11  A    between atoms: C17_28  and  C18_29 
REMARK   12  A    between atoms: C18_29  and  C19_30 
ROOT
HETATM    1  N4  UNL     1       1.918  -1.096   0.788  1.00  0.00    -0.351 N 
HETATM    2  C15 UNL     1       2.091  -2.321   0.267  1.00  0.00     0.183 A 
HETATM    3  N5  UNL     1       3.250  -2.420  -0.371  1.00  0.00    -0.354 N 
ATOM      4  H5  UNL     1       3.605  -3.250  -0.847  1.00  0.00     0.166 HD
HETATM    5  C16 UNL     1       3.879  -1.223  -0.278  1.00  0.00     0.026 A 
HETATM    6  C25 UNL     1       3.028  -0.411   0.451  1.00  0.00     0.116 A 
ENDROOT
BRANCH   1   7
HETATM    7  C14 UNL     1       0.763  -0.648   1.546  1.00  0.00     0.129 C 
BRANCH   7   8
HETATM    8  C13 UNL     1      -0.235  -0.077   0.590  1.00  0.00     0.020 C 
BRANCH   8   9
HETATM    9  C12 UNL     1      -1.495   0.439   1.258  1.00  0.00     0.003 C 
BRANCH   9  10
HETATM   10  C11 UNL     1      -2.205  -0.659   1.994  1.00  0.00     0.020 C 
BRANCH  10  11
HETATM   11  C10 UNL     1      -3.462  -0.129   2.688  1.00  0.00     0.130 C 
BRANCH  11  12
HETATM   12  N3  UNL     1      -4.384   0.435   1.744  1.00  0.00    -0.342 N 
HETATM   13  C3  UNL     1      -5.323  -0.234   1.078  1.00  0.00     0.057 A 
HETATM   14  C4  UNL     1      -6.124   0.495   0.179  1.00  0.00     0.102 A 
HETATM   15  C6  UNL     1      -5.985   1.838  -0.037  1.00  0.00     0.130 A 
HETATM   16  N2  UNL     1      -4.996   2.477   0.683  1.00  0.00    -0.337 N 
HETATM   17  C9  UNL     1      -4.235   1.789   1.536  1.00  0.00     0.185 A 
ATOM     18  H2  UNL     1      -4.846   3.479   0.563  1.00  0.00     0.168 HD
BRANCH  13  19
HETATM   19  C2  UNL     1      -5.553  -1.636   1.183  1.00  0.00     0.021 C 
HETATM   20  C1  UNL     1      -5.725  -2.395   2.217  1.00  0.00     0.013 C 
ENDBRANCH  13  19
BRANCH  14  21
HETATM   21  S1  UNL     1      -7.377  -0.349  -0.725  1.00  0.00     0.051 S 
HETATM   22  C5  UNL     1      -6.573  -1.143  -2.123  1.00  0.00     0.133 C 
HETATM   23  O1  UNL     1      -8.147  -1.492   0.193  1.00  0.00    -0.253 OA
ENDBRANCH  14  21
BRANCH  15  24
HETATM   24  N1  UNL     1      -6.663   2.548  -0.801  1.00  0.00    -0.312 N 
HETATM   25  C7  UNL     1      -7.707   2.404  -1.666  1.00  0.00     0.219 C 
HETATM   26  C8  UNL     1      -9.112   2.435  -1.182  1.00  0.00     0.117 C 
HETATM   27  O2  UNL     1      -7.521   2.243  -2.898  1.00  0.00    -0.274 OA
ATOM     28  H1  UNL     1      -6.347   3.517  -0.772  1.00  0.00     0.170 HD
ENDBRANCH  15  24
ENDBRANCH  11  12
ENDBRANCH  10  11
ENDBRANCH   9  10
ENDBRANCH   8   9
ENDBRANCH   7   8
ENDBRANCH   1   7
BRANCH   5  29
HETATM   29  C17 UNL     1       5.191  -0.935  -0.860  1.00  0.00     0.064 C 
BRANCH  29  30
HETATM   30  C18 UNL     1       6.350  -1.227   0.067  1.00  0.00     0.065 C 
BRANCH  30  31
HETATM   31  C19 UNL     1       7.592  -0.880  -0.675  1.00  0.00     0.037 A 
HETATM   32  N6  UNL     1       8.487  -1.687  -1.259  1.00  0.00    -0.366 N 
HETATM   33  C20 UNL     1       9.476  -0.972  -1.829  1.00  0.00     0.107 A 
ATOM     34  H6  UNL     1       8.428  -2.705  -1.271  1.00  0.00     0.165 HD
HETATM   35  C21 UNL     1       9.216   0.358  -1.608  1.00  0.00     0.076 A 
HETATM   36  C22 UNL     1       9.851   1.535  -1.940  1.00  0.00     0.263 A 
HETATM   37  C24 UNL     1       8.040   0.406  -0.888  1.00  0.00     0.076 A 
HETATM   38  O3  UNL     1      10.921   1.504  -2.594  1.00  0.00    -0.267 OA
HETATM   39  N7  UNL     1       9.326   2.711  -1.565  1.00  0.00    -0.275 N 
HETATM   40  C23 UNL     1       8.189   2.738  -0.870  1.00  0.00     0.327 A 
ATOM     41  H7  UNL     1       9.796   3.582  -1.811  1.00  0.00     0.173 HD
HETATM   42  O4  UNL     1       7.674   3.828  -0.504  1.00  0.00    -0.247 OA
HETATM   43  N8  UNL     1       7.557   1.600  -0.537  1.00  0.00    -0.306 N 
ATOM     44  H8  UNL     1       6.689   1.650  -0.004  1.00  0.00     0.171 HD
ENDBRANCH  30  31
ENDBRANCH  29  30
ENDBRANCH   5  29
TORSDOF 12
