REMARK  8 active torsions:
REMARK  status: ('A' for Active; 'I' for Inactive)
REMARK    1  A    between atoms: O1_2  and  C2_3 
REMARK    2  A    between atoms: C5_6  and  C6_7 
REMARK    3  A    between atoms: C6_7  and  C7_8 
REMARK    4  A    between atoms: C8_9  and  C9_10 
REMARK    5  A    between atoms: C12_15  and  C13_16 
REMARK    6  A    between atoms: C14_17  and  C15_18 
REMARK    7  A    between atoms: C19_22  and  C20_23 
REMARK    8  A    between atoms: C30_35  and  O3_36 
ROOT
HETATM    1  C9  UNL     1      -1.769   2.248   0.639  1.00  0.00     0.134 A 
HETATM    2  C10 UNL     1      -0.824   3.147   1.099  1.00  0.00     0.131 A 
HETATM    3  N1  UNL     1       0.403   2.777   0.674  1.00  0.00    -0.346 N 
ATOM      4  H1  UNL     1       1.283   3.257   0.865  1.00  0.00     0.167 HD
HETATM    5  C11 UNL     1       0.242   1.651  -0.051  1.00  0.00     0.156 A 
HETATM    6  C12 UNL     1       0.944   0.703  -0.784  1.00  0.00     0.095 A 
HETATM    7  C27 UNL     1      -0.033  -0.170  -1.222  1.00  0.00     0.096 A 
HETATM    8  C28 UNL     1       0.146  -1.387  -2.057  1.00  0.00     0.081 C 
HETATM    9  O2  UNL     1      -1.209   0.244  -0.775  1.00  0.00    -0.231 OA
HETATM   10  N2  UNL     1      -1.068   1.335  -0.070  1.00  0.00    -0.189 N 
ENDROOT
BRANCH   6  11
HETATM   11  C13 UNL     1       2.354   0.623  -1.044  1.00  0.00    -0.055 C 
HETATM   12  C14 UNL     1       3.541   0.573  -1.275  1.00  0.00    -0.061 C 
BRANCH  12  13
HETATM   13  C15 UNL     1       4.952   0.531  -1.569  1.00  0.00     0.018 A 
HETATM   14  C16 UNL     1       5.448   1.054  -2.764  1.00  0.00     0.020 A 
HETATM   15  C17 UNL     1       6.799   1.005  -3.027  1.00  0.00     0.002 A 
HETATM   16  C18 UNL     1       7.714   0.456  -2.159  1.00  0.00     0.012 A 
HETATM   17  C19 UNL     1       7.233  -0.068  -0.967  1.00  0.00    -0.025 A 
HETATM   18  C26 UNL     1       5.877  -0.017  -0.706  1.00  0.00     0.032 A 
BRANCH  17  19
HETATM   19  C20 UNL     1       8.121  -0.664   0.004  1.00  0.00    -0.026 A 
HETATM   20  C21 UNL     1       7.853  -0.613   1.348  1.00  0.00     0.012 A 
HETATM   21  C22 UNL     1       8.717  -1.192   2.270  1.00  0.00     0.001 A 
HETATM   22  C23 UNL     1       9.855  -1.823   1.828  1.00  0.00     0.000 A 
HETATM   23  C24 UNL     1      10.139  -1.884   0.493  1.00  0.00     0.001 A 
HETATM   24  C25 UNL     1       9.261  -1.298  -0.425  1.00  0.00     0.012 A 
ENDBRANCH  17  19
ENDBRANCH  12  13
ENDBRANCH   6  11
BRANCH   1  25
HETATM   25  C8  UNL     1      -3.182   2.316   0.891  1.00  0.00    -0.044 C 
HETATM   26  C7  UNL     1      -4.367   2.394   1.107  1.00  0.00    -0.095 C 
BRANCH  26  27
HETATM   27  C6  UNL     1      -5.802   2.514   1.376  1.00  0.00     0.132 C 
BRANCH  27  28
HETATM   28  C5  UNL     1      -6.440   1.276   0.928  1.00  0.00    -0.044 A 
HETATM   29  C4  UNL     1      -6.901   1.172  -0.363  1.00  0.00     0.011 A 
HETATM   30  C3  UNL     1      -7.512  -0.003  -0.800  1.00  0.00     0.040 A 
HETATM   31  C2  UNL     1      -7.665  -1.073   0.042  1.00  0.00     0.101 A 
HETATM   32  C30 UNL     1      -7.188  -0.938   1.345  1.00  0.00     0.102 A 
HETATM   33  C29 UNL     1      -6.583   0.216   1.790  1.00  0.00     0.047 A 
BRANCH  31  34
HETATM   34  O1  UNL     1      -8.267  -2.257  -0.359  1.00  0.00    -0.353 OA
HETATM   35  C1  UNL     1      -8.769  -2.461  -1.652  1.00  0.00     0.210 C 
ENDBRANCH  31  34
BRANCH  32  36
HETATM   36  O3  UNL     1      -7.328  -2.010   2.230  1.00  0.00    -0.353 OA
HETATM   37  C31 UNL     1      -6.850  -1.884   3.549  1.00  0.00     0.210 C 
ENDBRANCH  32  36
ENDBRANCH  27  28
ENDBRANCH  26  27
ENDBRANCH   1  25
TORSDOF 8
