REMARK  14 active torsions:
REMARK  status: ('A' for Active; 'I' for Inactive)
REMARK    1  A    between atoms: C2_2  and  N1_4 
REMARK    2  A    between atoms: N1_4  and  C4_6 
REMARK    3  A    between atoms: N3_10  and  C6_12 
REMARK    4  A    between atoms: C6_12  and  C7_13 
REMARK    5  A    between atoms: C7_13  and  C8_14 
REMARK    6  A    between atoms: C14_22  and  N5_23 
REMARK       I    between atoms: N5_23  and  C15_25 
REMARK       I    between atoms: C15_25  and  N7_32 
REMARK    7  A    between atoms: N6_26  and  C16_28 
REMARK    8  A    between atoms: C16_28  and  C17_29 
REMARK    9  A    between atoms: C17_29  and  C18_30 
REMARK   10  A    between atoms: N7_32  and  C19_34 
REMARK   11  A    between atoms: C19_34  and  C20_35 
REMARK   12  A    between atoms: C20_35  and  C21_36 
REMARK   13  A    between atoms: C21_36  and  N8_37 
REMARK   14  A    between atoms: N8_37  and  C22_39 
ROOT
HETATM    1  C4  UNL     1      -1.960  -2.068   1.825  1.00  0.00     0.707 A 
HETATM    2  N2  UNL     1      -2.943  -1.545   1.054  1.00  0.00    -0.022 N 
ATOM      3  H2  UNL     1      -3.909  -1.627   1.372  1.00  0.00     0.203 HD
HETATM    4  C5  UNL     1      -2.700  -0.922  -0.114  1.00  0.00     0.707 A 
HETATM    5  N3  UNL     1      -3.607  -0.412  -0.873  1.00  0.00    -0.225 N 
ATOM      6  H3  UNL     1      -3.320   0.042  -1.740  1.00  0.00     0.177 HD
HETATM    7  N4  UNL     1      -1.383  -0.848  -0.480  1.00  0.00    -0.021 N 
ATOM      8  H4  UNL     1      -1.154  -0.384  -1.359  1.00  0.00     0.203 HD
HETATM    9  C14 UNL     1      -0.379  -1.348   0.248  1.00  0.00     0.725 A 
HETATM   10  N10 UNL     1      -0.679  -1.959   1.404  1.00  0.00    -0.021 N 
ATOM     11  H10 UNL     1       0.071  -2.348   1.975  1.00  0.00     0.203 HD
ENDROOT
BRANCH   9  12
HETATM   12  N5  UNL     1       0.855  -1.241  -0.167  1.00  0.00    -0.022 N 
HETATM   13  C15 UNL     1       1.212  -0.614  -1.366  1.00  0.00     0.688 C 
HETATM   14  N6  UNL     1       1.332  -1.246  -2.478  1.00  0.00    -0.226 N 
HETATM   15  N7  UNL     1       1.458   0.786  -1.371  1.00  0.00    -0.226 N 
ATOM     16  H6  UNL     1       1.594  -0.746  -3.328  1.00  0.00     0.177 HD
ATOM     17  H7  UNL     1       0.880   1.439  -1.900  1.00  0.00     0.177 HD
ATOM     18  H5  UNL     1       1.596  -1.635   0.413  1.00  0.00     0.203 HD
BRANCH  14  19
HETATM   19  C16 UNL     1       1.096  -2.651  -2.514  1.00  0.00     0.139 C 
BRANCH  19  20
HETATM   20  C17 UNL     1       2.296  -3.461  -2.928  1.00  0.00     0.035 C 
BRANCH  20  21
HETATM   21  C18 UNL     1       1.871  -4.918  -2.911  1.00  0.00     0.116 C 
HETATM   22 CL1  UNL     1       1.355  -5.344  -1.282  1.00  0.00    -0.130 Cl
ENDBRANCH  20  21
ENDBRANCH  19  20
ENDBRANCH  14  19
BRANCH  15  23
HETATM   23  C19 UNL     1       2.603   1.229  -0.562  1.00  0.00     0.139 C 
BRANCH  23  24
HETATM   24  C20 UNL     1       3.832   0.689  -1.266  1.00  0.00     0.040 C 
BRANCH  24  25
HETATM   25  C21 UNL     1       5.101   1.069  -0.541  1.00  0.00     0.123 C 
BRANCH  25  26
HETATM   26  N8  UNL     1       5.168   2.512  -0.502  1.00  0.00    -0.376 N 
ATOM     27  H8  UNL     1       4.397   3.071  -0.866  1.00  0.00     0.161 HD
BRANCH  26  28
HETATM   28  C22 UNL     1       6.196   3.082  -0.010  1.00  0.00     0.100 A 
HETATM   29  C23 UNL     1       7.226   2.311   0.475  1.00  0.00     0.048 A 
HETATM   30  C24 UNL     1       8.330   2.941   1.003  1.00  0.00     0.005 A 
HETATM   31  C25 UNL     1       8.393   4.303   1.042  1.00  0.00     0.017 A 
HETATM   32  C26 UNL     1       7.332   5.031   0.541  1.00  0.00     0.089 A 
HETATM   33  N9  UNL     1       6.251   4.425   0.024  1.00  0.00    -0.353 N 
ATOM     34  H9  UNL     1       5.477   4.980  -0.341  1.00  0.00     0.166 HD
ENDBRANCH  26  28
ENDBRANCH  25  26
ENDBRANCH  24  25
ENDBRANCH  23  24
ENDBRANCH  15  23
ENDBRANCH   9  12
BRANCH   1  35
HETATM   35  N1  UNL     1      -2.271  -2.647   2.928  1.00  0.00    -0.221 N 
ATOM     36  H1  UNL     1      -1.511  -3.032   3.489  1.00  0.00     0.178 HD
BRANCH  35  37
HETATM   37  C2  UNL     1      -3.594  -2.793   3.428  1.00  0.00     0.091 C 
HETATM   38  C1  UNL     1      -3.481  -3.171   4.904  1.00  0.00     0.032 C 
HETATM   39  C3  UNL     1      -4.394  -3.877   2.726  1.00  0.00     0.032 C 
ENDBRANCH  35  37
ENDBRANCH   1  35
BRANCH   5  40
HETATM   40  C6  UNL     1      -5.007  -0.455  -0.550  1.00  0.00     0.142 C 
BRANCH  40  41
HETATM   41  C7  UNL     1      -5.321   0.724   0.359  1.00  0.00     0.058 C 
BRANCH  41  42
HETATM   42  C8  UNL     1      -5.030   2.022  -0.263  1.00  0.00    -0.057 A 
HETATM   43  C9  UNL     1      -3.817   2.651  -0.164  1.00  0.00     0.007 A 
HETATM   44  C10 UNL     1      -3.583   3.881  -0.766  1.00  0.00     0.001 A 
HETATM   45  C11 UNL     1      -4.570   4.507  -1.483  1.00  0.00     0.000 A 
HETATM   46  C12 UNL     1      -5.802   3.881  -1.590  1.00  0.00     0.001 A 
HETATM   47  C13 UNL     1      -6.026   2.667  -0.993  1.00  0.00     0.007 A 
ENDBRANCH  41  42
ENDBRANCH  40  41
ENDBRANCH   5  40
TORSDOF 14
