REMARK  13 active torsions:
REMARK  status: ('A' for Active; 'I' for Inactive)
REMARK    1  A    between atoms: C3_3  and  C4_4 
REMARK    2  A    between atoms: C4_4  and  C5_5 
REMARK    3  A    between atoms: C5_5  and  C6_6 
REMARK    4  A    between atoms: C7_7  and  N1_8 
REMARK       I    between atoms: N1_8  and  C8_10 
REMARK    5  A    between atoms: C8_10  and  C9_12 
REMARK       I    between atoms: C9_12  and  N2_14 
REMARK    6  A    between atoms: N2_14  and  C10_15 
REMARK    7  A    between atoms: N2_14  and  C15_26 
REMARK    8  A    between atoms: C10_15  and  C11_16 
REMARK    9  A    between atoms: C11_16  and  C12_17 
REMARK   10  A    between atoms: C12_17  and  C13_18 
REMARK   11  A    between atoms: C13_18  and  N3_19 
REMARK       I    between atoms: N3_19  and  C14_21 
REMARK   12  A    between atoms: C15_26  and  C16_27 
REMARK   13  A    between atoms: C23_36  and  C24_37 
ROOT
HETATM    1  C1  UNL     1      -1.414   6.200   2.227  1.00  0.00     0.012 C 
HETATM    2  C2  UNL     1      -1.048   5.054   2.150  1.00  0.00    -0.117 C 
HETATM    3  C3  UNL     1      -0.589   3.646   2.074  1.00  0.00     0.093 C 
ENDROOT
BRANCH   3   4
HETATM    4  C4  UNL     1      -1.538   2.832   1.219  1.00  0.00     0.012 C 
BRANCH   4   5
HETATM    5  C5  UNL     1      -1.056   1.421   1.156  1.00  0.00     0.009 C 
BRANCH   5   6
HETATM    6  C6  UNL     1      -1.951   0.530   0.313  1.00  0.00     0.031 C 
HETATM    7  C7  UNL     1      -1.337  -0.825   0.348  1.00  0.00     0.091 C 
HETATM    8  C17 UNL     1      -2.142  -1.905  -0.405  1.00  0.00     0.031 C 
HETATM    9  C18 UNL     1      -3.493  -1.286  -0.452  1.00  0.00     0.002 C 
HETATM   10  C19 UNL     1      -3.777  -0.850   0.952  1.00  0.00     0.013 C 
HETATM   11  C26 UNL     1      -4.654  -1.915  -1.034  1.00  0.00    -0.035 C 
HETATM   12  C20 UNL     1      -5.140  -1.000   1.488  1.00  0.00     0.008 C 
HETATM   13  C25 UNL     1      -3.357   0.639   0.854  1.00  0.00     0.091 C 
HETATM   14  C21 UNL     1      -6.288  -1.043   0.563  1.00  0.00     0.011 C 
HETATM   15  C22 UNL     1      -5.754  -0.868  -0.864  1.00  0.00     0.040 C 
HETATM   16  C23 UNL     1      -5.239   0.536  -0.835  1.00  0.00     0.001 C 
HETATM   17  N7  UNL     1      -4.297   1.114  -0.156  1.00  0.00    -0.390 N 
ATOM     18  H7  UNL     1      -4.192   2.105  -0.373  1.00  0.00     0.159 HD
HETATM   19  C27 UNL     1      -4.485  -2.123  -2.528  1.00  0.00     0.016 C 
HETATM   20  C28 UNL     1      -5.012  -3.240  -0.436  1.00  0.00     0.016 C 
BRANCH   7  21
HETATM   21  N1  UNL     1      -0.081  -0.732  -0.383  1.00  0.00    -0.348 N 
HETATM   22  C8  UNL     1       1.167  -1.143   0.201  1.00  0.00     0.309 C 
HETATM   23  O1  UNL     1       1.114  -1.585   1.366  1.00  0.00    -0.262 OA
ATOM     24  H1  UNL     1      -0.087  -0.365  -1.335  1.00  0.00     0.163 HD
BRANCH  22  25
HETATM   25  C9  UNL     1       2.411  -1.046  -0.529  1.00  0.00     0.311 C 
HETATM   26  O2  UNL     1       2.315  -0.577  -1.725  1.00  0.00    -0.262 OA
HETATM   27  N2  UNL     1       3.692  -1.411  -0.064  1.00  0.00    -0.336 N 
BRANCH  27  28
HETATM   28  C10 UNL     1       4.826  -1.256  -0.946  1.00  0.00     0.127 C 
BRANCH  28  29
HETATM   29  C11 UNL     1       5.422   0.154  -0.882  1.00  0.00     0.021 C 
BRANCH  29  30
HETATM   30  C12 UNL     1       5.881   0.550   0.479  1.00  0.00     0.021 C 
BRANCH  30  31
HETATM   31  C13 UNL     1       6.457   1.918   0.591  1.00  0.00     0.122 C 
BRANCH  31  32
HETATM   32  N3  UNL     1       7.611   2.230  -0.181  1.00  0.00    -0.365 N 
HETATM   33  C14 UNL     1       7.657   2.395  -1.581  1.00  0.00     0.181 C 
HETATM   34  N4  UNL     1       8.648   1.938  -2.268  1.00  0.00    -0.374 N 
HETATM   35  N5  UNL     1       6.621   3.076  -2.264  1.00  0.00    -0.064 NA
ATOM     36  H42 UNL     1       9.395   1.447  -1.776  1.00  0.00     0.158 HD
ATOM     37  H41 UNL     1       8.681   2.057  -3.280  1.00  0.00     0.158 HD
ATOM     38  H3  UNL     1       8.488   2.345   0.326  1.00  0.00     0.162 HD
ENDBRANCH  31  32
ENDBRANCH  30  31
ENDBRANCH  29  30
ENDBRANCH  28  29
ENDBRANCH  27  28
BRANCH  27  39
HETATM   39  C15 UNL     1       3.917  -1.953   1.255  1.00  0.00     0.225 C 
BRANCH  39  40
HETATM   40  C16 UNL     1       3.731  -3.429   1.172  1.00  0.00     0.249 C 
HETATM   41  N6  UNL     1       3.887  -4.240   2.315  1.00  0.00    -0.061 NA
HETATM   42  O3  UNL     1       3.435  -3.948   0.082  1.00  0.00    -0.275 OA
ENDBRANCH  39  40
ENDBRANCH  27  39
ENDBRANCH  22  25
ENDBRANCH   7  21
BRANCH  16  43
HETATM   43  C24 UNL     1      -5.930   1.516  -1.738  1.00  0.00     0.167 C 
HETATM   44 CL1  UNL     1      -5.765   0.977  -3.400  1.00  0.00    -0.124 Cl
ENDBRANCH  16  43
ENDBRANCH   5   6
ENDBRANCH   4   5
ENDBRANCH   3   4
TORSDOF 13
