REMARK  5 active torsions:
REMARK  status: ('A' for Active; 'I' for Inactive)
REMARK    1  A    between atoms: N1_1  and  C1_4 
REMARK    2  A    between atoms: C1_4  and  N2_5 
REMARK    3  A    between atoms: C1_4  and  C3_16 
REMARK    4  A    between atoms: N2_5  and  C2_7 
REMARK    5  A    between atoms: C4_21  and  N9_22 
ROOT
HETATM    1  C1  UNL     1      -0.097   1.077   0.387  1.00  0.00     0.148 C 
ENDROOT
BRANCH   1   2
HETATM    2  N1  UNL     1      -0.814   2.023  -0.109  1.00  0.00    -0.383 N 
ATOM      3  H12 UNL     1      -1.485   2.524   0.474  1.00  0.00     0.157 HD
ATOM      4  H11 UNL     1      -0.701   2.265  -1.094  1.00  0.00     0.157 HD
ENDBRANCH   1   2
BRANCH   1   5
HETATM    5  N2  UNL     1      -0.254   0.741   1.756  1.00  0.00    -0.172 N 
ATOM      6  H2  UNL     1       0.548   0.829   2.379  1.00  0.00     0.186 HD
BRANCH   5   7
HETATM    7  C2  UNL     1      -1.357   0.335   2.232  1.00  0.00     0.715 A 
HETATM    8  N3  UNL     1      -1.558   0.004   3.519  1.00  0.00    -0.115 N 
HETATM    9  N4  UNL     1      -2.819  -0.374   3.659  1.00  0.00    -0.213 N 
ATOM     10  H3  UNL     1      -0.859   0.038   4.261  1.00  0.00     0.207 HD
HETATM   11  N5  UNL     1      -3.427  -0.293   2.492  1.00  0.00    -0.213 N 
ATOM     12  H4  UNL     1      -3.251  -0.679   4.531  1.00  0.00     0.210 HD
HETATM   13  N6  UNL     1      -2.533   0.141   1.615  1.00  0.00    -0.115 N 
ATOM     14  H5  UNL     1      -4.402  -0.521   2.300  1.00  0.00     0.210 HD
ATOM     15  H6  UNL     1      -2.711   0.303   0.624  1.00  0.00     0.207 HD
ENDBRANCH   5   7
ENDBRANCH   1   5
BRANCH   1  16
HETATM   16  C3  UNL     1       0.870   0.354  -0.453  1.00  0.00     0.161 A 
HETATM   17  N7  UNL     1       1.053   0.636  -1.752  1.00  0.00    -0.278 N 
HETATM   18  N8  UNL     1       1.940  -0.041  -2.483  1.00  0.00    -0.132 N 
ATOM     19  H7  UNL     1       0.506   1.379  -2.187  1.00  0.00     0.188 HD
HETATM   20  C4  UNL     1       2.697  -1.033  -1.982  1.00  0.00     0.693 A 
ATOM     21  H8  UNL     1       2.049   0.205  -3.467  1.00  0.00     0.205 HD
HETATM   22  N10 UNL     1       2.538  -1.339  -0.685  1.00  0.00    -0.153 N 
HETATM   23  C5  UNL     1       1.636  -0.659   0.081  1.00  0.00     0.291 A 
ATOM     24  H10 UNL     1       3.095  -2.085  -0.269  1.00  0.00     0.187 HD
HETATM   25  O1  UNL     1       1.486  -0.947   1.300  1.00  0.00    -0.265 OA
BRANCH  20  26
HETATM   26  N9  UNL     1       3.550  -1.664  -2.740  1.00  0.00    -0.233 N 
ATOM     27  H92 UNL     1       3.671  -1.431  -3.726  1.00  0.00     0.174 HD
ATOM     28  H91 UNL     1       4.124  -2.416  -2.360  1.00  0.00     0.174 HD
ENDBRANCH  20  26
ENDBRANCH   1  16
TORSDOF 5
