REMARK  4 active torsions:
REMARK  status: ('A' for Active; 'I' for Inactive)
REMARK    1  A    between atoms: N1_1  and  C1_4 
REMARK    2  A    between atoms: C3_9  and  O1_10 
REMARK    3  A    between atoms: O1_10  and  S1_11 
REMARK    4  A    between atoms: S1_11  and  N4_12 
ROOT
HETATM    1  C1  UNL     1      -2.176  -0.867  -0.972  1.00  0.00     0.680 A 
HETATM    2  N2  UNL     1      -1.751   0.406  -0.976  1.00  0.00    -0.176 N 
ATOM      3  H2  UNL     1      -2.167   1.072  -1.627  1.00  0.00     0.185 HD
HETATM    4  C2  UNL     1      -0.786   0.818  -0.135  1.00  0.00     0.172 A 
HETATM    5  N3  UNL     1      -0.388   2.173  -0.193  1.00  0.00    -0.079 NA
HETATM    6  C3  UNL     1      -0.186  -0.056   0.773  1.00  0.00     0.200 A 
HETATM    7  C4  UNL     1      -0.637  -1.354   0.757  1.00  0.00     0.298 A 
HETATM    8  O4  UNL     1      -0.116  -2.163   1.564  1.00  0.00    -0.264 OA
HETATM    9  N5  UNL     1      -1.606  -1.739  -0.095  1.00  0.00    -0.154 N 
ATOM     10  H5  UNL     1      -1.921  -2.709  -0.083  1.00  0.00     0.187 HD
ENDROOT
BRANCH   6  11
HETATM   11  O1  UNL     1       0.784   0.442   1.589  1.00  0.00    -0.208 OA
BRANCH  11  12
HETATM   12  S1  UNL     1       2.427   0.498   1.277  1.00  0.00     0.360 S 
HETATM   13  O2  UNL     1       2.871   1.948   1.406  1.00  0.00    -0.176 OA
HETATM   14  O3  UNL     1       3.238  -0.267   2.296  1.00  0.00    -0.176 OA
BRANCH  12  15
HETATM   15  N4  UNL     1       2.842  -0.007  -0.315  1.00  0.00    -0.305 N 
ATOM     16  H42 UNL     1       2.141  -0.309  -0.992  1.00  0.00     0.171 HD
ATOM     17  H41 UNL     1       3.844   0.027  -0.505  1.00  0.00     0.171 HD
ENDBRANCH  12  15
ENDBRANCH  11  12
ENDBRANCH   6  11
BRANCH   1  18
HETATM   18  N1  UNL     1      -3.109  -1.257  -1.787  1.00  0.00    -0.234 N 
ATOM     19  H12 UNL     1      -3.536  -0.604  -2.444  1.00  0.00     0.174 HD
ATOM     20  H11 UNL     1      -3.432  -2.225  -1.784  1.00  0.00     0.174 HD
ENDBRANCH   1  18
TORSDOF 4
