REMARK  12 active torsions:
REMARK  status: ('A' for Active; 'I' for Inactive)
REMARK    1  A    between atoms: C2_2  and  C3_3 
REMARK    2  A    between atoms: C4_4  and  C5_5 
REMARK    3  A    between atoms: C6_6  and  C7_7 
REMARK    4  A    between atoms: C14_14  and  C15_15 
REMARK    5  A    between atoms: C15_15  and  C16_16 
REMARK    6  A    between atoms: C16_16  and  C17_17 
REMARK    7  A    between atoms: C18_18  and  O1_19 
REMARK    8  A    between atoms: O1_19  and  C19_20 
REMARK    9  A    between atoms: C21_23  and  O3_24 
REMARK   10  A    between atoms: C22_26  and  O4_27 
REMARK   11  A    between atoms: C23_29  and  O5_30 
REMARK   12  A    between atoms: C28_37  and  C29_38 
ROOT
HETATM    1  C5  UNL     1       3.061   0.229  -0.467  1.00  0.00     0.079 C 
HETATM    2  C6  UNL     1       2.841   0.991  -1.746  1.00  0.00     0.005 C 
HETATM    3  C10 UNL     1       1.879   2.132  -1.568  1.00  0.00     0.007 C 
HETATM    4  C11 UNL     1       0.768   2.066  -0.668  1.00  0.00     0.011 C 
HETATM    5  C12 UNL     1       0.784   1.029   0.398  1.00  0.00    -0.025 C 
HETATM    6  C13 UNL     1       0.247   1.717   1.645  1.00  0.00     0.016 C 
HETATM    7  C14 UNL     1      -0.131  -0.140  -0.024  1.00  0.00     0.064 C 
HETATM    8  C24 UNL     1       0.730  -1.341   0.108  1.00  0.00     0.132 C 
HETATM    9  O6  UNL     1       0.654  -2.346  -0.580  1.00  0.00    -0.298 OA
HETATM   10  C25 UNL     1       1.608  -0.974   1.201  1.00  0.00     0.090 C 
HETATM   11  C26 UNL     1       2.119   0.393   0.671  1.00  0.00    -0.015 C 
HETATM   12  C27 UNL     1       2.743   0.980   1.940  1.00  0.00     0.018 C 
ENDROOT
BRANCH   7  13
HETATM   13  C15 UNL     1      -1.381  -0.328   0.722  1.00  0.00     0.017 C 
BRANCH  13  14
HETATM   14  C16 UNL     1      -2.408   0.759   0.622  1.00  0.00     0.030 C 
BRANCH  14  15
HETATM   15  C17 UNL     1      -3.589   0.625   1.508  1.00  0.00    -0.003 C 
HETATM   16  C18 UNL     1      -4.577  -0.421   1.455  1.00  0.00     0.134 C 
BRANCH  16  17
HETATM   17  O1  UNL     1      -5.420  -0.643   0.403  1.00  0.00    -0.330 OA
BRANCH  17  18
HETATM   18  C19 UNL     1      -6.102   0.490  -0.020  1.00  0.00     0.296 C 
HETATM   19  O2  UNL     1      -6.477   0.407  -1.315  1.00  0.00    -0.356 OA
HETATM   20  C20 UNL     1      -7.401  -0.500  -1.699  1.00  0.00     0.205 C 
HETATM   21  C21 UNL     1      -8.662  -0.575  -0.851  1.00  0.00     0.173 C 
HETATM   22  C22 UNL     1      -8.237  -0.595   0.639  1.00  0.00     0.182 C 
HETATM   23  C23 UNL     1      -7.405   0.594   0.832  1.00  0.00     0.205 C 
BRANCH  21  24
HETATM   24  O3  UNL     1      -9.312  -1.785  -1.118  1.00  0.00    -0.391 OA
ATOM     25  H3  UNL     1     -10.099  -1.832  -0.589  1.00  0.00     0.210 HD
ENDBRANCH  21  24
BRANCH  22  26
HETATM   26  O4  UNL     1      -9.421  -0.417   1.406  1.00  0.00    -0.390 OA
ATOM     27  H4  UNL     1      -9.160  -0.429   2.319  1.00  0.00     0.210 HD
ENDBRANCH  22  26
BRANCH  23  28
HETATM   28  O5  UNL     1      -7.118   0.902   2.148  1.00  0.00    -0.388 OA
ATOM     29  H5  UNL     1      -7.911   0.965   2.667  1.00  0.00     0.210 HD
ENDBRANCH  23  28
ENDBRANCH  17  18
ENDBRANCH  16  17
ENDBRANCH  14  15
ENDBRANCH  13  14
ENDBRANCH   7  13
BRANCH   1  30
HETATM   30  C4  UNL     1       4.168  -0.661  -0.431  1.00  0.00    -0.095 C 
HETATM   31  C3  UNL     1       5.064  -1.390  -0.369  1.00  0.00    -0.071 C 
BRANCH  31  32
HETATM   32  C2  UNL     1       6.186  -2.299  -0.307  1.00  0.00    -0.002 C 
HETATM   33  C1  UNL     1       7.080  -2.716  -1.341  1.00  0.00     0.058 C 
HETATM   34  C28 UNL     1       6.447  -2.777   0.940  1.00  0.00     0.100 C 
BRANCH  34  35
HETATM   35  C29 UNL     1       7.511  -3.634   1.292  1.00  0.00     0.199 C 
HETATM   36  O7  UNL     1       8.383  -4.165   0.588  1.00  0.00    -0.644 OA
HETATM   37  O8  UNL     1       7.617  -3.966   2.722  1.00  0.00    -0.644 OA
ENDBRANCH  34  35
ENDBRANCH  31  32
ENDBRANCH   1  30
BRANCH   2  38
HETATM   38  C7  UNL     1       4.139   1.480  -2.363  1.00  0.00    -0.017 C 
HETATM   39  C8  UNL     1       3.962   2.338  -3.597  1.00  0.00     0.010 C 
HETATM   40  C9  UNL     1       5.002   2.315  -1.430  1.00  0.00     0.010 C 
ENDBRANCH   2  38
TORSDOF 12
