REMARK  5 active torsions:
REMARK  status: ('A' for Active; 'I' for Inactive)
REMARK    1  A    between atoms: C16_17  and  C17_18 
REMARK       I    between atoms: C17_18  and  N2_20 
REMARK    2  A    between atoms: N2_20  and  C19_22 
REMARK    3  A    between atoms: C19_22  and  C20_23 
REMARK    4  A    between atoms: C20_23  and  N3_24 
REMARK    5  A    between atoms: N3_24  and  C21_26 
ROOT
HETATM    1  C1  UNL     1      -1.170   3.755   0.400  1.00  0.00     0.309 C 
HETATM    2  N1  UNL     1      -1.150   2.671  -0.580  1.00  0.00     0.084 N 
HETATM    3  C2  UNL     1      -2.282   2.704  -1.434  1.00  0.00     0.271 C 
HETATM    4  C3  UNL     1      -3.087   1.462  -1.509  1.00  0.00     0.030 C 
HETATM    5  C4  UNL     1      -4.432   1.761  -2.109  1.00  0.00     0.002 C 
HETATM    6  C5  UNL     1      -5.404   2.355  -1.134  1.00  0.00     0.000 C 
HETATM    7  C6  UNL     1      -5.741   1.457   0.017  1.00  0.00     0.000 C 
HETATM    8  C7  UNL     1      -6.478   0.227  -0.363  1.00  0.00     0.000 C 
HETATM    9  C8  UNL     1      -5.708  -1.049  -0.239  1.00  0.00     0.000 C 
HETATM   10  C9  UNL     1      -5.211  -1.350   1.125  1.00  0.00     0.000 C 
HETATM   11  C10 UNL     1      -4.215  -2.489   1.047  1.00  0.00     0.000 C 
HETATM   12  C11 UNL     1      -2.850  -1.917   0.730  1.00  0.00     0.000 C 
HETATM   13  C12 UNL     1      -1.727  -2.726   1.352  1.00  0.00     0.000 C 
HETATM   14  C13 UNL     1      -0.696  -3.161   0.371  1.00  0.00     0.000 C 
HETATM   15  C14 UNL     1       0.151  -2.105  -0.235  1.00  0.00     0.001 C 
HETATM   16  C15 UNL     1       0.769  -1.177   0.769  1.00  0.00     0.014 C 
HETATM   17  C16 UNL     1       1.269   0.110   0.240  1.00  0.00     0.080 C 
HETATM   18  C27 UNL     1       0.459   1.317   0.640  1.00  0.00     0.044 C 
HETATM   19  C28 UNL     1      -0.914   1.401   0.072  1.00  0.00     0.272 C 
ENDROOT
BRANCH  17  20
HETATM   20  C17 UNL     1       1.608   0.149  -1.195  1.00  0.00     0.223 C 
HETATM   21  O1  UNL     1       0.794   0.799  -1.924  1.00  0.00    -0.273 OA
HETATM   22  N2  UNL     1       2.706  -0.441  -1.834  1.00  0.00    -0.355 N 
HETATM   23  C18 UNL     1       2.864  -0.322  -3.268  1.00  0.00     0.152 C 
BRANCH  22  24
HETATM   24  C19 UNL     1       3.724  -1.161  -1.113  1.00  0.00     0.145 C 
BRANCH  24  25
HETATM   25  C20 UNL     1       4.870  -0.282  -0.671  1.00  0.00     0.139 C 
BRANCH  25  26
HETATM   26  N3  UNL     1       5.827  -1.089   0.037  1.00  0.00    -0.386 N 
ATOM     27  H3  UNL     1       5.645  -2.086   0.153  1.00  0.00     0.159 HD
BRANCH  26  28
HETATM   28  C21 UNL     1       7.024  -0.536   0.582  1.00  0.00     0.067 A 
HETATM   29  C22 UNL     1       7.316   0.794   0.456  1.00  0.00     0.035 A 
HETATM   30  C23 UNL     1       8.479   1.317   0.989  1.00  0.00     0.044 A 
HETATM   31  C24 UNL     1       9.373   0.523   1.659  1.00  0.00     0.119 A 
HETATM   32  F1  UNL     1      10.520   1.043   2.184  1.00  0.00    -0.206 F 
HETATM   33  C25 UNL     1       9.078  -0.819   1.786  1.00  0.00     0.086 A 
HETATM   34  C26 UNL     1       7.901  -1.347   1.246  1.00  0.00     0.145 A 
HETATM   35  F2  UNL     1       7.658  -2.664   1.397  1.00  0.00    -0.204 F 
ENDBRANCH  26  28
ENDBRANCH  25  26
ENDBRANCH  24  25
ENDBRANCH  22  24
ENDBRANCH  17  20
TORSDOF 5
