REMARK  6 active torsions:
REMARK  status: ('A' for Active; 'I' for Inactive)
REMARK    1  A    between atoms: C14_14  and  C15_15 
REMARK    2  A    between atoms: C15_15  and  C16_16 
REMARK    3  A    between atoms: C16_16  and  O1_17 
REMARK    4  A    between atoms: O1_17  and  C17_18 
REMARK    5  A    between atoms: C17_18  and  C18_20 
REMARK    6  A    between atoms: C19_21  and  C20_22 
ROOT
HETATM    1  C1  UNL     1      -4.511  -0.047   3.168  1.00  0.00     0.010 C 
HETATM    2  C2  UNL     1      -4.879  -0.111   1.671  1.00  0.00    -0.013 C 
HETATM    3  C3  UNL     1      -5.503  -1.399   1.376  1.00  0.00     0.005 C 
HETATM    4  C4  UNL     1      -5.105  -2.098   0.115  1.00  0.00     0.001 C 
HETATM    5  C5  UNL     1      -3.685  -1.685  -0.318  1.00  0.00     0.014 C 
HETATM    6  C6  UNL     1      -3.614  -0.204  -0.513  1.00  0.00    -0.015 C 
HETATM    7  C7  UNL     1      -4.950   0.268  -1.139  1.00  0.00     0.020 C 
HETATM    8  C8  UNL     1      -3.717   0.376   0.910  1.00  0.00     0.005 C 
HETATM    9  C9  UNL     1      -3.806   1.911   0.776  1.00  0.00     0.033 C 
HETATM   10  C10 UNL     1      -2.716   2.426  -0.062  1.00  0.00    -0.019 C 
HETATM   11  C11 UNL     1      -2.129   1.734  -0.965  1.00  0.00    -0.058 C 
HETATM   12  C12 UNL     1      -1.007   2.245  -1.832  1.00  0.00     0.039 C 
HETATM   13  C13 UNL     1       0.269   1.452  -1.665  1.00  0.00     0.015 C 
HETATM   14  C14 UNL     1       0.029   0.144  -1.048  1.00  0.00    -0.027 C 
HETATM   15  C26 UNL     1       0.560  -1.146  -1.584  1.00  0.00     0.012 C 
HETATM   16  C27 UNL     1      -0.834  -1.702  -1.166  1.00  0.00     0.015 C 
HETATM   17  C28 UNL     1      -1.285  -0.390  -1.607  1.00  0.00    -0.011 C 
HETATM   18  C29 UNL     1      -1.119  -0.439  -3.156  1.00  0.00     0.021 C 
HETATM   19  C30 UNL     1      -2.502   0.332  -1.287  1.00  0.00    -0.056 C 
ENDROOT
BRANCH  14  20
HETATM   20  C15 UNL     1       0.283   0.174   0.410  1.00  0.00     0.037 C 
BRANCH  20  21
HETATM   21  C16 UNL     1       1.675   0.557   0.792  1.00  0.00     0.180 C 
BRANCH  21  22
HETATM   22  O1  UNL     1       2.688  -0.271   0.309  1.00  0.00    -0.318 OA
BRANCH  22  23
HETATM   23  C17 UNL     1       4.065  -0.024   0.599  1.00  0.00     0.282 C 
HETATM   24  O2  UNL     1       4.220   0.983   1.309  1.00  0.00    -0.260 OA
BRANCH  23  25
HETATM   25  C18 UNL     1       5.014  -0.938   0.050  1.00  0.00     0.083 C 
HETATM   26  C19 UNL     1       6.262  -1.135   0.071  1.00  0.00     0.024 C 
BRANCH  26  27
HETATM   27  C20 UNL     1       7.386  -0.522   0.694  1.00  0.00     0.041 A 
HETATM   28  C21 UNL     1       7.435   0.058   1.906  1.00  0.00     0.129 A 
HETATM   29  F1  UNL     1       6.474  -0.067   2.866  1.00  0.00    -0.205 F 
HETATM   30  C22 UNL     1       8.573   0.749   2.320  1.00  0.00     0.043 A 
HETATM   31  C23 UNL     1       9.690   0.872   1.534  1.00  0.00     0.006 A 
HETATM   32  C24 UNL     1       9.640   0.276   0.301  1.00  0.00     0.043 A 
HETATM   33  C25 UNL     1       8.541  -0.400  -0.124  1.00  0.00     0.129 A 
HETATM   34  F2  UNL     1       8.571  -0.964  -1.361  1.00  0.00    -0.205 F 
ENDBRANCH  26  27
ENDBRANCH  23  25
ENDBRANCH  22  23
ENDBRANCH  21  22
ENDBRANCH  20  21
ENDBRANCH  14  20
TORSDOF 6
