REMARK  7 active torsions:
REMARK  status: ('A' for Active; 'I' for Inactive)
REMARK    1  A    between atoms: C2_2  and  C4_4 
REMARK    2  A    between atoms: C4_4  and  N1_5 
REMARK    3  A    between atoms: N1_5  and  C5_7 
REMARK    4  A    between atoms: C10_17  and  C11_18 
REMARK    5  A    between atoms: C11_18  and  C12_19 
REMARK    6  A    between atoms: C17_24  and  C18_25 
REMARK       I    between atoms: C18_25  and  N4_27 
REMARK    7  A    between atoms: N4_27  and  C19_29 
ROOT
HETATM    1  C5  UNL     1      -2.412  -0.615   0.933  1.00  0.00     0.082 C 
HETATM    2  C6  UNL     1      -2.115  -2.014   1.256  1.00  0.00     0.084 C 
HETATM    3  C7  UNL     1      -1.983  -3.036   0.199  1.00  0.00     0.084 C 
HETATM    4  C8  UNL     1      -0.603  -3.058  -0.457  1.00  0.00     0.088 A 
HETATM    5  N2  UNL     1      -0.330  -3.588  -1.656  1.00  0.00    -0.315 N 
ATOM      6  H2  UNL     1      -0.948  -4.084  -2.299  1.00  0.00     0.175 HD
HETATM    7  S1  UNL     1       1.308  -3.217  -1.820  1.00  0.00     0.001 SA
HETATM    8  C9  UNL     1       1.580  -2.405  -0.364  1.00  0.00     0.079 A 
HETATM    9  N3  UNL     1       0.323  -2.480   0.184  1.00  0.00    -0.342 N 
ATOM     10  H3  UNL     1       0.137  -2.073   1.101  1.00  0.00     0.167 HD
HETATM   11  C10 UNL     1       2.562  -1.628   0.460  1.00  0.00     0.094 C 
HETATM   12  C15 UNL     1       1.880  -0.279   0.626  1.00  0.00     0.022 A 
HETATM   13  C16 UNL     1       2.425   0.932   0.373  1.00  0.00     0.043 A 
HETATM   14  C17 UNL     1       1.637   2.073   0.502  1.00  0.00     0.037 A 
HETATM   15  C22 UNL     1       0.319   1.888   0.889  1.00  0.00     0.065 A 
HETATM   16  C23 UNL     1      -0.198   0.640   1.136  1.00  0.00     0.107 A 
HETATM   17  N5  UNL     1       0.616  -0.380   0.992  1.00  0.00    -0.345 N 
ATOM     18  H5  UNL     1       0.247  -1.313   1.175  1.00  0.00     0.167 HD
HETATM   19  N6  UNL     1      -1.583   0.418   1.507  1.00  0.00    -0.332 N 
ATOM     20  H6  UNL     1      -1.995   1.027   2.214  1.00  0.00     0.168 HD
ENDROOT
BRANCH  14  21
HETATM   21  C18 UNL     1       2.173   3.382   0.221  1.00  0.00     0.252 C 
HETATM   22  O1  UNL     1       3.418   3.534   0.203  1.00  0.00    -0.268 OA
HETATM   23  N4  UNL     1       1.328   4.462  -0.030  1.00  0.00    -0.352 N 
ATOM     24  H4  UNL     1       0.320   4.308  -0.005  1.00  0.00     0.163 HD
BRANCH  23  25
HETATM   25  C19 UNL     1       1.818   5.797  -0.325  1.00  0.00     0.084 A 
HETATM   26  C20 UNL     1       0.909   6.695  -1.063  1.00  0.00     0.027 A 
HETATM   27  C21 UNL     1       1.047   6.870   0.423  1.00  0.00     0.027 A 
ENDBRANCH  23  25
ENDBRANCH  14  21
BRANCH  11  28
HETATM   28  C11 UNL     1       3.951  -1.572   0.147  1.00  0.00     0.021 C 
BRANCH  28  29
HETATM   29  C12 UNL     1       4.783  -2.771   0.189  1.00  0.00    -0.022 C 
HETATM   30  C13 UNL     1       4.418  -3.893  -0.723  1.00  0.00     0.009 C 
HETATM   31  C14 UNL     1       6.256  -2.439  -0.170  1.00  0.00     0.009 C 
ENDBRANCH  28  29
ENDBRANCH  11  28
BRANCH   1  32
HETATM   32  N1  UNL     1      -2.825  -0.281  -0.399  1.00  0.00    -0.359 N 
ATOM     33  H1  UNL     1      -2.207  -0.398  -1.202  1.00  0.00     0.166 HD
BRANCH  32  34
HETATM   34  C4  UNL     1      -4.130   0.217  -0.532  1.00  0.00     0.066 C 
BRANCH  34  35
HETATM   35  C2  UNL     1      -5.307  -0.621  -0.284  1.00  0.00     0.016 C 
HETATM   36  C1  UNL     1      -5.494  -1.825  -1.138  1.00  0.00     0.015 C 
HETATM   37  C3  UNL     1      -6.536   0.291  -0.482  1.00  0.00     0.015 C 
ENDBRANCH  34  35
ENDBRANCH  32  34
ENDBRANCH   1  32
TORSDOF 7
