REMARK  9 active torsions:
REMARK  status: ('A' for Active; 'I' for Inactive)
REMARK    1  A    between atoms: O1_1  and  C1_3 
REMARK    2  A    between atoms: C4_7  and  C5_8 
REMARK    3  A    between atoms: C5_8  and  S1_9 
REMARK    4  A    between atoms: S1_9  and  C6_10 
REMARK    5  A    between atoms: N2_13  and  C7_14 
REMARK    6  A    between atoms: C7_14  and  C8_15 
REMARK    7  A    between atoms: C16_27  and  N5_28 
REMARK    8  A    between atoms: N5_28  and  C17_30 
REMARK    9  A    between atoms: C17_30  and  C18_31 
ROOT
HETATM    1  C6  UNL     1      -0.304   0.211  -1.187  1.00  0.00     0.102 A 
HETATM    2  N1  UNL     1       0.831  -0.540  -1.238  1.00  0.00    -0.289 N 
ATOM      3  H1  UNL     1       0.896  -1.550  -1.112  1.00  0.00     0.188 HD
HETATM    4  N2  UNL     1       1.829   0.286  -1.481  1.00  0.00    -0.274 N 
HETATM    5  C14 UNL     1       1.403   1.558  -1.593  1.00  0.00     0.140 A 
HETATM    6  N3  UNL     1       1.970   2.741  -1.827  1.00  0.00    -0.336 N 
ATOM      7  H3  UNL     1       2.978   2.800  -1.970  1.00  0.00     0.168 HD
HETATM    8  C15 UNL     1       1.228   3.848  -1.875  1.00  0.00     0.183 A 
HETATM    9  N4  UNL     1      -0.122   3.803  -1.690  1.00  0.00    -0.338 N 
ATOM     10  H4  UNL     1      -0.656   4.671  -1.735  1.00  0.00     0.168 HD
HETATM   11  C16 UNL     1      -0.768   2.656  -1.451  1.00  0.00     0.119 A 
HETATM   12  C22 UNL     1       0.046   1.518  -1.407  1.00  0.00     0.088 A 
ENDROOT
BRANCH   1  13
HETATM   13  S1  UNL     1      -1.967  -0.386  -0.886  1.00  0.00    -0.107 SA
BRANCH  13  14
HETATM   14  C5  UNL     1      -1.904  -2.175  -0.656  1.00  0.00     0.115 C 
BRANCH  14  15
HETATM   15  C4  UNL     1      -3.258  -2.758  -0.399  1.00  0.00     0.159 C 
HETATM   16  C1  UNL     1      -3.134  -4.249  -0.217  1.00  0.00     0.149 C 
HETATM   17  C2  UNL     1      -4.370  -4.529   0.648  1.00  0.00     0.060 C 
HETATM   18  C3  UNL     1      -4.462  -3.250   1.424  1.00  0.00     0.171 C 
HETATM   19  O2  UNL     1      -3.887  -2.245   0.699  1.00  0.00    -0.382 OA
BRANCH  16  20
HETATM   20  O1  UNL     1      -2.002  -4.576   0.547  1.00  0.00    -0.393 OA
ATOM     21  H1  UNL     1      -1.237  -4.403   0.011  1.00  0.00     0.210 HD
ENDBRANCH  16  20
ENDBRANCH  14  15
ENDBRANCH  13  14
ENDBRANCH   1  13
BRANCH   4  22
HETATM   22  C7  UNL     1       3.209  -0.119  -1.610  1.00  0.00     0.155 C 
BRANCH  22  23
HETATM   23  C8  UNL     1       3.931  -0.090  -0.261  1.00  0.00     0.005 C 
HETATM   24  C9  UNL     1       5.346  -0.527  -0.525  1.00  0.00     0.006 C 
HETATM   25  C10 UNL     1       6.041  -1.055   0.695  1.00  0.00     0.000 C 
HETATM   26  C11 UNL     1       5.220  -2.052   1.457  1.00  0.00     0.000 C 
HETATM   27  C12 UNL     1       3.961  -1.342   1.911  1.00  0.00     0.000 C 
HETATM   28  C13 UNL     1       3.184  -0.996   0.660  1.00  0.00     0.006 C 
ENDBRANCH  22  23
ENDBRANCH   4  22
BRANCH  11  29
HETATM   29  N5  UNL     1      -2.024   2.568  -1.272  1.00  0.00    -0.371 N 
ATOM     30  H5  UNL     1      -2.394   1.633  -1.099  1.00  0.00     0.161 HD
BRANCH  29  31
HETATM   31  C17 UNL     1      -2.967   3.627  -1.287  1.00  0.00     0.167 C 
BRANCH  31  32
HETATM   32  C18 UNL     1      -3.175   4.249   0.076  1.00  0.00     0.000 A 
HETATM   33  C19 UNL     1      -4.071   3.862   1.034  1.00  0.00     0.017 A 
HETATM   34  C20 UNL     1      -4.089   4.559   2.181  1.00  0.00     0.008 A 
HETATM   35  C21 UNL     1      -3.208   5.599   2.295  1.00  0.00     0.050 A 
HETATM   36  S2  UNL     1      -2.384   5.572   0.804  1.00  0.00    -0.105 SA
ENDBRANCH  31  32
ENDBRANCH  29  31
ENDBRANCH  11  29
TORSDOF 9
