REMARK  11 active torsions:
REMARK  status: ('A' for Active; 'I' for Inactive)
REMARK    1  A    between atoms: C2_2  and  S1_3 
REMARK    2  A    between atoms: C4_6  and  S3_7 
REMARK    3  A    between atoms: S3_7  and  C5_8 
REMARK    4  A    between atoms: C5_8  and  C6_9 
REMARK    5  A    between atoms: C6_9  and  O1_10 
REMARK    6  A    between atoms: C6_9  and  C7_12 
REMARK    7  A    between atoms: C7_12  and  C8_13 
REMARK    8  A    between atoms: C8_13  and  N1_14 
REMARK    9  A    between atoms: C9_18  and  O2_19 
REMARK   10  A    between atoms: C10_21  and  O3_22 
REMARK   11  A    between atoms: C11_24  and  O4_25 
ROOT
HETATM    1  C1  UNL     1      -4.029   0.582   1.229  1.00  0.00     0.031 C 
HETATM    2  C2  UNL     1      -3.224   0.022   0.078  1.00  0.00     0.045 C 
HETATM    3  C3  UNL     1      -2.098   0.890  -0.331  1.00  0.00     0.041 C 
HETATM    4  C4  UNL     1      -0.745   0.479   0.313  1.00  0.00     0.080 C 
HETATM    5  C9  UNL     1      -0.420  -0.909  -0.049  1.00  0.00     0.163 C 
HETATM    6  C10 UNL     1      -1.645  -1.708  -0.503  1.00  0.00     0.178 C 
HETATM    7  C11 UNL     1      -2.808  -1.400   0.387  1.00  0.00     0.168 C 
ENDROOT
BRANCH   4   8
HETATM    8  S3  UNL     1       0.408   1.700  -0.159  1.00  0.00    -0.159 SA
BRANCH   8   9
HETATM    9  C5  UNL     1       1.957   1.927   0.525  1.00  0.00     0.106 C 
BRANCH   9  10
HETATM   10  C6  UNL     1       3.189   1.183   0.223  1.00  0.00     0.129 C 
BRANCH  10  11
HETATM   11  O1  UNL     1       4.226   1.702   1.042  1.00  0.00    -0.395 OA
ATOM     12  H1  UNL     1       5.022   1.221   0.847  1.00  0.00     0.210 HD
ENDBRANCH  10  11
BRANCH  10  13
HETATM   13  C7  UNL     1       3.163  -0.269   0.188  1.00  0.00     0.059 C 
BRANCH  13  14
HETATM   14  C8  UNL     1       4.546  -0.879  -0.091  1.00  0.00     0.232 C 
BRANCH  14  15
HETATM   15  N1  UNL     1       5.111  -0.478  -1.328  1.00  0.00    -0.079 N 
ATOM     16  H13 UNL     1       4.470  -0.676  -2.096  1.00  0.00     0.274 HD
ATOM     17  H12 UNL     1       5.148   0.539  -1.393  1.00  0.00     0.274 HD
ATOM     18  H11 UNL     1       6.029  -0.883  -1.513  1.00  0.00     0.274 HD
ENDBRANCH  14  15
ENDBRANCH  13  14
ENDBRANCH  10  13
ENDBRANCH   9  10
ENDBRANCH   8   9
ENDBRANCH   4   8
BRANCH   5  19
HETATM   19  O2  UNL     1       0.006  -1.568   1.117  1.00  0.00    -0.392 OA
ATOM     20  H2  UNL     1       0.216  -2.465   0.883  1.00  0.00     0.210 HD
ENDBRANCH   5  19
BRANCH   2  21
HETATM   21  S1  UNL     1      -4.378  -0.110  -1.344  1.00  0.00    -0.073 SA
HETATM   22  S2  UNL     1      -5.009   1.824  -1.983  1.00  0.00    -0.012 SA
ENDBRANCH   2  21
BRANCH   6  23
HETATM   23  O3  UNL     1      -1.378  -3.072  -0.428  1.00  0.00    -0.390 OA
ATOM     24  H3  UNL     1      -2.138  -3.568  -0.710  1.00  0.00     0.210 HD
ENDBRANCH   6  23
BRANCH   7  25
HETATM   25  O4  UNL     1      -2.473  -1.591   1.706  1.00  0.00    -0.391 OA
ATOM     26  H4  UNL     1      -2.212  -2.484   1.900  1.00  0.00     0.210 HD
ENDBRANCH   7  25
TORSDOF 11
