REMARK  2 active torsions:
REMARK  status: ('A' for Active; 'I' for Inactive)
REMARK    1  A    between atoms: C1_2  and  N2_4 
REMARK    2  A    between atoms: N2_4  and  C2_6 
ROOT
HETATM    1  C2  UNL     1       0.765   0.391  -0.410  1.00  0.00     0.063 C 
HETATM    2  C3  UNL     1       0.645  -1.052   0.001  1.00  0.00     0.038 C 
HETATM    3  C4  UNL     1      -0.728  -1.627  -0.076  1.00  0.00    -0.011 C 
HETATM    4  C5  UNL     1      -1.548  -1.194   1.119  1.00  0.00     0.009 C 
HETATM    5  C6  UNL     1      -1.782   0.303   1.086  1.00  0.00    -0.011 C 
HETATM    6  C7  UNL     1      -2.186   0.823  -0.247  1.00  0.00     0.009 C 
HETATM    7  C8  UNL     1      -1.538   0.206  -1.426  1.00  0.00    -0.011 C 
HETATM    8  C9  UNL     1      -1.507  -1.305  -1.302  1.00  0.00     0.009 C 
HETATM    9  C10 UNL     1      -0.144   0.672  -1.604  1.00  0.00     0.038 C 
HETATM   10  C11 UNL     1      -0.561   0.964   1.651  1.00  0.00     0.044 C 
HETATM   11  C12 UNL     1       0.446   1.388   0.629  1.00  0.00     0.198 C 
HETATM   12  F1  UNL     1       1.517   1.911   1.322  1.00  0.00    -0.247 F 
ENDROOT
BRANCH   1  13
HETATM   13  N2  UNL     1       2.123   0.580  -0.920  1.00  0.00    -0.357 N 
ATOM     14  H2  UNL     1       2.215   1.015  -1.838  1.00  0.00     0.162 HD
BRANCH  13  15
HETATM   15  C1  UNL     1       3.310   0.220  -0.267  1.00  0.00     0.181 C 
HETATM   16  N1  UNL     1       3.458  -0.396   0.985  1.00  0.00    -0.070 NA
HETATM   17  S1  UNL     1       4.736   0.553  -1.052  1.00  0.00    -0.044 SA
ENDBRANCH  13  15
ENDBRANCH   1  13
TORSDOF 2
