REMARK  8 active torsions:
REMARK  status: ('A' for Active; 'I' for Inactive)
REMARK    1  A    between atoms: C2_2  and  C3_3 
REMARK    2  A    between atoms: N2_6  and  C4_7 
REMARK    3  A    between atoms: C7_10  and  C8_11 
REMARK    4  A    between atoms: C10_17  and  C11_18 
REMARK    5  A    between atoms: C11_18  and  C12_19 
REMARK    6  A    between atoms: C12_19  and  O1_20 
REMARK    7  A    between atoms: C16_26  and  C17_27 
REMARK    8  A    between atoms: C17_27  and  C18_28 
ROOT
HETATM    1  C3  UNL     1      -2.611  -2.128   0.910  1.00  0.00     0.060 A 
HETATM    2  N1  UNL     1      -1.320  -1.826   0.916  1.00  0.00    -0.290 N 
ATOM      3  H1  UNL     1      -0.584  -2.469   1.208  1.00  0.00     0.187 HD
HETATM    4  N2  UNL     1      -1.099  -0.569   0.491  1.00  0.00    -0.220 N 
HETATM    5  C15 UNL     1      -2.298  -0.055   0.205  1.00  0.00     0.279 A 
HETATM    6  O2  UNL     1      -2.586   1.087  -0.222  1.00  0.00    -0.265 OA
HETATM    7  C16 UNL     1      -3.277  -1.009   0.457  1.00  0.00     0.062 A 
ENDROOT
BRANCH   4   8
HETATM    8  C4  UNL     1       0.191   0.021   0.391  1.00  0.00     0.060 A 
HETATM    9  C5  UNL     1       0.436   1.168  -0.317  1.00  0.00     0.032 A 
HETATM   10  C6  UNL     1       1.707   1.689  -0.381  1.00  0.00     0.016 A 
HETATM   11  C7  UNL     1       2.811   1.091   0.260  1.00  0.00    -0.007 A 
HETATM   12  C13 UNL     1       2.556  -0.046   0.961  1.00  0.00     0.016 A 
HETATM   13  C14 UNL     1       1.264  -0.567   1.021  1.00  0.00     0.032 A 
BRANCH  11  14
HETATM   14  C8  UNL     1       4.113   1.706   0.180  1.00  0.00     0.066 A 
HETATM   15  N3  UNL     1       4.281   3.023   0.518  1.00  0.00    -0.350 N 
HETATM   16  C9  UNL     1       5.540   3.381   0.294  1.00  0.00     0.181 A 
ATOM     17  H3  UNL     1       3.552   3.634   0.885  1.00  0.00     0.166 HD
HETATM   18  N4  UNL     1       6.193   2.339  -0.178  1.00  0.00    -0.354 N 
HETATM   19  C10 UNL     1       5.329   1.279  -0.260  1.00  0.00     0.040 A 
ATOM     20  H4  UNL     1       7.179   2.324  -0.439  1.00  0.00     0.166 HD
BRANCH  19  21
HETATM   21  C11 UNL     1       5.745  -0.042  -0.732  1.00  0.00     0.085 C 
BRANCH  21  22
HETATM   22  C12 UNL     1       6.168  -1.012   0.312  1.00  0.00     0.170 C 
BRANCH  22  23
HETATM   23  O1  UNL     1       6.546  -2.252  -0.272  1.00  0.00    -0.400 OA
ATOM     24  H1  UNL     1       6.816  -2.872   0.395  1.00  0.00     0.209 HD
ENDBRANCH  22  23
ENDBRANCH  21  22
ENDBRANCH  19  21
ENDBRANCH  11  14
ENDBRANCH   4   8
BRANCH   1  25
HETATM   25  C2  UNL     1      -3.137  -3.286   1.277  1.00  0.00     0.001 C 
HETATM   26  C1  UNL     1      -2.270  -4.388   1.747  1.00  0.00     0.038 C 
ENDBRANCH   1  25
BRANCH   7  27
HETATM   27  C17 UNL     1      -4.588  -0.888   0.298  1.00  0.00     0.034 C 
BRANCH  27  28
HETATM   28  C18 UNL     1      -5.187   0.350  -0.191  1.00  0.00     0.004 A 
HETATM   29  C19 UNL     1      -5.349   0.463  -1.571  1.00  0.00     0.014 A 
HETATM   30  C20 UNL     1      -5.911   1.600  -2.120  1.00  0.00     0.001 A 
HETATM   31  C21 UNL     1      -6.310   2.623  -1.289  1.00  0.00     0.003 A 
HETATM   32  C22 UNL     1      -6.139   2.486   0.072  1.00  0.00     0.043 A 
HETATM   33  C23 UNL     1      -5.578   1.356   0.644  1.00  0.00     0.126 A 
HETATM   34  F1  UNL     1      -5.412   1.227   1.990  1.00  0.00    -0.205 F 
ENDBRANCH  27  28
ENDBRANCH   7  27
TORSDOF 8
