REMARK  6 active torsions:
REMARK  status: ('A' for Active; 'I' for Inactive)
REMARK    1  A    between atoms: N1_1  and  N2_4 
REMARK    2  A    between atoms: N2_4  and  C1_6 
REMARK    3  A    between atoms: C1_6  and  N3_7 
REMARK    4  A    between atoms: N3_7  and  S1_9 
REMARK    5  A    between atoms: S1_9  and  C2_12 
REMARK    6  A    between atoms: C4_19  and  O4_20 
ROOT
HETATM    1  S1  UNL     1       0.603   0.180   1.001  1.00  0.00     0.290 S 
HETATM    2  O1  UNL     1       0.590  -0.139   2.469  1.00  0.00    -0.198 OA
HETATM    3  O2  UNL     1       1.354   1.448   0.716  1.00  0.00    -0.198 OA
ENDROOT
BRANCH   1   4
HETATM    4  N3  UNL     1       1.243  -1.152   0.086  1.00  0.00    -0.228 N 
ATOM      5  H3  UNL     1       0.802  -2.072   0.105  1.00  0.00     0.190 HD
BRANCH   4   6
HETATM    6  C1  UNL     1       2.293  -0.928  -0.613  1.00  0.00     0.078 C 
BRANCH   6   7
HETATM    7  N2  UNL     1       3.443  -0.682  -1.134  1.00  0.00    -0.257 N 
ATOM      8  H2  UNL     1       3.555  -0.682  -2.148  1.00  0.00     0.197 HD
BRANCH   7   9
HETATM    9  N1  UNL     1       4.537  -0.415  -0.311  1.00  0.00    -0.337 N 
ATOM     10  H12 UNL     1       4.408  -0.419   0.701  1.00  0.00     0.177 HD
ATOM     11  H11 UNL     1       5.449  -0.220  -0.724  1.00  0.00     0.177 HD
ENDBRANCH   7   9
ENDBRANCH   6   7
ENDBRANCH   4   6
ENDBRANCH   1   4
BRANCH   1  12
HETATM   12  C2  UNL     1      -1.049   0.402   0.486  1.00  0.00     0.205 A 
HETATM   13  N4  UNL     1      -1.567   1.510  -0.066  1.00  0.00    -0.294 N 
HETATM   14  C3  UNL     1      -2.861   1.280  -0.318  1.00  0.00     0.327 A 
ATOM     15  H4  UNL     1      -1.063   2.375  -0.260  1.00  0.00     0.171 HD
HETATM   16  O3  UNL     1      -3.672   2.072  -0.828  1.00  0.00    -0.247 OA
HETATM   17  N5  UNL     1      -3.163   0.019   0.079  1.00  0.00    -0.287 N 
HETATM   18  C4  UNL     1      -2.046  -0.532   0.578  1.00  0.00     0.185 A 
ATOM     19  H5  UNL     1      -4.076  -0.430   0.011  1.00  0.00     0.172 HD
BRANCH  18  20
HETATM   20  O4  UNL     1      -1.976  -1.838   1.088  1.00  0.00    -0.344 OA
ATOM     21  H4  UNL     1      -2.668  -2.486   1.152  1.00  0.00     0.219 HD
ENDBRANCH  18  20
ENDBRANCH   1  12
TORSDOF 6
