REMARK  7 active torsions:
REMARK  status: ('A' for Active; 'I' for Inactive)
REMARK    1  A    between atoms: N1_1  and  C1_5 
REMARK    2  A    between atoms: C1_5  and  C2_6 
REMARK    3  A    between atoms: C2_6  and  O1_7 
REMARK    4  A    between atoms: N2_9  and  O2_11 
REMARK    5  A    between atoms: N3_16  and  C6_18 
REMARK    6  A    between atoms: C6_18  and  C7_19 
REMARK       I    between atoms: C7_19  and  N4_21 
REMARK    7  A    between atoms: N4_21  and  C8_23 
ROOT
HETATM    1  C1  UNL     1      -2.220   0.360  -2.117  1.00  0.00     0.197 C 
HETATM    2  C3  UNL     1      -1.111   1.232  -1.473  1.00  0.00     0.054 C 
HETATM    3  C4  UNL     1      -0.164   0.452  -0.666  1.00  0.00     0.055 C 
HETATM    4  C5  UNL     1      -0.122   0.594   0.768  1.00  0.00    -0.018 C 
HETATM    5  N3  UNL     1       0.759  -0.042   1.426  1.00  0.00    -0.388 N 
ATOM      6  H3  UNL     1       0.793   0.055   2.441  1.00  0.00     0.159 HD
HETATM    7  C14 UNL     1      -1.010   1.425   1.635  1.00  0.00     0.052 C 
HETATM    8  C15 UNL     1      -1.694   0.513   2.671  1.00  0.00     0.006 C 
HETATM    9  C16 UNL     1      -3.179   0.694   2.705  1.00  0.00     0.000 C 
HETATM   10  C17 UNL     1      -3.999  -0.522   2.803  1.00  0.00     0.001 C 
HETATM   11  C18 UNL     1      -4.143  -1.417   1.644  1.00  0.00     0.010 C 
HETATM   12  C19 UNL     1      -5.169  -1.042   0.612  1.00  0.00     0.074 C 
HETATM   13  S1  UNL     1      -4.458  -1.048  -1.095  1.00  0.00    -0.166 SA
HETATM   14  C20 UNL     1      -3.004  -0.078  -0.936  1.00  0.00     0.121 C 
ENDROOT
BRANCH   5  15
HETATM   15  C6  UNL     1       1.695  -0.884   0.775  1.00  0.00     0.222 C 
BRANCH  15  16
HETATM   16  C7  UNL     1       3.090  -0.308   0.792  1.00  0.00     0.239 C 
HETATM   17  O3  UNL     1       3.204   0.785   1.358  1.00  0.00    -0.271 OA
HETATM   18  N4  UNL     1       4.139  -1.003   0.196  1.00  0.00    -0.324 N 
ATOM     19  H4  UNL     1       3.898  -1.895  -0.236  1.00  0.00     0.169 HD
BRANCH  18  20
HETATM   20  C8  UNL     1       5.494  -0.623   0.118  1.00  0.00     0.058 A 
HETATM   21  C9  UNL     1       6.030   0.525   0.630  1.00  0.00     0.057 A 
HETATM   22  C10 UNL     1       7.380   0.820   0.508  1.00  0.00     0.058 A 
HETATM   23 CL1  UNL     1       8.033   2.311   1.183  1.00  0.00    -0.082 Cl
HETATM   24  C11 UNL     1       8.236  -0.038  -0.139  1.00  0.00     0.057 A 
HETATM   25 CL2  UNL     1       9.956   0.356  -0.285  1.00  0.00    -0.082 Cl
HETATM   26  C12 UNL     1       7.719  -1.182  -0.653  1.00  0.00     0.051 A 
HETATM   27  C13 UNL     1       6.387  -1.477  -0.535  1.00  0.00     0.062 A 
HETATM   28 CL3  UNL     1       5.763  -2.968  -1.215  1.00  0.00    -0.082 Cl
ENDBRANCH  18  20
ENDBRANCH  15  16
ENDBRANCH   5  15
BRANCH   1  29
HETATM   29  N1  UNL     1      -1.612  -0.801  -2.722  1.00  0.00    -0.062 N 
ATOM     30  H13 UNL     1      -2.309  -1.360  -3.214  1.00  0.00     0.275 HD
ATOM     31  H12 UNL     1      -1.024  -0.532  -3.511  1.00  0.00     0.275 HD
ATOM     32  H11 UNL     1      -1.089  -1.374  -2.060  1.00  0.00     0.275 HD
ENDBRANCH   1  29
BRANCH   1  33
HETATM   33  C2  UNL     1      -2.973   1.186  -3.071  1.00  0.00     0.173 C 
HETATM   34  N2  UNL     1      -3.056   0.870  -4.299  1.00  0.00    -0.249 N 
ATOM     35  H2  UNL     1      -3.600   1.504  -4.885  1.00  0.00     0.196 HD
BRANCH  33  36
HETATM   36  O1  UNL     1      -3.635   2.355  -2.686  1.00  0.00    -0.346 OA
ATOM     37  H1  UNL     1      -4.122   2.889  -3.303  1.00  0.00     0.219 HD
ENDBRANCH  33  36
BRANCH  34  38
HETATM   38  O2  UNL     1      -2.516  -0.200  -4.931  1.00  0.00    -0.288 OA
ATOM     39  H2  UNL     1      -2.578  -0.436  -5.849  1.00  0.00     0.244 HD
ENDBRANCH  34  38
ENDBRANCH   1  33
TORSDOF 7
