REMARK  9 active torsions:
REMARK  status: ('A' for Active; 'I' for Inactive)
REMARK    1  A    between atoms: N1_1  and  C1_5 
REMARK    2  A    between atoms: C1_5  and  C2_6 
REMARK    3  A    between atoms: C2_6  and  S1_7 
REMARK    4  A    between atoms: S1_7  and  C3_8 
REMARK    5  A    between atoms: C3_8  and  C4_9 
REMARK    6  A    between atoms: C4_9  and  O1_10 
REMARK    7  A    between atoms: C5_15  and  C6_16 
REMARK    8  A    between atoms: C6_16  and  O2_17 
REMARK    9  A    between atoms: C7_21  and  N5_22 
ROOT
HETATM    1  C4  UNL     1      -0.645   0.059  -0.008  1.00  0.00     0.278 C 
HETATM    2  N2  UNL     1      -1.372   1.003   0.870  1.00  0.00    -0.018 N 
ATOM      3  H21 UNL     1      -0.926   1.917   0.945  1.00  0.00     0.283 HD
ATOM      4  H22 UNL     1      -1.322   0.761   1.860  1.00  0.00     0.283 HD
HETATM    5  C5  UNL     1      -2.726   1.059   0.354  1.00  0.00     0.320 C 
HETATM    6  N3  UNL     1      -3.354  -0.222   0.580  1.00  0.00    -0.110 NA
HETATM    7  N4  UNL     1      -2.730  -1.154  -0.230  1.00  0.00    -0.108 NA
HETATM    8  C7  UNL     1      -1.348  -1.263   0.145  1.00  0.00     0.354 C 
ENDROOT
BRANCH   1   9
HETATM    9  C3  UNL     1       0.804   0.021   0.343  1.00  0.00     0.146 C 
BRANCH   9  10
HETATM   10  S1  UNL     1       1.696  -1.042  -0.785  1.00  0.00    -0.163 SA
BRANCH  10  11
HETATM   11  C2  UNL     1       3.447  -1.148  -0.434  1.00  0.00     0.101 C 
BRANCH  11  12
HETATM   12  C1  UNL     1       4.143   0.201  -0.670  1.00  0.00     0.239 C 
BRANCH  12  13
HETATM   13  N1  UNL     1       5.560   0.091  -0.380  1.00  0.00    -0.079 N 
ATOM     14  H13 UNL     1       5.730  -0.266   0.560  1.00  0.00     0.274 HD
ATOM     15  H12 UNL     1       6.000  -0.662  -0.909  1.00  0.00     0.274 HD
ATOM     16  H11 UNL     1       6.022   0.987  -0.537  1.00  0.00     0.274 HD
ENDBRANCH  12  13
ENDBRANCH  11  12
ENDBRANCH  10  11
ENDBRANCH   9  10
ENDBRANCH   1   9
BRANCH   1  17
HETATM   17  O1  UNL     1      -0.848   0.534  -1.299  1.00  0.00    -0.362 OA
ATOM     18  H1  UNL     1      -1.771   0.558  -1.523  1.00  0.00     0.212 HD
ENDBRANCH   1  17
BRANCH   8  19
HETATM   19  N5  UNL     1      -0.658  -2.249  -0.660  1.00  0.00    -0.055 N 
ATOM     20  H53 UNL     1      -0.569  -1.964  -1.635  1.00  0.00     0.276 HD
ATOM     21  H52 UNL     1       0.336  -2.307  -0.440  1.00  0.00     0.276 HD
ATOM     22  H51 UNL     1      -1.134  -3.145  -0.556  1.00  0.00     0.276 HD
ENDBRANCH   8  19
BRANCH   5  23
HETATM   23  C6  UNL     1      -3.514   2.191   0.980  1.00  0.00     0.215 C 
BRANCH  23  24
HETATM   24  O2  UNL     1      -2.898   3.409   0.710  1.00  0.00    -0.397 OA
ATOM     25  H2  UNL     1      -3.392   4.119   1.103  1.00  0.00     0.209 HD
ENDBRANCH  23  24
ENDBRANCH   5  23
TORSDOF 9
