REMARK  6 active torsions:
REMARK  status: ('A' for Active; 'I' for Inactive)
REMARK    1  A    between atoms: O1_2  and  C2_3 
REMARK    2  A    between atoms: C5_6  and  C6_7 
REMARK    3  A    between atoms: C7_8  and  N1_9 
REMARK    4  A    between atoms: N2_11  and  O2_12 
REMARK    5  A    between atoms: C10_15  and  C11_16 
REMARK    6  A    between atoms: C17_25  and  N4_26 
ROOT
HETATM    1  N1  UNL     1       0.518   0.806   1.186  1.00  0.00    -0.268 N 
HETATM    2  C8  UNL     1       1.004   1.904   0.595  1.00  0.00     0.225 A 
HETATM    3  N2  UNL     1       2.055   1.570  -0.210  1.00  0.00    -0.214 N 
HETATM    4  C9  UNL     1       2.256   0.265  -0.149  1.00  0.00     0.136 A 
HETATM    5  C10 UNL     1       3.171  -0.573  -0.735  1.00  0.00     0.092 A 
HETATM    6  N3  UNL     1       3.082  -1.899  -0.402  1.00  0.00    -0.189 N 
ATOM      7  H3  UNL     1       3.746  -2.554  -0.815  1.00  0.00     0.184 HD
HETATM    8  C17 UNL     1       2.154  -2.371   0.447  1.00  0.00     0.678 A 
HETATM    9  N5  UNL     1       1.259  -1.510   1.008  1.00  0.00    -0.174 N 
ATOM     10  H5  UNL     1       0.555  -1.872   1.651  1.00  0.00     0.186 HD
HETATM   11  C18 UNL     1       1.283  -0.207   0.735  1.00  0.00     0.162 A 
ENDROOT
BRANCH   1  12
HETATM   12  C7  UNL     1      -0.579   0.790   2.087  1.00  0.00     0.169 A 
HETATM   13  C6  UNL     1      -1.873   0.516   1.736  1.00  0.00     0.041 A 
HETATM   14  C24 UNL     1      -2.653   0.596   2.885  1.00  0.00     0.016 A 
HETATM   15  C19 UNL     1      -1.776   0.919   3.893  1.00  0.00     0.089 A 
HETATM   16  C23 UNL     1      -3.992   0.427   3.156  1.00  0.00     0.057 A 
HETATM   17  O3  UNL     1      -0.580   1.024   3.396  1.00  0.00    -0.291 OA
HETATM   18  C20 UNL     1      -2.267   1.069   5.165  1.00  0.00     0.041 A 
HETATM   19  C21 UNL     1      -3.598   0.896   5.409  1.00  0.00     0.045 A 
HETATM   20  C22 UNL     1      -4.527   0.572   4.442  1.00  0.00     0.117 A 
HETATM   21  F1  UNL     1      -5.827   0.411   4.702  1.00  0.00    -0.206 F 
BRANCH  13  22
HETATM   22  C5  UNL     1      -2.419   0.190   0.431  1.00  0.00    -0.005 A 
HETATM   23  C4  UNL     1      -2.337  -1.108  -0.090  1.00  0.00     0.018 A 
HETATM   24  C3  UNL     1      -2.835  -1.465  -1.308  1.00  0.00     0.057 A 
HETATM   25  C2  UNL     1      -3.459  -0.497  -2.082  1.00  0.00     0.141 A 
HETATM   26  N6  UNL     1      -3.538   0.747  -1.583  1.00  0.00    -0.346 N 
HETATM   27  C25 UNL     1      -3.047   1.111  -0.378  1.00  0.00     0.102 A 
ATOM     28  H6  UNL     1      -3.997   1.461  -2.148  1.00  0.00     0.167 HD
BRANCH  25  29
HETATM   29  O1  UNL     1      -3.985  -0.737  -3.289  1.00  0.00    -0.341 OA
HETATM   30  C1  UNL     1      -4.630  -0.034  -4.258  1.00  0.00     0.211 C 
ENDBRANCH  25  29
ENDBRANCH  13  22
ENDBRANCH   1  12
BRANCH   3  31
HETATM   31  O2  UNL     1       2.784   2.488  -0.928  1.00  0.00    -0.281 OA
ATOM     32  H2  UNL     1       3.515   2.256  -1.488  1.00  0.00     0.245 HD
ENDBRANCH   3  31
BRANCH   5  33
HETATM   33  C11 UNL     1       4.217  -0.164  -1.648  1.00  0.00    -0.006 A 
HETATM   34  C12 UNL     1       3.996   0.519  -2.795  1.00  0.00     0.015 A 
HETATM   35  C13 UNL     1       5.050   0.906  -3.619  1.00  0.00     0.020 A 
HETATM   36  C14 UNL     1       6.343   0.604  -3.290  1.00  0.00     0.011 A 
HETATM   37 BR1  UNL     1       7.759   1.157  -4.444  1.00  0.00    -0.051 Br
HETATM   38  C15 UNL     1       6.601  -0.089  -2.134  1.00  0.00     0.020 A 
HETATM   39  C16 UNL     1       5.553  -0.464  -1.330  1.00  0.00     0.015 A 
ENDBRANCH   5  33
BRANCH   8  40
HETATM   40  N4  UNL     1       2.063  -3.613   0.765  1.00  0.00    -0.234 N 
ATOM     41  H42 UNL     1       2.733  -4.257   0.345  1.00  0.00     0.174 HD
ATOM     42  H41 UNL     1       1.358  -3.971   1.410  1.00  0.00     0.174 HD
ENDBRANCH   8  40
TORSDOF 6
