REMARK  5 active torsions:
REMARK  status: ('A' for Active; 'I' for Inactive)
REMARK    1  A    between atoms: N1_2  and  C2_4 
REMARK    2  A    between atoms: C7_13  and  C8_14 
REMARK    3  A    between atoms: C9_15  and  C10_16 
REMARK    4  A    between atoms: C12_18  and  C13_19 
REMARK    5  A    between atoms: C13_19  and  N4_20 
ROOT
HETATM    1  C2  UNL     1       5.609   0.216  -0.621  1.00  0.00     0.130 A 
HETATM    2  N2  UNL     1       6.362   0.806   0.353  1.00  0.00    -0.345 N 
ATOM      3  H2  UNL     1       7.374   0.869   0.243  1.00  0.00     0.167 HD
HETATM    4  C3  UNL     1       5.781   1.302   1.451  1.00  0.00     0.009 A 
HETATM    5  C4  UNL     1       6.662   1.937   2.481  1.00  0.00     0.068 C 
HETATM    6  C5  UNL     1       4.422   1.252   1.668  1.00  0.00     0.056 A 
HETATM    7  C6  UNL     1       3.621   0.667   0.717  1.00  0.00     0.065 A 
HETATM    8  N3  UNL     1       2.287   0.590   0.876  1.00  0.00    -0.352 N 
ATOM      9  H3  UNL     1       1.846   0.968   1.714  1.00  0.00     0.166 HD
HETATM   10  C7  UNL     1       1.553   0.019  -0.065  1.00  0.00     0.071 A 
HETATM   11  C20 UNL     1       2.160  -0.486  -1.187  1.00  0.00     0.131 A 
HETATM   12 CL1  UNL     1       1.149  -1.236  -2.412  1.00  0.00    -0.062 Cl
HETATM   13  N7  UNL     1       3.486  -0.421  -1.367  1.00  0.00    -0.340 N 
ATOM     14  H7  UNL     1       3.910  -0.805  -2.211  1.00  0.00     0.167 HD
HETATM   15  C21 UNL     1       4.257   0.159  -0.418  1.00  0.00     0.104 A 
ENDROOT
BRANCH  10  16
HETATM   16  C8  UNL     1       0.080  -0.053   0.136  1.00  0.00     0.035 C 
HETATM   17  C9  UNL     1      -0.464   0.441   1.223  1.00  0.00     0.032 C 
BRANCH  17  18
HETATM   18  C10 UNL     1      -1.884   0.385   1.442  1.00  0.00     0.034 C 
HETATM   19  C11 UNL     1      -2.661  -0.168   0.439  1.00  0.00     0.038 C 
HETATM   20  C12 UNL     1      -3.790  -0.980   0.370  1.00  0.00    -0.038 C 
HETATM   21  C16 UNL     1      -4.755  -1.369   1.273  1.00  0.00     0.011 C 
HETATM   22  C17 UNL     1      -5.039  -1.021   2.576  1.00  0.00     0.034 C 
HETATM   23  C18 UNL     1      -4.582  -0.039   3.454  1.00  0.00     0.078 A 
HETATM   24  N5  UNL     1      -4.309   0.882   4.415  1.00  0.00    -0.338 N 
HETATM   25  C19 UNL     1      -3.361   0.766   3.438  1.00  0.00     0.133 A 
ATOM     26  H5  UNL     1      -4.607   1.343   5.275  1.00  0.00     0.167 HD
HETATM   27  N6  UNL     1      -2.268   0.894   2.654  1.00  0.00    -0.341 N 
ATOM     28  H6  UNL     1      -1.566   1.513   3.059  1.00  0.00     0.167 HD
BRANCH  20  29
HETATM   29  C13 UNL     1      -3.998  -1.549  -0.977  1.00  0.00     0.154 C 
BRANCH  29  30
HETATM   30  N4  UNL     1      -4.844  -0.788  -1.828  1.00  0.00    -0.417 N 
HETATM   31  C14 UNL     1      -4.411   0.543  -2.108  1.00  0.00     0.142 C 
HETATM   32  C15 UNL     1      -6.243  -0.943  -1.609  1.00  0.00     0.142 C 
ENDBRANCH  29  30
ENDBRANCH  20  29
ENDBRANCH  17  18
ENDBRANCH  10  16
BRANCH   1  33
HETATM   33  N1  UNL     1       6.198  -0.235  -1.635  1.00  0.00    -0.379 N 
HETATM   34  C1  UNL     1       5.676  -0.889  -2.785  1.00  0.00     0.147 C 
ATOM     35  H1  UNL     1       7.211  -0.113  -1.633  1.00  0.00     0.160 HD
ENDBRANCH   1  33
TORSDOF 5
