REMARK  9 active torsions:
REMARK  status: ('A' for Active; 'I' for Inactive)
REMARK    1  A    between atoms: O1_2  and  C2_3 
REMARK    2  A    between atoms: C2_3  and  C3_5 
REMARK    3  A    between atoms: C3_5  and  O3_6 
REMARK    4  A    between atoms: O3_6  and  N1_7 
REMARK    5  A    between atoms: C5_12  and  N3_13 
REMARK    6  A    between atoms: N3_13  and  N4_15 
REMARK    7  A    between atoms: N5_18  and  N6_19 
REMARK    8  A    between atoms: C6_22  and  N7_23 
REMARK    9  A    between atoms: N7_23  and  O4_25 
ROOT
HETATM    1  N1  UNL     1       0.933  -0.970   0.488  1.00  0.00    -0.095 N 
ATOM      2  H1  UNL     1       1.013  -1.882   0.937  1.00  0.00     0.213 HD
HETATM    3  C4  UNL     1      -0.259  -0.649   0.327  1.00  0.00     0.731 A 
HETATM    4  N2  UNL     1      -1.266  -1.503   0.745  1.00  0.00    -0.016 N 
ATOM      5  H2  UNL     1      -1.008  -2.388   1.181  1.00  0.00     0.203 HD
HETATM    6  C5  UNL     1      -2.550  -1.217   0.601  1.00  0.00     0.747 A 
HETATM    7  N5  UNL     1      -2.980  -0.088   0.043  1.00  0.00     0.087 N 
HETATM    8  C6  UNL     1      -2.003   0.769  -0.377  1.00  0.00     0.752 A 
HETATM    9  N8  UNL     1      -0.696   0.489  -0.235  1.00  0.00    -0.016 N 
ATOM     10  H8  UNL     1      -0.010   1.167  -0.567  1.00  0.00     0.203 HD
ENDROOT
BRANCH   1  11
HETATM   11  O3  UNL     1       2.081  -0.471   0.245  1.00  0.00    -0.257 OA
BRANCH  11  12
HETATM   12  C3  UNL     1       2.546   0.682  -0.314  1.00  0.00     0.312 C 
BRANCH  12  13
HETATM   13  C2  UNL     1       4.030   0.658  -0.303  1.00  0.00     0.284 C 
HETATM   14  O2  UNL     1       4.662   1.622  -0.770  1.00  0.00    -0.263 OA
BRANCH  13  15
HETATM   15  O1  UNL     1       4.699  -0.418   0.219  1.00  0.00    -0.325 OA
HETATM   16  C1  UNL     1       6.122  -0.484   0.250  1.00  0.00     0.213 C 
ENDBRANCH  13  15
ENDBRANCH  12  13
ENDBRANCH  11  12
ENDBRANCH   1  11
BRANCH   6  17
HETATM   17  N3  UNL     1      -3.437  -2.058   1.013  1.00  0.00    -0.136 N 
ATOM     18  H3  UNL     1      -3.107  -2.923   1.441  1.00  0.00     0.205 HD
BRANCH  17  19
HETATM   19  N4  UNL     1      -4.797  -1.872   0.917  1.00  0.00    -0.331 N 
ATOM     20  H42 UNL     1      -5.109  -1.001   0.487  1.00  0.00     0.177 HD
ATOM     21  H41 UNL     1      -5.498  -2.537   1.243  1.00  0.00     0.177 HD
ENDBRANCH  17  19
ENDBRANCH   6  17
BRANCH   8  22
HETATM   22  N7  UNL     1      -2.371   1.876  -0.924  1.00  0.00    -0.096 N 
ATOM     23  H7  UNL     1      -3.360   2.100  -1.038  1.00  0.00     0.213 HD
BRANCH  22  24
HETATM   24  O4  UNL     1      -1.403   2.742  -1.347  1.00  0.00    -0.276 OA
ATOM     25  H4  UNL     1      -1.674   3.558  -1.750  1.00  0.00     0.245 HD
ENDBRANCH  22  24
ENDBRANCH   8  22
BRANCH   7  26
HETATM   26  N6  UNL     1      -4.315   0.246  -0.125  1.00  0.00    -0.309 N 
ATOM     27  H62 UNL     1      -5.045  -0.394   0.189  1.00  0.00     0.178 HD
ATOM     28  H61 UNL     1      -4.645   1.111  -0.553  1.00  0.00     0.178 HD
ENDBRANCH   7  26
TORSDOF 9
