REMARK  7 active torsions:
REMARK  status: ('A' for Active; 'I' for Inactive)
REMARK    1  A    between atoms: C1_2  and  C2_4 
REMARK    2  A    between atoms: C4_9  and  N3_10 
REMARK    3  A    between atoms: N7_22  and  C9_23 
REMARK    4  A    between atoms: C9_23  and  O4_24 
REMARK    5  A    between atoms: C9_23  and  C10_26 
REMARK    6  A    between atoms: C10_26  and  O5_27 
REMARK    7  A    between atoms: C11_29  and  O6_30 
ROOT
HETATM    1  N3  UNL     1       0.220   0.364   0.554  1.00  0.00    -0.249 N 
HETATM    2  C5  UNL     1      -0.053   1.625   0.884  1.00  0.00     0.333 A 
HETATM    3  O2  UNL     1       0.928   2.414   1.118  1.00  0.00    -0.246 OA
HETATM    4  N4  UNL     1      -1.320   2.045   0.967  1.00  0.00    -0.273 N 
ATOM      5  H4  UNL     1      -1.496   3.017   1.223  1.00  0.00     0.173 HD
HETATM    6  C6  UNL     1      -2.371   1.243   0.728  1.00  0.00     0.281 A 
HETATM    7  O3  UNL     1      -3.557   1.629   0.803  1.00  0.00    -0.265 OA
HETATM    8  C7  UNL     1      -2.140  -0.072   0.382  1.00  0.00     0.165 A 
HETATM    9  C8  UNL     1      -0.821  -0.461   0.309  1.00  0.00     0.161 A 
HETATM   10  N5  UNL     1      -0.868  -1.767  -0.041  1.00  0.00    -0.267 N 
ATOM     11  H5  UNL     1      -0.057  -2.369  -0.182  1.00  0.00     0.186 HD
HETATM   12  N6  UNL     1      -2.128  -2.140  -0.171  1.00  0.00    -0.015 NA
HETATM   13  N7  UNL     1      -2.950  -1.115   0.084  1.00  0.00    -0.236 N 
ENDROOT
BRANCH   1  14
HETATM   14  C4  UNL     1       1.567  -0.137   0.451  1.00  0.00     0.326 C 
HETATM   15  N2  UNL     1       2.288  -0.175   1.692  1.00  0.00    -0.050 N 
HETATM   16  C3  UNL     1       3.678  -0.242   1.282  1.00  0.00     0.251 C 
ATOM     17  H22 UNL     1       1.999  -0.922   2.324  1.00  0.00     0.279 HD
ATOM     18  H21 UNL     1       2.073   0.594   2.327  1.00  0.00     0.279 HD
HETATM   19  C2  UNL     1       3.743   0.858   0.242  1.00  0.00     0.133 C 
HETATM   20  C11 UNL     1       2.436   0.624  -0.510  1.00  0.00     0.183 C 
BRANCH  19  21
HETATM   21  C1  UNL     1       4.929   0.753  -0.616  1.00  0.00     0.239 C 
HETATM   22  N1  UNL     1       5.239  -0.362  -1.430  1.00  0.00    -0.062 NA
HETATM   23  O1  UNL     1       5.740   1.714  -0.642  1.00  0.00    -0.276 OA
ENDBRANCH  19  21
BRANCH  20  24
HETATM   24  O6  UNL     1       2.774  -0.198  -1.611  1.00  0.00    -0.391 OA
ATOM     25  H6  UNL     1       1.960  -0.344  -2.079  1.00  0.00     0.210 HD
ENDBRANCH  20  24
ENDBRANCH   1  14
BRANCH  13  26
HETATM   26  C9  UNL     1      -4.398  -1.119   0.049  1.00  0.00     0.263 C 
BRANCH  26  27
HETATM   27  O4  UNL     1      -4.904  -2.408   0.340  1.00  0.00    -0.373 OA
ATOM     28  H4  UNL     1      -5.854  -2.411   0.317  1.00  0.00     0.212 HD
ENDBRANCH  26  27
BRANCH  26  29
HETATM   29  C10 UNL     1      -4.924  -0.680  -1.301  1.00  0.00     0.219 C 
BRANCH  29  30
HETATM   30  O5  UNL     1      -6.316  -0.629  -1.310  1.00  0.00    -0.397 OA
ATOM     31  H5  UNL     1      -6.646  -0.354  -2.157  1.00  0.00     0.209 HD
ENDBRANCH  29  30
ENDBRANCH  26  29
ENDBRANCH  13  26
TORSDOF 7
