REMARK  6 active torsions:
REMARK  status: ('A' for Active; 'I' for Inactive)
REMARK    1  A    between atoms: C2_5  and  C3_6 
REMARK    2  A    between atoms: C3_6  and  O1_8 
REMARK    3  A    between atoms: C4_10  and  C5_11 
REMARK    4  A    between atoms: C5_11  and  N4_12 
REMARK    5  A    between atoms: N8_23  and  C9_24 
REMARK    6  A    between atoms: C10_28  and  N10_29 
ROOT
HETATM    1  C1  UNL     1      -2.290  -1.947  -1.874  1.00  0.00     0.164 C 
HETATM    2  N1  UNL     1      -2.540  -1.755  -0.470  1.00  0.00    -0.137 NA
HETATM    3  N2  UNL     1      -1.800  -2.578   0.354  1.00  0.00    -0.296 N 
ATOM      4  H2  UNL     1      -2.119  -3.398   0.870  1.00  0.00     0.183 HD
HETATM    5  C2  UNL     1      -0.441  -2.002   0.319  1.00  0.00     0.122 C 
HETATM    6  C4  UNL     1      -0.528  -0.721   0.062  1.00  0.00     0.101 C 
HETATM    7  N8  UNL     1      -1.977  -0.494  -0.114  1.00  0.00    -0.236 N 
ENDROOT
BRANCH   6   8
HETATM    8  C5  UNL     1       0.320   0.419  -0.114  1.00  0.00     0.155 C 
BRANCH   8   9
HETATM    9  N4  UNL     1       1.702   0.515  -0.129  1.00  0.00    -0.213 N 
HETATM   10  N5  UNL     1       2.468   0.814   0.928  1.00  0.00    -0.273 N 
HETATM   11  C6  UNL     1       3.780   0.981   0.887  1.00  0.00     0.200 A 
ATOM     12  H5  UNL     1       2.006   0.921   1.831  1.00  0.00     0.189 HD
HETATM   13  N6  UNL     1       4.573   1.301   2.038  1.00  0.00    -0.075 NA
HETATM   14  C7  UNL     1       4.422   0.843  -0.310  1.00  0.00     0.292 A 
HETATM   15  O2  UNL     1       5.677   0.997  -0.377  1.00  0.00    -0.264 OA
HETATM   16  N7  UNL     1       3.712   0.543  -1.408  1.00  0.00    -0.271 N 
HETATM   17  C8  UNL     1       2.383   0.385  -1.310  1.00  0.00     0.348 A 
ATOM     18  H7  UNL     1       4.178   0.436  -2.309  1.00  0.00     0.174 HD
HETATM   19  O3  UNL     1       1.735   0.103  -2.357  1.00  0.00    -0.245 OA
ENDBRANCH   8   9
ENDBRANCH   6   8
BRANCH   5  20
HETATM   20  C3  UNL     1       0.684  -2.843   0.567  1.00  0.00     0.180 C 
HETATM   21  N3  UNL     1       2.029  -2.526   0.587  1.00  0.00    -0.072 NA
BRANCH  20  22
HETATM   22  O1  UNL     1       0.460  -4.100   0.817  1.00  0.00    -0.347 OA
ATOM     23  H1  UNL     1       1.209  -4.660   0.982  1.00  0.00     0.219 HD
ENDBRANCH  20  22
ENDBRANCH   5  20
BRANCH   7  24
HETATM   24  C9  UNL     1      -2.803   0.657  -0.001  1.00  0.00     0.456 C 
HETATM   25  N9  UNL     1      -2.282   1.932   0.311  1.00  0.00     0.023 N 
HETATM   26  C10 UNL     1      -3.144   2.431  -0.757  1.00  0.00     0.530 C 
ATOM     27  H92 UNL     1      -2.323   2.313   1.256  1.00  0.00     0.287 HD
ATOM     28  H91 UNL     1      -1.279   2.115   0.321  1.00  0.00     0.287 HD
HETATM   29  O4  UNL     1      -3.201   1.132  -1.273  1.00  0.00    -0.287 OA
BRANCH  26  30
HETATM   30  N10 UNL     1      -4.384   2.900  -0.209  1.00  0.00    -0.027 N 
ATOM     31 3H10 UNL     1      -4.847   2.187   0.354  1.00  0.00     0.279 HD
ATOM     32 2H10 UNL     1      -4.240   3.596   0.522  1.00  0.00     0.279 HD
ATOM     33 1H10 UNL     1      -4.986   3.249  -0.955  1.00  0.00     0.279 HD
ENDBRANCH  26  30
ENDBRANCH   7  24
TORSDOF 6
