REMARK  6 active torsions:
REMARK  status: ('A' for Active; 'I' for Inactive)
REMARK    1  A    between atoms: C3_4  and  O2_5 
REMARK    2  A    between atoms: O2_5  and  S1_6 
REMARK    3  A    between atoms: C5_11  and  O6_12 
REMARK    4  A    between atoms: O6_12  and  C6_13 
REMARK    5  A    between atoms: C7_17  and  O7_18 
REMARK    6  A    between atoms: C8_20  and  O8_21 
ROOT
HETATM    1  O1  UNL     1       4.250  -3.049  -1.033  1.00  0.00    -0.268 OA
HETATM    2  C1  UNL     1       3.205  -2.407  -0.739  1.00  0.00     0.250 C 
HETATM    3  C2  UNL     1       3.461  -1.085  -0.383  1.00  0.00     0.112 C 
HETATM    4  C3  UNL     1       2.552  -0.109   0.000  1.00  0.00     0.100 C 
HETATM    5  C4  UNL     1       1.185  -0.325   0.185  1.00  0.00     0.081 C 
HETATM    6  C5  UNL     1       0.400  -1.331  -0.345  1.00  0.00     0.141 C 
HETATM    7  C9  UNL     1       0.776  -2.645  -0.604  1.00  0.00     0.281 C 
HETATM    8  O9  UNL     1      -0.150  -3.516  -0.651  1.00  0.00    -0.265 OA
HETATM    9  N4  UNL     1       2.035  -3.066  -0.808  1.00  0.00    -0.288 N 
ATOM     10  H4  UNL     1       2.117  -4.052  -1.057  1.00  0.00     0.172 HD
ENDROOT
BRANCH   6  11
HETATM   11  O6  UNL     1      -0.899  -1.057  -0.669  1.00  0.00    -0.320 OA
BRANCH  11  12
HETATM   12  C6  UNL     1      -1.573   0.167  -0.542  1.00  0.00     0.271 C 
HETATM   13  N1  UNL     1      -2.004   0.548  -1.875  1.00  0.00    -0.094 NA
HETATM   14  N2  UNL     1      -2.976   1.550  -1.841  1.00  0.00    -0.035 NA
HETATM   15  N3  UNL     1      -4.127   1.014  -1.252  1.00  0.00    -0.095 NA
HETATM   16  C7  UNL     1      -3.851   0.938   0.184  1.00  0.00     0.261 C 
HETATM   17  C8  UNL     1      -2.762  -0.086   0.370  1.00  0.00     0.210 C 
BRANCH  16  18
HETATM   18  O7  UNL     1      -3.506   2.176   0.698  1.00  0.00    -0.376 OA
ATOM     19  H7  UNL     1      -3.327   2.127   1.630  1.00  0.00     0.211 HD
ENDBRANCH  16  18
BRANCH  17  20
HETATM   20  O8  UNL     1      -2.364  -0.124   1.686  1.00  0.00    -0.388 OA
ATOM     21  H8  UNL     1      -3.107  -0.282   2.256  1.00  0.00     0.210 HD
ENDBRANCH  17  20
ENDBRANCH  11  12
ENDBRANCH   6  11
BRANCH   4  22
HETATM   22  O2  UNL     1       2.989   1.173   0.225  1.00  0.00    -0.214 OA
BRANCH  22  23
HETATM   23  S1  UNL     1       3.509   1.677   1.758  1.00  0.00     0.256 S 
HETATM   24  O3  UNL     1       2.931   0.750   2.771  1.00  0.00    -0.572 OA
HETATM   25  O4  UNL     1       3.105   3.095   2.055  1.00  0.00    -0.572 OA
HETATM   26  O5  UNL     1       5.182   1.604   1.793  1.00  0.00    -0.572 OA
ENDBRANCH  22  23
ENDBRANCH   4  22
TORSDOF 6
