REMARK  11 active torsions:
REMARK  status: ('A' for Active; 'I' for Inactive)
REMARK    1  A    between atoms: C2_2  and  O1_3 
REMARK    2  A    between atoms: O1_3  and  C3_4 
REMARK    3  A    between atoms: C3_4  and  C4_6 
REMARK    4  A    between atoms: C4_6  and  C5_7 
REMARK    5  A    between atoms: C5_7  and  C6_8 
REMARK    6  A    between atoms: C6_8  and  N1_9 
REMARK    7  A    between atoms: C6_8  and  C7_13 
REMARK    8  A    between atoms: C6_8  and  C9_17 
REMARK    9  A    between atoms: C7_13  and  O4_15 
REMARK   10  A    between atoms: C9_17  and  C11_19 
REMARK   11  A    between atoms: C24_38  and  C25_39 
ROOT
HETATM    1  C11 UNL     1       0.162  -1.001  -0.324  1.00  0.00     0.183 C 
HETATM    2  O5  UNL     1       0.326   0.142  -1.086  1.00  0.00    -0.309 OA
HETATM    3  C12 UNL     1      -0.293   1.336  -1.122  1.00  0.00     0.262 C 
HETATM    4  O6  UNL     1       0.325   2.411  -0.834  1.00  0.00    -0.265 OA
HETATM    5  C13 UNL     1      -1.720   1.503  -1.494  1.00  0.00     0.138 C 
HETATM    6  C14 UNL     1      -2.133   2.936  -1.490  1.00  0.00    -0.019 C 
HETATM    7  C15 UNL     1      -3.332   3.387  -1.176  1.00  0.00     0.001 C 
HETATM    8  C16 UNL     1      -4.487   2.539  -0.770  1.00  0.00     0.150 C 
HETATM    9  C17 UNL     1      -5.650   3.018  -1.656  1.00  0.00     0.044 C 
HETATM   10  O7  UNL     1      -4.899   2.829   0.554  1.00  0.00    -0.312 OA
HETATM   11  C18 UNL     1      -5.232   1.893   1.512  1.00  0.00     0.262 C 
HETATM   12  O8  UNL     1      -6.282   1.932   2.208  1.00  0.00    -0.265 OA
HETATM   13  C19 UNL     1      -4.296   0.765   1.743  1.00  0.00     0.138 C 
HETATM   14  C20 UNL     1      -4.801  -0.438   1.025  1.00  0.00    -0.019 C 
HETATM   15  C21 UNL     1      -4.079  -1.466   0.651  1.00  0.00    -0.006 C 
HETATM   16  C22 UNL     1      -2.592  -1.596   0.893  1.00  0.00     0.100 C 
HETATM   17  C23 UNL     1      -2.464  -2.618   2.004  1.00  0.00     0.036 C 
HETATM   18  N2  UNL     1      -2.035  -2.084  -0.291  1.00  0.00    -0.387 N 
ATOM     19  H2  UNL     1      -2.646  -2.722  -0.801  1.00  0.00     0.159 HD
HETATM   20  C24 UNL     1      -0.931  -1.890  -0.848  1.00  0.00     0.013 C 
ENDROOT
BRANCH   1  21
HETATM   21  C9  UNL     1       1.446  -1.847  -0.309  1.00  0.00     0.063 C 
HETATM   22  C10 UNL     1       1.168  -3.120   0.433  1.00  0.00     0.016 C 
BRANCH  21  23
HETATM   23  C6  UNL     1       2.628  -1.076   0.263  1.00  0.00     0.216 C 
BRANCH  23  24
HETATM   24  C5  UNL     1       2.458  -0.644   1.673  1.00  0.00     0.059 C 
BRANCH  24  25
HETATM   25  C4  UNL     1       3.646  -0.029   2.343  1.00  0.00     0.114 C 
BRANCH  25  26
HETATM   26  C3  UNL     1       4.190   1.188   1.736  1.00  0.00     0.258 C 
HETATM   27  O2  UNL     1       5.178   1.109   0.968  1.00  0.00    -0.265 OA
BRANCH  26  28
HETATM   28  O1  UNL     1       3.656   2.441   1.977  1.00  0.00    -0.322 OA
BRANCH  28  29
HETATM   29  C2  UNL     1       4.145   3.635   1.420  1.00  0.00     0.174 C 
HETATM   30  C1  UNL     1       4.122   3.694  -0.070  1.00  0.00     0.034 C 
ENDBRANCH  28  29
ENDBRANCH  26  28
ENDBRANCH  25  26
ENDBRANCH  24  25
ENDBRANCH  23  24
BRANCH  23  31
HETATM   31  N1  UNL     1       2.955  -0.052  -0.679  1.00  0.00    -0.060 N 
ATOM     32  H13 UNL     1       2.263   0.695  -0.629  1.00  0.00     0.275 HD
ATOM     33  H12 UNL     1       3.789   0.447  -0.369  1.00  0.00     0.275 HD
ATOM     34  H11 UNL     1       3.072  -0.349  -1.648  1.00  0.00     0.275 HD
ENDBRANCH  23  31
BRANCH  23  35
HETATM   35  C7  UNL     1       3.765  -2.094   0.171  1.00  0.00     0.295 C 
HETATM   36  O3  UNL     1       3.768  -3.124   0.889  1.00  0.00    -0.262 OA
BRANCH  35  37
HETATM   37  O4  UNL     1       4.829  -1.931  -0.695  1.00  0.00    -0.325 OA
HETATM   38  C8  UNL     1       5.891  -2.841  -0.809  1.00  0.00     0.213 C 
ENDBRANCH  35  37
ENDBRANCH  23  35
ENDBRANCH  21  23
ENDBRANCH   1  21
BRANCH  20  39
HETATM   39  C25 UNL     1      -0.675  -2.613  -2.125  1.00  0.00     0.050 C 
HETATM   40  C26 UNL     1      -0.399  -1.686  -3.289  1.00  0.00     0.011 C 
ENDBRANCH  20  39
TORSDOF 11
