REMARK  9 active torsions:
REMARK  status: ('A' for Active; 'I' for Inactive)
REMARK    1  A    between atoms: C2_2  and  C3_3 
REMARK    2  A    between atoms: C3_3  and  C4_4 
REMARK    3  A    between atoms: C6_6  and  O1_7 
REMARK    4  A    between atoms: C7_11  and  C8_12 
REMARK    5  A    between atoms: C8_12  and  C9_13 
REMARK    6  A    between atoms: C12_16  and  O2_17 
REMARK    7  A    between atoms: C13_21  and  C14_22 
REMARK    8  A    between atoms: C25_36  and  C26_37 
REMARK    9  A    between atoms: C26_37  and  O3_38 
ROOT
HETATM    1  C4  UNL     1      -3.178   1.935  -0.166  1.00  0.00     0.119 A 
HETATM    2  C5  UNL     1      -2.550   1.918  -1.446  1.00  0.00     0.185 A 
HETATM    3  C6  UNL     1      -1.127   2.033  -1.805  1.00  0.00     0.141 C 
HETATM    4  N1  UNL     1       0.070   1.851  -1.175  1.00  0.00    -0.339 N 
ATOM      5  H1  UNL     1       0.608   1.155  -1.692  1.00  0.00     0.167 HD
HETATM    6  C7  UNL     1       0.831   2.277  -0.069  1.00  0.00     0.062 C 
HETATM    7  C12 UNL     1       1.738   1.267   0.537  1.00  0.00     0.163 C 
HETATM    8  N2  UNL     1       2.250   0.044   0.217  1.00  0.00    -0.339 N 
ATOM      9  H2  UNL     1       3.157   0.187  -0.227  1.00  0.00     0.168 HD
HETATM   10  C13 UNL     1       1.997  -1.372   0.268  1.00  0.00     0.015 C 
HETATM   11  C18 UNL     1       1.732  -1.979  -1.072  1.00  0.00     0.098 C 
HETATM   12  C19 UNL     1       1.022  -3.242  -1.188  1.00  0.00    -0.023 A 
HETATM   13  C20 UNL     1       1.882  -4.362  -1.119  1.00  0.00     0.052 A 
HETATM   14  C21 UNL     1       1.459  -5.642  -1.249  1.00  0.00     0.117 A 
HETATM   15  F1  UNL     1       2.369  -6.675  -1.166  1.00  0.00    -0.206 F 
HETATM   16  C22 UNL     1       0.131  -5.885  -1.459  1.00  0.00     0.044 A 
HETATM   17  C23 UNL     1      -0.723  -4.825  -1.531  1.00  0.00     0.033 A 
HETATM   18  C24 UNL     1      -0.321  -3.473  -1.399  1.00  0.00     0.035 A 
HETATM   19  N3  UNL     1      -1.363  -2.525  -1.516  1.00  0.00    -0.374 N 
ATOM     20  H3  UNL     1      -1.921  -2.610  -2.365  1.00  0.00     0.160 HD
HETATM   21  C25 UNL     1      -1.765  -1.468  -0.644  1.00  0.00     0.198 C 
HETATM   22  C27 UNL     1      -2.880  -0.648  -1.247  1.00  0.00     0.245 C 
HETATM   23  O4  UNL     1      -3.582  -1.312  -2.017  1.00  0.00    -0.271 OA
HETATM   24  N4  UNL     1      -2.953   0.696  -0.858  1.00  0.00    -0.329 N 
ENDROOT
BRANCH   6  25
HETATM   25  C8  UNL     1       0.423   3.333   0.862  1.00  0.00     0.065 C 
BRANCH  25  26
HETATM   26  C9  UNL     1       0.285   4.735   0.356  1.00  0.00    -0.017 C 
HETATM   27  C10 UNL     1       1.612   5.244  -0.219  1.00  0.00     0.010 C 
HETATM   28  C11 UNL     1      -0.858   5.118  -0.472  1.00  0.00     0.010 C 
ENDBRANCH  25  26
ENDBRANCH   6  25
BRANCH   7  29
HETATM   29  O2  UNL     1       2.129   1.745   1.711  1.00  0.00    -0.345 OA
ATOM     30  H2  UNL     1       2.709   1.100   2.098  1.00  0.00     0.219 HD
ENDBRANCH   7  29
BRANCH   3  31
HETATM   31  O1  UNL     1      -1.010   2.409  -3.067  1.00  0.00    -0.348 OA
ATOM     32  H1  UNL     1      -0.092   2.483  -3.299  1.00  0.00     0.219 HD
ENDBRANCH   3  31
BRANCH  10  33
HETATM   33  C14 UNL     1       2.853  -2.099   1.229  1.00  0.00     0.027 C 
HETATM   34  C15 UNL     1       4.285  -2.133   1.291  1.00  0.00    -0.086 C 
HETATM   35  C16 UNL     1       4.983  -0.782   1.539  1.00  0.00     0.043 C 
HETATM   36  C17 UNL     1       5.144  -2.837   0.316  1.00  0.00     0.043 C 
ENDBRANCH  10  33
BRANCH   1  37
HETATM   37  C3  UNL     1      -4.610   2.324   0.012  1.00  0.00     0.028 C 
BRANCH  37  38
HETATM   38  C2  UNL     1      -5.078   2.278   1.427  1.00  0.00    -0.002 C 
HETATM   39  C1  UNL     1      -4.933   0.893   1.965  1.00  0.00     0.005 C 
ENDBRANCH  37  38
ENDBRANCH   1  37
BRANCH  21  40
HETATM   40  C26 UNL     1      -2.451  -2.052   0.616  1.00  0.00     0.198 C 
BRANCH  40  41
HETATM   41  O3  UNL     1      -1.509  -2.874   1.225  1.00  0.00    -0.398 OA
ATOM     42  H3  UNL     1      -1.930  -3.232   1.998  1.00  0.00     0.209 HD
ENDBRANCH  40  41
ENDBRANCH  21  40
TORSDOF 9
