REMARK  5 active torsions:
REMARK  status: ('A' for Active; 'I' for Inactive)
REMARK       I    between atoms: C1_2  and  N1_3 
REMARK    1  A    between atoms: C1_2  and  C9_12 
REMARK    2  A    between atoms: N1_3  and  C2_5 
REMARK    3  A    between atoms: C2_5  and  C3_6 
REMARK    4  A    between atoms: C11_14  and  C12_15 
REMARK    5  A    between atoms: C12_15  and  C13_16 
ROOT
HETATM    1  C9  UNL     1       0.088  -2.114  -0.064  1.00  0.00     0.082 A 
HETATM    2  C10 UNL     1      -0.488  -3.477   0.316  1.00  0.00     0.020 A 
HETATM    3  C11 UNL     1      -1.095  -2.149   0.809  1.00  0.00    -0.000 A 
ENDROOT
BRANCH   1   4
HETATM    4  C1  UNL     1       1.413  -1.851   0.552  1.00  0.00     0.222 C 
HETATM    5  O1  UNL     1       1.653  -2.170   1.764  1.00  0.00    -0.273 OA
HETATM    6  N1  UNL     1       2.480  -1.235  -0.163  1.00  0.00    -0.360 N 
ATOM      7  H1  UNL     1       2.321  -0.967  -1.134  1.00  0.00     0.162 HD
BRANCH   6   8
HETATM    8  C2  UNL     1       3.766  -0.973   0.413  1.00  0.00     0.127 C 
BRANCH   8   9
HETATM    9  C3  UNL     1       4.654  -0.320  -0.607  1.00  0.00     0.003 C 
HETATM   10  C4  UNL     1       4.112   0.982  -1.110  1.00  0.00     0.006 C 
HETATM   11  C5  UNL     1       4.295   2.101  -0.100  1.00  0.00     0.000 C 
HETATM   12  C6  UNL     1       5.812   2.293   0.033  1.00  0.00     0.000 C 
HETATM   13  C7  UNL     1       6.312   1.019   0.725  1.00  0.00     0.000 C 
HETATM   14  C8  UNL     1       6.074  -0.171  -0.149  1.00  0.00     0.006 C 
ENDBRANCH   8   9
ENDBRANCH   6   8
ENDBRANCH   1   4
BRANCH   3  15
HETATM   15  C12 UNL     1      -2.480  -1.906   0.314  1.00  0.00     0.010 C 
BRANCH  15  16
HETATM   16  C13 UNL     1      -2.669  -0.545  -0.308  1.00  0.00    -0.014 C 
HETATM   17  C14 UNL     1      -2.389   0.576   0.630  1.00  0.00     0.005 C 
HETATM   18  C15 UNL     1      -3.103   1.852   0.305  1.00  0.00     0.000 C 
HETATM   19  C16 UNL     1      -4.368   2.028   1.130  1.00  0.00     0.000 C 
HETATM   20  C17 UNL     1      -5.615   1.914   0.304  1.00  0.00     0.000 C 
HETATM   21  C18 UNL     1      -6.114   0.531   0.118  1.00  0.00     0.000 C 
HETATM   22  C19 UNL     1      -5.081  -0.541   0.326  1.00  0.00     0.000 C 
HETATM   23  C20 UNL     1      -4.106  -0.525  -0.837  1.00  0.00     0.005 C 
ENDBRANCH  15  16
ENDBRANCH   3  15
TORSDOF 5
