REMARK  4 active torsions:
REMARK  status: ('A' for Active; 'I' for Inactive)
REMARK    1  A    between atoms: C13_13  and  C15_15 
REMARK    2  A    between atoms: C16_16  and  C17_17 
REMARK    3  A    between atoms: C17_17  and  N1_18 
REMARK    4  A    between atoms: N1_18  and  C18_21 
ROOT
HETATM    1  C1  UNL     1      -0.632  -1.830   2.050  1.00  0.00     0.015 C 
HETATM    2  C2  UNL     1      -1.109  -0.807   1.376  1.00  0.00    -0.076 C 
HETATM    3  C3  UNL     1      -2.290  -0.170   2.033  1.00  0.00     0.040 C 
HETATM    4  C4  UNL     1      -3.495  -0.583   1.286  1.00  0.00    -0.002 C 
HETATM    5  C5  UNL     1      -3.273  -1.594   0.196  1.00  0.00     0.012 C 
HETATM    6  C6  UNL     1      -2.966  -0.387  -0.706  1.00  0.00     0.003 C 
HETATM    7  C7  UNL     1      -3.831   0.380   0.133  1.00  0.00    -0.039 C 
HETATM    8  C8  UNL     1      -5.322   0.088  -0.205  1.00  0.00     0.015 C 
HETATM    9  C9  UNL     1      -3.775   1.805   0.434  1.00  0.00     0.015 C 
HETATM   10  C10 UNL     1      -1.567  -0.230  -0.992  1.00  0.00    -0.029 C 
HETATM   11  C11 UNL     1      -1.381   0.990  -1.894  1.00  0.00     0.016 C 
HETATM   12  C12 UNL     1      -1.255  -1.376  -1.995  1.00  0.00     0.016 C 
HETATM   13  C13 UNL     1      -0.512  -0.341   0.092  1.00  0.00     0.003 C 
HETATM   14  C14 UNL     1       0.544  -1.325  -0.292  1.00  0.00     0.025 C 
ENDROOT
BRANCH  13  15
HETATM   15  C15 UNL     1       0.130   1.003   0.228  1.00  0.00    -0.015 C 
HETATM   16  C16 UNL     1       1.201   1.318   1.140  1.00  0.00    -0.003 C 
BRANCH  16  17
HETATM   17  C17 UNL     1       2.567   0.750   1.060  1.00  0.00     0.260 C 
BRANCH  17  18
HETATM   18  N1  UNL     1       3.297   1.033  -0.138  1.00  0.00    -0.064 N 
ATOM     19  H12 UNL     1       2.784   0.766  -0.978  1.00  0.00     0.278 HD
ATOM     20  H11 UNL     1       3.365   2.033  -0.325  1.00  0.00     0.278 HD
BRANCH  18  21
HETATM   21  C18 UNL     1       4.591   0.398  -0.057  1.00  0.00     0.115 C 
HETATM   22  C19 UNL     1       4.494  -1.109   0.026  1.00  0.00     0.045 C 
HETATM   23  C20 UNL     1       5.379   0.719  -1.314  1.00  0.00     0.045 C 
HETATM   24  C21 UNL     1       5.398   0.892   1.120  1.00  0.00     0.045 C 
ENDBRANCH  18  21
ENDBRANCH  17  18
ENDBRANCH  16  17
ENDBRANCH  13  15
TORSDOF 4
