REMARK  2 active torsions:
REMARK  status: ('A' for Active; 'I' for Inactive)
REMARK    1  A    between atoms: N1_1  and  C1_4 
REMARK    2  A    between atoms: C3_10  and  C4_11 
ROOT
HETATM    1  C4  UNL     1      -2.277  -0.346  -0.210  1.00  0.00    -0.020 A 
HETATM    2  C5  UNL     1      -2.106  -1.606  -0.791  1.00  0.00     0.013 A 
HETATM    3  C6  UNL     1      -0.863  -2.203  -0.870  1.00  0.00     0.018 A 
HETATM    4  C7  UNL     1       0.242  -1.550  -0.368  1.00  0.00     0.040 A 
HETATM    5  C8  UNL     1       0.124  -0.298   0.219  1.00  0.00     0.031 A 
HETATM    6  C9  UNL     1      -1.133   0.255   0.274  1.00  0.00     0.029 A 
HETATM    7  C10 UNL     1       1.153   0.557   0.805  1.00  0.00     0.194 C 
HETATM    8  O1  UNL     1       0.727   1.324   1.706  1.00  0.00    -0.287 OA
HETATM    9  C11 UNL     1       2.568   0.664   0.518  1.00  0.00     0.037 A 
HETATM   10  C12 UNL     1       3.109   1.886   0.873  1.00  0.00     0.017 A 
HETATM   11  C13 UNL     1       4.445   2.152   0.667  1.00  0.00     0.001 A 
HETATM   12  C14 UNL     1       5.299   1.229   0.106  1.00  0.00     0.002 A 
HETATM   13  C15 UNL     1       4.763   0.013  -0.247  1.00  0.00     0.025 A 
HETATM   14  C16 UNL     1       3.401  -0.271  -0.043  1.00  0.00     0.081 A 
HETATM   15  S1  UNL     1       3.115  -1.885  -0.609  1.00  0.00     0.246 S 
HETATM   16  O2  UNL     1       3.679  -2.001  -2.007  1.00  0.00    -0.214 OA
HETATM   17  O3  UNL     1       3.910  -2.862   0.246  1.00  0.00    -0.214 OA
HETATM   18  C17 UNL     1       1.452  -2.329  -0.535  1.00  0.00     0.281 C 
HETATM   19  O4  UNL     1       1.273  -3.579  -0.653  1.00  0.00    -0.274 OA
ENDROOT
BRANCH   1  20
HETATM   20  C3  UNL     1      -3.597   0.271  -0.142  1.00  0.00     0.036 A 
HETATM   21  C1  UNL     1      -4.257   0.875   0.895  1.00  0.00     0.126 A 
HETATM   22  N2  UNL     1      -5.475   1.317   0.482  1.00  0.00    -0.285 N 
HETATM   23  N3  UNL     1      -5.589   0.999  -0.797  1.00  0.00    -0.309 N 
ATOM     24  H2  UNL     1      -6.169   1.802   1.051  1.00  0.00     0.188 HD
HETATM   25  C2  UNL     1      -4.472   0.360  -1.225  1.00  0.00     0.123 A 
ATOM     26  H3  UNL     1      -6.401   1.205  -1.378  1.00  0.00     0.186 HD
BRANCH  21  27
HETATM   27  N1  UNL     1      -3.796   1.002   2.083  1.00  0.00    -0.384 N 
ATOM     28  H12 UNL     1      -4.288   1.452   2.855  1.00  0.00     0.157 HD
ATOM     29  H11 UNL     1      -2.882   0.670   2.393  1.00  0.00     0.157 HD
ENDBRANCH  21  27
ENDBRANCH   1  20
TORSDOF 2
