REMARK  2 active torsions:
REMARK  status: ('A' for Active; 'I' for Inactive)
REMARK    1  A    between atoms: O1_1  and  C1_3 
REMARK    2  A    between atoms: C7_13  and  C8_14 
ROOT
HETATM    1  C1  UNL     1       0.322  -0.323   1.016  1.00  0.00     0.348 C 
HETATM    2  N1  UNL     1       1.726  -0.733   1.125  1.00  0.00    -0.040 N 
ATOM      3  H11 UNL     1       1.805  -1.631   1.603  1.00  0.00     0.280 HD
ATOM      4  H12 UNL     1       2.225  -0.143   1.791  1.00  0.00     0.280 HD
HETATM    5  C2  UNL     1       2.400  -0.766  -0.120  1.00  0.00     0.217 C 
HETATM    6  C3  UNL     1       3.879  -0.432   0.026  1.00  0.00     0.036 C 
HETATM    7  C4  UNL     1       4.133   0.795  -0.785  1.00  0.00     0.005 C 
HETATM    8  C5  UNL     1       2.795   1.393  -1.119  1.00  0.00     0.034 C 
HETATM    9  C6  UNL     1       1.916   0.141  -1.173  1.00  0.00     0.152 C 
HETATM   10  O2  UNL     1       0.589   0.454  -1.158  1.00  0.00    -0.374 OA
HETATM   11  C7  UNL     1      -0.087  -0.500  -0.392  1.00  0.00     0.183 C 
ENDROOT
BRANCH  11  12
HETATM   12  C8  UNL     1      -1.549  -0.351  -0.667  1.00  0.00     0.044 C 
HETATM   13  C9  UNL     1      -2.421  -1.313   0.064  1.00  0.00     0.010 C 
HETATM   14  C10 UNL     1      -3.515  -0.645   0.859  1.00  0.00     0.028 C 
HETATM   15  C11 UNL     1      -4.206   0.454   0.136  1.00  0.00     0.232 C 
HETATM   16  N2  UNL     1      -3.439   1.050  -0.924  1.00  0.00    -0.075 N 
HETATM   17  C12 UNL     1      -2.043   1.069  -0.456  1.00  0.00     0.239 C 
ATOM     18  H22 UNL     1      -3.560   0.585  -1.824  1.00  0.00     0.277 HD
ATOM     19  H21 UNL     1      -3.784   1.966  -1.210  1.00  0.00     0.277 HD
ENDBRANCH  11  12
BRANCH   1  20
HETATM   20  O1  UNL     1       0.276   0.999   1.460  1.00  0.00    -0.368 OA
ATOM     21  H1  UNL     1      -0.633   1.265   1.389  1.00  0.00     0.212 HD
ENDBRANCH   1  20
TORSDOF 2
