REMARK  5 active torsions:
REMARK  status: ('A' for Active; 'I' for Inactive)
REMARK    1  A    between atoms: C11_13  and  N2_14 
REMARK    2  A    between atoms: N2_14  and  C12_16 
REMARK    3  A    between atoms: C12_16  and  O2_17 
REMARK    4  A    between atoms: C12_16  and  N3_19 
REMARK    5  A    between atoms: N3_19  and  C13_21 
ROOT
HETATM    1  C1  UNL     1      -2.941  -3.031  -5.609  1.00  0.00     0.068 C 
HETATM    2  C2  UNL     1      -1.838  -2.596  -4.709  1.00  0.00     0.005 A 
HETATM    3  C3  UNL     1      -0.529  -2.902  -5.111  1.00  0.00     0.027 A 
HETATM    4  C4  UNL     1       0.478  -2.483  -4.265  1.00  0.00     0.034 A 
HETATM    5  C5  UNL     1       0.249  -1.803  -3.090  1.00  0.00     0.068 A 
HETATM    6  N1  UNL     1       0.641  -1.172  -1.939  1.00  0.00    -0.315 N 
HETATM    7  C6  UNL     1       1.845  -0.920  -1.380  1.00  0.00     0.111 C 
HETATM    8  C7  UNL     1       2.309  -0.552  -0.110  1.00  0.00     0.002 A 
HETATM    9  C8  UNL     1       1.706   0.016   0.995  1.00  0.00    -0.009 A 
HETATM   10  C9  UNL     1       0.411   0.436   1.295  1.00  0.00     0.070 C 
HETATM   11  C10 UNL     1      -0.809   0.080   0.751  1.00  0.00     0.201 C 
HETATM   12  O1  UNL     1      -1.725   0.053   1.593  1.00  0.00    -0.286 OA
HETATM   13  C11 UNL     1      -1.259  -0.259  -0.520  1.00  0.00     0.115 C 
HETATM   14  C19 UNL     1      -0.634  -0.910  -1.610  1.00  0.00     0.099 A 
HETATM   15  C20 UNL     1      -1.131  -1.521  -2.735  1.00  0.00     0.090 A 
HETATM   16  N4  UNL     1      -2.110  -1.941  -3.580  1.00  0.00    -0.356 N 
ATOM     17  H4  UNL     1      -3.083  -1.749  -3.343  1.00  0.00     0.166 HD
HETATM   18  C21 UNL     1       2.958  -0.002   1.742  1.00  0.00    -0.013 A 
HETATM   19  C22 UNL     1       3.733   0.237   2.865  1.00  0.00     0.025 A 
HETATM   20  C23 UNL     1       5.082  -0.097   2.850  1.00  0.00    -0.025 A 
HETATM   21  C24 UNL     1       5.850   0.143   3.964  1.00  0.00     0.012 A 
HETATM   22  C25 UNL     1       7.208  -0.167   4.017  1.00  0.00     0.001 A 
HETATM   23  C26 UNL     1       7.787  -0.738   2.901  1.00  0.00     0.001 A 
HETATM   24  C27 UNL     1       7.031  -0.984   1.783  1.00  0.00     0.012 A 
HETATM   25  C28 UNL     1       5.673  -0.666   1.745  1.00  0.00    -0.025 A 
HETATM   26  C29 UNL     1       4.908  -0.909   0.623  1.00  0.00     0.025 A 
HETATM   27  C30 UNL     1       3.561  -0.574   0.634  1.00  0.00    -0.012 A 
ENDROOT
BRANCH  13  28
HETATM   28  N2  UNL     1      -2.436   0.015  -0.840  1.00  0.00    -0.317 N 
ATOM     29  H2  UNL     1      -2.711  -0.255  -1.784  1.00  0.00     0.169 HD
BRANCH  28  30
HETATM   30  C12 UNL     1      -3.419   0.637  -0.083  1.00  0.00     0.222 C 
BRANCH  30  31
HETATM   31  O2  UNL     1      -4.433  -0.087   0.347  1.00  0.00    -0.332 OA
ATOM     32  H2  UNL     1      -5.106   0.339   0.865  1.00  0.00     0.220 HD
ENDBRANCH  30  31
BRANCH  30  33
HETATM   33  N3  UNL     1      -3.488   1.996   0.307  1.00  0.00    -0.322 N 
ATOM     34  H3  UNL     1      -2.718   2.595   0.010  1.00  0.00     0.169 HD
BRANCH  33  35
HETATM   35  C13 UNL     1      -4.502   2.606   1.058  1.00  0.00     0.035 A 
HETATM   36  C14 UNL     1      -4.131   3.646   1.907  1.00  0.00     0.029 A 
HETATM   37  C15 UNL     1      -5.058   4.322   2.658  1.00  0.00     0.002 A 
HETATM   38  C16 UNL     1      -6.396   4.012   2.614  1.00  0.00     0.000 A 
HETATM   39  C17 UNL     1      -6.774   2.981   1.771  1.00  0.00     0.002 A 
HETATM   40  C18 UNL     1      -5.846   2.297   1.013  1.00  0.00     0.029 A 
ENDBRANCH  33  35
ENDBRANCH  30  33
ENDBRANCH  28  30
ENDBRANCH  13  28
TORSDOF 5
