REMARK  4 active torsions:
REMARK  status: ('A' for Active; 'I' for Inactive)
REMARK    1  A    between atoms: C1_2  and  C2_3 
REMARK    2  A    between atoms: C7_8  and  C8_9 
REMARK    3  A    between atoms: C8_9  and  O2_10 
REMARK    4  A    between atoms: N1_12  and  C9_14 
ROOT
HETATM    1  C9  UNL     1       0.231  -1.234  -0.257  1.00  0.00     0.056 A 
HETATM    2  C10 UNL     1       1.275  -2.170  -0.127  1.00  0.00    -0.008 A 
HETATM    3  C11 UNL     1       1.041  -3.339   0.548  1.00  0.00     0.018 A 
HETATM    4  N2  UNL     1      -0.150  -3.657   1.109  1.00  0.00    -0.358 N 
ATOM      5  H2  UNL     1      -0.265  -4.542   1.603  1.00  0.00     0.166 HD
HETATM    6  C12 UNL     1      -1.156  -2.818   1.012  1.00  0.00     0.046 A 
HETATM    7  C13 UNL     1      -2.301  -3.166   1.684  1.00  0.00     0.033 C 
HETATM    8  C14 UNL     1      -3.186  -2.312   2.385  1.00  0.00     0.033 C 
HETATM    9  C15 UNL     1      -3.527  -1.028   2.046  1.00  0.00     0.046 A 
HETATM   10  N3  UNL     1      -4.251   0.065   2.230  1.00  0.00    -0.354 N 
ATOM     11  H3  UNL     1      -4.969   0.324   2.906  1.00  0.00     0.166 HD
HETATM   12  C16 UNL     1      -3.689   0.700   1.200  1.00  0.00     0.059 A 
HETATM   13  C17 UNL     1      -2.894  -0.362   0.918  1.00  0.00     0.031 A 
HETATM   14  C18 UNL     1      -1.942  -0.715  -0.001  1.00  0.00     0.016 C 
HETATM   15  C19 UNL     1      -0.939  -1.596   0.306  1.00  0.00     0.031 A 
HETATM   16  C20 UNL     1      -1.899  -0.349  -1.353  1.00  0.00     0.155 C 
HETATM   17  O3  UNL     1      -2.237   1.024  -1.502  1.00  0.00    -0.321 OA
HETATM   18  C21 UNL     1      -2.944   2.008  -0.868  1.00  0.00     0.087 A 
HETATM   19  C22 UNL     1      -2.969   3.211  -1.549  1.00  0.00     0.038 A 
HETATM   20  C23 UNL     1      -3.657   4.251  -0.983  1.00  0.00     0.003 A 
HETATM   21  C24 UNL     1      -4.314   4.122   0.235  1.00  0.00     0.001 A 
HETATM   22  C25 UNL     1      -4.287   2.922   0.909  1.00  0.00     0.016 A 
HETATM   23  C26 UNL     1      -3.613   1.902   0.354  1.00  0.00     0.025 A 
HETATM   24  C27 UNL     1       2.097  -4.373   0.711  1.00  0.00     0.057 C 
HETATM   25  C28 UNL     1       3.407  -3.634   0.839  1.00  0.00     0.006 C 
HETATM   26  C29 UNL     1       3.615  -2.963  -0.496  1.00  0.00     0.005 C 
HETATM   27  C30 UNL     1       2.606  -1.867  -0.746  1.00  0.00     0.043 C 
ENDROOT
BRANCH   1  28
HETATM   28  N1  UNL     1       0.414  -0.084  -0.739  1.00  0.00    -0.335 N 
HETATM   29  C8  UNL     1       1.299   0.764  -1.262  1.00  0.00     0.151 C 
ATOM     30  H1  UNL     1      -0.486   0.395  -0.722  1.00  0.00     0.168 HD
BRANCH  29  31
HETATM   31  C7  UNL     1       2.176   1.835  -0.851  1.00  0.00     0.028 A 
HETATM   32  C2  UNL     1       2.241   2.417   0.353  1.00  0.00     0.016 A 
HETATM   33  C3  UNL     1       3.261   3.359   0.633  1.00  0.00     0.015 A 
HETATM   34  C4  UNL     1       4.204   3.719  -0.279  1.00  0.00     0.001 A 
HETATM   35  C5  UNL     1       4.118   3.107  -1.527  1.00  0.00     0.001 A 
HETATM   36  C6  UNL     1       3.158   2.207  -1.816  1.00  0.00     0.017 A 
BRANCH  32  37
HETATM   37  C1  UNL     1       1.283   2.285   1.408  1.00  0.00     0.271 C 
HETATM   38  O1  UNL     1       0.224   1.715   1.409  1.00  0.00    -0.301 OA
ENDBRANCH  32  37
ENDBRANCH  29  31
BRANCH  29  39
HETATM   39  O2  UNL     1       1.469   0.612  -2.594  1.00  0.00    -0.345 OA
ATOM     40  H2  UNL     1       0.892  -0.093  -2.864  1.00  0.00     0.219 HD
ENDBRANCH  29  39
ENDBRANCH   1  28
TORSDOF 4
