REMARK  17 active torsions:
REMARK  status: ('A' for Active; 'I' for Inactive)
REMARK    1  A    between atoms: O1_2  and  C2_3 
REMARK    2  A    between atoms: C6_8  and  O3_9 
REMARK    3  A    between atoms: O3_9  and  C7_10 
REMARK    4  A    between atoms: C10_14  and  N1_15 
REMARK    5  A    between atoms: C13_18  and  O5_19 
REMARK    6  A    between atoms: O5_19  and  C14_20 
REMARK    7  A    between atoms: C15_22  and  C16_23 
REMARK    8  A    between atoms: C16_23  and  O7_24 
REMARK    9  A    between atoms: C17_26  and  O8_27 
REMARK   10  A    between atoms: C18_29  and  O9_30 
REMARK   11  A    between atoms: O9_30  and  C19_31 
REMARK   12  A    between atoms: C22_35  and  O11_36 
REMARK   13  A    between atoms: C23_38  and  O12_39 
REMARK   14  A    between atoms: C24_41  and  O13_42 
REMARK   15  A    between atoms: C25_44  and  O14_45 
REMARK   16  A    between atoms: C26_47  and  O15_48 
REMARK   17  A    between atoms: C27_50  and  O16_51 
ROOT
HETATM    1  C14 UNL     1       1.168  -0.528   0.211  1.00  0.00     0.292 C 
HETATM    2  O6  UNL     1       2.033  -1.659   0.126  1.00  0.00    -0.348 OA
HETATM    3  C15 UNL     1       2.592  -1.844   1.393  1.00  0.00     0.179 C 
HETATM    4  C17 UNL     1       3.382  -0.599   1.807  1.00  0.00     0.181 C 
HETATM    5  C18 UNL     1       3.486   0.231   0.534  1.00  0.00     0.189 C 
HETATM    6  C25 UNL     1       2.061   0.662   0.158  1.00  0.00     0.205 C 
ENDROOT
BRANCH   1   7
HETATM    7  O5  UNL     1       0.227  -0.571  -0.802  1.00  0.00    -0.348 OA
BRANCH   7   8
HETATM    8  C13 UNL     1      -0.993  -0.925  -0.340  1.00  0.00     0.194 C 
HETATM    9  C10 UNL     1      -1.421  -2.223  -1.050  1.00  0.00     0.281 C 
HETATM   10  C8  UNL     1      -2.454  -2.861  -0.202  1.00  0.00     0.156 C 
HETATM   11  O4  UNL     1      -2.996  -1.872   0.646  1.00  0.00    -0.351 OA
HETATM   12  C9  UNL     1      -3.576  -3.491  -0.978  1.00  0.00     0.042 C 
HETATM   13  C7  UNL     1      -3.363  -0.714  -0.077  1.00  0.00     0.294 C 
HETATM   14  C26 UNL     1      -2.149   0.016  -0.610  1.00  0.00     0.204 C 
BRANCH   9  15
HETATM   15  N1  UNL     1      -0.258  -2.946  -1.381  1.00  0.00     0.089 N 
HETATM   16  C11 UNL     1       0.104  -2.588  -2.775  1.00  0.00     0.310 C 
HETATM   17  C12 UNL     1      -0.422  -4.383  -1.405  1.00  0.00     0.310 C 
ENDBRANCH   9  15
BRANCH  13  18
HETATM   18  O3  UNL     1      -4.015   0.093   0.817  1.00  0.00    -0.326 OA
BRANCH  18  19
HETATM   19  C6  UNL     1      -5.366   0.272   0.565  1.00  0.00     0.299 C 
HETATM   20  O2  UNL     1      -6.060  -0.351   1.674  1.00  0.00    -0.329 OA
HETATM   21  C5  UNL     1      -7.425  -0.231   1.677  1.00  0.00     0.143 C 
HETATM   22  C3  UNL     1      -7.970   0.827   1.057  1.00  0.00    -0.031 C 
HETATM   23  C2  UNL     1      -7.185   1.858   0.379  1.00  0.00     0.184 C 
HETATM   24  C4  UNL     1      -9.475   0.978   1.054  1.00  0.00     0.048 C 
HETATM   25  C27 UNL     1      -5.703   1.735   0.680  1.00  0.00     0.207 C 
BRANCH  23  26
HETATM   26  O1  UNL     1      -7.339   1.788  -1.013  1.00  0.00    -0.384 OA
HETATM   27  C1  UNL     1      -7.845   3.010  -1.447  1.00  0.00     0.202 C 
ENDBRANCH  23  26
BRANCH  25  28
HETATM   28  O16 UNL     1      -5.452   2.218   1.947  1.00  0.00    -0.388 OA
ATOM     29  H16 UNL     1      -4.524   2.141   2.135  1.00  0.00     0.210 HD
ENDBRANCH  25  28
ENDBRANCH  18  19
ENDBRANCH  13  18
BRANCH  14  30
HETATM   30  O15 UNL     1      -1.946   1.173   0.116  1.00  0.00    -0.388 OA
ATOM     31  H15 UNL     1      -1.184   1.631  -0.219  1.00  0.00     0.210 HD
ENDBRANCH  14  30
ENDBRANCH   7   8
ENDBRANCH   1   7
BRANCH   6  32
HETATM   32  O14 UNL     1       1.615   1.616   1.078  1.00  0.00    -0.388 OA
ATOM     33  H14 UNL     1       2.185   2.375   1.044  1.00  0.00     0.210 HD
ENDBRANCH   6  32
BRANCH   3  34
HETATM   34  C16 UNL     1       3.530  -3.033   1.311  1.00  0.00     0.198 C 
BRANCH  34  35
HETATM   35  O7  UNL     1       2.843  -4.177   0.925  1.00  0.00    -0.398 OA
ATOM     36  H7  UNL     1       3.431  -4.922   0.874  1.00  0.00     0.209 HD
ENDBRANCH  34  35
ENDBRANCH   3  34
BRANCH   5  37
HETATM   37  O9  UNL     1       4.286   1.317   0.605  1.00  0.00    -0.348 OA
BRANCH  37  38
HETATM   38  C19 UNL     1       5.374   1.276  -0.259  1.00  0.00     0.292 C 
HETATM   39  O10 UNL     1       6.496   1.109   0.573  1.00  0.00    -0.351 OA
HETATM   40  C20 UNL     1       7.142   2.266   0.901  1.00  0.00     0.152 C 
HETATM   41  C21 UNL     1       8.140   1.913   2.017  1.00  0.00     0.042 C 
HETATM   42  C22 UNL     1       7.933   2.739  -0.302  1.00  0.00     0.178 C 
HETATM   43  C23 UNL     1       7.055   2.623  -1.506  1.00  0.00     0.183 C 
HETATM   44  C24 UNL     1       5.571   2.454  -1.136  1.00  0.00     0.204 C 
BRANCH  42  45
HETATM   45  O11 UNL     1       9.119   2.021  -0.421  1.00  0.00    -0.390 OA
ATOM     46  H11 UNL     1       9.615   2.318  -1.175  1.00  0.00     0.210 HD
ENDBRANCH  42  45
BRANCH  43  47
HETATM   47  O12 UNL     1       7.407   1.440  -2.164  1.00  0.00    -0.390 OA
ATOM     48  H12 UNL     1       6.849   1.366  -2.929  1.00  0.00     0.210 HD
ENDBRANCH  43  47
BRANCH  44  49
HETATM   49  O13 UNL     1       5.113   3.635  -0.613  1.00  0.00    -0.388 OA
ATOM     50  H13 UNL     1       5.239   4.390  -1.175  1.00  0.00     0.210 HD
ENDBRANCH  44  49
ENDBRANCH  37  38
ENDBRANCH   5  37
BRANCH   4  51
HETATM   51  O8  UNL     1       2.710   0.020   2.824  1.00  0.00    -0.390 OA
ATOM     52  H8  UNL     1       3.200   0.792   3.081  1.00  0.00     0.210 HD
ENDBRANCH   4  51
TORSDOF 17
