REMARK  11 active torsions:
REMARK  status: ('A' for Active; 'I' for Inactive)
REMARK    1  A    between atoms: O1_2  and  C2_3 
REMARK    2  A    between atoms: C2_3  and  C3_4 
REMARK    3  A    between atoms: C3_4  and  N1_5 
REMARK    4  A    between atoms: N1_5  and  C4_7 
REMARK    5  A    between atoms: C5_10  and  N3_11 
REMARK    6  A    between atoms: N3_11  and  C6_13 
REMARK    7  A    between atoms: C10_17  and  O2_18 
REMARK    8  A    between atoms: C13_23  and  N5_24 
REMARK    9  A    between atoms: N5_24  and  C14_26 
REMARK   10  A    between atoms: C19_31  and  O3_32 
REMARK   11  A    between atoms: O3_32  and  C20_33 
ROOT
HETATM    1  C4  UNL     1      -0.086  -2.098   0.613  1.00  0.00     0.707 A 
HETATM    2  N2  UNL     1       1.265  -1.929   0.688  1.00  0.00    -0.021 N 
ATOM      3  H2  UNL     1       1.856  -2.726   0.924  1.00  0.00     0.203 HD
HETATM    4  C5  UNL     1       1.842  -0.715   0.454  1.00  0.00     0.711 A 
HETATM    5  N4  UNL     1       1.068   0.336   0.143  1.00  0.00    -0.021 N 
ATOM      6  H4  UNL     1       1.498   1.244  -0.034  1.00  0.00     0.203 HD
HETATM    7  C13 UNL     1      -0.260   0.207   0.062  1.00  0.00     0.712 A 
HETATM    8  N6  UNL     1      -0.799  -1.008   0.300  1.00  0.00    -0.021 N 
ATOM      9  H6  UNL     1      -1.813  -1.102   0.238  1.00  0.00     0.203 HD
ENDROOT
BRANCH   7  10
HETATM   10  N5  UNL     1      -0.989   1.226  -0.237  1.00  0.00    -0.188 N 
ATOM     11  H5  UNL     1      -0.548   2.129  -0.411  1.00  0.00     0.184 HD
BRANCH  10  12
HETATM   12  C14 UNL     1      -2.398   1.105  -0.327  1.00  0.00     0.082 A 
HETATM   13  C15 UNL     1      -3.015   0.700  -1.496  1.00  0.00     0.033 A 
HETATM   14  C16 UNL     1      -4.392   0.581  -1.583  1.00  0.00     0.002 A 
HETATM   15  C17 UNL     1      -5.127   0.882  -0.453  1.00  0.00     0.003 A 
HETATM   16  C18 UNL     1      -4.516   1.284   0.708  1.00  0.00     0.039 A 
HETATM   17  C19 UNL     1      -3.135   1.407   0.807  1.00  0.00     0.105 A 
BRANCH  17  18
HETATM   18  O3  UNL     1      -2.566   1.816   2.003  1.00  0.00    -0.253 OA
BRANCH  18  19
HETATM   19  C20 UNL     1      -2.340   3.193   2.294  1.00  0.00     0.530 C 
HETATM   20  F1  UNL     1      -1.493   3.758   1.355  1.00  0.00    -0.144 F 
HETATM   21  F2  UNL     1      -1.718   3.318   3.522  1.00  0.00    -0.144 F 
HETATM   22  F3  UNL     1      -3.540   3.890   2.296  1.00  0.00    -0.144 F 
ENDBRANCH  18  19
ENDBRANCH  17  18
ENDBRANCH  10  12
ENDBRANCH   7  10
BRANCH   4  23
HETATM   23  N3  UNL     1       3.119  -0.658   0.552  1.00  0.00    -0.191 N 
ATOM     24  H3  UNL     1       3.631  -1.506   0.794  1.00  0.00     0.184 HD
BRANCH  23  25
HETATM   25  C6  UNL     1       3.831   0.514   0.341  1.00  0.00     0.051 A 
HETATM   26  C7  UNL     1       3.759   1.553   1.274  1.00  0.00     0.030 A 
HETATM   27  C8  UNL     1       4.487   2.704   1.066  1.00  0.00     0.005 A 
HETATM   28  C9  UNL     1       5.293   2.892  -0.022  1.00  0.00     0.037 A 
HETATM   29  C10 UNL     1       5.371   1.862  -0.956  1.00  0.00     0.070 A 
HETATM   30  C12 UNL     1       4.645   0.708  -0.756  1.00  0.00     0.066 A 
BRANCH  29  31
HETATM   31  O2  UNL     1       6.140   1.924  -2.084  1.00  0.00    -0.356 OA
HETATM   32  C11 UNL     1       6.960   2.957  -2.519  1.00  0.00     0.210 C 
ENDBRANCH  29  31
ENDBRANCH  23  25
ENDBRANCH   4  23
BRANCH   1  33
HETATM   33  N1  UNL     1      -0.570  -3.268   0.847  1.00  0.00    -0.223 N 
ATOM     34  H1  UNL     1       0.071  -4.026   1.081  1.00  0.00     0.177 HD
BRANCH  33  35
HETATM   35  C3  UNL     1      -1.980  -3.547   0.791  1.00  0.00     0.164 C 
BRANCH  35  36
HETATM   36  C2  UNL     1      -2.390  -3.765  -0.623  1.00  0.00     0.187 C 
BRANCH  36  37
HETATM   37  O1  UNL     1      -3.741  -4.053  -0.801  1.00  0.00    -0.394 OA
HETATM   38  C1  UNL     1      -4.110  -5.234  -0.157  1.00  0.00     0.201 C 
ENDBRANCH  36  37
ENDBRANCH  35  36
ENDBRANCH  33  35
ENDBRANCH   1  33
TORSDOF 11
