REMARK  7 active torsions:
REMARK  status: ('A' for Active; 'I' for Inactive)
REMARK    1  A    between atoms: O1_2  and  C2_3 
REMARK    2  A    between atoms: C5_6  and  O2_7 
REMARK    3  A    between atoms: O2_7  and  C6_8 
REMARK    4  A    between atoms: C10_15  and  C11_16 
REMARK    5  A    between atoms: C11_16  and  C13_24 
REMARK    6  A    between atoms: N2_17  and  N3_19 
REMARK    7  A    between atoms: C13_24  and  C14_27 
ROOT
HETATM    1  C6  UNL     1       0.336  -1.453   0.736  1.00  0.00     0.160 A 
HETATM    2  N1  UNL     1       1.273  -2.325   1.239  1.00  0.00    -0.345 N 
ATOM      3  H1  UNL     1       1.943  -1.977   1.925  1.00  0.00     0.167 HD
HETATM    4  C7  UNL     1       1.346  -3.602   0.872  1.00  0.00     0.109 A 
HETATM    5  C8  UNL     1       0.432  -4.044  -0.051  1.00  0.00     0.027 A 
HETATM    6 BR1  UNL     1       0.480  -5.861  -0.625  1.00  0.00    -0.050 Br
HETATM    7  C9  UNL     1      -0.540  -3.231  -0.599  1.00  0.00     0.038 A 
HETATM    8  C10 UNL     1      -0.569  -1.900  -0.171  1.00  0.00     0.047 A 
ENDROOT
BRANCH   8   9
HETATM    9  C11 UNL     1      -1.719  -1.079  -0.548  1.00  0.00     0.121 C 
HETATM   10  N2  UNL     1      -1.938   0.051   0.046  1.00  0.00    -0.295 N 
ATOM     11  H2  UNL     1      -1.268   0.312   0.770  1.00  0.00     0.187 HD
BRANCH  10  12
HETATM   12  N3  UNL     1      -2.950   0.933  -0.175  1.00  0.00    -0.276 N 
HETATM   13  C12 UNL     1      -3.112   2.141   0.145  1.00  0.00     0.215 C 
HETATM   14  N4  UNL     1      -4.333   2.825  -0.252  1.00  0.00    -0.065 NA
HETATM   15  N5  UNL     1      -2.213   2.939   0.873  1.00  0.00    -0.065 NA
ATOM     16  H3  UNL     1      -3.729   0.540  -0.702  1.00  0.00     0.189 HD
ENDBRANCH  10  12
BRANCH   9  17
HETATM   17  C13 UNL     1      -2.724  -1.441  -1.568  1.00  0.00     0.364 C 
HETATM   18  F1  UNL     1      -1.954  -1.759  -2.719  1.00  0.00    -0.189 F 
HETATM   19  F2  UNL     1      -3.562  -0.434  -1.958  1.00  0.00    -0.189 F 
BRANCH  17  20
HETATM   20  C14 UNL     1      -3.578  -2.600  -1.240  1.00  0.00     0.310 C 
HETATM   21  N6  UNL     1      -4.095  -2.829   0.055  1.00  0.00    -0.056 NA
HETATM   22  O3  UNL     1      -3.873  -3.433  -2.140  1.00  0.00    -0.270 OA
ENDBRANCH  17  20
ENDBRANCH   9  17
ENDBRANCH   8   9
BRANCH   1  23
HETATM   23  O2  UNL     1       0.445  -0.152   1.249  1.00  0.00    -0.293 OA
BRANCH  23  24
HETATM   24  C5  UNL     1       1.367   0.650   0.620  1.00  0.00     0.078 A 
HETATM   25  C4  UNL     1       1.261   1.444  -0.457  1.00  0.00     0.040 A 
HETATM   26  C3  UNL     1       2.304   2.211  -0.983  1.00  0.00     0.039 A 
HETATM   27  C2  UNL     1       3.521   2.171  -0.383  1.00  0.00     0.068 A 
HETATM   28  C16 UNL     1       3.690   1.375   0.724  1.00  0.00     0.039 A 
HETATM   29  C15 UNL     1       2.651   0.631   1.221  1.00  0.00     0.040 A 
BRANCH  27  30
HETATM   30  O1  UNL     1       4.623   2.895  -0.826  1.00  0.00    -0.356 OA
HETATM   31  C1  UNL     1       5.876   2.828  -0.171  1.00  0.00     0.210 C 
ENDBRANCH  27  30
ENDBRANCH  23  24
ENDBRANCH   1  23
TORSDOF 7
