REMARK  5 active torsions:
REMARK  status: ('A' for Active; 'I' for Inactive)
REMARK    1  A    between atoms: C2_2  and  C5_5 
REMARK    2  A    between atoms: C6_6  and  C7_7 
REMARK    3  A    between atoms: N2_11  and  C9_13 
REMARK    4  A    between atoms: C11_23  and  N7_24 
REMARK    5  A    between atoms: N7_24  and  C12_26 
ROOT
HETATM    1  C7  UNL     1       0.460   0.086   0.017  1.00  0.00     0.127 A 
HETATM    2  N1  UNL     1      -0.055   1.287  -0.278  1.00  0.00    -0.182 N 
ATOM      3  H1  UNL     1       0.562   2.093  -0.381  1.00  0.00     0.185 HD
HETATM    4  C8  UNL     1      -1.379   1.434  -0.438  1.00  0.00     0.686 A 
HETATM    5  N2  UNL     1      -1.855   2.594  -0.721  1.00  0.00    -0.174 N 
ATOM      6  H2  UNL     1      -2.860   2.715  -0.845  1.00  0.00     0.186 HD
HETATM    7  N6  UNL     1      -2.226   0.370  -0.305  1.00  0.00    -0.175 N 
ATOM      8  H6  UNL     1      -3.228   0.511  -0.432  1.00  0.00     0.186 HD
HETATM    9  C11 UNL     1      -1.771  -0.850  -0.012  1.00  0.00     0.141 A 
HETATM   10  C16 UNL     1      -0.407  -0.987   0.149  1.00  0.00     0.124 A 
HETATM   11  C17 UNL     1       0.128  -2.278   0.464  1.00  0.00     0.106 C 
HETATM   12  N8  UNL     1       0.562  -3.313   0.712  1.00  0.00    -0.191 NA
ENDROOT
BRANCH   1  13
HETATM   13  C6  UNL     1       1.880  -0.046   0.183  1.00  0.00    -0.046 C 
HETATM   14  C5  UNL     1       3.073  -0.170   0.324  1.00  0.00    -0.091 C 
BRANCH  14  15
HETATM   15  C2  UNL     1       4.530  -0.298   0.504  1.00  0.00     0.013 C 
HETATM   16  C1  UNL     1       5.098   0.949   1.135  1.00  0.00     0.028 C 
HETATM   17  C3  UNL     1       4.884  -1.483   1.363  1.00  0.00     0.028 C 
HETATM   18  C4  UNL     1       5.179  -0.487  -0.845  1.00  0.00     0.028 C 
ENDBRANCH  14  15
ENDBRANCH   1  13
BRANCH   9  19
HETATM   19  N7  UNL     1      -2.516  -1.852   0.118  1.00  0.00    -0.366 N 
ATOM     20  H7  UNL     1      -2.023  -2.717   0.342  1.00  0.00     0.162 HD
BRANCH  19  21
HETATM   21  C12 UNL     1      -3.923  -1.992   0.008  1.00  0.00     0.021 C 
HETATM   22  C13 UNL     1      -4.705  -1.184   1.005  1.00  0.00     0.037 C 
HETATM   23  C14 UNL     1      -4.254  -3.466   0.297  1.00  0.00     0.037 C 
HETATM   24  C15 UNL     1      -4.352  -1.703  -1.418  1.00  0.00     0.037 C 
ENDBRANCH  19  21
ENDBRANCH   9  19
BRANCH   5  25
HETATM   25  C9  UNL     1      -0.990   3.699  -0.861  1.00  0.00     0.153 A 
HETATM   26  C10 UNL     1      -0.550   4.536   0.136  1.00  0.00     0.159 A 
HETATM   27  N3  UNL     1       0.256   5.452  -0.440  1.00  0.00    -0.294 N 
HETATM   28  N4  UNL     1       0.308   5.188  -1.731  1.00  0.00    -0.241 N 
ATOM     29  H3  UNL     1       0.739   6.213   0.038  1.00  0.00     0.187 HD
HETATM   30  N5  UNL     1      -0.439   4.127  -2.025  1.00  0.00    -0.269 N 
ATOM     31  H4  UNL     1       0.847   5.724  -2.411  1.00  0.00     0.208 HD
ATOM     32  H5  UNL     1      -0.572   3.714  -2.948  1.00  0.00     0.190 HD
ENDBRANCH   5  25
TORSDOF 5
