REMARK  8 active torsions:
REMARK  status: ('A' for Active; 'I' for Inactive)
REMARK    1  A    between atoms: N1_1  and  C1_4 
REMARK    2  A    between atoms: C1_4  and  N2_5 
REMARK    3  A    between atoms: C1_4  and  C12_24 
REMARK    4  A    between atoms: N2_5  and  C2_7 
REMARK    5  A    between atoms: C2_7  and  C3_8 
REMARK    6  A    between atoms: C3_8  and  N3_9 
REMARK    7  A    between atoms: C5_13  and  C6_14 
REMARK       I    between atoms: C6_14  and  N5_16 
REMARK    8  A    between atoms: C12_24  and  C13_28 
ROOT
HETATM    1  C1  UNL     1       3.231  -0.939  -2.291  1.00  0.00     0.122 C 
ENDROOT
BRANCH   1   2
HETATM    2  N1  UNL     1       2.952  -1.854  -3.193  1.00  0.00    -0.384 N 
ATOM      3  H12 UNL     1       2.137  -1.706  -3.788  1.00  0.00     0.157 HD
ATOM      4  H11 UNL     1       3.577  -2.659  -3.236  1.00  0.00     0.157 HD
ENDBRANCH   1   2
BRANCH   1   5
HETATM    5  N2  UNL     1       2.379   0.157  -2.232  1.00  0.00    -0.373 N 
ATOM      6  H2  UNL     1       2.678   1.075  -2.560  1.00  0.00     0.161 HD
BRANCH   5   7
HETATM    7  C2  UNL     1       1.041  -0.050  -1.685  1.00  0.00     0.141 C 
BRANCH   7   8
HETATM    8  C3  UNL     1       0.237   1.216  -1.683  1.00  0.00     0.148 C 
BRANCH   8   9
HETATM    9  N3  UNL     1      -1.062   0.917  -1.129  1.00  0.00    -0.349 N 
HETATM   10  C4  UNL     1      -1.362   1.000   0.176  1.00  0.00     0.183 A 
HETATM   11  N4  UNL     1      -2.658   0.649   0.326  1.00  0.00    -0.347 N 
HETATM   12  C5  UNL     1      -3.197   0.343  -0.854  1.00  0.00     0.117 A 
ATOM     13  H4  UNL     1      -3.154   0.622   1.217  1.00  0.00     0.167 HD
HETATM   14  C11 UNL     1      -2.171   0.517  -1.773  1.00  0.00     0.127 A 
BRANCH  12  15
HETATM   15  C6  UNL     1      -4.563  -0.083  -1.137  1.00  0.00     0.271 C 
HETATM   16  O1  UNL     1      -4.907  -0.337  -2.342  1.00  0.00    -0.266 OA
HETATM   17  N5  UNL     1      -5.561  -0.242  -0.162  1.00  0.00    -0.344 N 
HETATM   18  C7  UNL     1      -6.887  -0.668  -0.534  1.00  0.00     0.145 C 
HETATM   19  C10 UNL     1      -5.289   0.014   1.218  1.00  0.00     0.145 C 
HETATM   20  C8  UNL     1      -7.869   0.203   0.202  1.00  0.00     0.133 C 
HETATM   21  N6  UNL     1      -7.712   0.208   1.619  1.00  0.00    -0.418 N 
HETATM   22  C9  UNL     1      -6.475  -0.301   2.110  1.00  0.00     0.133 C 
ATOM     23  H6  UNL     1      -8.441   0.555   2.243  1.00  0.00     0.153 HD
ENDBRANCH  12  15
ENDBRANCH   8   9
ENDBRANCH   7   8
ENDBRANCH   5   7
ENDBRANCH   1   5
BRANCH   1  24
HETATM   24  C12 UNL     1       4.384  -1.149  -1.450  1.00  0.00     0.085 C 
HETATM   25  N7  UNL     1       5.048  -2.257  -1.681  1.00  0.00    -0.395 N 
ATOM     26  H72 UNL     1       4.742  -2.901  -2.411  1.00  0.00     0.156 HD
ATOM     27  H71 UNL     1       5.863  -2.405  -1.086  1.00  0.00     0.156 HD
BRANCH  24  28
HETATM   28  C13 UNL     1       4.822  -0.228  -0.406  1.00  0.00     0.057 A 
HETATM   29  C14 UNL     1       4.273   0.965  -0.015  1.00  0.00     0.126 A 
HETATM   30  N8  UNL     1       5.037   1.436   0.985  1.00  0.00    -0.288 N 
HETATM   31  N9  UNL     1       6.023   0.633   1.252  1.00  0.00    -0.069 N 
ATOM     32  H8  UNL     1       4.864   2.315   1.474  1.00  0.00     0.187 HD
HETATM   33  C15 UNL     1       7.018   0.725   2.174  1.00  0.00     0.699 A 
HETATM   34  C17 UNL     1       5.946  -0.439   0.409  1.00  0.00     0.160 A 
HETATM   35  N10 UNL     1       7.049   1.749   2.943  1.00  0.00    -0.233 N 
HETATM   36  N11 UNL     1       7.931  -0.235   2.266  1.00  0.00    -0.186 N 
ATOM     37 2H10 UNL     1       6.348   2.486   2.872  1.00  0.00     0.174 HD
ATOM     38 1H10 UNL     1       7.795   1.818   3.635  1.00  0.00     0.174 HD
HETATM   39  C16 UNL     1       7.855  -1.289   1.437  1.00  0.00     0.199 A 
ATOM     40  H11 UNL     1       8.679  -0.173   2.956  1.00  0.00     0.185 HD
HETATM   41  N12 UNL     1       6.884  -1.389   0.528  1.00  0.00    -0.335 N 
ATOM     42  H12 UNL     1       6.855  -2.202  -0.087  1.00  0.00     0.168 HD
ENDBRANCH  24  28
ENDBRANCH   1  24
TORSDOF 8
