REMARK  5 active torsions:
REMARK  status: ('A' for Active; 'I' for Inactive)
REMARK    1  A    between atoms: C2_2  and  N1_3 
REMARK    2  A    between atoms: C3_4  and  O1_5 
REMARK    3  A    between atoms: C6_9  and  O2_10 
REMARK    4  A    between atoms: O2_10  and  O3_11 
REMARK    5  A    between atoms: C8_15  and  C10_17 
ROOT
HETATM    1  N1  UNL     1       2.735   0.766  -0.355  1.00  0.00    -0.304 N 
HETATM    2  C3  UNL     1       1.585   0.520  -0.970  1.00  0.00     0.154 A 
HETATM    3  C4  UNL     1       0.954  -0.501  -0.311  1.00  0.00     0.042 A 
HETATM    4  C5  UNL     1       1.778  -0.857   0.727  1.00  0.00     0.134 A 
HETATM    5  C6  UNL     1       2.890  -0.052   0.683  1.00  0.00     0.216 A 
HETATM    6  O4  UNL     1       1.223  -1.893   1.460  1.00  0.00    -0.345 OA
HETATM    7  C7  UNL     1       0.163  -2.457   0.735  1.00  0.00     0.190 C 
HETATM    8  C8  UNL     1      -0.219  -1.362  -0.254  1.00  0.00     0.016 C 
HETATM    9  C9  UNL     1      -0.455  -2.077  -1.585  1.00  0.00     0.023 C 
ENDROOT
BRANCH   8  10
HETATM   10  C10 UNL     1      -1.460  -0.722   0.241  1.00  0.00     0.001 C 
HETATM   11  C11 UNL     1      -1.400  -0.169   1.626  1.00  0.00     0.006 C 
HETATM   12  C12 UNL     1      -2.216   1.104   1.770  1.00  0.00     0.005 C 
HETATM   13  C13 UNL     1      -3.457   1.103   0.955  1.00  0.00    -0.019 C 
HETATM   14  C14 UNL     1      -4.579   0.293   1.562  1.00  0.00     0.010 C 
HETATM   15  C15 UNL     1      -3.274   0.719  -0.492  1.00  0.00     0.005 C 
HETATM   16  C16 UNL     1      -1.803   0.439  -0.700  1.00  0.00     0.006 C 
ENDBRANCH   8  10
BRANCH   2  17
HETATM   17  O1  UNL     1       1.062   1.178  -2.113  1.00  0.00    -0.345 OA
ATOM     18  H1  UNL     1       0.239   1.002  -2.553  1.00  0.00     0.219 HD
ENDBRANCH   2  17
BRANCH   1  19
HETATM   19  C2  UNL     1       3.721   1.773  -0.723  1.00  0.00     0.129 C 
HETATM   20  C1  UNL     1       4.741   1.252  -1.685  1.00  0.00     0.027 C 
ENDBRANCH   1  19
BRANCH   5  21
HETATM   21  O2  UNL     1       3.985  -0.101   1.585  1.00  0.00    -0.178 OA
BRANCH  21  22
HETATM   22  O3  UNL     1       4.975  -0.996   1.346  1.00  0.00    -0.243 OA
ATOM     23  H3  UNL     1       5.708  -1.029   1.950  1.00  0.00     0.254 HD
ENDBRANCH  21  22
ENDBRANCH   5  21
TORSDOF 5
