REMARK  5 active torsions:
REMARK  status: ('A' for Active; 'I' for Inactive)
REMARK    1  A    between atoms: C2_2  and  N1_3 
REMARK       I    between atoms: N1_3  and  C3_5 
REMARK    2  A    between atoms: C3_5  and  C4_7 
REMARK    3  A    between atoms: C6_11  and  N3_12 
REMARK       I    between atoms: N3_12  and  C7_14 
REMARK    4  A    between atoms: C7_14  and  C8_16 
REMARK    5  A    between atoms: C8_16  and  N4_18 
ROOT
HETATM    1  C4  UNL     1       1.869  -0.502   1.446  1.00  0.00     0.198 C 
HETATM    2  N2  UNL     1       0.810   0.427   1.132  1.00  0.00    -0.319 N 
HETATM    3  C5  UNL     1       0.020   1.628   1.103  1.00  0.00     0.247 C 
HETATM    4  O2  UNL     1       0.368   2.830   1.164  1.00  0.00    -0.271 OA
HETATM    5  C6  UNL     1      -1.170   0.770   0.987  1.00  0.00     0.210 C 
HETATM    6  C10 UNL     1      -0.185  -0.137   0.257  1.00  0.00     0.183 C 
HETATM    7  S1  UNL     1      -0.235  -1.858   0.818  1.00  0.00    -0.129 SA
HETATM    8  C11 UNL     1       1.312  -1.806   1.811  1.00  0.00     0.032 C 
HETATM    9  C12 UNL     1       0.972  -1.862   3.290  1.00  0.00     0.029 C 
HETATM   10  C13 UNL     1       2.108  -3.005   1.442  1.00  0.00     0.029 C 
ENDROOT
BRANCH   5  11
HETATM   11  N3  UNL     1      -2.182   1.190   0.055  1.00  0.00    -0.343 N 
HETATM   12  C7  UNL     1      -3.572   1.003   0.258  1.00  0.00     0.248 C 
HETATM   13  O3  UNL     1      -4.060   0.451   1.274  1.00  0.00    -0.271 OA
ATOM     14  H3  UNL     1      -1.881   1.650  -0.804  1.00  0.00     0.163 HD
BRANCH  12  15
HETATM   15  C8  UNL     1      -4.532   1.477  -0.771  1.00  0.00     0.270 C 
HETATM   16  C9  UNL     1      -4.115   0.870  -2.092  1.00  0.00     0.050 C 
BRANCH  15  17
HETATM   17  N4  UNL     1      -5.892   1.219  -0.429  1.00  0.00    -0.067 N 
ATOM     18  H43 UNL     1      -6.035   0.229  -0.227  1.00  0.00     0.275 HD
ATOM     19  H42 UNL     1      -6.117   1.610   0.486  1.00  0.00     0.275 HD
ATOM     20  H41 UNL     1      -6.551   1.545  -1.136  1.00  0.00     0.275 HD
ENDBRANCH  15  17
ENDBRANCH  12  15
ENDBRANCH   5  11
BRANCH   1  21
HETATM   21  C3  UNL     1       2.855  -0.465   0.358  1.00  0.00     0.242 C 
HETATM   22  N1  UNL     1       2.834   0.329  -0.778  1.00  0.00    -0.360 N 
ATOM     23  H1  UNL     1       2.066   0.984  -0.924  1.00  0.00     0.162 HD
HETATM   24  O1  UNL     1       3.831  -1.273   0.509  1.00  0.00    -0.271 OA
BRANCH  22  25
HETATM   25  C2  UNL     1       3.893   0.235  -1.756  1.00  0.00     0.118 C 
HETATM   26  C1  UNL     1       3.684   1.183  -2.916  1.00  0.00     0.026 C 
ENDBRANCH  22  25
ENDBRANCH   1  21
TORSDOF 5
