REMARK  8 active torsions:
REMARK  status: ('A' for Active; 'I' for Inactive)
REMARK    1  A    between atoms: C1_2  and  O2_3 
REMARK    2  A    between atoms: C1_2  and  O4_16 
REMARK    3  A    between atoms: O2_3  and  C2_4 
REMARK    4  A    between atoms: C2_4  and  C3_5 
REMARK    5  A    between atoms: C3_5  and  O3_6 
REMARK    6  A    between atoms: C3_5  and  C4_8 
REMARK    7  A    between atoms: O4_16  and  C9_17 
REMARK    8  A    between atoms: C9_17  and  C10_18 
ROOT
HETATM    1  O1  UNL     1      -0.229   1.179   0.539  1.00  0.00    -0.230 OA
HETATM    2  C1  UNL     1      -0.327  -0.057   0.630  1.00  0.00     0.406 C 
ENDROOT
BRANCH   2   3
HETATM    3  O2  UNL     1       0.892  -0.751   0.600  1.00  0.00    -0.296 OA
BRANCH   3   4
HETATM    4  C2  UNL     1       2.121  -0.022   0.472  1.00  0.00     0.213 C 
BRANCH   4   5
HETATM    5  C3  UNL     1       3.301  -0.941   0.460  1.00  0.00     0.148 C 
BRANCH   5   6
HETATM    6  O3  UNL     1       3.379  -1.696   1.632  1.00  0.00    -0.393 OA
ATOM      7  H3  UNL     1       4.128  -2.280   1.624  1.00  0.00     0.210 HD
ENDBRANCH   5   6
BRANCH   5   8
HETATM    8  C4  UNL     1       4.554  -0.149   0.287  1.00  0.00     0.042 C 
HETATM    9  C5  UNL     1       4.587   0.634  -0.986  1.00  0.00     0.010 C 
HETATM   10  C6  UNL     1       5.876   1.464  -0.985  1.00  0.00     0.028 C 
HETATM   11  C7  UNL     1       7.030   0.496  -0.966  1.00  0.00     0.232 C 
HETATM   12  N1  UNL     1       6.957  -0.191   0.333  1.00  0.00    -0.075 N 
HETATM   13  C8  UNL     1       5.796  -1.036   0.318  1.00  0.00     0.239 C 
ATOM     14  H12 UNL     1       7.812  -0.698   0.561  1.00  0.00     0.277 HD
ATOM     15  H11 UNL     1       6.967   0.454   1.123  1.00  0.00     0.277 HD
ENDBRANCH   5   8
ENDBRANCH   4   5
ENDBRANCH   3   4
ENDBRANCH   2   3
BRANCH   2  16
HETATM   16  O4  UNL     1      -1.524  -0.630   0.745  1.00  0.00    -0.295 OA
BRANCH  16  17
HETATM   17  C9  UNL     1      -2.833  -0.269   0.779  1.00  0.00     0.223 C 
BRANCH  17  18
HETATM   18  C10 UNL     1      -3.479   0.124  -0.476  1.00  0.00     0.181 C 
HETATM   19  C11 UNL     1      -3.472  -0.984  -1.513  1.00  0.00     0.044 C 
HETATM   20  C12 UNL     1      -4.404  -2.101  -1.235  1.00  0.00     0.004 C 
HETATM   21  C13 UNL     1      -5.783  -1.659  -0.817  1.00  0.00     0.030 C 
HETATM   22  C14 UNL     1      -5.707  -0.552   0.238  1.00  0.00     0.273 C 
HETATM   23  N2  UNL     1      -4.898   0.472  -0.274  1.00  0.00     0.100 N 
HETATM   24  C15 UNL     1      -4.879   1.695   0.492  1.00  0.00     0.273 C 
HETATM   25  C16 UNL     1      -3.624   2.392  -0.019  1.00  0.00     0.033 C 
HETATM   26  C17 UNL     1      -3.049   1.427  -1.054  1.00  0.00     0.045 C 
ENDBRANCH  17  18
ENDBRANCH  16  17
ENDBRANCH   2  16
TORSDOF 8
