REMARK  7 active torsions:
REMARK  status: ('A' for Active; 'I' for Inactive)
REMARK    1  A    between atoms: C3_4  and  C4_5 
REMARK    2  A    between atoms: C9_11  and  O2_12 
REMARK    3  A    between atoms: N1_14  and  C10_15 
REMARK    4  A    between atoms: C10_15  and  C11_16 
REMARK    5  A    between atoms: C11_16  and  O3_17 
REMARK    6  A    between atoms: C11_16  and  C12_19 
REMARK    7  A    between atoms: C12_19  and  N2_20 
ROOT
HETATM    1  O1  UNL     1       1.220  -0.099   1.516  1.00  0.00    -0.266 OA
HETATM    2  C1  UNL     1       1.508  -0.823   0.501  1.00  0.00     0.266 A 
HETATM    3  C2  UNL     1       2.869  -0.770   0.065  1.00  0.00     0.069 A 
HETATM    4  C3  UNL     1       3.774  -0.033   0.655  1.00  0.00     0.002 C 
HETATM    5  S1  UNL     1       3.354  -1.748  -1.339  1.00  0.00    -0.092 SA
HETATM    6  C8  UNL     1       1.826  -2.585  -1.826  1.00  0.00     0.106 A 
HETATM    7  C9  UNL     1       0.704  -2.399  -1.179  1.00  0.00     0.151 A 
HETATM    8  N1  UNL     1       0.470  -1.582  -0.069  1.00  0.00    -0.291 N 
ENDROOT
BRANCH   8   9
HETATM    9  C10 UNL     1      -0.857  -1.502   0.519  1.00  0.00     0.167 C 
BRANCH   9  10
HETATM   10  C11 UNL     1      -1.698  -0.415  -0.106  1.00  0.00     0.164 C 
BRANCH  10  11
HETATM   11  O3  UNL     1      -1.080   0.820   0.066  1.00  0.00    -0.392 OA
ATOM     12  H3  UNL     1      -1.609   1.504  -0.327  1.00  0.00     0.210 HD
ENDBRANCH  10  11
BRANCH  10  13
HETATM   13  C12 UNL     1      -3.034  -0.311   0.614  1.00  0.00     0.305 C 
BRANCH  13  14
HETATM   14  N2  UNL     1      -3.818   0.741   0.050  1.00  0.00     0.090 N 
HETATM   15  C13 UNL     1      -4.278   0.499  -1.293  1.00  0.00     0.272 C 
HETATM   16  C14 UNL     1      -5.285   1.652  -1.435  1.00  0.00     0.032 C 
HETATM   17  C15 UNL     1      -6.091   1.436  -0.147  1.00  0.00     0.032 C 
HETATM   18  C16 UNL     1      -4.999   1.024   0.822  1.00  0.00     0.272 C 
ENDBRANCH  13  14
ENDBRANCH  10  13
ENDBRANCH   9  10
ENDBRANCH   8   9
BRANCH   7  19
HETATM   19  O2  UNL     1      -0.392  -3.118  -1.678  1.00  0.00    -0.346 OA
ATOM     20  H2  UNL     1      -1.207  -2.983  -1.208  1.00  0.00     0.219 HD
ENDBRANCH   7  19
BRANCH   4  21
HETATM   21  C4  UNL     1       5.189   0.045   0.230  1.00  0.00     0.010 C 
HETATM   22  C5  UNL     1       6.067   0.185   1.483  1.00  0.00     0.008 C 
HETATM   23  C6  UNL     1       6.187   1.676   1.235  1.00  0.00     0.001 C 
HETATM   24  C7  UNL     1       5.672   1.414  -0.170  1.00  0.00     0.008 C 
ENDBRANCH   4  21
TORSDOF 7
