REMARK  4 active torsions:
REMARK  status: ('A' for Active; 'I' for Inactive)
REMARK    1  A    between atoms: C2_2  and  O1_3 
REMARK    2  A    between atoms: O1_3  and  C3_4 
REMARK    3  A    between atoms: C3_4  and  N2_8 
REMARK    4  A    between atoms: N3_10  and  C4_12 
ROOT
HETATM    1  N2  UNL     1       0.525   1.224  -1.070  1.00  0.00    -0.264 N 
ATOM      2  H2  UNL     1       0.165   2.001  -1.624  1.00  0.00     0.190 HD
HETATM    3  N3  UNL     1       1.684   0.824  -1.318  1.00  0.00    -0.287 N 
ATOM      4  H3  UNL     1       2.214   1.285  -2.057  1.00  0.00     0.188 HD
ENDROOT
BRANCH   1   5
HETATM    5  C3  UNL     1      -0.328   0.676  -0.072  1.00  0.00     0.232 C 
HETATM    6  N1  UNL     1      -0.416   1.170   1.116  1.00  0.00    -0.364 N 
ATOM      7  H12 UNL     1      -1.028   0.777   1.832  1.00  0.00     0.159 HD
ATOM      8  H11 UNL     1       0.149   1.987   1.348  1.00  0.00     0.159 HD
BRANCH   5   9
HETATM    9  O1  UNL     1      -1.086  -0.420  -0.383  1.00  0.00    -0.322 OA
BRANCH   9  10
HETATM   10  C2  UNL     1      -2.220  -0.837   0.357  1.00  0.00     0.174 C 
HETATM   11  C1  UNL     1      -3.286   0.247   0.377  1.00  0.00     0.034 C 
ENDBRANCH   9  10
ENDBRANCH   5   9
ENDBRANCH   1   5
BRANCH   3  12
HETATM   12  C4  UNL     1       2.289  -0.246  -0.611  1.00  0.00     0.085 C 
HETATM   13  C5  UNL     1       3.223   0.045   0.495  1.00  0.00     0.090 C 
HETATM   14  N4  UNL     1       2.015  -1.456  -0.944  1.00  0.00    -0.388 N 
ATOM     15  H42 UNL     1       1.370  -1.657  -1.708  1.00  0.00     0.157 HD
ATOM     16  H41 UNL     1       2.450  -2.226  -0.435  1.00  0.00     0.157 HD
ENDBRANCH   3  12
TORSDOF 4
