REMARK  0 active torsions:
REMARK  status: ('A' for Active; 'I' for Inactive)
ROOT
HETATM    1  C1  UNL     1      -0.495  -0.845   0.134  1.00  0.00     0.000 C 
HETATM    2  C2  UNL     1       0.373  -2.020   0.377  1.00  0.00     0.000 C 
HETATM    3  C3  UNL     1       1.785  -1.514   0.028  1.00  0.00     0.002 C 
HETATM    4  C4  UNL     1       2.081  -0.139   0.523  1.00  0.00     0.021 C 
HETATM    5  C5  UNL     1       2.051   0.949  -0.521  1.00  0.00     0.141 C 
HETATM    6  N1  UNL     1       1.237   2.099  -0.154  1.00  0.00    -0.322 N 
ATOM      7  H1  UNL     1       1.578   2.664   0.624  1.00  0.00     0.181 HD
HETATM    8  N2  UNL     1       0.087   2.501  -0.723  1.00  0.00    -0.252 N 
ATOM      9  H2  UNL     1       0.286   3.181  -1.457  1.00  0.00     0.207 HD
HETATM   10  N3  UNL     1      -1.103   2.320  -0.649  1.00  0.00    -0.322 N 
ATOM     11  H3  UNL     1      -1.620   2.878  -1.328  1.00  0.00     0.181 HD
HETATM   12  C6  UNL     1      -1.960   1.520   0.152  1.00  0.00     0.141 C 
HETATM   13  C7  UNL     1      -2.521   0.292  -0.455  1.00  0.00     0.021 C 
HETATM   14  C8  UNL     1      -1.975  -1.032   0.055  1.00  0.00     0.002 C 
ENDROOT
TORSDOF 0
