REMARK  1 active torsions:
REMARK  status: ('A' for Active; 'I' for Inactive)
REMARK    1  A    between atoms: N1_2  and  C1_4 
ROOT
HETATM    1  C1  UNL     1      -0.268  -0.163   0.098  1.00  0.00     0.146 A 
HETATM    2  N2  UNL     1       0.856  -0.812   0.052  1.00  0.00    -0.325 N 
ATOM      3  H2  UNL     1       0.854  -1.829   0.136  1.00  0.00     0.169 HD
HETATM    4  C2  UNL     1       1.997  -0.175  -0.101  1.00  0.00     0.148 A 
HETATM    5 CL2  UNL     1       3.652  -0.813  -0.189  1.00  0.00    -0.056 Cl
HETATM    6  S1  UNL     1       1.469   1.466  -0.190  1.00  0.00    -0.044 SA
HETATM    7  C3  UNL     1      -0.203   1.202  -0.019  1.00  0.00     0.122 A 
HETATM    8 CL3  UNL     1      -1.574   2.327   0.028  1.00  0.00    -0.072 Cl
ENDROOT
BRANCH   1   9
HETATM    9  N1  UNL     1      -1.539  -0.834   0.264  1.00  0.00    -0.282 N 
HETATM   10 CL1  UNL     1      -2.587  -0.980  -1.106  1.00  0.00     0.012 Cl
ATOM     11  H1  UNL     1      -1.812  -1.214   1.170  1.00  0.00     0.182 HD
ENDBRANCH   1   9
TORSDOF 1
