REMARK  16 active torsions:
REMARK  status: ('A' for Active; 'I' for Inactive)
REMARK    1  A    between atoms: C4_4  and  O1_5 
REMARK    2  A    between atoms: C5_7  and  C6_8 
REMARK    3  A    between atoms: C7_9  and  O2_10 
REMARK    4  A    between atoms: C7_9  and  C8_12 
REMARK       I    between atoms: C8_12  and  N1_14 
REMARK    5  A    between atoms: N1_14  and  C9_16 
REMARK    6  A    between atoms: C9_16  and  C10_17 
REMARK       I    between atoms: C10_17  and  N2_19 
REMARK    7  A    between atoms: N2_19  and  C11_21 
REMARK    8  A    between atoms: C11_21  and  C12_22 
REMARK       I    between atoms: C12_22  and  N3_24 
REMARK    9  A    between atoms: N3_24  and  C13_26 
REMARK   10  A    between atoms: C14_27  and  C15_28 
REMARK   11  A    between atoms: C20_33  and  O6_34 
REMARK   12  A    between atoms: N6_40  and  C21_41 
REMARK   13  A    between atoms: C21_41  and  C22_42 
REMARK       I    between atoms: C22_42  and  N7_44 
REMARK   14  A    between atoms: N7_44  and  N8_45 
REMARK       I    between atoms: N8_45  and  C23_47 
REMARK   15  A    between atoms: C23_47  and  C24_49 
REMARK   16  A    between atoms: C24_49  and  N9_50 
ROOT
HETATM    1  C13 UNL     1      -3.189  -0.318   0.570  1.00  0.00     0.156 A 
HETATM    2  C14 UNL     1      -4.054  -1.335   0.276  1.00  0.00     0.108 A 
HETATM    3  N4  UNL     1      -5.046  -1.264   1.247  1.00  0.00    -0.281 N 
ATOM      4  H4  UNL     1      -5.847  -1.892   1.319  1.00  0.00     0.188 HD
HETATM    5  N5  UNL     1      -4.800  -0.293   2.033  1.00  0.00    -0.238 N 
ATOM      6  H5  UNL     1      -5.378  -0.020   2.828  1.00  0.00     0.208 HD
HETATM    7  N6  UNL     1      -3.658   0.321   1.655  1.00  0.00    -0.250 N 
ENDROOT
BRANCH   1   8
HETATM    8  N3  UNL     1      -1.903  -0.211  -0.077  1.00  0.00    -0.309 N 
HETATM    9  C12 UNL     1      -1.167   0.907  -0.445  1.00  0.00     0.240 C 
HETATM   10  O5  UNL     1      -1.685   2.037  -0.617  1.00  0.00    -0.271 OA
ATOM     11  H3  UNL     1      -1.463  -1.104  -0.300  1.00  0.00     0.170 HD
BRANCH   9  12
HETATM   12  C11 UNL     1       0.294   0.868  -0.663  1.00  0.00     0.225 C 
BRANCH  12  13
HETATM   13  N2  UNL     1       0.961  -0.338  -0.192  1.00  0.00    -0.351 N 
HETATM   14  C10 UNL     1       2.342  -0.343  -0.210  1.00  0.00     0.235 C 
HETATM   15  O4  UNL     1       3.123   0.416  -0.620  1.00  0.00    -0.272 OA
ATOM     16  H2  UNL     1       0.431  -1.145   0.137  1.00  0.00     0.163 HD
BRANCH  14  17
HETATM   17  C9  UNL     1       2.997  -1.647   0.508  1.00  0.00     0.225 C 
BRANCH  17  18
HETATM   18  N1  UNL     1       4.345  -1.413   0.528  1.00  0.00    -0.346 N 
HETATM   19  C8  UNL     1       5.471  -1.994   1.142  1.00  0.00     0.275 C 
HETATM   20  O3  UNL     1       5.373  -2.948   1.917  1.00  0.00    -0.265 OA
ATOM     21  H1  UNL     1       4.599  -0.612  -0.050  1.00  0.00     0.163 HD
BRANCH  19  22
HETATM   22  C7  UNL     1       6.776  -1.410   0.818  1.00  0.00     0.135 C 
HETATM   23  C6  UNL     1       7.898  -1.819   1.282  1.00  0.00     0.062 C 
BRANCH  23  24
HETATM   24  C5  UNL     1       9.081  -1.053   0.731  1.00  0.00     0.075 A 
HETATM   25  C4  UNL     1       9.955  -0.357   1.476  1.00  0.00     0.084 A 
HETATM   26  C3  UNL     1      10.925   0.400   0.782  1.00  0.00     0.070 A 
HETATM   27  C2  UNL     1      10.949   0.411  -0.586  1.00  0.00     0.056 A 
HETATM   28  C1  UNL     1      11.988   1.230  -1.338  1.00  0.00     0.077 C 
HETATM   29  O10 UNL     1      10.076  -0.290  -1.253  1.00  0.00    -0.280 OA
HETATM   30  C26 UNL     1       9.169  -1.010  -0.678  1.00  0.00     0.301 A 
HETATM   31  O9  UNL     1       8.386  -1.674  -1.387  1.00  0.00    -0.259 OA
BRANCH  25  32
HETATM   32  O1  UNL     1       9.911  -0.386   2.868  1.00  0.00    -0.360 OA
ATOM     33  H1  UNL     1       9.259  -0.895   3.335  1.00  0.00     0.217 HD
ENDBRANCH  25  32
ENDBRANCH  23  24
BRANCH  22  34
HETATM   34  O2  UNL     1       6.704  -0.290  -0.120  1.00  0.00    -0.356 OA
ATOM     35  H2  UNL     1       5.872   0.013  -0.464  1.00  0.00     0.218 HD
ENDBRANCH  22  34
ENDBRANCH  19  22
ENDBRANCH  17  18
ENDBRANCH  14  17
ENDBRANCH  12  13
ENDBRANCH   9  12
ENDBRANCH   1   8
BRANCH   2  36
HETATM   36  C15 UNL     1      -4.089  -2.155  -0.900  1.00  0.00     0.029 A 
HETATM   37  C16 UNL     1      -3.445  -3.364  -1.044  1.00  0.00     0.017 A 
HETATM   38  C17 UNL     1      -3.642  -4.149  -2.165  1.00  0.00     0.001 A 
HETATM   39  C18 UNL     1      -4.455  -3.784  -3.178  1.00  0.00     0.003 A 
HETATM   40  C19 UNL     1      -5.126  -2.564  -3.076  1.00  0.00     0.037 A 
HETATM   41  C20 UNL     1      -4.926  -1.812  -1.965  1.00  0.00     0.078 A 
BRANCH  41  42
HETATM   42  O6  UNL     1      -5.589  -0.576  -1.853  1.00  0.00    -0.360 OA
ATOM     43  H6  UNL     1      -6.158  -0.343  -2.577  1.00  0.00     0.217 HD
ENDBRANCH  41  42
ENDBRANCH   2  36
BRANCH   7  44
HETATM   44  C21 UNL     1      -3.096   1.460   2.326  1.00  0.00     0.273 C 
BRANCH  44  45
HETATM   45  C22 UNL     1      -3.862   2.754   1.949  1.00  0.00     0.332 C 
HETATM   46  O7  UNL     1      -3.451   3.782   2.413  1.00  0.00    -0.253 OA
HETATM   47  N7  UNL     1      -4.952   2.537   1.101  1.00  0.00    -0.282 NA
BRANCH  47  48
HETATM   48  N8  UNL     1      -5.976   2.362   0.311  1.00  0.00    -0.198 N 
HETATM   49  C23 UNL     1      -7.278   1.985   0.791  1.00  0.00     0.266 C 
HETATM   50  O8  UNL     1      -7.415   1.859   2.067  1.00  0.00    -0.269 OA
ATOM     51  H8  UNL     1      -5.847   2.499  -0.692  1.00  0.00     0.205 HD
BRANCH  49  52
HETATM   52  C24 UNL     1      -8.478   1.712   0.000  1.00  0.00     0.256 C 
BRANCH  52  53
HETATM   53  N9  UNL     1      -9.463   2.749   0.436  1.00  0.00    -0.262 N 
HETATM   54  C25 UNL     1     -10.384   2.583   1.437  1.00  0.00     0.220 A 
HETATM   55  N10 UNL     1     -11.062   3.724   1.551  1.00  0.00    -0.279 N 
HETATM   56  N11 UNL     1     -10.593   4.587   0.656  1.00  0.00    -0.227 N 
ATOM     57  H10 UNL     1     -11.815   3.905   2.214  1.00  0.00     0.189 HD
HETATM   58  N12 UNL     1      -9.641   3.951   0.022  1.00  0.00    -0.225 N 
ATOM     59  H11 UNL     1     -10.909   5.544   0.497  1.00  0.00     0.210 HD
ATOM     60  H12 UNL     1      -9.093   4.370  -0.729  1.00  0.00     0.210 HD
ENDBRANCH  52  53
ENDBRANCH  49  52
ENDBRANCH  47  48
ENDBRANCH  44  45
ENDBRANCH   7  44
TORSDOF 16
