REMARK  3 active torsions:
REMARK  status: ('A' for Active; 'I' for Inactive)
REMARK    1  A    between atoms: C2_2  and  N1_3 
REMARK    2  A    between atoms: C5_6  and  C6_7 
REMARK    3  A    between atoms: C12_18  and  O1_19 
ROOT
HETATM    1  N1  UNL     1      -1.802   0.548   0.059  1.00  0.00    -0.316 N 
HETATM    2  C3  UNL     1      -0.620   0.014  -0.273  1.00  0.00     0.023 A 
HETATM    3  C4  UNL     1      -0.412  -0.879  -1.425  1.00  0.00     0.069 C 
HETATM    4  C5  UNL     1       0.467   0.340   0.534  1.00  0.00     0.018 A 
HETATM    5  C11 UNL     1       0.342   1.174   1.625  1.00  0.00     0.058 A 
HETATM    6  C12 UNL     1      -0.892   1.706   1.935  1.00  0.00     0.135 A 
HETATM    7  C13 UNL     1      -1.940   1.370   1.130  1.00  0.00     0.281 A 
HETATM    8  O2  UNL     1      -3.077   1.870   1.429  1.00  0.00    -0.265 OA
ENDROOT
BRANCH   4   9
HETATM    9  C6  UNL     1       1.804  -0.225   0.241  1.00  0.00     0.068 A 
HETATM   10  N2  UNL     1       1.986  -1.557   0.156  1.00  0.00    -0.362 N 
HETATM   11  C7  UNL     1       3.179  -2.114  -0.113  1.00  0.00     0.114 A 
ATOM     12  H2  UNL     1       1.183  -2.169   0.302  1.00  0.00     0.165 HD
HETATM   13  C8  UNL     1       4.283  -1.285  -0.314  1.00  0.00     0.072 A 
HETATM   14 CL1  UNL     1       5.811  -2.059  -0.662  1.00  0.00    -0.081 Cl
HETATM   15  C9  UNL     1       4.154   0.087  -0.239  1.00  0.00     0.081 A 
HETATM   16 CL2  UNL     1       5.580   1.060  -0.502  1.00  0.00    -0.081 Cl
HETATM   17  C10 UNL     1       2.907   0.589   0.040  1.00  0.00     0.085 A 
HETATM   18 CL3  UNL     1       2.734   2.323   0.141  1.00  0.00    -0.080 Cl
ENDBRANCH   4   9
BRANCH   1  19
HETATM   19  C2  UNL     1      -2.979   0.266  -0.725  1.00  0.00     0.128 C 
HETATM   20  C1  UNL     1      -3.693  -0.984  -0.224  1.00  0.00     0.027 C 
ENDBRANCH   1  19
BRANCH   6  21
HETATM   21  O1  UNL     1      -1.063   2.559   3.037  1.00  0.00    -0.356 OA
ATOM     22  H1  UNL     1      -1.913   2.925   3.251  1.00  0.00     0.218 HD
ENDBRANCH   6  21
TORSDOF 3
