REMARK  13 active torsions:
REMARK  status: ('A' for Active; 'I' for Inactive)
REMARK    1  A    between atoms: O1_2  and  C2_3 
REMARK    2  A    between atoms: C2_3  and  C3_5 
REMARK    3  A    between atoms: C3_5  and  C5_7 
REMARK    4  A    between atoms: C3_5  and  O6_37 
REMARK    5  A    between atoms: C6_8  and  C7_9 
REMARK    6  A    between atoms: C16_18  and  C17_19 
REMARK    7  A    between atoms: C16_18  and  C18_22 
REMARK    8  A    between atoms: C17_19  and  O3_20 
REMARK    9  A    between atoms: C18_22  and  O4_23 
REMARK   10  A    between atoms: C19_25  and  C20_26 
REMARK   11  A    between atoms: C20_26  and  C21_27 
REMARK   12  A    between atoms: C21_27  and  O5_30 
REMARK   13  A    between atoms: O6_37  and  O7_38 
ROOT
HETATM    1  C7  UNL     1       1.789  -1.338  -0.164  1.00  0.00     0.017 C 
HETATM    2  C8  UNL     1       2.376  -2.241   0.873  1.00  0.00     0.009 C 
HETATM    3  C9  UNL     1       1.274  -2.873   1.651  1.00  0.00     0.001 C 
HETATM    4  C10 UNL     1      -0.028  -2.181   1.394  1.00  0.00     0.010 C 
HETATM    5  C11 UNL     1       0.097  -0.656   1.504  1.00  0.00    -0.032 C 
HETATM    6  C12 UNL     1       0.656  -0.429   2.918  1.00  0.00     0.016 C 
HETATM    7  C13 UNL     1      -1.299  -0.126   1.523  1.00  0.00    -0.001 C 
HETATM    8  C14 UNL     1      -1.464   1.077   2.407  1.00  0.00     0.007 C 
HETATM    9  C15 UNL     1      -2.819   1.646   2.391  1.00  0.00     0.014 C 
HETATM   10  C16 UNL     1      -3.612   1.597   1.136  1.00  0.00     0.006 C 
HETATM   11  C19 UNL     1      -3.245   0.473   0.201  1.00  0.00     0.005 C 
HETATM   12  C24 UNL     1      -1.799   0.198   0.124  1.00  0.00    -0.005 C 
HETATM   13  C25 UNL     1      -0.898   1.242  -0.399  1.00  0.00     0.006 C 
HETATM   14  C26 UNL     1       0.436   0.589  -0.684  1.00  0.00     0.011 C 
HETATM   15  C27 UNL     1       1.007  -0.173   0.461  1.00  0.00    -0.029 C 
HETATM   16  C28 UNL     1       2.087   0.724   1.087  1.00  0.00     0.016 C 
ENDROOT
BRANCH   1  17
HETATM   17  C6  UNL     1       2.812  -0.823  -1.117  1.00  0.00    -0.022 C 
HETATM   18  C5  UNL     1       4.107  -1.053  -0.963  1.00  0.00     0.020 C 
BRANCH  18  19
HETATM   19  C3  UNL     1       5.069  -0.503  -1.961  1.00  0.00     0.197 C 
HETATM   20  C4  UNL     1       4.503   0.764  -2.592  1.00  0.00     0.065 C 
BRANCH  19  21
HETATM   21  C2  UNL     1       6.404  -0.283  -1.402  1.00  0.00     0.300 C 
HETATM   22  O2  UNL     1       7.391  -0.907  -1.862  1.00  0.00    -0.261 OA
BRANCH  21  23
HETATM   23  O1  UNL     1       6.637   0.602  -0.363  1.00  0.00    -0.324 OA
HETATM   24  C1  UNL     1       7.947   0.800   0.167  1.00  0.00     0.213 C 
ENDBRANCH  21  23
ENDBRANCH  19  21
BRANCH  19  25
HETATM   25  O6  UNL     1       5.134  -1.448  -2.996  1.00  0.00    -0.218 OA
BRANCH  25  26
HETATM   26  O7  UNL     1       5.604  -2.599  -2.521  1.00  0.00    -0.249 OA
ATOM     27  H7  UNL     1       5.648  -3.239  -3.222  1.00  0.00     0.253 HD
ENDBRANCH  25  26
ENDBRANCH  19  25
ENDBRANCH  18  19
ENDBRANCH   1  17
BRANCH  11  28
HETATM   28  C20 UNL     1      -3.933   0.594  -1.110  1.00  0.00     0.043 C 
BRANCH  28  29
HETATM   29  C21 UNL     1      -3.650  -0.505  -2.105  1.00  0.00     0.051 C 
HETATM   30  C22 UNL     1      -4.032  -1.876  -1.598  1.00  0.00     0.045 C 
HETATM   31  C23 UNL     1      -4.646  -0.253  -3.276  1.00  0.00     0.045 C 
BRANCH  29  32
HETATM   32  O5  UNL     1      -2.415  -0.485  -2.681  1.00  0.00    -0.391 OA
ATOM     33  H5  UNL     1      -2.237  -1.177  -3.307  1.00  0.00     0.210 HD
ENDBRANCH  29  32
ENDBRANCH  28  29
ENDBRANCH  11  28
BRANCH  10  34
HETATM   34  C17 UNL     1      -3.669   2.933   0.428  1.00  0.00     0.176 C 
BRANCH  34  35
HETATM   35  O3  UNL     1      -4.245   3.910   1.256  1.00  0.00    -0.400 OA
ATOM     36  H3  UNL     1      -4.281   4.749   0.811  1.00  0.00     0.209 HD
ENDBRANCH  34  35
ENDBRANCH  10  34
BRANCH  10  37
HETATM   37  C18 UNL     1      -5.067   1.332   1.571  1.00  0.00     0.176 C 
BRANCH  37  38
HETATM   38  O4  UNL     1      -5.062   0.115   2.248  1.00  0.00    -0.400 OA
ATOM     39  H4  UNL     1      -5.959  -0.048   2.516  1.00  0.00     0.209 HD
ENDBRANCH  37  38
ENDBRANCH  10  37
TORSDOF 13
