REMARK  2 active torsions:
REMARK  status: ('A' for Active; 'I' for Inactive)
REMARK    1  A    between atoms: C2_2  and  N1_4 
REMARK    2  A    between atoms: N1_4  and  C4_6 
ROOT
HETATM    1  C4  UNL     1      -0.077   0.018  -0.122  1.00  0.00     0.078 C 
HETATM    2  C5  UNL     1       0.844   1.226  -0.014  1.00  0.00     0.026 C 
HETATM    3  C6  UNL     1       1.891   1.089   1.039  1.00  0.00     0.029 C 
HETATM    4  C7  UNL     1       3.090   0.293   0.621  1.00  0.00     0.232 C 
HETATM    5  N2  UNL     1       2.918  -0.425  -0.616  1.00  0.00    -0.075 N 
ATOM      6  H21 UNL     1       3.796  -0.781  -0.994  1.00  0.00     0.277 HD
ATOM      7  H22 UNL     1       2.672   0.183  -1.397  1.00  0.00     0.277 HD
HETATM    8  C8  UNL     1       1.947  -1.461  -0.386  1.00  0.00     0.234 C 
HETATM    9  C9  UNL     1       0.650  -1.001  -0.972  1.00  0.00     0.052 C 
ENDROOT
BRANCH   1  10
HETATM   10  N1  UNL     1      -1.194   0.466  -0.915  1.00  0.00    -0.414 N 
ATOM     11  H1  UNL     1      -1.070   0.939  -1.810  1.00  0.00     0.153 HD
BRANCH  10  12
HETATM   12  C2  UNL     1      -2.482   0.205  -0.367  1.00  0.00     0.068 C 
HETATM   13  C1  UNL     1      -2.767  -1.241  -0.081  1.00  0.00     0.031 C 
HETATM   14  C3  UNL     1      -2.827   1.025   0.846  1.00  0.00     0.031 C 
ENDBRANCH  10  12
ENDBRANCH   1  10
TORSDOF 2
