REMARK  2 active torsions:
REMARK  status: ('A' for Active; 'I' for Inactive)
REMARK    1  A    between atoms: C2_2  and  N1_3 
REMARK    2  A    between atoms: N1_3  and  C3_5 
ROOT
HETATM    1  C3  UNL     1       0.065  -0.282  -0.009  1.00  0.00     0.059 C 
HETATM    2  C4  UNL     1       0.514  -1.320   0.949  1.00  0.00     0.041 C 
HETATM    3  C5  UNL     1      -0.619  -0.996  -1.168  1.00  0.00     0.060 C 
HETATM    4  C6  UNL     1      -1.958  -1.344  -0.597  1.00  0.00     0.236 C 
HETATM    5  N2  UNL     1      -2.076  -0.658   0.682  1.00  0.00    -0.065 N 
ATOM      6  H21 UNL     1      -1.906  -1.249   1.496  1.00  0.00     0.278 HD
ATOM      7  H22 UNL     1      -3.029  -0.399   0.936  1.00  0.00     0.278 HD
HETATM    8  C7  UNL     1      -1.181   0.440   0.554  1.00  0.00     0.143 C 
HETATM    9  C8  UNL     1      -0.852   1.175   1.812  1.00  0.00     0.048 C 
HETATM   10  C9  UNL     1      -1.600   1.429  -0.516  1.00  0.00     0.048 C 
ENDROOT
BRANCH   1  11
HETATM   11  N1  UNL     1       0.945   0.732  -0.388  1.00  0.00    -0.391 N 
ATOM     12  H1  UNL     1       0.703   1.697  -0.161  1.00  0.00     0.159 HD
BRANCH  11  13
HETATM   13  C2  UNL     1       2.138   0.487  -1.062  1.00  0.00     0.052 C 
HETATM   14  C1  UNL     1       3.155  -0.204  -0.200  1.00  0.00     0.054 C 
ENDBRANCH  11  13
ENDBRANCH   1  11
TORSDOF 2
