REMARK  4 active torsions:
REMARK  status: ('A' for Active; 'I' for Inactive)
REMARK    1  A    between atoms: C6_8  and  O1_9 
REMARK    2  A    between atoms: O1_9  and  C7_10 
REMARK    3  A    between atoms: C7_10  and  C8_11 
REMARK    4  A    between atoms: C8_11  and  C9_12 
ROOT
HETATM    1  C9  UNL     1       0.193   0.725  -0.522  1.00  0.00     0.131 C 
HETATM    2  O2  UNL     1       0.796   0.778   0.714  1.00  0.00    -0.383 OA
HETATM    3  C10 UNL     1      -0.011   0.184   1.660  1.00  0.00     0.200 C 
HETATM    4  C11 UNL     1      -1.311  -0.196   0.982  1.00  0.00     0.153 C 
HETATM    5  O3  UNL     1      -2.380  -0.022   1.816  1.00  0.00    -0.371 OA
HETATM    6  C12 UNL     1      -3.533  -0.677   1.403  1.00  0.00     0.182 C 
HETATM    7  C13 UNL     1      -4.614   0.357   1.063  1.00  0.00     0.039 C 
HETATM    8  C14 UNL     1      -4.090   1.750   1.025  1.00  0.00     0.003 C 
HETATM    9  C15 UNL     1      -3.722   2.297  -0.289  1.00  0.00     0.001 C 
HETATM   10  C16 UNL     1      -3.414   1.361  -1.382  1.00  0.00     0.012 C 
HETATM   11  C17 UNL     1      -2.216   0.493  -1.266  1.00  0.00     0.055 C 
HETATM   12  C18 UNL     1      -2.711  -0.894  -1.061  1.00  0.00     0.096 A 
HETATM   13  O4  UNL     1      -2.694  -1.867  -1.930  1.00  0.00    -0.257 OA
HETATM   14  C19 UNL     1      -3.225  -2.921  -1.344  1.00  0.00     0.416 A 
HETATM   15  O5  UNL     1      -3.405  -4.081  -1.825  1.00  0.00    -0.229 OA
HETATM   16  O6  UNL     1      -3.576  -2.622  -0.118  1.00  0.00    -0.254 OA
HETATM   17  C20 UNL     1      -3.276  -1.386   0.093  1.00  0.00     0.118 A 
HETATM   18  C21 UNL     1      -1.272   0.808  -0.180  1.00  0.00     0.056 C 
ENDROOT
BRANCH   1  19
HETATM   19  C8  UNL     1       0.599  -0.509  -1.236  1.00  0.00     0.059 C 
BRANCH  19  20
HETATM   20  C7  UNL     1       2.125  -0.455  -1.387  1.00  0.00     0.180 C 
BRANCH  20  21
HETATM   21  O1  UNL     1       2.692  -0.396  -0.114  1.00  0.00    -0.335 OA
BRANCH  21  22
HETATM   22  C6  UNL     1       4.026  -0.337   0.184  1.00  0.00     0.151 A 
HETATM   23  C2  UNL     1       4.742   0.806   0.429  1.00  0.00    -0.008 A 
HETATM   24  C1  UNL     1       4.252   2.199   0.428  1.00  0.00     0.052 C 
HETATM   25  C3  UNL     1       6.042   0.438   0.687  1.00  0.00     0.053 A 
HETATM   26  C4  UNL     1       6.094  -0.933   0.593  1.00  0.00     0.107 A 
HETATM   27 CL1  UNL     1       7.526  -1.951   0.830  1.00  0.00    -0.064 Cl
HETATM   28  N1  UNL     1       4.863  -1.371   0.288  1.00  0.00    -0.322 N 
HETATM   29  C5  UNL     1       4.542  -2.800   0.108  1.00  0.00     0.159 C 
ENDBRANCH  21  22
ENDBRANCH  20  21
ENDBRANCH  19  20
ENDBRANCH   1  19
TORSDOF 4
