REMARK  16 active torsions:
REMARK  status: ('A' for Active; 'I' for Inactive)
REMARK    1  A    between atoms: N1_1  and  N2_4 
REMARK    2  A    between atoms: N2_4  and  C1_5 
REMARK    3  A    between atoms: N2_4  and  C28_45 
REMARK    4  A    between atoms: N2_4  and  C30_49 
REMARK    5  A    between atoms: C1_5  and  C2_6 
REMARK    6  A    between atoms: C3_7  and  C4_8 
REMARK    7  A    between atoms: C4_8  and  C5_9 
REMARK    8  A    between atoms: C5_9  and  C6_10 
REMARK    9  A    between atoms: C6_10  and  C7_11 
REMARK   10  A    between atoms: C7_11  and  N3_12 
REMARK   11  A    between atoms: C10_15  and  C11_16 
REMARK   12  A    between atoms: C14_19  and  N4_20 
REMARK   13  A    between atoms: C20_29  and  C21_30 
REMARK   14  A    between atoms: C28_45  and  C29_46 
REMARK   15  A    between atoms: C30_49  and  C31_50 
REMARK   16  A    between atoms: C35_54  and  O6_55 
ROOT
HETATM    1  N3  UNL     1       0.423   1.332   0.735  1.00  0.00    -0.365 N 
HETATM    2  C8  UNL     1       0.932   2.480   0.268  1.00  0.00     0.091 A 
HETATM    3  C9  UNL     1       2.240   2.540  -0.166  1.00  0.00     0.030 A 
HETATM    4  C10 UNL     1       3.073   1.433  -0.140  1.00  0.00    -0.011 A 
HETATM    5  C20 UNL     1       2.537   0.260   0.341  1.00  0.00     0.017 A 
HETATM    6  C27 UNL     1       1.203   0.247   0.771  1.00  0.00     0.105 A 
ENDROOT
BRANCH   1   7
HETATM    7  C7  UNL     1      -0.943   1.217   1.213  1.00  0.00     0.128 C 
BRANCH   7   8
HETATM    8  C6  UNL     1      -1.069   1.479   2.663  1.00  0.00     0.021 C 
BRANCH   8   9
HETATM    9  C5  UNL     1      -2.396   1.460   3.282  1.00  0.00     0.014 C 
BRANCH   9  10
HETATM   10  C4  UNL     1      -3.255   0.276   3.229  1.00  0.00     0.094 C 
BRANCH  10  11
HETATM   11  C3  UNL     1      -3.708  -0.143   1.914  1.00  0.00    -0.105 C 
HETATM   12  C2  UNL     1      -4.125  -0.491   0.816  1.00  0.00    -0.076 C 
BRANCH  12  13
HETATM   13  C1  UNL     1      -4.611  -0.889  -0.507  1.00  0.00     0.358 C 
BRANCH  13  14
HETATM   14  N2  UNL     1      -6.060  -0.755  -0.619  1.00  0.00     0.030 N 
BRANCH  14  15
HETATM   15  N1  UNL     1      -6.542  -2.008  -0.991  1.00  0.00    -0.260 N 
ATOM     16  H12 UNL     1      -5.980  -2.845  -1.150  1.00  0.00     0.183 HD
ATOM     17  H11 UNL     1      -7.555  -1.914  -1.069  1.00  0.00     0.183 HD
ENDBRANCH  14  15
BRANCH  14  18
HETATM   18  C28 UNL     1      -6.365   0.200  -1.649  1.00  0.00     0.378 C 
BRANCH  18  19
HETATM   19  C29 UNL     1      -7.425  -0.126  -2.578  1.00  0.00     0.202 C 
HETATM   20  O4  UNL     1      -7.699   0.725  -3.490  1.00  0.00    -0.647 OA
HETATM   21  O5  UNL     1      -8.159  -1.274  -2.558  1.00  0.00    -0.647 OA
ENDBRANCH  18  19
ENDBRANCH  14  18
BRANCH  14  22
HETATM   22  C30 UNL     1      -6.599  -0.343   0.673  1.00  0.00     0.304 C 
BRANCH  22  23
HETATM   23  C31 UNL     1      -8.092  -0.424   0.703  1.00  0.00    -0.028 A 
HETATM   24  C32 UNL     1      -8.670  -1.620   1.026  1.00  0.00     0.009 A 
HETATM   25  C33 UNL     1     -10.036  -1.722   1.068  1.00  0.00     0.003 A 
HETATM   26  C34 UNL     1     -10.854  -0.646   0.791  1.00  0.00     0.036 A 
HETATM   27  C35 UNL     1     -10.243   0.557   0.465  1.00  0.00     0.066 A 
HETATM   28  C36 UNL     1      -8.881   0.660   0.423  1.00  0.00     0.045 A 
BRANCH  27  29
HETATM   29  O6  UNL     1     -11.093   1.640   0.186  1.00  0.00    -0.361 OA
ATOM     30  H6  UNL     1     -10.675   2.463  -0.037  1.00  0.00     0.217 HD
ENDBRANCH  27  29
ENDBRANCH  22  23
ENDBRANCH  14  22
ENDBRANCH  13  14
ENDBRANCH  12  13
ENDBRANCH  10  11
ENDBRANCH   9  10
ENDBRANCH   8   9
ENDBRANCH   7   8
ENDBRANCH   1   7
BRANCH   5  31
HETATM   31  C21 UNL     1       3.386  -0.914   0.379  1.00  0.00     0.047 A 
HETATM   32  C22 UNL     1       3.811  -1.670   1.438  1.00  0.00     0.051 A 
HETATM   33  C23 UNL     1       4.614  -2.702   1.013  1.00  0.00     0.078 A 
HETATM   34  C24 UNL     1       5.300  -3.739   1.607  1.00  0.00     0.263 A 
HETATM   35  C26 UNL     1       4.678  -2.568  -0.357  1.00  0.00     0.125 A 
HETATM   36  O2  UNL     1       5.269  -3.898   2.859  1.00  0.00    -0.267 OA
HETATM   37  N6  UNL     1       6.029  -4.624   0.896  1.00  0.00    -0.275 N 
HETATM   38  C25 UNL     1       6.077  -4.474  -0.446  1.00  0.00     0.328 A 
ATOM     39  H6  UNL     1       6.529  -5.384   1.358  1.00  0.00     0.173 HD
HETATM   40  O3  UNL     1       6.763  -5.312  -1.090  1.00  0.00    -0.247 OA
HETATM   41  N7  UNL     1       5.415  -3.471  -1.034  1.00  0.00    -0.293 N 
ATOM     42  H7  UNL     1       5.471  -3.385  -2.049  1.00  0.00     0.172 HD
HETATM   43  N8  UNL     1       3.938  -1.493  -0.731  1.00  0.00    -0.341 N 
ATOM     44  H8  UNL     1       3.813  -1.168  -1.690  1.00  0.00     0.167 HD
ENDBRANCH   5  31
BRANCH   4  45
HETATM   45  C11 UNL     1       4.442   1.537  -0.601  1.00  0.00    -0.025 A 
HETATM   46  C12 UNL     1       4.810   1.805  -1.882  1.00  0.00     0.014 A 
HETATM   47  C13 UNL     1       6.140   1.892  -2.229  1.00  0.00     0.030 A 
HETATM   48  C14 UNL     1       7.174   1.717  -1.326  1.00  0.00     0.038 A 
HETATM   49  C18 UNL     1       6.790   1.444  -0.021  1.00  0.00     0.030 A 
HETATM   50  C19 UNL     1       5.464   1.356   0.335  1.00  0.00     0.014 A 
BRANCH  48  51
HETATM   51  N4  UNL     1       8.536   1.815  -1.707  1.00  0.00    -0.298 N 
HETATM   52  C15 UNL     1       9.437   0.704  -1.938  1.00  0.00     0.153 C 
HETATM   53  C16 UNL     1      10.808   1.288  -1.573  1.00  0.00     0.144 C 
HETATM   54  N5  UNL     1      10.681   2.637  -2.069  1.00  0.00    -0.341 N 
HETATM   55  C17 UNL     1       9.310   2.983  -1.943  1.00  0.00     0.323 C 
ATOM     56  H5  UNL     1      11.428   3.225  -2.437  1.00  0.00     0.164 HD
HETATM   57  O1  UNL     1       8.799   4.148  -2.022  1.00  0.00    -0.247 OA
ENDBRANCH  48  51
ENDBRANCH   4  45
TORSDOF 16
