REMARK  16 active torsions:
REMARK  status: ('A' for Active; 'I' for Inactive)
REMARK    1  A    between atoms: C2_2  and  C4_4 
REMARK    2  A    between atoms: C4_4  and  C5_5 
REMARK    3  A    between atoms: C5_5  and  C6_6 
REMARK    4  A    between atoms: C6_6  and  C7_7 
REMARK    5  A    between atoms: C8_10  and  O1_11 
REMARK    6  A    between atoms: C9_13  and  C10_14 
REMARK    7  A    between atoms: C10_14  and  C11_15 
REMARK    8  A    between atoms: C16_23  and  C17_24 
REMARK    9  A    between atoms: C17_24  and  C18_25 
REMARK   10  A    between atoms: C22_32  and  C23_33 
REMARK   11  A    between atoms: C23_33  and  C24_34 
REMARK   12  A    between atoms: C28_41  and  C29_42 
REMARK   13  A    between atoms: N6_50  and  C34_51 
REMARK   14  A    between atoms: C34_51  and  C35_52 
REMARK   15  A    between atoms: C35_52  and  N7_53 
REMARK   16  A    between atoms: C36_57  and  O6_58 
ROOT
HETATM    1  C7  UNL     1      -2.977   0.163  -0.592  1.00  0.00     0.180 C 
HETATM    2  N1  UNL     1      -2.033   0.019  -1.740  1.00  0.00    -0.357 N 
ATOM      3  H1  UNL     1      -1.802  -0.943  -1.989  1.00  0.00     0.162 HD
HETATM    4  C8  UNL     1      -1.426   0.982  -2.514  1.00  0.00     0.135 C 
HETATM    5  C9  UNL     1      -0.496   2.080  -2.258  1.00  0.00     0.159 C 
HETATM    6  N2  UNL     1       0.845   1.551  -2.031  1.00  0.00    -0.349 N 
ATOM      7  H2  UNL     1       1.061   0.667  -2.491  1.00  0.00     0.163 HD
HETATM    8  C14 UNL     1       1.868   2.108  -1.261  1.00  0.00     0.220 C 
HETATM    9  O2  UNL     1       2.959   2.344  -1.899  1.00  0.00    -0.274 OA
HETATM   10  C15 UNL     1       1.858   2.454   0.168  1.00  0.00     0.128 C 
HETATM   11  C16 UNL     1       3.185   2.446   0.856  1.00  0.00     0.093 C 
HETATM   12  N3  UNL     1       4.319   1.997   0.130  1.00  0.00    -0.354 N 
ATOM     13  H3  UNL     1       4.752   2.699  -0.470  1.00  0.00     0.162 HD
HETATM   14  C21 UNL     1       4.940   0.733   0.109  1.00  0.00     0.240 C 
HETATM   15  O3  UNL     1       6.207   0.624   0.350  1.00  0.00    -0.271 OA
HETATM   16  C22 UNL     1       4.304  -0.581  -0.169  1.00  0.00     0.177 C 
HETATM   17  N4  UNL     1       4.564  -1.511   0.917  1.00  0.00    -0.346 N 
ATOM     18  H4  UNL     1       5.524  -1.585   1.255  1.00  0.00     0.163 HD
HETATM   19  C27 UNL     1       3.586  -2.321   1.541  1.00  0.00     0.241 C 
HETATM   20  O4  UNL     1       3.674  -2.663   2.746  1.00  0.00    -0.271 OA
HETATM   21  C28 UNL     1       2.373  -2.831   0.810  1.00  0.00     0.180 C 
HETATM   22  N5  UNL     1       1.210  -2.562   1.623  1.00  0.00    -0.346 N 
ATOM     23  H5  UNL     1       1.384  -2.062   2.495  1.00  0.00     0.163 HD
HETATM   24  C32 UNL     1      -0.121  -2.898   1.370  1.00  0.00     0.236 C 
HETATM   25  O5  UNL     1      -0.764  -3.519   2.271  1.00  0.00    -0.272 OA
HETATM   26  C33 UNL     1      -0.893  -2.595   0.118  1.00  0.00     0.227 C 
HETATM   27  N6  UNL     1      -2.263  -2.148   0.412  1.00  0.00    -0.353 N 
HETATM   28  C36 UNL     1      -2.687  -0.802   0.459  1.00  0.00     0.141 C 
ENDROOT
BRANCH   1  29
HETATM   29  C6  UNL     1      -4.334   0.357  -1.073  1.00  0.00     0.002 C 
BRANCH  29  30
HETATM   30  C5  UNL     1      -5.491   0.515  -0.193  1.00  0.00    -0.028 C 
BRANCH  30  31
HETATM   31  C4  UNL     1      -6.008  -0.582   0.638  1.00  0.00     0.030 C 
BRANCH  31  32
HETATM   32  C2  UNL     1      -7.229  -0.025   1.393  1.00  0.00    -0.019 C 
HETATM   33  C1  UNL     1      -7.825  -1.102   2.277  1.00  0.00     0.010 C 
HETATM   34  C3  UNL     1      -8.237   0.452   0.374  1.00  0.00     0.010 C 
ENDBRANCH  31  32
ENDBRANCH  30  31
ENDBRANCH  29  30
ENDBRANCH   1  29
BRANCH  28  35
HETATM   35  O6  UNL     1      -2.846  -0.331   1.671  1.00  0.00    -0.348 OA
ATOM     36  H6  UNL     1      -2.657  -0.961   2.357  1.00  0.00     0.219 HD
ENDBRANCH  28  35
BRANCH   4  37
HETATM   37  O1  UNL     1      -1.752   0.902  -3.782  1.00  0.00    -0.348 OA
ATOM     38  H1  UNL     1      -1.333   1.567  -4.316  1.00  0.00     0.219 HD
ENDBRANCH   4  37
BRANCH  27  39
HETATM   39  C34 UNL     1      -3.206  -3.213   0.707  1.00  0.00     0.152 C 
BRANCH  39  40
HETATM   40  C35 UNL     1      -3.970  -3.706  -0.503  1.00  0.00     0.249 C 
BRANCH  40  41
HETATM   41  N7  UNL     1      -3.172  -4.240  -1.550  1.00  0.00    -0.078 N 
ATOM     42  H73 UNL     1      -2.467  -3.560  -1.834  1.00  0.00     0.274 HD
ATOM     43  H72 UNL     1      -2.572  -4.981  -1.189  1.00  0.00     0.274 HD
ATOM     44  H71 UNL     1      -3.687  -4.572  -2.365  1.00  0.00     0.274 HD
ENDBRANCH  40  41
ENDBRANCH  39  40
ENDBRANCH  27  39
BRANCH   5  45
HETATM   45  C10 UNL     1      -0.869   3.113  -1.258  1.00  0.00     0.037 C 
BRANCH  45  46
HETATM   46  C11 UNL     1      -2.153   3.857  -1.620  1.00  0.00    -0.020 C 
HETATM   47  C12 UNL     1      -2.369   4.862  -0.485  1.00  0.00     0.009 C 
HETATM   48  C13 UNL     1      -1.947   4.569  -2.937  1.00  0.00     0.009 C 
ENDBRANCH  45  46
ENDBRANCH   5  45
BRANCH  21  49
HETATM   49  C29 UNL     1       2.653  -4.314   0.641  1.00  0.00     0.009 C 
HETATM   50  C30 UNL     1       2.811  -5.026   1.953  1.00  0.00     0.012 C 
HETATM   51  C31 UNL     1       1.750  -5.036  -0.277  1.00  0.00     0.012 C 
ENDBRANCH  21  49
BRANCH  11  52
HETATM   52  C17 UNL     1       3.447   3.852   1.417  1.00  0.00     0.029 C 
BRANCH  52  53
HETATM   53  C18 UNL     1       2.465   4.322   2.415  1.00  0.00    -0.021 C 
HETATM   54  C19 UNL     1       2.926   5.739   2.823  1.00  0.00     0.009 C 
HETATM   55  C20 UNL     1       2.484   3.519   3.702  1.00  0.00     0.009 C 
ENDBRANCH  52  53
ENDBRANCH  11  52
BRANCH  16  56
HETATM   56  C23 UNL     1       4.662  -1.112  -1.525  1.00  0.00     0.038 C 
BRANCH  56  57
HETATM   57  C24 UNL     1       6.095  -1.347  -1.808  1.00  0.00    -0.020 C 
HETATM   58  C25 UNL     1       6.150  -1.878  -3.255  1.00  0.00     0.009 C 
HETATM   59  C26 UNL     1       6.763  -2.377  -0.962  1.00  0.00     0.009 C 
ENDBRANCH  56  57
ENDBRANCH  16  56
TORSDOF 16
