REMARK  13 active torsions:
REMARK  status: ('A' for Active; 'I' for Inactive)
REMARK    1  A    between atoms: C2_2  and  C3_3 
REMARK    2  A    between atoms: C5_8  and  C6_9 
REMARK    3  A    between atoms: C6_9  and  C7_10 
REMARK    4  A    between atoms: C11_17  and  C12_18 
REMARK    5  A    between atoms: C12_18  and  C13_19 
REMARK    6  A    between atoms: C17_26  and  C18_27 
REMARK    7  A    between atoms: C18_27  and  C19_28 
REMARK    8  A    between atoms: C23_35  and  C24_36 
REMARK    9  A    between atoms: C24_36  and  C25_37 
REMARK   10  A    between atoms: C29_44  and  C30_45 
REMARK   11  A    between atoms: C30_45  and  C31_46 
REMARK   12  A    between atoms: C31_46  and  C32_47 
REMARK   13  A    between atoms: C32_47  and  C34_49 
ROOT
HETATM    1  C3  UNL     1       1.416  -2.672   0.168  1.00  0.00     0.176 C 
HETATM    2  N1  UNL     1       0.709  -3.374   1.230  1.00  0.00    -0.346 N 
ATOM      3  H1  UNL     1       1.255  -4.082   1.721  1.00  0.00     0.163 HD
HETATM    4  C4  UNL     1      -0.603  -3.221   1.674  1.00  0.00     0.241 C 
HETATM    5  O1  UNL     1      -0.781  -2.826   2.861  1.00  0.00    -0.271 OA
HETATM    6  C5  UNL     1      -1.871  -3.469   0.915  1.00  0.00     0.177 C 
HETATM    7  N2  UNL     1      -1.958  -2.690  -0.274  1.00  0.00    -0.346 N 
ATOM      8  H2  UNL     1      -1.468  -3.100  -1.069  1.00  0.00     0.163 HD
HETATM    9  C10 UNL     1      -2.579  -1.482  -0.563  1.00  0.00     0.241 C 
HETATM   10  O2  UNL     1      -3.097  -1.384  -1.742  1.00  0.00    -0.271 OA
HETATM   11  C11 UNL     1      -2.744  -0.269   0.263  1.00  0.00     0.177 C 
HETATM   12  N3  UNL     1      -1.468   0.213   0.757  1.00  0.00    -0.346 N 
ATOM     13  H3  UNL     1      -0.661  -0.326   0.443  1.00  0.00     0.163 HD
HETATM   14  C16 UNL     1      -1.162   1.279   1.581  1.00  0.00     0.241 C 
HETATM   15  O3  UNL     1      -0.484   0.977   2.646  1.00  0.00    -0.271 OA
HETATM   16  C17 UNL     1      -1.457   2.711   1.483  1.00  0.00     0.177 C 
HETATM   17  N4  UNL     1      -0.276   3.529   1.282  1.00  0.00    -0.346 N 
ATOM     18  H4  UNL     1      -0.392   4.507   1.548  1.00  0.00     0.163 HD
HETATM   19  C22 UNL     1       0.971   3.220   0.797  1.00  0.00     0.241 C 
HETATM   20  O4  UNL     1       1.977   3.449   1.573  1.00  0.00    -0.271 OA
HETATM   21  C23 UNL     1       1.359   2.646  -0.525  1.00  0.00     0.177 C 
HETATM   22  N5  UNL     1       2.769   2.389  -0.646  1.00  0.00    -0.346 N 
ATOM     23  H5  UNL     1       3.380   3.076  -0.204  1.00  0.00     0.163 HD
HETATM   24  C28 UNL     1       3.416   1.335  -1.281  1.00  0.00     0.241 C 
HETATM   25  O5  UNL     1       4.254   1.631  -2.218  1.00  0.00    -0.271 OA
HETATM   26  C29 UNL     1       3.288  -0.121  -1.039  1.00  0.00     0.176 C 
HETATM   27  N7  UNL     1       2.684  -0.410   0.235  1.00  0.00    -0.346 N 
ATOM     28  H7  UNL     1       2.501   0.403   0.823  1.00  0.00     0.163 HD
HETATM   29  C35 UNL     1       2.315  -1.625   0.781  1.00  0.00     0.241 C 
HETATM   30  O7  UNL     1       2.754  -1.957   1.943  1.00  0.00    -0.271 OA
ENDROOT
BRANCH  26  31
HETATM   31  C30 UNL     1       4.741  -0.640  -1.028  1.00  0.00     0.035 C 
BRANCH  31  32
HETATM   32  C31 UNL     1       5.438   0.091   0.092  1.00  0.00     0.015 C 
BRANCH  32  33
HETATM   33  C32 UNL     1       6.889  -0.325   0.216  1.00  0.00     0.071 C 
HETATM   34  C33 UNL     1       7.056  -1.792   0.495  1.00  0.00     0.019 C 
BRANCH  33  35
HETATM   35  C34 UNL     1       7.510   0.469   1.308  1.00  0.00     0.234 C 
HETATM   36  N6  UNL     1       7.011   0.393   2.617  1.00  0.00    -0.062 NA
HETATM   37  O6  UNL     1       8.503   1.233   1.092  1.00  0.00    -0.277 OA
ENDBRANCH  33  35
ENDBRANCH  32  33
ENDBRANCH  31  32
ENDBRANCH  26  31
BRANCH  21  38
HETATM   38  C24 UNL     1       0.774   3.384  -1.675  1.00  0.00     0.038 C 
BRANCH  38  39
HETATM   39  C25 UNL     1       1.091   4.833  -1.794  1.00  0.00    -0.020 C 
HETATM   40  C26 UNL     1       0.382   5.426  -3.032  1.00  0.00     0.009 C 
HETATM   41  C27 UNL     1       2.560   5.029  -2.061  1.00  0.00     0.009 C 
ENDBRANCH  38  39
ENDBRANCH  21  38
BRANCH   1  42
HETATM   42  C2  UNL     1       2.358  -3.649  -0.543  1.00  0.00     0.030 C 
HETATM   43  C1  UNL     1       1.635  -4.812  -1.161  1.00  0.00     0.007 C 
ENDBRANCH   1  42
BRANCH  16  44
HETATM   44  C18 UNL     1      -2.508   3.122   0.523  1.00  0.00     0.038 C 
BRANCH  44  45
HETATM   45  C19 UNL     1      -2.658   4.650   0.569  1.00  0.00    -0.020 C 
HETATM   46  C20 UNL     1      -3.766   4.952  -0.455  1.00  0.00     0.009 C 
HETATM   47  C21 UNL     1      -3.153   5.138   1.889  1.00  0.00     0.009 C 
ENDBRANCH  44  45
ENDBRANCH  16  44
BRANCH   6  48
HETATM   48  C6  UNL     1      -2.050  -4.935   0.660  1.00  0.00     0.038 C 
BRANCH  48  49
HETATM   49  C7  UNL     1      -3.267  -5.396  -0.044  1.00  0.00    -0.020 C 
HETATM   50  C8  UNL     1      -3.528  -4.937  -1.425  1.00  0.00     0.009 C 
HETATM   51  C9  UNL     1      -3.418  -6.921   0.044  1.00  0.00     0.009 C 
ENDBRANCH  48  49
ENDBRANCH   6  48
BRANCH  11  52
HETATM   52  C12 UNL     1      -3.823  -0.296   1.285  1.00  0.00     0.038 C 
BRANCH  52  53
HETATM   53  C13 UNL     1      -5.215  -0.490   0.793  1.00  0.00    -0.020 C 
HETATM   54  C14 UNL     1      -5.675   0.570  -0.177  1.00  0.00     0.009 C 
HETATM   55  C15 UNL     1      -5.568  -1.830   0.266  1.00  0.00     0.009 C 
ENDBRANCH  52  53
ENDBRANCH  11  52
TORSDOF 13
