REMARK  13 active torsions:
REMARK  status: ('A' for Active; 'I' for Inactive)
REMARK    1  A    between atoms: O1_2  and  C2_3 
REMARK    2  A    between atoms: C5_6  and  O2_7 
REMARK    3  A    between atoms: C10_14  and  O3_15 
REMARK    4  A    between atoms: N1_17  and  C11_18 
REMARK    5  A    between atoms: C11_18  and  C12_19 
REMARK    6  A    between atoms: C12_19  and  N2_20 
REMARK    7  A    between atoms: N2_20  and  C13_21 
REMARK    8  A    between atoms: N2_20  and  C15_24 
REMARK    9  A    between atoms: C13_21  and  C14_22 
REMARK   10  A    between atoms: C15_24  and  C16_25 
REMARK   11  A    between atoms: C16_25  and  C17_26 
REMARK   12  A    between atoms: C18_28  and  O4_29 
REMARK   13  A    between atoms: C21_33  and  O5_34 
ROOT
HETATM    1  C2  UNL     1      -4.305   0.498  -0.956  1.00  0.00     0.129 C 
HETATM    2  C3  UNL     1      -4.933  -0.418   0.100  1.00  0.00     0.048 C 
HETATM    3  C4  UNL     1      -3.637  -0.949   0.744  1.00  0.00     0.027 C 
HETATM    4  C5  UNL     1      -3.882  -1.842   1.808  1.00  0.00     0.170 C 
HETATM    5  C6  UNL     1      -2.874  -2.140   2.814  1.00  0.00     0.019 C 
HETATM    6 BR1  UNL     1      -3.458  -3.458   4.098  1.00  0.00    -0.053 Br
HETATM    7  C7  UNL     1      -1.652  -1.695   3.024  1.00  0.00     0.034 C 
HETATM    8  C8  UNL     1      -0.918  -0.711   2.254  1.00  0.00     0.027 A 
HETATM    9  C9  UNL     1      -1.446   0.140   1.282  1.00  0.00     0.013 A 
HETATM   10  C10 UNL     1      -0.402   0.903   0.814  1.00  0.00     0.152 A 
HETATM   11  N1  UNL     1       0.739   0.552   1.459  1.00  0.00    -0.306 N 
HETATM   12  C18 UNL     1       0.430  -0.426   2.333  1.00  0.00     0.155 A 
HETATM   13  C19 UNL     1      -2.812   0.265   0.798  1.00  0.00     0.047 C 
HETATM   14  C20 UNL     1      -2.859   0.179  -0.716  1.00  0.00     0.054 C 
HETATM   15  C21 UNL     1      -2.876  -1.343  -0.496  1.00  0.00     0.137 C 
ENDROOT
BRANCH  11  16
HETATM   16  C11 UNL     1       2.061   1.151   1.216  1.00  0.00     0.153 C 
BRANCH  16  17
HETATM   17  C12 UNL     1       2.749   0.336   0.122  1.00  0.00     0.142 C 
BRANCH  17  18
HETATM   18  N2  UNL     1       4.018   0.932  -0.110  1.00  0.00    -0.391 N 
BRANCH  18  19
HETATM   19  C13 UNL     1       4.956   0.816   0.946  1.00  0.00     0.137 C 
BRANCH  19  20
HETATM   20  C14 UNL     1       6.260   1.473   0.574  1.00  0.00     0.134 C 
HETATM   21 CL1  UNL     1       7.440   1.331   1.908  1.00  0.00    -0.129 Cl
ENDBRANCH  19  20
ENDBRANCH  18  19
BRANCH  18  22
HETATM   22  C15 UNL     1       4.444   1.256  -1.382  1.00  0.00     0.060 C 
BRANCH  22  23
HETATM   23  C16 UNL     1       4.877   0.316  -2.410  1.00  0.00     0.075 C 
BRANCH  23  24
HETATM   24  C17 UNL     1       3.980  -0.742  -2.904  1.00  0.00     0.227 C 
HETATM   25  F1  UNL     1       3.610  -1.694  -1.992  1.00  0.00    -0.255 F 
ENDBRANCH  23  24
ENDBRANCH  22  23
ENDBRANCH  18  22
ENDBRANCH  17  18
ENDBRANCH  16  17
ENDBRANCH  11  16
BRANCH  10  26
HETATM   26  O3  UNL     1      -0.427   1.886  -0.153  1.00  0.00    -0.345 OA
ATOM     27  H3  UNL     1       0.294   2.413  -0.476  1.00  0.00     0.219 HD
ENDBRANCH  10  26
BRANCH  12  28
HETATM   28  O4  UNL     1       1.319  -1.075   3.204  1.00  0.00    -0.345 OA
ATOM     29  H4  UNL     1       2.247  -0.879   3.258  1.00  0.00     0.219 HD
ENDBRANCH  12  28
BRANCH   4  30
HETATM   30  O2  UNL     1      -4.260  -3.106   1.276  1.00  0.00    -0.389 OA
ATOM     31  H2  UNL     1      -4.425  -3.707   1.993  1.00  0.00     0.210 HD
ENDBRANCH   4  30
BRANCH  15  32
HETATM   32  O5  UNL     1      -3.587  -1.969  -1.490  1.00  0.00    -0.394 OA
ATOM     33  H5  UNL     1      -3.107  -2.217  -2.272  1.00  0.00     0.210 HD
ENDBRANCH  15  32
BRANCH   1  34
HETATM   34  O1  UNL     1      -4.747   0.242  -2.225  1.00  0.00    -0.390 OA
HETATM   35  C1  UNL     1      -5.258   1.461  -2.728  1.00  0.00     0.202 C 
ENDBRANCH   1  34
TORSDOF 13
