REMARK  8 active torsions:
REMARK  status: ('A' for Active; 'I' for Inactive)
REMARK    1  A    between atoms: C1_2  and  C2_3 
REMARK       I    between atoms: C1_2  and  N1_9 
REMARK    2  A    between atoms: C2_3  and  C3_4 
REMARK    3  A    between atoms: C2_3  and  C4_6 
REMARK    4  A    between atoms: N1_9  and  C5_11 
REMARK    5  A    between atoms: C5_11  and  C6_12 
REMARK    6  A    between atoms: C6_12  and  N2_13 
REMARK    7  A    between atoms: C10_17  and  O2_18 
REMARK    8  A    between atoms: C11_20  and  O3_21 
ROOT
HETATM    1  C5  UNL     1       0.071  -0.893   0.411  1.00  0.00     0.168 C 
ENDROOT
BRANCH   1   2
HETATM    2  N1  UNL     1       1.409  -0.942  -0.119  1.00  0.00    -0.282 N 
HETATM    3  C1  UNL     1       2.436  -0.087   0.335  1.00  0.00     0.236 C 
HETATM    4  O1  UNL     1       2.234   0.801   1.226  1.00  0.00    -0.272 OA
HETATM    5 BR3  UNL     1       1.782  -2.202  -1.470  1.00  0.00     0.052 Br
BRANCH   3   6
HETATM    6  C2  UNL     1       3.831  -0.175  -0.204  1.00  0.00     0.113 C 
BRANCH   6   7
HETATM    7  C3  UNL     1       4.588   1.088   0.126  1.00  0.00     0.102 C 
HETATM    8  S1  UNL     1       6.249   0.997  -0.547  1.00  0.00    -0.097 SA
ENDBRANCH   6   7
BRANCH   6   9
HETATM    9  C4  UNL     1       4.527  -1.380   0.404  1.00  0.00     0.143 C 
HETATM   10 BR1  UNL     1       4.621  -1.162   2.342  1.00  0.00    -0.078 Br
HETATM   11 BR2  UNL     1       6.279  -1.717  -0.280  1.00  0.00    -0.078 Br
ENDBRANCH   6   9
ENDBRANCH   3   6
ENDBRANCH   1   2
BRANCH   1  12
HETATM   12  C6  UNL     1      -0.834   0.046  -0.321  1.00  0.00     0.262 C 
BRANCH  12  13
HETATM   13  N2  UNL     1      -2.136   0.010   0.295  1.00  0.00    -0.029 N 
HETATM   14  C7  UNL     1      -2.388  -0.802   1.446  1.00  0.00     0.274 A 
HETATM   15  C8  UNL     1      -3.004  -1.109   0.101  1.00  0.00     0.222 A 
HETATM   16  C9  UNL     1      -4.391  -0.592  -0.155  1.00  0.00     0.071 C 
HETATM   17  C10 UNL     1      -4.361   0.787   0.474  1.00  0.00     0.176 C 
HETATM   18  C11 UNL     1      -2.941   1.214   0.223  1.00  0.00     0.353 C 
BRANCH  17  19
HETATM   19  O2  UNL     1      -5.259   1.655  -0.165  1.00  0.00    -0.391 OA
ATOM     20  H2  UNL     1      -5.240   2.519   0.229  1.00  0.00     0.210 HD
ENDBRANCH  17  19
BRANCH  18  21
HETATM   21  O3  UNL     1      -2.889   1.754  -1.071  1.00  0.00    -0.367 OA
ATOM     22  H3  UNL     1      -3.416   2.543  -1.118  1.00  0.00     0.212 HD
ENDBRANCH  18  21
ENDBRANCH  12  13
ENDBRANCH   1  12
TORSDOF 8
