REMARK  0 active torsions:
REMARK  status: ('A' for Active; 'I' for Inactive)
ROOT
HETATM    1  N1  UNL     1       2.590  -0.379  -0.048  1.00  0.00    -0.379 N 
ATOM      2  H11 UNL     1       3.328   0.324  -0.009  1.00  0.00     0.158 HD
ATOM      3  H12 UNL     1       2.792  -1.353  -0.275  1.00  0.00     0.158 HD
HETATM    4  C1  UNL     1       1.385  -0.003   0.199  1.00  0.00     0.145 C 
HETATM    5  N2  UNL     1       0.354  -0.986   0.144  1.00  0.00    -0.352 N 
ATOM      6  H2  UNL     1       0.564  -1.962  -0.065  1.00  0.00     0.163 HD
HETATM    7  C2  UNL     1      -1.004  -0.546   0.396  1.00  0.00     0.191 C 
HETATM    8 CL1  UNL     1      -0.954   0.405   1.915  1.00  0.00    -0.102 Cl
HETATM    9  C3  UNL     1      -1.424   0.360  -0.769  1.00  0.00     0.127 C 
HETATM   10  S1  UNL     1      -0.932   2.052  -0.240  1.00  0.00    -0.086 SA
HETATM   11  S2  UNL     1       1.028   1.719   0.601  1.00  0.00    -0.022 SA
ENDROOT
TORSDOF 0
