REMARK  10 active torsions:
REMARK  status: ('A' for Active; 'I' for Inactive)
REMARK    1  A    between atoms: C2_4  and  C3_5 
REMARK    2  A    between atoms: C3_5  and  O3_6 
REMARK    3  A    between atoms: C3_5  and  C4_8 
REMARK    4  A    between atoms: C4_8  and  O4_9 
REMARK    5  A    between atoms: C4_8  and  C5_11 
REMARK    6  A    between atoms: C5_11  and  O5_12 
REMARK    7  A    between atoms: C6_14  and  O6_15 
REMARK    8  A    between atoms: O6_15  and  C7_16 
REMARK    9  A    between atoms: C7_16  and  C8_17 
REMARK   10  A    between atoms: N1_19  and  C9_20 
ROOT
HETATM    1  O1  UNL     1      -0.213   0.808   3.043  1.00  0.00    -0.238 OA
HETATM    2  C1  UNL     1       0.476   0.531   2.035  1.00  0.00     0.365 C 
HETATM    3  O2  UNL     1       1.848   0.268   2.065  1.00  0.00    -0.291 OA
HETATM    4  C2  UNL     1       2.365   0.674   0.842  1.00  0.00     0.213 C 
HETATM    5  C6  UNL     1       1.163   0.828  -0.106  1.00  0.00     0.260 C 
HETATM    6  N1  UNL     1       0.021   0.424   0.667  1.00  0.00    -0.293 N 
ENDROOT
BRANCH   6   7
HETATM    7  C9  UNL     1      -1.293  -0.009   0.327  1.00  0.00     0.099 C 
HETATM    8  C10 UNL     1      -1.126  -1.348  -0.416  1.00  0.00     0.026 C 
HETATM    9  C11 UNL     1      -2.006  -2.417   0.198  1.00  0.00     0.002 C 
HETATM   10  C12 UNL     1      -3.332  -2.319  -0.530  1.00  0.00     0.000 C 
HETATM   11  C13 UNL     1      -3.859  -0.927  -0.228  1.00  0.00     0.005 C 
HETATM   12  C14 UNL     1      -3.288   0.119  -1.103  1.00  0.00    -0.003 C 
HETATM   13  C15 UNL     1      -4.086   1.400  -0.981  1.00  0.00     0.047 C 
HETATM   14  C17 UNL     1      -2.092   0.864  -0.553  1.00  0.00     0.051 C 
HETATM   15  C16 UNL     1      -3.011   1.868   0.012  1.00  0.00     0.119 C 
HETATM   16 CL1  UNL     1      -3.481   1.760   1.693  1.00  0.00    -0.101 Cl
HETATM   17 CL2  UNL     1      -2.636   3.575  -0.416  1.00  0.00    -0.101 Cl
ENDBRANCH   6   7
BRANCH   5  18
HETATM   18  O6  UNL     1       1.120   2.183  -0.412  1.00  0.00    -0.361 OA
BRANCH  18  19
HETATM   19  C7  UNL     1       1.363   2.458  -1.737  1.00  0.00     0.202 C 
BRANCH  19  20
HETATM   20  C8  UNL     1       1.314   3.921  -2.060  1.00  0.00     0.248 C 
HETATM   21  F1  UNL     1       1.561   4.171  -3.394  1.00  0.00    -0.253 F 
ENDBRANCH  19  20
ENDBRANCH  18  19
ENDBRANCH   5  18
BRANCH   4  22
HETATM   22  C3  UNL     1       3.441  -0.167   0.257  1.00  0.00     0.182 C 
BRANCH  22  23
HETATM   23  O3  UNL     1       4.536  -0.211   1.130  1.00  0.00    -0.390 OA
ATOM     24  H3  UNL     1       5.224  -0.749   0.756  1.00  0.00     0.210 HD
ENDBRANCH  22  23
BRANCH  22  25
HETATM   25  C4  UNL     1       3.084  -1.570  -0.093  1.00  0.00     0.173 C 
BRANCH  25  26
HETATM   26  O4  UNL     1       4.240  -2.101  -0.732  1.00  0.00    -0.391 OA
ATOM     27  H4  UNL     1       4.012  -2.996  -0.955  1.00  0.00     0.210 HD
ENDBRANCH  25  26
BRANCH  25  28
HETATM   28  C5  UNL     1       2.913  -2.464   1.136  1.00  0.00     0.198 C 
BRANCH  28  29
HETATM   29  O5  UNL     1       2.741  -3.803   0.723  1.00  0.00    -0.398 OA
ATOM     30  H5  UNL     1       2.635  -4.358   1.486  1.00  0.00     0.209 HD
ENDBRANCH  28  29
ENDBRANCH  25  28
ENDBRANCH  22  25
ENDBRANCH   4  22
TORSDOF 10
