REMARK  9 active torsions:
REMARK  status: ('A' for Active; 'I' for Inactive)
REMARK    1  A    between atoms: C3_3  and  C4_4 
REMARK    2  A    between atoms: C4_4  and  C7_7 
REMARK    3  A    between atoms: C7_7  and  C8_8 
REMARK    4  A    between atoms: C7_7  and  C13_14 
REMARK    5  A    between atoms: C8_8  and  C9_9 
REMARK    6  A    between atoms: C9_9  and  C10_10 
REMARK    7  A    between atoms: C10_10  and  C12_12 
REMARK    8  A    between atoms: C27_29  and  O3_30 
REMARK    9  A    between atoms: C30_33  and  O4_34 
ROOT
HETATM    1  C1  UNL     1       5.713   2.396  -1.870  1.00  0.00     0.112 C 
HETATM    2  C2  UNL     1       4.630   2.006  -0.959  1.00  0.00    -0.110 C 
HETATM    3  C3  UNL     1       3.733   1.705  -0.212  1.00  0.00    -0.093 C 
ENDROOT
BRANCH   3   4
HETATM    4  C4  UNL     1       2.642   1.388   0.653  1.00  0.00     0.040 C 
HETATM    5  C5  UNL     1       1.653   2.557   0.745  1.00  0.00     0.034 C 
HETATM    6  C6  UNL     1       3.275   1.440   2.089  1.00  0.00     0.034 C 
BRANCH   4   7
HETATM    7  C7  UNL     1       2.037   0.058   0.612  1.00  0.00    -0.055 C 
BRANCH   7   8
HETATM    8  C8  UNL     1       2.898  -1.117   0.987  1.00  0.00     0.037 C 
BRANCH   8   9
HETATM    9  C9  UNL     1       4.115  -1.410   0.224  1.00  0.00     0.015 C 
BRANCH   9  10
HETATM   10  C10 UNL     1       4.788  -2.715   0.764  1.00  0.00     0.043 C 
HETATM   11  C11 UNL     1       6.038  -2.985  -0.046  1.00  0.00     0.017 C 
BRANCH  10  12
HETATM   12  C12 UNL     1       5.207  -2.433   2.165  1.00  0.00     0.235 C 
HETATM   13  O1  UNL     1       6.253  -1.808   2.306  1.00  0.00    -0.306 OA
ENDBRANCH  10  12
ENDBRANCH   9  10
ENDBRANCH   8   9
ENDBRANCH   7   8
BRANCH   7  14
HETATM   14  C13 UNL     1       1.087  -0.336  -0.436  1.00  0.00    -0.042 C 
HETATM   15  C14 UNL     1       1.472  -0.283  -1.863  1.00  0.00     0.038 C 
HETATM   16  C15 UNL     1       0.192  -0.723  -2.570  1.00  0.00     0.013 C 
HETATM   17  C16 UNL     1      -0.854  -0.908  -1.496  1.00  0.00     0.029 C 
HETATM   18  C17 UNL     1      -2.199  -0.453  -1.917  1.00  0.00    -0.002 A 
HETATM   19  C30 UNL     1      -0.335   0.114  -0.430  1.00  0.00     0.088 C 
HETATM   20  C18 UNL     1      -3.107  -1.290  -2.736  1.00  0.00     0.011 A 
HETATM   21  C19 UNL     1      -3.223  -1.266  -1.284  1.00  0.00    -0.001 A 
HETATM   22  C20 UNL     1      -4.194  -0.405  -0.527  1.00  0.00    -0.033 C 
HETATM   23  C21 UNL     1      -4.733   0.756  -1.285  1.00  0.00     0.016 C 
HETATM   24  C22 UNL     1      -5.374  -1.357  -0.265  1.00  0.00     0.017 C 
HETATM   25  C26 UNL     1      -3.637  -0.036   0.822  1.00  0.00     0.030 C 
HETATM   26  C23 UNL     1      -6.442  -0.782   0.587  1.00  0.00     0.079 C 
HETATM   27  C24 UNL     1      -5.957   0.059   1.684  1.00  0.00     0.127 C 
HETATM   28  O2  UNL     1      -6.546   0.149   2.715  1.00  0.00    -0.298 OA
HETATM   29  C25 UNL     1      -4.692   0.816   1.490  1.00  0.00     0.086 C 
HETATM   30  C27 UNL     1      -2.362   0.726   0.826  1.00  0.00     0.129 C 
HETATM   31  C29 UNL     1      -1.133  -0.169   0.788  1.00  0.00     0.075 C 
BRANCH  30  32
HETATM   32  O3  UNL     1      -2.323   1.437   2.052  1.00  0.00    -0.390 OA
HETATM   33  C28 UNL     1      -2.305   2.809   1.877  1.00  0.00     0.202 C 
ENDBRANCH  30  32
BRANCH  19  34
HETATM   34  O4  UNL     1      -0.589   1.338  -1.008  1.00  0.00    -0.385 OA
ATOM     35  H4  UNL     1      -1.495   1.625  -1.004  1.00  0.00     0.211 HD
ENDBRANCH  19  34
ENDBRANCH   7  14
ENDBRANCH   4   7
ENDBRANCH   3   4
TORSDOF 9
