REMARK  13 active torsions:
REMARK  status: ('A' for Active; 'I' for Inactive)
REMARK    1  A    between atoms: C2_2  and  N1_4 
REMARK    2  A    between atoms: C2_2  and  C28_50 
REMARK       I    between atoms: N1_4  and  C4_5 
REMARK    3  A    between atoms: N1_4  and  C5_14 
REMARK       I    between atoms: C4_5  and  N2_7 
REMARK    4  A    between atoms: N2_7  and  N3_9 
REMARK    5  A    between atoms: N3_9  and  N4_11 
REMARK    6  A    between atoms: C9_20  and  O2_21 
REMARK    7  A    between atoms: O2_21  and  C10_22 
REMARK    8  A    between atoms: C10_22  and  C11_23 
REMARK    9  A    between atoms: C11_23  and  C12_24 
REMARK   10  A    between atoms: C12_24  and  C13_25 
REMARK   11  A    between atoms: C13_25  and  C14_26 
REMARK   12  A    between atoms: C14_26  and  N6_27 
REMARK   13  A    between atoms: C23_40  and  N9_41 
ROOT
HETATM    1  C5  UNL     1       5.399  -0.237   1.023  1.00  0.00     0.068 A 
HETATM    2  C6  UNL     1       5.128  -0.353   2.392  1.00  0.00     0.119 A 
HETATM    3  N5  UNL     1       3.977   0.298   2.608  1.00  0.00    -0.363 N 
ATOM      4  H5  UNL     1       3.519   0.388   3.515  1.00  0.00     0.165 HD
HETATM    5  C7  UNL     1       3.513   0.814   1.462  1.00  0.00     0.047 A 
HETATM    6  C8  UNL     1       2.394   1.566   1.113  1.00  0.00     0.067 A 
HETATM    7  C9  UNL     1       2.149   1.984  -0.181  1.00  0.00     0.070 A 
HETATM    8  C25 UNL     1       3.045   1.647  -1.180  1.00  0.00     0.038 A 
HETATM    9  C26 UNL     1       4.166   0.900  -0.862  1.00  0.00     0.019 A 
HETATM   10  C27 UNL     1       4.398   0.490   0.431  1.00  0.00     0.019 A 
ENDROOT
BRANCH   7  11
HETATM   11  O2  UNL     1       1.037   2.732  -0.529  1.00  0.00    -0.351 OA
BRANCH  11  12
HETATM   12  C10 UNL     1       0.104   3.091   0.468  1.00  0.00     0.175 C 
BRANCH  12  13
HETATM   13  C11 UNL     1      -0.981   3.895  -0.207  1.00  0.00     0.027 C 
BRANCH  13  14
HETATM   14  C12 UNL     1      -1.643   3.083  -1.266  1.00  0.00     0.004 C 
BRANCH  14  15
HETATM   15  C13 UNL     1      -2.298   1.824  -0.772  1.00  0.00     0.020 C 
BRANCH  15  16
HETATM   16  C14 UNL     1      -3.357   2.233   0.239  1.00  0.00     0.130 C 
BRANCH  16  17
HETATM   17  N6  UNL     1      -3.990   1.025   0.713  1.00  0.00    -0.344 N 
HETATM   18  C15 UNL     1      -3.672   0.240   1.750  1.00  0.00     0.183 A 
HETATM   19  N7  UNL     1      -4.543  -0.805   1.837  1.00  0.00    -0.349 N 
HETATM   20  C16 UNL     1      -5.425  -0.677   0.839  1.00  0.00     0.084 A 
ATOM     21  H7  UNL     1      -4.526  -1.548   2.535  1.00  0.00     0.167 HD
HETATM   22  C17 UNL     1      -5.070   0.463   0.148  1.00  0.00     0.041 A 
HETATM   23  C24 UNL     1      -6.521  -1.619   0.606  1.00  0.00     0.085 A 
HETATM   24  C18 UNL     1      -5.811   0.971  -1.056  1.00  0.00     0.060 C 
HETATM   25  C19 UNL     1      -7.267   1.069  -0.690  1.00  0.00     0.011 C 
HETATM   26  C20 UNL     1      -8.039  -0.189  -0.965  1.00  0.00     0.043 C 
HETATM   27  C21 UNL     1      -7.621  -1.352  -0.183  1.00  0.00    -0.013 A 
HETATM   28  C22 UNL     1      -8.554  -2.359  -0.289  1.00  0.00     0.115 A 
HETATM   29  N8  UNL     1      -8.345  -3.514   0.364  1.00  0.00    -0.202 N 
HETATM   30  C23 UNL     1      -7.260  -3.756   1.132  1.00  0.00     0.676 A 
ATOM     31  H8  UNL     1      -9.045  -4.250   0.275  1.00  0.00     0.183 HD
HETATM   32  N10 UNL     1      -6.341  -2.781   1.244  1.00  0.00    -0.189 N 
ATOM     33  H10 UNL     1      -5.508  -2.927   1.814  1.00  0.00     0.184 HD
BRANCH  30  34
HETATM   34  N9  UNL     1      -7.139  -4.896   1.724  1.00  0.00    -0.234 N 
ATOM     35  H92 UNL     1      -7.836  -5.636   1.639  1.00  0.00     0.174 HD
ATOM     36  H91 UNL     1      -6.320  -5.079   2.304  1.00  0.00     0.174 HD
ENDBRANCH  30  34
ENDBRANCH  16  17
ENDBRANCH  15  16
ENDBRANCH  14  15
ENDBRANCH  13  14
ENDBRANCH  12  13
ENDBRANCH  11  12
ENDBRANCH   7  11
BRANCH   1  37
HETATM   37  N1  UNL     1       6.576  -0.808   0.400  1.00  0.00    -0.278 N 
HETATM   38  C4  UNL     1       7.752  -0.038   0.454  1.00  0.00     0.343 C 
HETATM   39  O1  UNL     1       7.717   1.062   1.114  1.00  0.00    -0.245 OA
HETATM   40  N2  UNL     1       8.990  -0.338  -0.149  1.00  0.00    -0.237 N 
ATOM     41  H2  UNL     1       9.385  -1.268  -0.013  1.00  0.00     0.193 HD
BRANCH  37  42
HETATM   42  C2  UNL     1       6.531  -2.107  -0.205  1.00  0.00     0.132 C 
HETATM   43  C1  UNL     1       5.059  -2.578  -0.270  1.00  0.00     0.048 C 
HETATM   44  C3  UNL     1       7.161  -2.137  -1.566  1.00  0.00     0.048 C 
BRANCH  42  45
HETATM   45  C28 UNL     1       7.199  -3.191   0.638  1.00  0.00     0.412 C 
HETATM   46  F1  UNL     1       8.522  -3.019   0.853  1.00  0.00    -0.168 F 
HETATM   47  F2  UNL     1       6.549  -3.360   1.855  1.00  0.00    -0.168 F 
HETATM   48  F3  UNL     1       6.954  -4.389  -0.053  1.00  0.00    -0.168 F 
ENDBRANCH  42  45
ENDBRANCH  37  42
BRANCH  40  49
HETATM   49  N3  UNL     1       9.625   0.485  -0.843  1.00  0.00    -0.245 N 
ATOM     50  H3  UNL     1       9.052   0.569  -1.683  1.00  0.00     0.208 HD
BRANCH  49  51
HETATM   51  N4  UNL     1      10.575   1.260  -1.072  1.00  0.00    -0.331 N 
ATOM     52  H42 UNL     1      11.119   1.148  -0.217  1.00  0.00     0.178 HD
ATOM     53  H41 UNL     1      11.093   1.932  -1.638  1.00  0.00     0.178 HD
ENDBRANCH  49  51
ENDBRANCH  40  49
ENDBRANCH   1  37
TORSDOF 13
