REMARK  6 active torsions:
REMARK  status: ('A' for Active; 'I' for Inactive)
REMARK    1  A    between atoms: N1_2  and  C2_3 
REMARK    2  A    between atoms: N1_2  and  S1_13 
REMARK    3  A    between atoms: C2_3  and  C3_4 
REMARK    4  A    between atoms: C2_3  and  C4_7 
REMARK       I    between atoms: C4_7  and  N3_9 
REMARK    5  A    between atoms: N3_9  and  N4_10 
REMARK    6  A    between atoms: S1_13  and  N5_16 
ROOT
HETATM    1  N5  UNL     1      -1.023   0.220   0.145  1.00  0.00    -0.271 N 
ATOM      2  H5  UNL     1      -1.638   0.686   0.811  1.00  0.00     0.180 HD
HETATM    3  C5  UNL     1       0.202   0.321   0.411  1.00  0.00     0.059 A 
HETATM    4  C6  UNL     1       0.530   1.043   1.559  1.00  0.00     0.118 A 
HETATM    5  N6  UNL     1       1.784   1.239   1.966  1.00  0.00    -0.360 N 
ATOM      6  H6  UNL     1       1.950   1.777   2.817  1.00  0.00     0.165 HD
HETATM    7  C7  UNL     1       2.824   0.755   1.298  1.00  0.00     0.086 A 
HETATM    8  C8  UNL     1       4.138   0.951   1.707  1.00  0.00     0.145 A 
HETATM    9  N7  UNL     1       4.396   1.703   2.889  1.00  0.00    -0.080 NA
HETATM   10  N8  UNL     1       5.160   0.427   0.975  1.00  0.00    -0.327 N 
ATOM     11  H8  UNL     1       6.121   0.574   1.282  1.00  0.00     0.168 HD
HETATM   12  C9  UNL     1       4.928  -0.278  -0.140  1.00  0.00     0.137 A 
HETATM   13  C10 UNL     1       3.625  -0.512  -0.607  1.00  0.00     0.090 A 
HETATM   14  N9  UNL     1       3.738  -1.231  -1.719  1.00  0.00    -0.348 N 
ATOM     15  H9  UNL     1       2.962  -1.560  -2.294  1.00  0.00     0.167 HD
HETATM   16  C11 UNL     1       5.063  -1.457  -1.967  1.00  0.00     0.184 A 
HETATM   17  N10 UNL     1       5.779  -0.869  -0.992  1.00  0.00    -0.332 N 
HETATM   18  C12 UNL     1       7.216  -0.884  -0.901  1.00  0.00     0.158 C 
HETATM   19  C13 UNL     1       2.548  -0.009   0.089  1.00  0.00     0.027 A 
HETATM   20  C14 UNL     1       1.241  -0.201  -0.313  1.00  0.00     0.048 A 
ENDROOT
BRANCH   1  21
HETATM   21  S1  UNL     1      -1.824  -0.550  -1.118  1.00  0.00     0.304 S 
HETATM   22  O3  UNL     1      -1.196  -0.195  -2.436  1.00  0.00    -0.188 OA
HETATM   23  O4  UNL     1      -1.726  -2.037  -0.959  1.00  0.00    -0.188 OA
BRANCH  21  24
HETATM   24  N1  UNL     1      -3.539  -0.098  -1.132  1.00  0.00    -0.174 NA
HETATM   25  C1  UNL     1      -3.588   1.038  -1.998  1.00  0.00     0.132 C 
BRANCH  24  26
HETATM   26  C2  UNL     1      -4.003   0.097   0.160  1.00  0.00     0.273 C 
BRANCH  26  27
HETATM   27  C3  UNL     1      -4.710   1.347   0.439  1.00  0.00     0.260 C 
HETATM   28  N2  UNL     1      -4.902   1.743   1.846  1.00  0.00    -0.060 NA
HETATM   29  O1  UNL     1      -5.195   2.161  -0.377  1.00  0.00    -0.274 OA
ENDBRANCH  26  27
BRANCH  26  30
HETATM   30  C4  UNL     1      -5.072  -0.974   0.526  1.00  0.00     0.339 C 
HETATM   31  O2  UNL     1      -5.231  -0.985   1.794  1.00  0.00    -0.253 OA
HETATM   32  N3  UNL     1      -5.687  -1.715  -0.363  1.00  0.00    -0.292 NA
BRANCH  32  33
HETATM   33  N4  UNL     1      -6.333  -2.492  -1.289  1.00  0.00    -0.277 N 
ATOM     34  H42 UNL     1      -5.966  -2.001  -0.474  1.00  0.00     0.191 HD
ATOM     35  H41 UNL     1      -6.812  -3.069  -1.981  1.00  0.00     0.191 HD
ENDBRANCH  32  33
ENDBRANCH  26  30
ENDBRANCH  24  26
ENDBRANCH  21  24
ENDBRANCH   1  21
TORSDOF 6
