REMARK  7 active torsions:
REMARK  status: ('A' for Active; 'I' for Inactive)
REMARK    1  A    between atoms: N1_2  and  C2_4 
REMARK    2  A    between atoms: C2_4  and  O1_5 
REMARK    3  A    between atoms: C2_4  and  C3_7 
REMARK    4  A    between atoms: C3_7  and  O2_8 
REMARK    5  A    between atoms: C3_7  and  N2_10 
REMARK    6  A    between atoms: N2_10  and  N3_12 
REMARK    7  A    between atoms: C10_28  and  C11_29 
ROOT
HETATM    1  N3  UNL     1       0.803   0.635  -0.468  1.00  0.00    -0.207 N 
HETATM    2  C4  UNL     1       0.925   1.771  -1.317  1.00  0.00     0.345 C 
HETATM    3  O3  UNL     1       1.458   2.890  -1.127  1.00  0.00    -0.245 OA
HETATM    4  N4  UNL     1       0.272   1.385  -2.548  1.00  0.00    -0.275 N 
ATOM      5  H4  UNL     1       0.175   1.965  -3.381  1.00  0.00     0.173 HD
HETATM    6  C5  UNL     1      -0.214   0.048  -2.395  1.00  0.00     0.273 C 
HETATM    7  O4  UNL     1      -0.454  -0.790  -3.291  1.00  0.00    -0.269 OA
HETATM    8  C6  UNL     1      -0.367  -0.115  -0.914  1.00  0.00     0.280 C 
HETATM    9  C7  UNL     1      -0.331  -1.536  -0.562  1.00  0.00     0.273 C 
HETATM   10  O5  UNL     1       0.629  -2.245  -1.002  1.00  0.00    -0.269 OA
HETATM   11  N5  UNL     1      -1.294  -2.218   0.249  1.00  0.00    -0.276 N 
ATOM     12  H5  UNL     1      -0.958  -3.017   0.786  1.00  0.00     0.173 HD
HETATM   13  C8  UNL     1      -2.683  -1.890   0.381  1.00  0.00     0.325 C 
HETATM   14  O6  UNL     1      -3.272  -2.635   1.224  1.00  0.00    -0.247 OA
HETATM   15  N6  UNL     1      -3.465  -0.903  -0.260  1.00  0.00    -0.320 N 
HETATM   16  C9  UNL     1      -4.864  -1.272  -0.412  1.00  0.00     0.155 C 
HETATM   17  C10 UNL     1      -3.043   0.375  -0.764  1.00  0.00     0.231 C 
HETATM   18  C13 UNL     1      -1.594   0.552  -0.461  1.00  0.00     0.206 C 
HETATM   19  O8  UNL     1      -1.389   1.457   0.350  1.00  0.00    -0.291 OA
ENDROOT
BRANCH   1  20
HETATM   20  N2  UNL     1       1.637   0.323   0.575  1.00  0.00    -0.295 N 
ATOM     21  H2  UNL     1       1.303   0.295   1.538  1.00  0.00     0.183 HD
BRANCH  20  22
HETATM   22  C3  UNL     1       2.992   0.041   0.245  1.00  0.00     0.281 C 
BRANCH  22  23
HETATM   23  C2  UNL     1       3.804  -0.368   1.468  1.00  0.00     0.263 C 
BRANCH  23  24
HETATM   24  N1  UNL     1       5.183  -0.602   1.194  1.00  0.00    -0.398 N 
HETATM   25  C1  UNL     1       5.933   0.519   0.728  1.00  0.00     0.142 C 
ATOM     26  H1  UNL     1       5.610  -1.519   1.324  1.00  0.00     0.155 HD
ENDBRANCH  23  24
BRANCH  23  27
HETATM   27  O1  UNL     1       3.253  -1.509   2.037  1.00  0.00    -0.373 OA
ATOM     28  H1  UNL     1       2.334  -1.353   2.220  1.00  0.00     0.212 HD
ENDBRANCH  23  27
ENDBRANCH  22  23
BRANCH  22  29
HETATM   29  O2  UNL     1       3.577   1.222  -0.251  1.00  0.00    -0.371 OA
ATOM     30  H2  UNL     1       3.071   1.477  -1.013  1.00  0.00     0.212 HD
ENDBRANCH  22  29
ENDBRANCH  20  22
ENDBRANCH   1  20
BRANCH  17  31
HETATM   31  C11 UNL     1      -3.820   1.499  -0.165  1.00  0.00     0.153 C 
HETATM   32  C12 UNL     1      -4.850   1.306   0.885  1.00  0.00     0.093 C 
HETATM   33  O7  UNL     1      -3.613   2.638  -0.541  1.00  0.00    -0.296 OA
ENDBRANCH  17  31
TORSDOF 7
