REMARK  9 active torsions:
REMARK  status: ('A' for Active; 'I' for Inactive)
REMARK    1  A    between atoms: C2_2  and  S1_3 
REMARK    2  A    between atoms: S1_3  and  C3_4 
REMARK    3  A    between atoms: N2_11  and  N3_12 
REMARK       I    between atoms: N3_12  and  C6_14 
REMARK    4  A    between atoms: C6_14  and  C7_16 
REMARK    5  A    between atoms: C7_16  and  O3_17 
REMARK    6  A    between atoms: C9_23  and  C10_24 
REMARK    7  A    between atoms: C10_24  and  O5_25 
REMARK    8  A    between atoms: C10_24  and  N5_27 
REMARK    9  A    between atoms: N5_27  and  N6_29 
ROOT
HETATM    1  C3  UNL     1      -1.824  -0.524  -0.165  1.00  0.00     0.167 C 
HETATM    2  S2  UNL     1      -0.555  -0.264  -1.497  1.00  0.00    -0.084 SA
HETATM    3  C4  UNL     1       0.691   0.119  -0.190  1.00  0.00     0.246 A 
HETATM    4  N1  UNL     1       1.119  -1.160   0.315  1.00  0.00    -0.297 N 
ATOM      5  H1  UNL     1       0.498  -1.895   0.654  1.00  0.00     0.168 HD
HETATM    6  C5  UNL     1       2.521  -1.242   0.270  1.00  0.00     0.347 A 
HETATM    7  O1  UNL     1       3.238  -2.194   0.690  1.00  0.00    -0.245 OA
HETATM    8  N2  UNL     1       2.999  -0.033  -0.354  1.00  0.00    -0.165 N 
HETATM    9  C8  UNL     1       1.878   0.767  -0.682  1.00  0.00     0.307 A 
HETATM   10  O4  UNL     1       2.046   1.865  -1.318  1.00  0.00    -0.265 OA
HETATM   11  N4  UNL     1      -0.082   0.833   0.753  1.00  0.00    -0.345 N 
ATOM     12  H4  UNL     1       0.327   1.509   1.398  1.00  0.00     0.163 HD
HETATM   13  C9  UNL     1      -1.476   0.537   0.734  1.00  0.00     0.085 C 
ENDROOT
BRANCH   1  14
HETATM   14  S1  UNL     1      -3.443  -0.834  -0.712  1.00  0.00    -0.147 SA
BRANCH  14  15
HETATM   15  C2  UNL     1      -4.222  -2.171   0.202  1.00  0.00     0.071 C 
HETATM   16  C1  UNL     1      -3.623  -3.528  -0.071  1.00  0.00     0.016 C 
ENDBRANCH  14  15
ENDBRANCH   1  14
BRANCH   8  17
HETATM   17  N3  UNL     1       4.368   0.222  -0.548  1.00  0.00    -0.255 N 
HETATM   18  C6  UNL     1       5.228   0.692   0.471  1.00  0.00     0.260 C 
HETATM   19  O2  UNL     1       4.714   0.895   1.614  1.00  0.00    -0.269 OA
ATOM     20  H3  UNL     1       4.762   0.059  -1.475  1.00  0.00     0.191 HD
BRANCH  18  21
HETATM   21  C7  UNL     1       6.675   0.935   0.194  1.00  0.00     0.268 C 
BRANCH  21  22
HETATM   22  O3  UNL     1       6.969   0.631  -1.112  1.00  0.00    -0.392 OA
ATOM     23  H3  UNL     1       7.890   0.786  -1.288  1.00  0.00     0.210 HD
ENDBRANCH  21  22
ENDBRANCH  18  21
ENDBRANCH   8  17
BRANCH  13  24
HETATM   24  C10 UNL     1      -2.224   1.793   0.794  1.00  0.00     0.184 C 
BRANCH  24  25
HETATM   25  O5  UNL     1      -1.775   2.689   1.627  1.00  0.00    -0.344 OA
ATOM     26  H5  UNL     1      -2.261   3.505   1.666  1.00  0.00     0.219 HD
ENDBRANCH  24  25
BRANCH  24  27
HETATM   27  N5  UNL     1      -3.372   2.144   0.060  1.00  0.00    -0.218 N 
ATOM     28  H5  UNL     1      -3.757   1.489  -0.621  1.00  0.00     0.195 HD
BRANCH  27  29
HETATM   29  N6  UNL     1      -3.995   3.395   0.258  1.00  0.00    -0.037 N 
HETATM   30  O6  UNL     1      -3.300   4.404   0.235  1.00  0.00    -0.516 OA
HETATM   31  O7  UNL     1      -5.336   3.506   0.478  1.00  0.00    -0.516 OA
ENDBRANCH  27  29
ENDBRANCH  24  27
ENDBRANCH  13  24
TORSDOF 9
