REMARK  7 active torsions:
REMARK  status: ('A' for Active; 'I' for Inactive)
REMARK    1  A    between atoms: N1_2  and  C2_4 
REMARK    2  A    between atoms: C4_9  and  N4_10 
REMARK    3  A    between atoms: C5_13  and  N5_14 
REMARK    4  A    between atoms: N5_14  and  N6_16 
REMARK    5  A    between atoms: N6_16  and  C6_17 
REMARK    6  A    between atoms: C6_17  and  C7_18 
REMARK    7  A    between atoms: C6_17  and  C10_21 
ROOT
HETATM    1  C2  UNL     1       3.402   0.783   0.168  1.00  0.00     0.680 A 
HETATM    2  N2  UNL     1       4.270   0.209  -0.669  1.00  0.00    -0.176 N 
ATOM      3  H2  UNL     1       5.236   0.535  -0.694  1.00  0.00     0.185 HD
HETATM    4  C3  UNL     1       3.887  -0.791  -1.478  1.00  0.00     0.168 A 
HETATM    5  N3  UNL     1       4.794  -1.414  -2.374  1.00  0.00    -0.079 NA
HETATM    6  C4  UNL     1       2.573  -1.219  -1.431  1.00  0.00     0.190 A 
HETATM    7  C5  UNL     1       1.695  -0.611  -0.559  1.00  0.00     0.182 A 
HETATM    8  N7  UNL     1       2.137   0.372   0.214  1.00  0.00    -0.172 N 
ATOM      9  H7  UNL     1       1.491   0.825   0.860  1.00  0.00     0.186 HD
ENDROOT
BRANCH   7  10
HETATM   10  N5  UNL     1       0.443  -1.019  -0.514  1.00  0.00    -0.216 N 
ATOM     11  H5  UNL     1       0.182  -1.780  -1.141  1.00  0.00     0.203 HD
BRANCH  10  12
HETATM   12  N6  UNL     1      -0.468  -0.554   0.235  1.00  0.00    -0.332 NA
BRANCH  12  13
HETATM   13  C6  UNL     1      -1.325  -0.126   0.970  1.00  0.00     0.094 C 
BRANCH  13  14
HETATM   14  C7  UNL     1      -1.335  -0.580   2.388  1.00  0.00     0.040 C 
HETATM   15  C8  UNL     1      -2.535  -1.332   2.821  1.00  0.00     0.017 C 
HETATM   16  C9  UNL     1      -0.102  -1.356   2.743  1.00  0.00     0.017 C 
ENDBRANCH  13  14
BRANCH  13  17
HETATM   17  C10 UNL     1      -2.341   0.841   0.429  1.00  0.00     0.048 C 
HETATM   18  C11 UNL     1      -3.735   0.313   0.499  1.00  0.00     0.011 C 
HETATM   19  C12 UNL     1      -4.600   0.849  -0.633  1.00  0.00     0.001 C 
HETATM   20  C13 UNL     1      -4.094   0.490  -1.988  1.00  0.00     0.000 C 
HETATM   21  C14 UNL     1      -2.630   0.123  -1.870  1.00  0.00     0.001 C 
HETATM   22  C15 UNL     1      -1.996   1.200  -1.014  1.00  0.00     0.011 C 
ENDBRANCH  13  17
ENDBRANCH  12  13
ENDBRANCH  10  12
ENDBRANCH   7  10
BRANCH   6  23
HETATM   23  N4  UNL     1       2.111  -2.276  -2.267  1.00  0.00    -0.108 N 
HETATM   24  O1  UNL     1       2.442  -3.437  -2.018  1.00  0.00    -0.532 OA
HETATM   25  O2  UNL     1       1.308  -1.984  -3.333  1.00  0.00    -0.532 OA
ENDBRANCH   6  23
BRANCH   1  26
HETATM   26  N1  UNL     1       3.818   1.763   0.948  1.00  0.00    -0.230 N 
HETATM   27  C1  UNL     1       5.199   2.165   0.854  1.00  0.00     0.165 C 
ATOM     28  H1  UNL     1       3.181   2.223   1.598  1.00  0.00     0.177 HD
ENDBRANCH   1  26
TORSDOF 7
