REMARK  4 active torsions:
REMARK  status: ('A' for Active; 'I' for Inactive)
REMARK    1  A    between atoms: C1_4  and  C2_6 
REMARK    2  A    between atoms: N4_10  and  N5_12 
REMARK    3  A    between atoms: C4_14  and  C5_15 
REMARK       I    between atoms: C5_15  and  N6_17 
REMARK    4  A    between atoms: N6_17  and  N7_19 
ROOT
HETATM    1  C2  UNL     1       2.570   0.818   0.131  1.00  0.00     0.149 A 
HETATM    2  N3  UNL     1       1.243   1.029  -0.117  1.00  0.00    -0.323 N 
ATOM      3  H3  UNL     1       0.892   1.986  -0.085  1.00  0.00     0.169 HD
HETATM    4  C3  UNL     1       0.380   0.046  -0.400  1.00  0.00     0.149 A 
HETATM    5  N4  UNL     1      -0.875   0.289  -0.629  1.00  0.00    -0.284 N 
ATOM      6  H4  UNL     1      -1.220   1.248  -0.594  1.00  0.00     0.188 HD
HETATM    7  C6  UNL     1       0.828  -1.241  -0.449  1.00  0.00     0.132 A 
HETATM    8  N8  UNL     1      -0.040  -2.330  -0.746  1.00  0.00    -0.095 NA
HETATM    9  C7  UNL     1       2.157  -1.500  -0.207  1.00  0.00     0.146 A 
HETATM   10  N9  UNL     1       2.636  -2.837  -0.255  1.00  0.00    -0.080 NA
HETATM   11  N10 UNL     1       2.963  -0.458   0.071  1.00  0.00    -0.326 N 
ATOM     12  H10 UNL     1       3.947  -0.657   0.249  1.00  0.00     0.168 HD
ENDROOT
BRANCH   5  13
HETATM   13  N5  UNL     1      -1.743  -0.738  -0.919  1.00  0.00    -0.305 N 
HETATM   14  C4  UNL     1      -3.002  -0.734  -0.656  1.00  0.00     0.182 C 
ATOM     15  H5  UNL     1      -1.359  -1.565  -1.377  1.00  0.00     0.186 HD
BRANCH  14  16
HETATM   16  C5  UNL     1      -3.648   0.379  -0.014  1.00  0.00     0.276 C 
HETATM   17  O1  UNL     1      -2.961   1.380   0.301  1.00  0.00    -0.265 OA
HETATM   18  N6  UNL     1      -5.029   0.417   0.290  1.00  0.00    -0.272 N 
ATOM     19  H6  UNL     1      -5.599  -0.391   0.040  1.00  0.00     0.189 HD
BRANCH  18  20
HETATM   20  N7  UNL     1      -5.652   1.492   0.910  1.00  0.00    -0.342 N 
ATOM     21  H72 UNL     1      -5.067   2.291   1.153  1.00  0.00     0.176 HD
ATOM     22  H71 UNL     1      -6.648   1.519   1.129  1.00  0.00     0.176 HD
ENDBRANCH  18  20
ENDBRANCH  14  16
ENDBRANCH   5  13
BRANCH   1  23
HETATM   23  C1  UNL     1       3.443   1.939   0.431  1.00  0.00     0.154 C 
HETATM   24  N1  UNL     1       4.675   1.767   0.664  1.00  0.00    -0.385 N 
ATOM     25  H12 UNL     1       5.288   2.554   0.875  1.00  0.00     0.157 HD
ATOM     26  H11 UNL     1       5.031   0.812   0.632  1.00  0.00     0.157 HD
HETATM   27  N2  UNL     1       2.946   3.274   0.476  1.00  0.00    -0.079 NA
ENDBRANCH   1  23
TORSDOF 4
