REMARK  6 active torsions:
REMARK  status: ('A' for Active; 'I' for Inactive)
REMARK    1  A    between atoms: N1_1  and  C1_4 
REMARK    2  A    between atoms: C3_9  and  C4_10 
REMARK    3  A    between atoms: C4_10  and  N5_15 
REMARK    4  A    between atoms: N4_11  and  O1_13 
REMARK    5  A    between atoms: N5_15  and  O2_16 
REMARK    6  A    between atoms: N6_18  and  N7_20 
REMARK       I    between atoms: N7_20  and  C5_22 
ROOT
HETATM    1  C4  UNL     1       0.009  -0.050  -0.936  1.00  0.00     0.192 C 
HETATM    2  N4  UNL     1       0.277   1.206  -1.187  1.00  0.00    -0.249 N 
ATOM      3  H4  UNL     1      -0.284   1.922  -0.725  1.00  0.00     0.196 HD
ENDROOT
BRANCH   1   4
HETATM    4  C3  UNL     1      -1.068  -0.402  -0.018  1.00  0.00     0.124 A 
HETATM    5  C2  UNL     1      -2.163   0.463   0.090  1.00  0.00     0.151 A 
HETATM    6  N2  UNL     1      -3.158   0.141   0.936  1.00  0.00    -0.178 N 
HETATM    7  N3  UNL     1      -2.164   1.632  -0.698  1.00  0.00    -0.081 NA
HETATM    8  C1  UNL     1      -3.154  -0.975   1.687  1.00  0.00     0.680 A 
ATOM      9  H2  UNL     1      -3.954   0.774   1.012  1.00  0.00     0.185 HD
HETATM   10  N9  UNL     1      -2.097  -1.817   1.587  1.00  0.00    -0.155 N 
HETATM   11  C6  UNL     1      -1.082  -1.531   0.752  1.00  0.00     0.277 A 
ATOM     12  H9  UNL     1      -2.071  -2.670   2.146  1.00  0.00     0.187 HD
HETATM   13  O4  UNL     1      -0.102  -2.329   0.672  1.00  0.00    -0.267 OA
BRANCH   8  14
HETATM   14  N1  UNL     1      -4.129  -1.240   2.481  1.00  0.00    -0.234 N 
ATOM     15  H12 UNL     1      -4.925  -0.606   2.556  1.00  0.00     0.174 HD
ATOM     16  H11 UNL     1      -4.126  -2.086   3.050  1.00  0.00     0.174 HD
ENDBRANCH   8  14
ENDBRANCH   1   4
BRANCH   1  17
HETATM   17  N5  UNL     1       0.808  -1.016  -1.595  1.00  0.00    -0.129 N 
HETATM   18  N6  UNL     1       2.025  -1.193  -1.339  1.00  0.00    -0.211 N 
ATOM     19  H6  UNL     1       2.531  -1.910  -1.859  1.00  0.00     0.211 HD
BRANCH  17  20
HETATM   20  O2  UNL     1       0.208  -1.783  -2.554  1.00  0.00    -0.265 OA
ATOM     21  H2  UNL     1       0.744  -2.431  -2.996  1.00  0.00     0.247 HD
ENDBRANCH  17  20
BRANCH  18  22
HETATM   22  N7  UNL     1       2.722  -0.451  -0.372  1.00  0.00    -0.237 N 
HETATM   23  C5  UNL     1       4.117  -0.478  -0.309  1.00  0.00     0.348 C 
HETATM   24  N8  UNL     1       4.807   0.277   0.675  1.00  0.00    -0.038 NA
HETATM   25  O3  UNL     1       4.801  -1.164  -1.111  1.00  0.00    -0.249 OA
ATOM     26  H7  UNL     1       2.201   0.117   0.296  1.00  0.00     0.193 HD
ENDBRANCH  18  22
ENDBRANCH   1  17
BRANCH   2  27
HETATM   27  O1  UNL     1       1.256   1.604  -2.024  1.00  0.00    -0.288 OA
ATOM     28  H1  UNL     1       1.451   2.516  -2.206  1.00  0.00     0.244 HD
ENDBRANCH   2  27
TORSDOF 6
