REMARK  5 active torsions:
REMARK  status: ('A' for Active; 'I' for Inactive)
REMARK    1  A    between atoms: N1_1  and  C1_4 
REMARK    2  A    between atoms: C2_7  and  C3_8 
REMARK    3  A    between atoms: C4_13  and  N5_14 
REMARK    4  A    between atoms: N5_14  and  N6_16 
REMARK    5  A    between atoms: N6_16  and  C5_18 
ROOT
HETATM    1  C1  UNL     1      -2.773  -1.940  -0.777  1.00  0.00     0.692 A 
HETATM    2  N2  UNL     1      -3.566  -0.915  -0.453  1.00  0.00    -0.171 N 
ATOM      3  H2  UNL     1      -4.573  -1.073  -0.415  1.00  0.00     0.186 HD
HETATM    4  C2  UNL     1      -3.102   0.310  -0.176  1.00  0.00     0.201 A 
HETATM    5  N4  UNL     1      -1.780   0.522  -0.225  1.00  0.00    -0.169 N 
ATOM      6  H4  UNL     1      -1.403   1.447  -0.018  1.00  0.00     0.186 HD
HETATM    7  C4  UNL     1      -0.948  -0.490  -0.549  1.00  0.00     0.713 A 
HETATM    8  N10 UNL     1      -1.448  -1.721  -0.825  1.00  0.00    -0.021 N 
ATOM      9  H10 UNL     1      -0.816  -2.483  -1.070  1.00  0.00     0.203 HD
ENDROOT
BRANCH   7  10
HETATM   10  N5  UNL     1       0.446  -0.322  -0.632  1.00  0.00    -0.117 N 
ATOM     11  H5  UNL     1       0.864  -0.038  -1.518  1.00  0.00     0.206 HD
BRANCH  10  12
HETATM   12  N6  UNL     1       1.262  -0.536   0.469  1.00  0.00    -0.117 N 
ATOM     13  H6  UNL     1       0.933  -1.089   1.261  1.00  0.00     0.206 HD
BRANCH  12  14
HETATM   14  C5  UNL     1       2.576   0.035   0.471  1.00  0.00     0.705 A 
HETATM   15  N7  UNL     1       3.546  -0.575  -0.253  1.00  0.00    -0.139 N 
HETATM   16  C6  UNL     1       4.787  -0.060  -0.274  1.00  0.00     0.342 A 
ATOM     17  H7  UNL     1       3.335  -1.422  -0.780  1.00  0.00     0.189 HD
HETATM   18  O2  UNL     1       5.706  -0.630  -0.958  1.00  0.00    -0.246 OA
HETATM   19  N8  UNL     1       5.116   1.054   0.405  1.00  0.00    -0.260 N 
HETATM   20  C7  UNL     1       4.150   1.660   1.126  1.00  0.00     0.342 A 
ATOM     21  H8  UNL     1       6.064   1.428   0.376  1.00  0.00     0.175 HD
HETATM   22  O3  UNL     1       4.479   2.700   1.754  1.00  0.00    -0.246 OA
HETATM   23  N9  UNL     1       2.916   1.142   1.142  1.00  0.00    -0.139 N 
ATOM     24  H9  UNL     1       2.199   1.614   1.693  1.00  0.00     0.189 HD
ENDBRANCH  12  14
ENDBRANCH  10  12
ENDBRANCH   7  10
BRANCH   4  25
HETATM   25  C3  UNL     1      -4.001   1.402   0.165  1.00  0.00     0.299 C 
HETATM   26  N3  UNL     1      -5.403   1.196   0.197  1.00  0.00    -0.054 NA
HETATM   27  O1  UNL     1      -3.507   2.525   0.428  1.00  0.00    -0.268 OA
ENDBRANCH   4  25
BRANCH   1  28
HETATM   28  N1  UNL     1      -3.288  -3.099  -1.032  1.00  0.00    -0.234 N 
ATOM     29  H12 UNL     1      -4.294  -3.265  -0.996  1.00  0.00     0.174 HD
ATOM     30  H11 UNL     1      -2.682  -3.882  -1.279  1.00  0.00     0.174 HD
ENDBRANCH   1  28
TORSDOF 5
