REMARK  9 active torsions:
REMARK  status: ('A' for Active; 'I' for Inactive)
REMARK    1  A    between atoms: N1_1  and  N2_4 
REMARK    2  A    between atoms: N2_4  and  N3_6 
REMARK    3  A    between atoms: N3_6  and  C1_8 
REMARK    4  A    between atoms: N7_15  and  C2_16 
REMARK    5  A    between atoms: C2_16  and  N8_17 
REMARK    6  A    between atoms: N8_17  and  C3_19 
REMARK    7  A    between atoms: C4_22  and  S1_23 
REMARK    8  A    between atoms: S1_23  and  N10_24 
REMARK    9  A    between atoms: C5_31  and  O3_32 
ROOT
HETATM    1  N8  UNL     1       0.076   1.248   1.475  1.00  0.00    -0.333 N 
ATOM      2  H8  UNL     1      -0.010   1.225   2.491  1.00  0.00     0.168 HD
ENDROOT
BRANCH   1   3
HETATM    3  C2  UNL     1      -0.963   1.811   0.698  1.00  0.00     0.229 C 
BRANCH   3   4
HETATM    4  N7  UNL     1      -1.662   0.965  -0.199  1.00  0.00    -0.063 N 
HETATM    5  C1  UNL     1      -2.761   0.223   0.048  1.00  0.00     0.737 A 
HETATM    6  N4  UNL     1      -3.136  -0.437  -1.056  1.00  0.00    -0.113 N 
HETATM    7  N5  UNL     1      -2.241  -0.083  -1.985  1.00  0.00    -0.213 N 
ATOM      8  H4  UNL     1      -3.929  -1.070  -1.164  1.00  0.00     0.207 HD
HETATM    9  N6  UNL     1      -1.376   0.746  -1.466  1.00  0.00    -0.206 N 
ATOM     10  H5  UNL     1      -2.235  -0.411  -2.951  1.00  0.00     0.210 HD
ATOM     11  H6  UNL     1      -0.593   1.163  -1.969  1.00  0.00     0.211 HD
BRANCH   5  12
HETATM   12  N3  UNL     1      -3.351   0.163   1.169  1.00  0.00    -0.115 N 
ATOM     13  H3  UNL     1      -2.957   0.719   1.928  1.00  0.00     0.207 HD
BRANCH  12  14
HETATM   14  N2  UNL     1      -4.472  -0.580   1.460  1.00  0.00    -0.235 N 
ATOM     15  H2  UNL     1      -5.351  -0.130   1.716  1.00  0.00     0.208 HD
BRANCH  14  16
HETATM   16  N1  UNL     1      -4.365  -1.985   1.393  1.00  0.00    -0.330 N 
ATOM     17  H12 UNL     1      -3.479  -2.420   1.136  1.00  0.00     0.178 HD
ATOM     18  H11 UNL     1      -5.196  -2.536   1.609  1.00  0.00     0.178 HD
ENDBRANCH  14  16
ENDBRANCH  12  14
ENDBRANCH   5  12
ENDBRANCH   3   4
ENDBRANCH   1   3
BRANCH   1  19
HETATM   19  C3  UNL     1       1.240   0.714   0.856  1.00  0.00     0.160 A 
HETATM   20  N9  UNL     1       1.544   0.662  -0.453  1.00  0.00    -0.314 N 
HETATM   21  C4  UNL     1       2.727   0.094  -0.659  1.00  0.00     0.227 A 
ATOM     22  H9  UNL     1       0.941   1.015  -1.196  1.00  0.00     0.170 HD
HETATM   23  N11 UNL     1       3.206  -0.233   0.542  1.00  0.00    -0.309 N 
HETATM   24  C5  UNL     1       2.331   0.128   1.486  1.00  0.00     0.187 A 
ATOM     25  H11 UNL     1       4.102  -0.689   0.714  1.00  0.00     0.170 HD
BRANCH  21  26
HETATM   26  S1  UNL     1       3.430  -0.135  -2.243  1.00  0.00     0.289 S 
HETATM   27  O1  UNL     1       2.508  -0.962  -3.089  1.00  0.00    -0.198 OA
HETATM   28  O2  UNL     1       3.593   1.211  -2.908  1.00  0.00    -0.198 OA
BRANCH  26  29
HETATM   29  N10 UNL     1       4.964  -0.907  -2.027  1.00  0.00    -0.322 N 
ATOM     30 2H10 UNL     1       5.371  -1.174  -1.131  1.00  0.00     0.169 HD
ATOM     31 1H10 UNL     1       5.374  -1.041  -2.951  1.00  0.00     0.169 HD
ENDBRANCH  26  29
ENDBRANCH  21  26
BRANCH  24  32
HETATM   32  O3  UNL     1       2.486  -0.050   2.846  1.00  0.00    -0.343 OA
ATOM     33  H3  UNL     1       3.232  -0.451   3.277  1.00  0.00     0.219 HD
ENDBRANCH  24  32
ENDBRANCH   1  19
TORSDOF 9
