REMARK  11 active torsions:
REMARK  status: ('A' for Active; 'I' for Inactive)
REMARK       I    between atoms: C2_2  and  N1_4 
REMARK    1  A    between atoms: N1_4  and  C3_6 
REMARK    2  A    between atoms: N4_11  and  C4_12 
REMARK    3  A    between atoms: C4_12  and  C5_13 
REMARK    4  A    between atoms: C6_16  and  N5_17 
REMARK    5  A    between atoms: N5_17  and  C7_19 
REMARK    6  A    between atoms: C7_19  and  O4_20 
REMARK    7  A    between atoms: C7_19  and  N6_22 
REMARK    8  A    between atoms: N6_22  and  C8_25 
REMARK    9  A    between atoms: C9_26  and  N7_27 
REMARK   10  A    between atoms: N7_27  and  O5_28 
REMARK   11  A    between atoms: C13_36  and  C14_37 
ROOT
HETATM    1  C7  UNL     1       0.631   0.496  -0.582  1.00  0.00     0.441 C 
ENDROOT
BRANCH   1   2
HETATM    2  N5  UNL     1       1.601   1.395   0.003  1.00  0.00    -0.172 N 
ATOM      3  H5  UNL     1       1.308   2.321   0.316  1.00  0.00     0.182 HD
BRANCH   2   4
HETATM    4  C6  UNL     1       2.849   1.032   0.134  1.00  0.00     0.714 A 
HETATM    5  N4  UNL     1       3.689   1.929   0.689  1.00  0.00    -0.098 N 
HETATM    6  N3  UNL     1       4.955   1.590   0.833  1.00  0.00    -0.211 N 
HETATM    7  N2  UNL     1       5.387   0.393   0.439  1.00  0.00    -0.116 N 
ATOM      8  H3  UNL     1       5.610   2.251   1.250  1.00  0.00     0.209 HD
HETATM    9  C3  UNL     1       4.579  -0.524  -0.117  1.00  0.00     0.715 A 
ATOM     10  H2  UNL     1       6.373   0.163   0.565  1.00  0.00     0.207 HD
HETATM   11  N10 UNL     1       3.269  -0.178  -0.268  1.00  0.00    -0.019 N 
ATOM     12  H10 UNL     1       2.610  -0.836  -0.685  1.00  0.00     0.203 HD
BRANCH   5  13
HETATM   13  C4  UNL     1       3.253   3.226   1.123  1.00  0.00     0.282 C 
BRANCH  13  14
HETATM   14  C5  UNL     1       3.360   4.229   0.053  1.00  0.00     0.194 C 
HETATM   15  O2  UNL     1       3.805   3.897  -1.071  1.00  0.00    -0.647 OA
HETATM   16  O3  UNL     1       2.980   5.546   0.248  1.00  0.00    -0.647 OA
ENDBRANCH  13  14
ENDBRANCH   5  13
BRANCH   9  17
HETATM   17  N1  UNL     1       5.009  -1.669  -0.489  1.00  0.00    -0.158 N 
HETATM   18  C2  UNL     1       6.343  -2.108  -0.370  1.00  0.00     0.232 C 
HETATM   19  C1  UNL     1       6.627  -3.533  -0.066  1.00  0.00     0.118 C 
HETATM   20  O1  UNL     1       7.267  -1.278  -0.524  1.00  0.00    -0.273 OA
ATOM     21  H1  UNL     1       4.336  -2.314  -0.903  1.00  0.00     0.187 HD
ENDBRANCH   9  17
ENDBRANCH   2   4
ENDBRANCH   1   2
BRANCH   1  22
HETATM   22  O4  UNL     1       0.883   0.301  -1.949  1.00  0.00    -0.354 OA
ATOM     23  H4  UNL     1       0.246  -0.290  -2.333  1.00  0.00     0.214 HD
ENDBRANCH   1  22
BRANCH   1  24
HETATM   24  N6  UNL     1      -0.708   1.062  -0.399  1.00  0.00    -0.021 N 
ATOM     25  H62 UNL     1      -0.921   1.283   0.574  1.00  0.00     0.283 HD
ATOM     26  H61 UNL     1      -0.798   2.008  -0.769  1.00  0.00     0.283 HD
BRANCH  24  27
HETATM   27  C8  UNL     1      -1.627   0.142  -0.980  1.00  0.00     0.264 C 
HETATM   28  C9  UNL     1      -1.649  -1.219  -0.304  1.00  0.00     0.338 C 
HETATM   29  N8  UNL     1      -2.875  -1.849  -0.784  1.00  0.00    -0.043 N 
HETATM   30  C10 UNL     1      -3.752  -0.794  -1.241  1.00  0.00     0.243 C 
ATOM     31  H82 UNL     1      -2.705  -2.562  -1.494  1.00  0.00     0.280 HD
ATOM     32  H81 UNL     1      -3.310  -2.456  -0.089  1.00  0.00     0.280 HD
HETATM   33  C11 UNL     1      -4.998  -0.720  -0.450  1.00  0.00    -0.018 C 
HETATM   34  C15 UNL     1      -3.071   0.510  -0.895  1.00  0.00     0.151 C 
HETATM   35  C12 UNL     1      -6.224  -1.531  -0.755  1.00  0.00     0.048 C 
HETATM   36  C13 UNL     1      -4.816   0.147   0.512  1.00  0.00     0.110 C 
HETATM   37  N9  UNL     1      -3.513   0.712   0.465  1.00  0.00    -0.375 N 
ATOM     38  H9  UNL     1      -3.002   1.161   1.225  1.00  0.00     0.160 HD
BRANCH  28  39
HETATM   39  N7  UNL     1      -1.683  -1.085   1.134  1.00  0.00    -0.068 NA
BRANCH  39  40
HETATM   40  O5  UNL     1      -1.681  -2.292   1.723  1.00  0.00    -0.294 OA
ATOM     41  H5  UNL     1      -1.703  -2.204   2.669  1.00  0.00     0.238 HD
ENDBRANCH  39  40
ENDBRANCH  28  39
BRANCH  36  42
HETATM   42  C14 UNL     1      -5.834   0.497   1.514  1.00  0.00     0.226 C 
HETATM   43  O6  UNL     1      -5.574   1.356   2.424  1.00  0.00    -0.643 OA
HETATM   44  O7  UNL     1      -7.087  -0.048   1.547  1.00  0.00    -0.643 OA
ENDBRANCH  36  42
ENDBRANCH  24  27
ENDBRANCH   1  24
TORSDOF 11
