REMARK  2 active torsions:
REMARK  status: ('A' for Active; 'I' for Inactive)
REMARK    1  A    between atoms: N1_1  and  C1_4 
REMARK    2  A    between atoms: C4_13  and  C5_14 
ROOT
HETATM    1  C1  UNL     1      -2.203   0.599   0.173  1.00  0.00     0.679 A 
HETATM    2  N2  UNL     1      -2.692  -0.651   0.254  1.00  0.00    -0.154 N 
ATOM      3  H2  UNL     1      -3.698  -0.821   0.274  1.00  0.00     0.187 HD
HETATM    4  C2  UNL     1      -1.817  -1.671   0.308  1.00  0.00     0.298 A 
HETATM    5  O1  UNL     1      -2.215  -2.847   0.384  1.00  0.00    -0.264 OA
HETATM    6  C3  UNL     1      -0.438  -1.476   0.284  1.00  0.00     0.196 A 
HETATM    7  O2  UNL     1       0.608  -2.244   0.321  1.00  0.00    -0.229 OA
HETATM    8  N3  UNL     1       1.714  -1.571   0.270  1.00  0.00    -0.253 N 
ATOM      9  H3  UNL     1       2.654  -1.967   0.286  1.00  0.00     0.195 HD
HETATM   10  C4  UNL     1       1.415  -0.263   0.192  1.00  0.00     0.149 A 
HETATM   11  C6  UNL     1       0.023  -0.187   0.200  1.00  0.00     0.124 A 
HETATM   12  N5  UNL     1      -0.857   0.810   0.147  1.00  0.00    -0.186 N 
ATOM     13  H5  UNL     1      -0.511   1.768   0.085  1.00  0.00     0.184 HD
ENDROOT
BRANCH   1  14
HETATM   14  N1  UNL     1      -3.045   1.572   0.121  1.00  0.00    -0.234 N 
ATOM     15  H12 UNL     1      -4.053   1.414   0.140  1.00  0.00     0.174 HD
ATOM     16  H11 UNL     1      -2.674   2.520   0.060  1.00  0.00     0.174 HD
ENDBRANCH   1  14
BRANCH  10  17
HETATM   17  C5  UNL     1       2.347   0.872   0.114  1.00  0.00     0.285 C 
HETATM   18  N4  UNL     1       3.737   0.569   0.120  1.00  0.00    -0.056 NA
HETATM   19  O3  UNL     1       1.932   2.040   0.046  1.00  0.00    -0.269 OA
ENDBRANCH  10  17
TORSDOF 2
