REMARK  2 active torsions:
REMARK  status: ('A' for Active; 'I' for Inactive)
REMARK    1  A    between atoms: N2_5  and  N3_7 
REMARK       I    between atoms: N3_7  and  C4_9 
REMARK       I    between atoms: C4_9  and  N4_11 
REMARK    2  A    between atoms: N4_11  and  N5_13 
ROOT
HETATM    1  C1  UNL     1       2.788   1.210  -0.607  1.00  0.00     0.020 C 
HETATM    2  C2  UNL     1       2.305   0.137  -0.362  1.00  0.00    -0.043 C 
HETATM    3  C3  UNL     1       1.746  -1.148  -0.074  1.00  0.00     0.184 C 
HETATM    4  N1  UNL     1       2.600  -2.175   0.402  1.00  0.00    -0.071 NA
HETATM    5  N2  UNL     1       0.493  -1.383  -0.239  1.00  0.00    -0.277 N 
ATOM      6  H2  UNL     1       0.106  -2.303  -0.030  1.00  0.00     0.189 HD
ENDROOT
BRANCH   5   7
HETATM    7  N3  UNL     1      -0.326  -0.361  -0.708  1.00  0.00    -0.248 N 
HETATM    8  C4  UNL     1      -1.513  -0.000  -0.029  1.00  0.00     0.352 C 
HETATM    9  O1  UNL     1      -1.854  -0.611   1.029  1.00  0.00    -0.244 OA
HETATM   10  N4  UNL     1      -2.348   1.035  -0.498  1.00  0.00    -0.257 N 
ATOM     11  H4  UNL     1      -2.069   1.522  -1.350  1.00  0.00     0.191 HD
ATOM     12  H3  UNL     1      -0.065   0.138  -1.559  1.00  0.00     0.192 HD
BRANCH  10  13
HETATM   13  N5  UNL     1      -3.522   1.435   0.120  1.00  0.00    -0.341 N 
ATOM     14  H52 UNL     1      -3.785   0.937   0.970  1.00  0.00     0.177 HD
ATOM     15  H51 UNL     1      -4.126   2.184  -0.219  1.00  0.00     0.177 HD
ENDBRANCH  10  13
ENDBRANCH   5   7
TORSDOF 2
