REMARK  8 active torsions:
REMARK  status: ('A' for Active; 'I' for Inactive)
REMARK    1  A    between atoms: C2_5  and  N2_6 
REMARK    2  A    between atoms: N2_6  and  C3_8 
REMARK    3  A    between atoms: N5_16  and  C7_17 
REMARK    4  A    between atoms: C7_17  and  C8_18 
REMARK    5  A    between atoms: C8_18  and  O2_19 
REMARK    6  A    between atoms: O2_19  and  C9_20 
REMARK    7  A    between atoms: C9_20  and  C10_21 
REMARK    8  A    between atoms: C10_21  and  C11_22 
ROOT
HETATM    1  O1  UNL     1       4.253  -1.922   1.738  1.00  0.00    -0.267 OA
HETATM    2  C1  UNL     1       4.397  -1.278   0.672  1.00  0.00     0.275 A 
HETATM    3  N1  UNL     1       5.587  -1.087   0.073  1.00  0.00    -0.155 N 
ATOM      4  H1  UNL     1       6.422  -1.484   0.503  1.00  0.00     0.187 HD
HETATM    5  C2  UNL     1       5.717  -0.395  -1.067  1.00  0.00     0.683 A 
HETATM    6  N3  UNL     1       4.621   0.126  -1.630  1.00  0.00    -0.174 N 
ATOM      7  H3  UNL     1       4.716   0.654  -2.498  1.00  0.00     0.186 HD
HETATM    8  C6  UNL     1       3.388  -0.023  -1.087  1.00  0.00     0.152 A 
HETATM    9  N4  UNL     1       2.143   0.368  -1.406  1.00  0.00    -0.282 N 
ATOM     10  H4  UNL     1       1.897   0.920  -2.228  1.00  0.00     0.189 HD
HETATM   11  N5  UNL     1       1.282  -0.065  -0.501  1.00  0.00    -0.299 N 
HETATM   12  C17 UNL     1       1.926  -0.748   0.434  1.00  0.00     0.131 A 
HETATM   13  C18 UNL     1       3.270  -0.741   0.090  1.00  0.00     0.095 A 
ENDROOT
BRANCH  11  14
HETATM   14  C7  UNL     1      -0.185   0.154  -0.481  1.00  0.00     0.174 C 
BRANCH  14  15
HETATM   15  C8  UNL     1      -0.487   1.420   0.285  1.00  0.00     0.189 C 
BRANCH  15  16
HETATM   16  O2  UNL     1      -1.726   1.818   0.371  1.00  0.00    -0.389 OA
BRANCH  16  17
HETATM   17  C9  UNL     1      -2.823   1.324   0.876  1.00  0.00     0.168 C 
BRANCH  17  18
HETATM   18  C10 UNL     1      -3.423   0.052   0.359  1.00  0.00     0.031 C 
BRANCH  18  19
HETATM   19  C11 UNL     1      -4.746  -0.242   1.126  1.00  0.00    -0.013 C 
HETATM   20  C12 UNL     1      -5.269  -1.527   0.540  1.00  0.00     0.005 C 
HETATM   21  C13 UNL     1      -6.214  -1.146  -0.602  1.00  0.00     0.000 C 
HETATM   22  C14 UNL     1      -7.457  -0.587   0.043  1.00  0.00     0.000 C 
HETATM   23  C15 UNL     1      -7.105   0.593   0.898  1.00  0.00     0.000 C 
HETATM   24  C16 UNL     1      -5.636   0.927   0.888  1.00  0.00     0.005 C 
ENDBRANCH  18  19
ENDBRANCH  17  18
ENDBRANCH  16  17
ENDBRANCH  15  16
ENDBRANCH  14  15
ENDBRANCH  11  14
BRANCH   5  25
HETATM   25  N2  UNL     1       6.855  -0.220  -1.628  1.00  0.00    -0.221 N 
ATOM     26  H2  UNL     1       6.914   0.313  -2.496  1.00  0.00     0.178 HD
BRANCH  25  27
HETATM   27  C3  UNL     1       8.061  -0.772  -1.042  1.00  0.00     0.099 A 
HETATM   28  C4  UNL     1       8.868   0.233  -0.242  1.00  0.00     0.028 A 
HETATM   29  C5  UNL     1       9.394  -0.319  -1.514  1.00  0.00     0.028 A 
ENDBRANCH  25  27
ENDBRANCH   5  25
TORSDOF 8
