REMARK  18 active torsions:
REMARK  status: ('A' for Active; 'I' for Inactive)
REMARK       I    between atoms: C2_2  and  N1_4 
REMARK    1  A    between atoms: N1_4  and  C3_6 
REMARK    2  A    between atoms: C3_6  and  C4_7 
REMARK    3  A    between atoms: C3_6  and  C17_43 
REMARK       I    between atoms: C4_7  and  N2_9 
REMARK    4  A    between atoms: N2_9  and  C5_11 
REMARK    5  A    between atoms: C5_11  and  C6_12 
REMARK    6  A    between atoms: C5_11  and  C13_31 
REMARK    7  A    between atoms: C6_12  and  C7_14 
REMARK    8  A    between atoms: C7_14  and  C8_15 
REMARK    9  A    between atoms: C8_15  and  N3_16 
REMARK   10  A    between atoms: C8_15  and  C11_25 
REMARK       I    between atoms: N3_16  and  C9_18 
REMARK   11  A    between atoms: C9_18  and  C10_20 
REMARK   12  A    between atoms: C10_20  and  N4_21 
REMARK   13  A    between atoms: C11_25  and  O5_26 
REMARK   14  A    between atoms: C11_25  and  C12_28 
REMARK   15  A    between atoms: N6_33  and  N7_35 
REMARK       I    between atoms: N7_35  and  C15_37 
REMARK       I    between atoms: C15_37  and  N8_39 
REMARK   16  A    between atoms: C17_43  and  O8_44 
REMARK   17  A    between atoms: C17_43  and  C18_46 
REMARK   18  A    between atoms: C18_46  and  O9_47 
ROOT
HETATM    1  N7  UNL     1       0.095   3.319  -1.685  1.00  0.00    -0.251 N 
ATOM      2  H7  UNL     1       0.458   3.141  -2.622  1.00  0.00     0.191 HD
HETATM    3  C15 UNL     1      -0.675   4.491  -1.461  1.00  0.00     0.347 C 
HETATM    4  O7  UNL     1      -1.119   4.708  -0.313  1.00  0.00    -0.245 OA
HETATM    5  N8  UNL     1      -0.929   5.384  -2.510  1.00  0.00    -0.244 N 
ATOM      6  H8  UNL     1      -0.549   5.172  -3.433  1.00  0.00     0.183 HD
HETATM    7  C16 UNL     1      -1.683   6.558  -2.348  1.00  0.00     0.186 C 
HETATM    8  N9  UNL     1      -2.310   7.508  -2.225  1.00  0.00    -0.172 NA
ENDROOT
BRANCH   1   9
HETATM    9  N6  UNL     1       0.372   2.408  -0.678  1.00  0.00    -0.303 N 
HETATM   10  C13 UNL     1       0.272   1.150  -0.908  1.00  0.00     0.030 C 
HETATM   11  C14 UNL     1      -0.140   0.710  -2.263  1.00  0.00     0.068 C 
ATOM     12  H6  UNL     1       0.655   2.737   0.245  1.00  0.00     0.186 HD
BRANCH  10  13
HETATM   13  C5  UNL     1       0.562   0.172   0.154  1.00  0.00     0.201 C 
BRANCH  13  14
HETATM   14  N2  UNL     1       1.684  -0.678  -0.172  1.00  0.00    -0.343 N 
HETATM   15  C4  UNL     1       2.891  -0.690   0.554  1.00  0.00     0.244 C 
HETATM   16  O2  UNL     1       2.992   0.082   1.538  1.00  0.00    -0.271 OA
ATOM     17  H2  UNL     1       1.597  -1.304  -0.972  1.00  0.00     0.163 HD
BRANCH  15  18
HETATM   18  C3  UNL     1       4.033  -1.566   0.209  1.00  0.00     0.207 C 
BRANCH  18  19
HETATM   19  N1  UNL     1       5.148  -1.346   1.118  1.00  0.00    -0.346 N 
HETATM   20  C2  UNL     1       5.629  -2.341   1.966  1.00  0.00     0.214 C 
HETATM   21  C1  UNL     1       6.767  -2.063   2.874  1.00  0.00     0.117 C 
HETATM   22  O1  UNL     1       5.128  -3.495   1.996  1.00  0.00    -0.274 OA
ATOM     23  H1  UNL     1       5.594  -0.429   1.135  1.00  0.00     0.163 HD
ENDBRANCH  18  19
BRANCH  18  24
HETATM   24  C17 UNL     1       4.530  -1.338  -1.189  1.00  0.00     0.173 C 
BRANCH  24  25
HETATM   25  O8  UNL     1       5.016  -0.064  -1.395  1.00  0.00    -0.391 OA
ATOM     26  H8  UNL     1       5.331   0.080  -2.280  1.00  0.00     0.210 HD
ENDBRANCH  24  25
BRANCH  24  27
HETATM   27  C18 UNL     1       5.500  -2.407  -1.637  1.00  0.00     0.198 C 
BRANCH  27  28
HETATM   28  O9  UNL     1       5.002  -3.684  -1.431  1.00  0.00    -0.398 OA
ATOM     29  H9  UNL     1       5.612  -4.356  -1.713  1.00  0.00     0.209 HD
ENDBRANCH  27  28
ENDBRANCH  24  27
ENDBRANCH  18  24
ENDBRANCH  15  18
ENDBRANCH  13  14
BRANCH  13  30
HETATM   30  C6  UNL     1      -0.681  -0.632   0.451  1.00  0.00     0.157 C 
HETATM   31  O3  UNL     1      -0.555  -1.817   0.364  1.00  0.00    -0.295 OA
BRANCH  30  32
HETATM   32  C7  UNL     1      -1.930   0.003   0.817  1.00  0.00     0.109 C 
BRANCH  32  33
HETATM   33  C8  UNL     1      -3.143  -0.861   0.845  1.00  0.00     0.129 C 
BRANCH  33  34
HETATM   34  N3  UNL     1      -4.278  -0.048   1.358  1.00  0.00    -0.352 N 
HETATM   35  C9  UNL     1      -5.099  -0.582   2.356  1.00  0.00     0.243 C 
HETATM   36  O4  UNL     1      -4.867  -1.732   2.801  1.00  0.00    -0.272 OA
ATOM     37  H3  UNL     1      -4.455   0.886   0.987  1.00  0.00     0.163 HD
BRANCH  35  38
HETATM   38  C10 UNL     1      -6.244   0.166   2.912  1.00  0.00     0.332 C 
BRANCH  38  39
HETATM   39  N4  UNL     1      -6.306   1.451   2.251  1.00  0.00    -0.071 N 
ATOM     40  H43 UNL     1      -5.429   1.969   2.314  1.00  0.00     0.274 HD
ATOM     41  H42 UNL     1      -6.345   1.370   1.235  1.00  0.00     0.274 HD
ATOM     42  H41 UNL     1      -7.097   1.968   2.635  1.00  0.00     0.274 HD
ENDBRANCH  38  39
ENDBRANCH  35  38
ENDBRANCH  33  34
BRANCH  33  43
HETATM   43  C11 UNL     1      -3.600  -1.454  -0.466  1.00  0.00     0.230 C 
BRANCH  43  44
HETATM   44  O5  UNL     1      -2.633  -2.253  -1.016  1.00  0.00    -0.384 OA
ATOM     45  H5  UNL     1      -2.921  -2.626  -1.841  1.00  0.00     0.210 HD
ENDBRANCH  43  44
BRANCH  43  46
HETATM   46  C12 UNL     1      -4.059  -0.510  -1.479  1.00  0.00     0.262 C 
HETATM   47  N5  UNL     1      -5.062   0.469  -1.373  1.00  0.00    -0.060 NA
HETATM   48  O6  UNL     1      -3.492  -0.558  -2.631  1.00  0.00    -0.274 OA
ENDBRANCH  43  46
ENDBRANCH  33  43
ENDBRANCH  32  33
ENDBRANCH  30  32
ENDBRANCH  13  30
ENDBRANCH  10  13
ENDBRANCH   1   9
TORSDOF 18
