REMARK  8 active torsions:
REMARK  status: ('A' for Active; 'I' for Inactive)
REMARK    1  A    between atoms: C5_10  and  N3_11 
REMARK    2  A    between atoms: C7_16  and  N4_17 
REMARK    3  A    between atoms: C7_16  and  C8_21 
REMARK    4  A    between atoms: C8_21  and  O3_23 
REMARK    5  A    between atoms: O3_23  and  N5_24 
REMARK       I    between atoms: N5_24  and  C9_26 
REMARK    6  A    between atoms: C9_26  and  C10_28 
REMARK    7  A    between atoms: C10_28  and  C11_30 
REMARK    8  A    between atoms: C14_37  and  C15_38 
ROOT
HETATM    1  C1  UNL     1      -6.253  -3.121  -0.831  1.00  0.00     0.148 C 
HETATM    2  N1  UNL     1      -6.299  -1.882  -0.096  1.00  0.00    -0.374 N 
ATOM      3  H1  UNL     1      -7.197  -1.591   0.290  1.00  0.00     0.161 HD
HETATM    4  C2  UNL     1      -5.310  -1.139   0.100  1.00  0.00     0.162 C 
HETATM    5  N2  UNL     1      -5.263   0.087   0.805  1.00  0.00    -0.243 N 
ATOM      6  H2  UNL     1      -6.047   0.735   0.880  1.00  0.00     0.196 HD
HETATM    7  O1  UNL     1      -4.050   0.294   1.367  1.00  0.00    -0.255 OA
HETATM    8  C3  UNL     1      -3.082   0.247   0.333  1.00  0.00     0.162 C 
HETATM    9  C4  UNL     1      -3.334   1.398  -0.549  1.00  0.00     0.086 C 
HETATM   10  C5  UNL     1      -2.153   1.892  -1.318  1.00  0.00     0.190 C 
HETATM   11  C6  UNL     1      -0.872   1.859  -0.527  1.00  0.00     0.083 C 
HETATM   12  C7  UNL     1      -0.621   0.503   0.067  1.00  0.00     0.230 C 
HETATM   13  C14 UNL     1      -1.747   0.127   0.961  1.00  0.00     0.181 C 
HETATM   14  S1  UNL     1      -3.617  -1.355  -0.431  1.00  0.00    -0.050 SA
ENDROOT
BRANCH  12  15
HETATM   15  N4  UNL     1      -0.527  -0.496  -1.003  1.00  0.00    -0.060 N 
ATOM     16  H43 UNL     1      -1.347  -0.488  -1.609  1.00  0.00     0.275 HD
ATOM     17  H42 UNL     1       0.174  -0.247  -1.701  1.00  0.00     0.275 HD
ATOM     18  H41 UNL     1      -0.356  -1.417  -0.599  1.00  0.00     0.275 HD
ENDBRANCH  12  15
BRANCH  12  19
HETATM   19  C8  UNL     1       0.672   0.554   0.794  1.00  0.00     0.318 C 
HETATM   20  O2  UNL     1       0.850   1.339   1.758  1.00  0.00    -0.260 OA
BRANCH  19  21
HETATM   21  O3  UNL     1       1.739  -0.261   0.443  1.00  0.00    -0.194 OA
BRANCH  21  22
HETATM   22  N5  UNL     1       2.935  -0.240   1.090  1.00  0.00    -0.219 N 
HETATM   23  C9  UNL     1       4.183  -0.447   0.438  1.00  0.00     0.319 C 
HETATM   24  O4  UNL     1       4.213  -0.662  -0.798  1.00  0.00    -0.262 OA
ATOM     25  H5  UNL     1       2.938  -0.067   2.095  1.00  0.00     0.198 HD
BRANCH  23  26
HETATM   26  C10 UNL     1       5.446  -0.419   1.152  1.00  0.00     0.284 C 
HETATM   27  O5  UNL     1       5.416  -0.202   2.398  1.00  0.00    -0.278 OA
BRANCH  26  28
HETATM   28  C11 UNL     1       6.688  -0.634   0.452  1.00  0.00     0.162 A 
HETATM   29  N6  UNL     1       6.807  -0.867  -0.862  1.00  0.00    -0.348 N 
HETATM   30  C12 UNL     1       8.095  -1.020  -1.191  1.00  0.00     0.107 A 
ATOM     31  H6  UNL     1       6.027  -0.920  -1.518  1.00  0.00     0.167 HD
HETATM   32  C13 UNL     1       8.805  -0.869   0.003  1.00  0.00     0.107 A 
HETATM   33  N7  UNL     1       7.933  -0.636   0.989  1.00  0.00    -0.348 N 
ATOM     34  H7  UNL     1       8.163  -0.486   1.971  1.00  0.00     0.167 HD
ENDBRANCH  26  28
ENDBRANCH  23  26
ENDBRANCH  21  22
ENDBRANCH  19  21
ENDBRANCH  12  19
BRANCH  13  35
HETATM   35  C15 UNL     1      -1.714   0.826   2.267  1.00  0.00     0.184 C 
HETATM   36  O6  UNL     1      -1.412   0.229   3.346  1.00  0.00    -0.648 OA
HETATM   37  O7  UNL     1      -2.018   2.173   2.333  1.00  0.00    -0.648 OA
ENDBRANCH  13  35
BRANCH  10  38
HETATM   38  N3  UNL     1      -1.925   1.159  -2.542  1.00  0.00    -0.075 N 
ATOM     39  H33 UNL     1      -1.846   0.159  -2.357  1.00  0.00     0.274 HD
ATOM     40  H32 UNL     1      -2.762   1.156  -3.125  1.00  0.00     0.274 HD
ATOM     41  H31 UNL     1      -1.118   1.496  -3.067  1.00  0.00     0.274 HD
ENDBRANCH  10  38
TORSDOF 8
