REMARK  1 active torsions:
REMARK  status: ('A' for Active; 'I' for Inactive)
REMARK    1  A    between atoms: C3_3  and  C4_4 
ROOT
HETATM    1  C4  UNL     1      -0.077   0.014   0.027  1.00  0.00    -0.026 A 
HETATM    2  C5  UNL     1      -0.840   0.483   1.073  1.00  0.00     0.012 A 
HETATM    3  C6  UNL     1      -2.234   0.508   1.010  1.00  0.00     0.001 A 
HETATM    4  C7  UNL     1      -2.892   0.057  -0.116  1.00  0.00     0.000 A 
HETATM    5  C8  UNL     1      -2.108  -0.409  -1.153  1.00  0.00     0.001 A 
HETATM    6  C9  UNL     1      -0.726  -0.438  -1.102  1.00  0.00     0.012 A 
ENDROOT
BRANCH   1   7
HETATM    7  C3  UNL     1       1.383  -0.012   0.090  1.00  0.00    -0.026 A 
HETATM    8  C2  UNL     1       2.453  -0.429  -0.806  1.00  0.00     0.012 A 
HETATM    9  C1  UNL     1       3.390  -0.096   0.064  1.00  0.00     0.002 A 
HETATM   10  C10 UNL     1       2.310   0.323   0.965  1.00  0.00     0.012 A 
ENDBRANCH   1   7
TORSDOF 1
