REMARK  9 active torsions:
REMARK  status: ('A' for Active; 'I' for Inactive)
REMARK       I    between atoms: C2_2  and  N1_4 
REMARK    1  A    between atoms: N1_4  and  C3_6 
REMARK    2  A    between atoms: C3_6  and  C4_7 
REMARK    3  A    between atoms: C3_6  and  C19_29 
REMARK    4  A    between atoms: C4_7  and  C5_8 
REMARK    5  A    between atoms: C5_8  and  C6_9 
REMARK    6  A    between atoms: C6_9  and  C7_10 
REMARK    7  A    between atoms: C8_11  and  C9_12 
REMARK    8  A    between atoms: C17_23  and  O2_24 
REMARK    9  A    between atoms: C18_26  and  O3_27 
ROOT
HETATM    1  C9  UNL     1      -2.859  -0.368   0.117  1.00  0.00     0.043 C 
HETATM    2  C10 UNL     1      -2.313   0.717   0.935  1.00  0.00     0.072 C 
HETATM    3  N2  UNL     1      -2.383   1.814   0.288  1.00  0.00    -0.401 N 
ATOM      4  H2  UNL     1      -2.064   2.713   0.649  1.00  0.00     0.158 HD
HETATM    5  C11 UNL     1      -2.965   1.628  -1.010  1.00  0.00     0.125 C 
HETATM    6  C12 UNL     1      -3.798   0.349  -0.805  1.00  0.00     0.034 C 
HETATM    7  C13 UNL     1      -5.142   0.648  -0.254  1.00  0.00    -0.008 C 
HETATM    8  C14 UNL     1      -5.183   1.818   0.693  1.00  0.00     0.018 C 
HETATM    9  C15 UNL     1      -6.042   1.031  -1.439  1.00  0.00     0.018 C 
HETATM   10  C16 UNL     1      -5.759  -0.546   0.388  1.00  0.00     0.209 C 
HETATM   11  F1  UNL     1      -6.117  -1.474  -0.581  1.00  0.00    -0.246 F 
HETATM   12  C17 UNL     1      -4.862  -1.247   1.367  1.00  0.00     0.182 C 
HETATM   13  C18 UNL     1      -3.483  -1.478   0.890  1.00  0.00     0.167 C 
ENDROOT
BRANCH   1  14
HETATM   14  C8  UNL     1      -1.738  -0.949  -0.661  1.00  0.00    -0.013 C 
HETATM   15  C7  UNL     1      -0.796  -1.615  -0.024  1.00  0.00    -0.029 C 
BRANCH  15  16
HETATM   16  C6  UNL     1       0.373  -2.238  -0.714  1.00  0.00     0.027 C 
BRANCH  16  17
HETATM   17  C5  UNL     1       1.638  -1.600  -0.137  1.00  0.00     0.006 C 
BRANCH  17  18
HETATM   18  C4  UNL     1       1.597  -0.121  -0.390  1.00  0.00     0.026 C 
BRANCH  18  19
HETATM   19  C3  UNL     1       2.802   0.562   0.148  1.00  0.00     0.088 C 
BRANCH  19  20
HETATM   20  N1  UNL     1       2.876   0.344   1.571  1.00  0.00    -0.356 N 
HETATM   21  C2  UNL     1       2.855   1.445   2.450  1.00  0.00     0.213 C 
HETATM   22  C1  UNL     1       2.929   1.275   3.931  1.00  0.00     0.117 C 
HETATM   23  O1  UNL     1       2.773   2.619   1.999  1.00  0.00    -0.274 OA
ATOM     24  H1  UNL     1       2.943  -0.604   1.940  1.00  0.00     0.162 HD
ENDBRANCH  19  20
BRANCH  19  25
HETATM   25  C19 UNL     1       4.095   0.090  -0.457  1.00  0.00     0.008 C 
HETATM   26  C20 UNL     1       5.273   0.854   0.112  1.00  0.00     0.007 C 
HETATM   27  C21 UNL     1       6.520   0.131  -0.280  1.00  0.00     0.000 C 
HETATM   28  C22 UNL     1       6.626  -0.251  -1.699  1.00  0.00     0.000 C 
HETATM   29  C23 UNL     1       5.393  -0.367  -2.487  1.00  0.00     0.000 C 
HETATM   30  C24 UNL     1       4.168   0.269  -1.941  1.00  0.00     0.007 C 
ENDBRANCH  19  25
ENDBRANCH  18  19
ENDBRANCH  17  18
ENDBRANCH  16  17
ENDBRANCH  15  16
ENDBRANCH   1  14
BRANCH  13  31
HETATM   31  O3  UNL     1      -3.418  -2.639   0.107  1.00  0.00    -0.391 OA
ATOM     32  H3  UNL     1      -3.816  -3.347   0.600  1.00  0.00     0.210 HD
ENDBRANCH  13  31
BRANCH  12  33
HETATM   33  O2  UNL     1      -4.841  -0.629   2.620  1.00  0.00    -0.390 OA
ATOM     34  H2  UNL     1      -4.273  -1.073   3.239  1.00  0.00     0.210 HD
ENDBRANCH  12  33
TORSDOF 9
