REMARK  19 active torsions:
REMARK  status: ('A' for Active; 'I' for Inactive)
REMARK    1  A    between atoms: C2_2  and  C4_4 
REMARK    2  A    between atoms: C4_4  and  C7_7 
REMARK    3  A    between atoms: C7_7  and  C8_8 
REMARK    4  A    between atoms: C8_8  and  C9_9 
REMARK    5  A    between atoms: C8_8  and  C21_22 
REMARK    6  A    between atoms: C9_9  and  S1_10 
REMARK    7  A    between atoms: S1_10  and  C10_11 
REMARK    8  A    between atoms: C10_11  and  C11_12 
REMARK    9  A    between atoms: C11_12  and  C12_13 
REMARK   10  A    between atoms: C12_13  and  C13_14 
REMARK   11  A    between atoms: C13_14  and  C14_15 
REMARK   12  A    between atoms: C14_15  and  C15_16 
REMARK   13  A    between atoms: C15_16  and  C16_17 
REMARK       I    between atoms: C21_22  and  N1_24 
REMARK   14  A    between atoms: N1_24  and  C22_26 
REMARK   15  A    between atoms: C23_27  and  O2_28 
REMARK   16  A    between atoms: C24_30  and  O3_31 
REMARK   17  A    between atoms: C25_33  and  O4_34 
REMARK   18  A    between atoms: C26_36  and  O5_37 
REMARK   19  A    between atoms: C27_39  and  O6_40 
ROOT
HETATM    1  C8  UNL     1      -1.667  -0.079   0.390  1.00  0.00     0.016 C 
ENDROOT
BRANCH   1   2
HETATM    2  C7  UNL     1      -1.344  -1.475   0.697  1.00  0.00    -0.004 C 
BRANCH   2   3
HETATM    3  C4  UNL     1      -1.564  -2.579  -0.218  1.00  0.00    -0.026 C 
HETATM    4  C5  UNL     1      -0.753  -2.583  -1.507  1.00  0.00     0.019 C 
HETATM    5  C6  UNL     1      -2.983  -2.878  -0.641  1.00  0.00     0.019 C 
BRANCH   3   6
HETATM    6  C2  UNL     1      -1.120  -3.872   0.495  1.00  0.00    -0.011 C 
HETATM    7  C1  UNL     1       0.342  -3.873   0.777  1.00  0.00     0.010 C 
HETATM    8  C3  UNL     1      -1.923  -4.178   1.709  1.00  0.00     0.010 C 
ENDBRANCH   3   6
ENDBRANCH   2   3
ENDBRANCH   1   2
BRANCH   1   9
HETATM    9  C9  UNL     1      -1.023   0.598  -0.752  1.00  0.00     0.117 C 
BRANCH   9  10
HETATM   10  S1  UNL     1       0.801   0.685  -0.579  1.00  0.00    -0.164 SA
BRANCH  10  11
HETATM   11  C10 UNL     1       1.249   1.750   0.816  1.00  0.00     0.074 C 
BRANCH  11  12
HETATM   12  C11 UNL     1       2.782   1.752   0.870  1.00  0.00     0.010 C 
BRANCH  12  13
HETATM   13  C12 UNL     1       3.261   0.328   1.080  1.00  0.00     0.001 C 
BRANCH  13  14
HETATM   14  C13 UNL     1       4.764   0.273   1.144  1.00  0.00     0.000 C 
BRANCH  14  15
HETATM   15  C14 UNL     1       5.374   0.787  -0.136  1.00  0.00     0.000 C 
BRANCH  15  16
HETATM   16  C15 UNL     1       6.881   0.701  -0.004  1.00  0.00     0.004 C 
BRANCH  16  17
HETATM   17  C16 UNL     1       7.380  -0.691   0.227  1.00  0.00    -0.014 C 
HETATM   18  C17 UNL     1       7.019  -1.640  -0.889  1.00  0.00     0.004 C 
HETATM   19  C18 UNL     1       8.085  -1.413  -1.946  1.00  0.00     0.000 C 
HETATM   20  C19 UNL     1       9.321  -1.070  -1.173  1.00  0.00     0.000 C 
HETATM   21  C20 UNL     1       8.898  -0.634   0.200  1.00  0.00     0.004 C 
ENDBRANCH  16  17
ENDBRANCH  15  16
ENDBRANCH  14  15
ENDBRANCH  13  14
ENDBRANCH  12  13
ENDBRANCH  11  12
ENDBRANCH  10  11
ENDBRANCH   9  10
ENDBRANCH   1   9
BRANCH   1  22
HETATM   22  C21 UNL     1      -3.106   0.300   0.612  1.00  0.00     0.248 C 
HETATM   23  O1  UNL     1      -3.814  -0.592   1.187  1.00  0.00    -0.268 OA
HETATM   24  N1  UNL     1      -3.691   1.509   0.250  1.00  0.00    -0.347 N 
ATOM     25  H1  UNL     1      -3.142   2.236  -0.209  1.00  0.00     0.163 HD
BRANCH  24  26
HETATM   26  C22 UNL     1      -5.117   1.718   0.543  1.00  0.00     0.147 C 
HETATM   27  C23 UNL     1      -5.839   1.860  -0.774  1.00  0.00     0.174 C 
HETATM   28  C24 UNL     1      -7.222   2.402  -0.607  1.00  0.00     0.180 C 
HETATM   29  C25 UNL     1      -7.104   3.780   0.010  1.00  0.00     0.180 C 
HETATM   30  C26 UNL     1      -6.517   3.640   1.378  1.00  0.00     0.180 C 
HETATM   31  C27 UNL     1      -5.216   2.914   1.427  1.00  0.00     0.174 C 
BRANCH  27  32
HETATM   32  O2  UNL     1      -5.943   0.566  -1.315  1.00  0.00    -0.391 OA
ATOM     33  H2  UNL     1      -6.398   0.655  -2.144  1.00  0.00     0.210 HD
ENDBRANCH  27  32
BRANCH  28  34
HETATM   34  O3  UNL     1      -7.799   2.544  -1.861  1.00  0.00    -0.390 OA
ATOM     35  H3  UNL     1      -8.678   2.888  -1.755  1.00  0.00     0.210 HD
ENDBRANCH  28  34
BRANCH  29  36
HETATM   36  O4  UNL     1      -6.239   4.510  -0.829  1.00  0.00    -0.390 OA
ATOM     37  H4  UNL     1      -6.165   5.374  -0.442  1.00  0.00     0.210 HD
ENDBRANCH  29  36
BRANCH  30  38
HETATM   38  O5  UNL     1      -7.481   3.107   2.229  1.00  0.00    -0.390 OA
ATOM     39  H5  UNL     1      -7.108   3.018   3.098  1.00  0.00     0.210 HD
ENDBRANCH  30  38
BRANCH  31  40
HETATM   40  O6  UNL     1      -5.004   2.519   2.757  1.00  0.00    -0.391 OA
ATOM     41  H6  UNL     1      -5.067   3.281   3.320  1.00  0.00     0.210 HD
ENDBRANCH  31  40
ENDBRANCH  24  26
ENDBRANCH   1  22
TORSDOF 19
