REMARK  7 active torsions:
REMARK  status: ('A' for Active; 'I' for Inactive)
REMARK    1  A    between atoms: N1_2  and  C3_4 
REMARK    2  A    between atoms: C5_9  and  C6_10 
REMARK    3  A    between atoms: C6_10  and  C7_11 
REMARK    4  A    between atoms: C7_11  and  C8_12 
REMARK    5  A    between atoms: C8_12  and  C9_13 
REMARK    6  A    between atoms: C13_17  and  N4_18 
REMARK    7  A    between atoms: N4_18  and  C14_20 
ROOT
HETATM    1  C3  UNL     1      -0.705   3.122  -0.338  1.00  0.00     0.682 A 
HETATM    2  N2  UNL     1       0.658   3.103  -0.253  1.00  0.00    -0.178 N 
ATOM      3  H2  UNL     1       1.161   3.973  -0.430  1.00  0.00     0.185 HD
HETATM    4  C4  UNL     1       1.375   2.014   0.048  1.00  0.00     0.141 A 
HETATM    5  N3  UNL     1       2.805   2.081   0.124  1.00  0.00    -0.081 NA
HETATM    6  C5  UNL     1       0.690   0.841   0.286  1.00  0.00     0.028 A 
HETATM    7  C13 UNL     1      -0.704   0.812   0.211  1.00  0.00     0.127 A 
HETATM    8  N5  UNL     1      -1.335   1.958  -0.098  1.00  0.00    -0.176 N 
ATOM      9  H5  UNL     1      -2.353   1.944  -0.154  1.00  0.00     0.186 HD
ENDROOT
BRANCH   7  10
HETATM   10  N4  UNL     1      -1.334  -0.259   0.429  1.00  0.00    -0.371 N 
ATOM     11  H4  UNL     1      -0.764  -1.073   0.658  1.00  0.00     0.161 HD
BRANCH  10  12
HETATM   12  C14 UNL     1      -2.750  -0.475   0.395  1.00  0.00     0.083 C 
HETATM   13  C15 UNL     1      -3.055  -1.560   1.428  1.00  0.00     0.025 C 
HETATM   14  C16 UNL     1      -4.508  -1.966   1.372  1.00  0.00     0.002 C 
HETATM   15  C17 UNL     1      -4.769  -2.667   0.059  1.00  0.00     0.000 C 
HETATM   16  C18 UNL     1      -3.669  -2.402  -0.939  1.00  0.00     0.002 C 
HETATM   17  C19 UNL     1      -3.221  -0.962  -0.962  1.00  0.00     0.025 C 
ENDBRANCH  10  12
ENDBRANCH   7  10
BRANCH   6  18
HETATM   18  C6  UNL     1       1.422  -0.399   0.592  1.00  0.00     0.046 C 
BRANCH  18  19
HETATM   19  C7  UNL     1       1.979  -1.074  -0.625  1.00  0.00     0.005 C 
BRANCH  19  20
HETATM   20  C8  UNL     1       2.706  -2.338  -0.255  1.00  0.00     0.005 C 
BRANCH  20  21
HETATM   21  C9  UNL     1       3.866  -1.999   0.656  1.00  0.00    -0.014 C 
HETATM   22  C10 UNL     1       4.881  -1.074   0.055  1.00  0.00     0.005 C 
HETATM   23  C11 UNL     1       5.966  -2.058   0.412  1.00  0.00     0.001 C 
HETATM   24  C12 UNL     1       4.905  -3.083   0.713  1.00  0.00     0.005 C 
ENDBRANCH  20  21
ENDBRANCH  19  20
ENDBRANCH  18  19
ENDBRANCH   6  18
BRANCH   1  25
HETATM   25  N1  UNL     1      -1.376   4.333  -0.662  1.00  0.00    -0.226 N 
HETATM   26  C1  UNL     1      -0.606   5.546  -0.837  1.00  0.00     0.168 C 
HETATM   27  C2  UNL     1      -2.801   4.391  -0.833  1.00  0.00     0.168 C 
ENDBRANCH   1  25
TORSDOF 7
