REMARK  10 active torsions:
REMARK  status: ('A' for Active; 'I' for Inactive)
REMARK    1  A    between atoms: C2_2  and  N1_4 
REMARK    2  A    between atoms: N1_4  and  C4_5 
REMARK    3  A    between atoms: N1_4  and  C9_15 
REMARK    4  A    between atoms: C4_5  and  O1_6 
REMARK    5  A    between atoms: C4_5  and  C5_8 
REMARK    6  A    between atoms: C8_12  and  O2_13 
REMARK    7  A    between atoms: C9_15  and  C17_27 
REMARK    8  A    between atoms: C10_16  and  O3_17 
REMARK    9  A    between atoms: C10_16  and  N2_19 
REMARK   10  A    between atoms: N2_19  and  C11_21 
ROOT
HETATM    1  C9  UNL     1      -0.686  -0.993   0.580  1.00  0.00     0.072 C 
HETATM    2  C10 UNL     1       0.589  -0.546   0.089  1.00  0.00     0.160 C 
ENDROOT
BRANCH   1   3
HETATM    3  N1  UNL     1      -1.608  -1.265  -0.483  1.00  0.00    -0.322 N 
BRANCH   3   4
HETATM    4  C2  UNL     1      -1.962  -2.704  -0.722  1.00  0.00     0.084 C 
HETATM    5  C1  UNL     1      -1.517  -3.089  -2.131  1.00  0.00     0.032 C 
HETATM    6  C3  UNL     1      -3.429  -2.947  -0.549  1.00  0.00     0.032 C 
ENDBRANCH   3   4
BRANCH   3   7
HETATM    7  C4  UNL     1      -2.314  -0.440  -1.361  1.00  0.00     0.163 C 
BRANCH   7   8
HETATM    8  O1  UNL     1      -3.183  -1.009  -2.159  1.00  0.00    -0.345 OA
ATOM      9  H1  UNL     1      -3.663  -0.448  -2.756  1.00  0.00     0.219 HD
ENDBRANCH   7   8
BRANCH   7  10
HETATM   10  C5  UNL     1      -2.259   1.001  -1.569  1.00  0.00     0.089 A 
HETATM   11  S1  UNL     1      -1.016   2.142  -1.218  1.00  0.00    -0.095 SA
HETATM   12  C6  UNL     1      -1.690   3.542  -1.882  1.00  0.00     0.053 A 
HETATM   13  C7  UNL     1      -2.877   3.092  -2.366  1.00  0.00     0.045 A 
HETATM   14  C8  UNL     1      -3.186   1.791  -2.214  1.00  0.00     0.087 A 
BRANCH  14  15
HETATM   15  O2  UNL     1      -4.438   1.327  -2.723  1.00  0.00    -0.359 OA
ATOM     16  H2  UNL     1      -5.077   1.872  -3.168  1.00  0.00     0.217 HD
ENDBRANCH  14  15
ENDBRANCH   7  10
ENDBRANCH   3   7
ENDBRANCH   1   3
BRANCH   1  17
HETATM   17  C17 UNL     1      -1.256  -0.601   1.866  1.00  0.00    -0.004 C 
HETATM   18  C18 UNL     1      -2.113   0.625   1.975  1.00  0.00     0.021 C 
HETATM   19  C19 UNL     1      -2.192  -1.726   2.414  1.00  0.00     0.021 C 
HETATM   20  C20 UNL     1      -0.253  -0.463   3.006  1.00  0.00     0.021 C 
ENDBRANCH   1  17
BRANCH   2  21
HETATM   21  O3  UNL     1       0.860  -0.872  -1.147  1.00  0.00    -0.345 OA
ATOM     22  H3  UNL     1       1.703  -0.577  -1.471  1.00  0.00     0.219 HD
ENDBRANCH   2  21
BRANCH   2  23
HETATM   23  N2  UNL     1       1.647   0.175   0.630  1.00  0.00    -0.365 N 
ATOM     24  H2  UNL     1       1.561   0.494   1.595  1.00  0.00     0.162 HD
BRANCH  23  25
HETATM   25  C11 UNL     1       2.880   0.509  -0.093  1.00  0.00     0.083 C 
HETATM   26  C12 UNL     1       4.096  -0.058   0.564  1.00  0.00     0.025 C 
HETATM   27  C13 UNL     1       5.063   1.006   1.031  1.00  0.00     0.002 C 
HETATM   28  C14 UNL     1       5.481   1.891  -0.127  1.00  0.00     0.000 C 
HETATM   29  C15 UNL     1       4.308   2.244  -1.020  1.00  0.00     0.002 C 
HETATM   30  C16 UNL     1       3.029   2.005  -0.244  1.00  0.00     0.025 C 
ENDBRANCH  23  25
ENDBRANCH   2  23
TORSDOF 10
