REMARK  7 active torsions:
REMARK  status: ('A' for Active; 'I' for Inactive)
REMARK    1  A    between atoms: C2_2  and  C3_3 
REMARK    2  A    between atoms: C8_8  and  N1_9 
REMARK       I    between atoms: N1_9  and  C9_11 
REMARK    3  A    between atoms: C9_11  and  C10_13 
REMARK    4  A    between atoms: C10_13  and  N2_14 
REMARK       I    between atoms: N2_14  and  C11_16 
REMARK    5  A    between atoms: C11_16  and  O3_18 
REMARK    6  A    between atoms: O3_18  and  C12_19 
REMARK    7  A    between atoms: C12_19  and  C13_20 
ROOT
HETATM    1  N1  UNL     1      -1.567  -0.800   0.864  1.00  0.00    -0.355 N 
ATOM      2  H1  UNL     1      -1.072   0.064   0.642  1.00  0.00     0.162 HD
HETATM    3  C9  UNL     1      -1.197  -1.535   1.979  1.00  0.00     0.235 C 
HETATM    4  O1  UNL     1      -1.818  -2.600   2.260  1.00  0.00    -0.272 OA
ENDROOT
BRANCH   3   5
HETATM    5  C10 UNL     1      -0.111  -1.155   2.885  1.00  0.00     0.227 C 
BRANCH   5   6
HETATM    6  N2  UNL     1       0.636   0.013   2.515  1.00  0.00    -0.328 N 
HETATM    7  C11 UNL     1       1.415   0.043   1.330  1.00  0.00     0.360 C 
HETATM    8  O2  UNL     1       1.459  -0.977   0.598  1.00  0.00    -0.239 OA
ATOM      9  H2  UNL     1       0.606   0.837   3.115  1.00  0.00     0.165 HD
BRANCH   7  10
HETATM   10  O3  UNL     1       2.138   1.142   0.925  1.00  0.00    -0.304 OA
BRANCH  10  11
HETATM   11  C12 UNL     1       2.924   1.248  -0.221  1.00  0.00     0.185 C 
BRANCH  11  12
HETATM   12  C13 UNL     1       4.050   0.262  -0.294  1.00  0.00     0.010 C 
HETATM   13  C14 UNL     1       4.807   0.501  -1.588  1.00  0.00     0.007 C 
HETATM   14  C15 UNL     1       6.160  -0.133  -1.244  1.00  0.00     0.000 C 
HETATM   15  C16 UNL     1       6.431   0.514   0.105  1.00  0.00     0.000 C 
HETATM   16  C17 UNL     1       5.087   0.521   0.777  1.00  0.00     0.007 C 
ENDBRANCH  11  12
ENDBRANCH  10  11
ENDBRANCH   7  10
ENDBRANCH   5   6
ENDBRANCH   3   5
BRANCH   1  17
HETATM   17  C8  UNL     1      -2.646  -1.244   0.013  1.00  0.00     0.088 C 
HETATM   18  C3  UNL     1      -3.753  -0.218  -0.087  1.00  0.00     0.012 C 
HETATM   19  C4  UNL     1      -3.399   0.722  -1.193  1.00  0.00    -0.013 C 
HETATM   20  C5  UNL     1      -2.897   2.055  -0.701  1.00  0.00     0.010 C 
HETATM   21  C6  UNL     1      -2.356   0.019  -2.036  1.00  0.00     0.007 C 
HETATM   22  C7  UNL     1      -2.193  -1.353  -1.440  1.00  0.00     0.026 C 
BRANCH  18  23
HETATM   23  C2  UNL     1      -5.005  -0.985  -0.509  1.00  0.00     0.002 C 
HETATM   24  C1  UNL     1      -6.165  -0.083  -0.765  1.00  0.00     0.005 C 
ENDBRANCH  18  23
ENDBRANCH   1  17
TORSDOF 7
