REMARK  9 active torsions:
REMARK  status: ('A' for Active; 'I' for Inactive)
REMARK       I    between atoms: N1_2  and  C2_4 
REMARK    1  A    between atoms: C2_4  and  C3_6 
REMARK    2  A    between atoms: C6_9  and  N2_10 
REMARK    3  A    between atoms: N2_10  and  C7_12 
REMARK    4  A    between atoms: C7_12  and  N3_14 
REMARK    5  A    between atoms: N3_14  and  C8_16 
REMARK    6  A    between atoms: C11_19  and  S2_20 
REMARK    7  A    between atoms: S2_20  and  N4_23 
REMARK    8  A    between atoms: N4_23  and  C12_25 
REMARK    9  A    between atoms: C15_28  and  C16_29 
ROOT
HETATM    1  C8  UNL     1      -0.654  -0.504   0.061  1.00  0.00     0.034 A 
HETATM    2  C9  UNL     1      -1.689  -1.121  -0.639  1.00  0.00     0.031 A 
HETATM    3  C10 UNL     1      -2.564  -0.370  -1.349  1.00  0.00     0.027 A 
HETATM    4  C11 UNL     1      -2.452   1.003  -1.395  1.00  0.00     0.080 A 
HETATM    5  C19 UNL     1      -1.430   1.599  -0.704  1.00  0.00     0.027 A 
HETATM    6  C20 UNL     1      -0.523   0.872   0.028  1.00  0.00     0.031 A 
ENDROOT
BRANCH   1   7
HETATM    7  N3  UNL     1       0.178  -1.357   0.809  1.00  0.00    -0.333 N 
ATOM      8  H3  UNL     1      -0.268  -2.065   1.392  1.00  0.00     0.168 HD
BRANCH   7   9
HETATM    9  C7  UNL     1       1.570  -1.299   0.807  1.00  0.00     0.176 C 
HETATM   10  S1  UNL     1       2.369  -2.331   1.834  1.00  0.00    -0.041 SA
BRANCH   9  11
HETATM   11  N2  UNL     1       2.368  -0.428   0.056  1.00  0.00    -0.333 N 
ATOM     12  H2  UNL     1       1.882   0.236  -0.547  1.00  0.00     0.168 HD
BRANCH  11  13
HETATM   13  C6  UNL     1       3.784  -0.377   0.050  1.00  0.00     0.034 A 
HETATM   14  C5  UNL     1       4.628  -1.455   0.113  1.00  0.00     0.030 A 
HETATM   15  C4  UNL     1       6.024  -1.311   0.140  1.00  0.00     0.019 A 
HETATM   16  C3  UNL     1       6.623  -0.072   0.103  1.00  0.00     0.032 A 
HETATM   17  C22 UNL     1       5.777   1.012   0.038  1.00  0.00     0.019 A 
HETATM   18  C21 UNL     1       4.412   0.885   0.011  1.00  0.00     0.030 A 
BRANCH  16  19
HETATM   19  C2  UNL     1       8.071   0.089   0.131  1.00  0.00     0.251 C 
HETATM   20  N1  UNL     1       8.971  -0.992   0.197  1.00  0.00    -0.361 N 
HETATM   21  C1  UNL     1      10.396  -0.744   0.220  1.00  0.00     0.149 C 
ATOM     22  H1  UNL     1       8.619  -1.949   0.229  1.00  0.00     0.162 HD
HETATM   23  O1  UNL     1       8.515   1.279   0.092  1.00  0.00    -0.268 OA
ENDBRANCH  16  19
ENDBRANCH  11  13
ENDBRANCH   9  11
ENDBRANCH   7   9
ENDBRANCH   1   7
BRANCH   4  24
HETATM   24  S2  UNL     1      -3.566   2.002  -2.303  1.00  0.00     0.263 S 
HETATM   25  O2  UNL     1      -2.799   3.251  -2.705  1.00  0.00    -0.200 OA
HETATM   26  O3  UNL     1      -4.002   1.229  -3.491  1.00  0.00    -0.200 OA
BRANCH  24  27
HETATM   27  N4  UNL     1      -4.902   2.489  -1.337  1.00  0.00    -0.281 N 
ATOM     28  H4  UNL     1      -5.056   3.483  -1.169  1.00  0.00     0.179 HD
BRANCH  27  29
HETATM   29  C12 UNL     1      -5.802   1.541  -0.763  1.00  0.00     0.042 A 
HETATM   30  C13 UNL     1      -6.163   1.684   0.582  1.00  0.00     0.031 A 
HETATM   31  C14 UNL     1      -7.025   0.775   1.140  1.00  0.00     0.020 A 
HETATM   32  C15 UNL     1      -7.549  -0.283   0.409  1.00  0.00     0.041 A 
HETATM   33  C17 UNL     1      -7.205  -0.438  -0.914  1.00  0.00     0.020 A 
HETATM   34  C18 UNL     1      -6.329   0.489  -1.473  1.00  0.00     0.031 A 
BRANCH  32  35
HETATM   35  C16 UNL     1      -8.449  -1.218   1.022  1.00  0.00     0.209 C 
HETATM   36  O4  UNL     1      -8.772  -1.091   2.224  1.00  0.00    -0.644 OA
HETATM   37  O5  UNL     1      -8.969  -2.268   0.295  1.00  0.00    -0.644 OA
ENDBRANCH  32  35
ENDBRANCH  27  29
ENDBRANCH  24  27
ENDBRANCH   4  24
TORSDOF 9
