REMARK  11 active torsions:
REMARK  status: ('A' for Active; 'I' for Inactive)
REMARK    1  A    between atoms: C2_4  and  O1_5 
REMARK    2  A    between atoms: C2_4  and  N2_7 
REMARK    3  A    between atoms: N2_7  and  C3_9 
REMARK    4  A    between atoms: N3_11  and  C5_13 
REMARK    5  A    between atoms: C5_13  and  C6_14 
REMARK    6  A    between atoms: C6_14  and  N4_15 
REMARK       I    between atoms: N4_15  and  C7_17 
REMARK       I    between atoms: C7_17  and  N5_19 
REMARK    7  A    between atoms: N5_19  and  C8_21 
REMARK    8  A    between atoms: C11_25  and  C12_26 
REMARK    9  A    between atoms: C15_29  and  C16_30 
REMARK   10  A    between atoms: C16_30  and  O3_31 
REMARK   11  A    between atoms: C16_30  and  C17_33 
ROOT
HETATM    1  C8  UNL     1      -0.655  -0.424   0.480  1.00  0.00     0.038 A 
HETATM    2  C9  UNL     1      -0.676  -1.370  -0.532  1.00  0.00     0.054 A 
HETATM    3  C10 UNL     1      -1.874  -1.869  -0.982  1.00  0.00     0.047 A 
HETATM    4 CL1  UNL     1      -1.771  -2.966  -2.368  1.00  0.00    -0.083 Cl
HETATM    5  C11 UNL     1      -3.116  -1.488  -0.480  1.00  0.00     0.000 A 
HETATM    6  C15 UNL     1      -3.130  -0.554   0.515  1.00  0.00     0.012 A 
HETATM    7  C24 UNL     1      -1.885  -0.053   0.963  1.00  0.00     0.044 A 
ENDROOT
BRANCH   1   8
HETATM    8  N5  UNL     1       0.575   0.009   1.015  1.00  0.00    -0.309 N 
HETATM    9  C7  UNL     1       1.777   0.271   0.332  1.00  0.00     0.324 C 
HETATM   10  N4  UNL     1       2.954   0.569   1.067  1.00  0.00    -0.321 N 
HETATM   11  O2  UNL     1       1.806   0.241  -0.905  1.00  0.00    -0.247 OA
ATOM     12  H4  UNL     1       2.874   0.557   2.084  1.00  0.00     0.169 HD
ATOM     13  H5  UNL     1       0.597   0.150   2.025  1.00  0.00     0.170 HD
BRANCH  10  14
HETATM   14  C6  UNL     1       4.221   0.880   0.537  1.00  0.00     0.085 C 
BRANCH  14  15
HETATM   15  C5  UNL     1       4.808  -0.100  -0.437  1.00  0.00     0.165 C 
BRANCH  15  16
HETATM   16  N3  UNL     1       6.135   0.338  -0.860  1.00  0.00    -0.375 N 
HETATM   17  C3  UNL     1       7.240   0.061  -0.217  1.00  0.00     0.076 C 
HETATM   18  C4  UNL     1       7.211  -0.764   1.014  1.00  0.00     0.089 C 
ATOM     19  H3  UNL     1       6.205   0.896  -1.711  1.00  0.00     0.161 HD
BRANCH  17  20
HETATM   20  N2  UNL     1       8.453   0.560  -0.747  1.00  0.00    -0.313 N 
ATOM     21  H2  UNL     1       8.385   1.082  -1.620  1.00  0.00     0.170 HD
BRANCH  20  22
HETATM   22  C2  UNL     1       9.746   0.415  -0.201  1.00  0.00     0.217 C 
HETATM   23  N1  UNL     1      10.915   0.866  -0.646  1.00  0.00    -0.361 N 
HETATM   24  C1  UNL     1      12.225   0.691  -0.093  1.00  0.00     0.150 C 
ATOM     25  H1  UNL     1      10.873   1.415  -1.504  1.00  0.00     0.162 HD
BRANCH  22  26
HETATM   26  O1  UNL     1       9.718  -0.289   0.934  1.00  0.00    -0.333 OA
ATOM     27  H1  UNL     1       8.883  -0.611   1.252  1.00  0.00     0.220 HD
ENDBRANCH  22  26
ENDBRANCH  20  22
ENDBRANCH  17  20
ENDBRANCH  15  16
ENDBRANCH  14  15
ENDBRANCH  10  14
ENDBRANCH   1   8
BRANCH   6  28
HETATM   28  C16 UNL     1      -4.288  -0.101   1.218  1.00  0.00     0.093 C 
BRANCH  28  29
HETATM   29  O3  UNL     1      -4.140  -0.378   2.524  1.00  0.00    -0.359 OA
ATOM     30  H3  UNL     1      -4.910  -0.077   2.992  1.00  0.00     0.217 HD
ENDBRANCH  28  29
BRANCH  28  31
HETATM   31  C17 UNL     1      -5.509   0.535   0.942  1.00  0.00     0.072 A 
HETATM   32  C18 UNL     1      -5.569   1.769   0.302  1.00  0.00    -0.042 A 
HETATM   33  C19 UNL     1      -4.289   2.439  -0.009  1.00  0.00     0.049 C 
HETATM   34  C20 UNL     1      -6.790   2.374   0.010  1.00  0.00     0.032 A 
HETATM   35  C21 UNL     1      -7.988   1.779   0.346  1.00  0.00     0.009 A 
HETATM   36  C22 UNL     1      -9.300   2.418   0.015  1.00  0.00     0.068 C 
HETATM   37  N6  UNL     1      -7.918   0.603   0.966  1.00  0.00    -0.327 N 
HETATM   38  C23 UNL     1      -6.765   0.018   1.247  1.00  0.00     0.259 A 
ATOM     39  H6  UNL     1      -8.784   0.136   1.234  1.00  0.00     0.169 HD
HETATM   40  O4  UNL     1      -6.783  -1.093   1.834  1.00  0.00    -0.267 OA
ENDBRANCH  28  31
ENDBRANCH   6  28
BRANCH   5  41
HETATM   41  C12 UNL     1      -4.255  -2.343  -0.885  1.00  0.00    -0.075 C 
HETATM   42  C13 UNL     1      -5.350  -1.689  -1.600  1.00  0.00     0.044 C 
HETATM   43  C14 UNL     1      -3.987  -3.779  -1.161  1.00  0.00     0.044 C 
ENDBRANCH   5  41
TORSDOF 11
