REMARK  4 active torsions:
REMARK  status: ('A' for Active; 'I' for Inactive)
REMARK    1  A    between atoms: C2_2  and  N1_4 
REMARK       I    between atoms: N1_4  and  C4_6 
REMARK    2  A    between atoms: C4_6  and  O2_8 
REMARK    3  A    between atoms: O2_8  and  N2_9 
REMARK       I    between atoms: N2_9  and  C5_11 
REMARK    4  A    between atoms: C5_11  and  C6_13 
ROOT
HETATM    1  N2  UNL     1       0.028  -0.435  -0.909  1.00  0.00    -0.224 N 
ATOM      2  H2  UNL     1      -0.360  -1.228  -1.419  1.00  0.00     0.198 HD
HETATM    3  C5  UNL     1      -0.751   0.179   0.100  1.00  0.00     0.250 C 
HETATM    4  O3  UNL     1      -0.301   1.170   0.756  1.00  0.00    -0.271 OA
ENDROOT
BRANCH   1   5
HETATM    5  O2  UNL     1       1.267  -0.004  -1.217  1.00  0.00    -0.178 OA
BRANCH   5   6
HETATM    6  C4  UNL     1       2.352  -0.063  -0.367  1.00  0.00     0.383 C 
HETATM    7  N1  UNL     1       3.639   0.398  -0.729  1.00  0.00    -0.331 N 
ATOM      8  H1  UNL     1       3.776   0.788  -1.661  1.00  0.00     0.165 HD
HETATM    9  O1  UNL     1       2.191  -0.544   0.782  1.00  0.00    -0.236 OA
BRANCH   7  10
HETATM   10  C2  UNL     1       4.759   0.338   0.166  1.00  0.00     0.078 C 
HETATM   11  C1  UNL     1       5.727  -0.764  -0.277  1.00  0.00     0.032 C 
HETATM   12  C3  UNL     1       5.548   1.613   0.251  1.00  0.00     0.032 C 
ENDBRANCH   7  10
ENDBRANCH   5   6
ENDBRANCH   1   5
BRANCH   3  13
HETATM   13  C6  UNL     1      -2.115  -0.279   0.458  1.00  0.00     0.039 C 
HETATM   14  C7  UNL     1      -1.974  -1.269   1.588  1.00  0.00     0.025 C 
HETATM   15  C8  UNL     1      -2.948   0.898   0.844  1.00  0.00     0.019 C 
HETATM   16  C9  UNL     1      -3.868   1.328  -0.299  1.00  0.00     0.001 C 
HETATM   17  C10 UNL     1      -4.913   0.260  -0.575  1.00  0.00     0.000 C 
HETATM   18  C11 UNL     1      -4.253  -1.101  -0.406  1.00  0.00     0.001 C 
HETATM   19  C12 UNL     1      -2.782  -0.970  -0.722  1.00  0.00     0.019 C 
ENDBRANCH   3  13
TORSDOF 4
