REMARK  6 active torsions:
REMARK  status: ('A' for Active; 'I' for Inactive)
REMARK    1  A    between atoms: O1_2  and  C2_3 
REMARK    2  A    between atoms: C7_9  and  O2_10 
REMARK    3  A    between atoms: C16_21  and  N1_22 
REMARK       I    between atoms: N1_22  and  C17_24 
REMARK    4  A    between atoms: C17_24  and  C18_26 
REMARK    5  A    between atoms: C18_26  and  O6_28 
REMARK    6  A    between atoms: O6_28  and  C19_29 
ROOT
HETATM    1  C2  UNL     1      -2.977  -1.871   0.126  1.00  0.00     0.103 A 
HETATM    2  C3  UNL     1      -2.016  -0.947   0.464  1.00  0.00     0.050 A 
HETATM    3  C4  UNL     1      -1.507  -0.044  -0.443  1.00  0.00    -0.013 A 
HETATM    4  C5  UNL     1      -1.974  -0.064  -1.736  1.00  0.00    -0.024 A 
HETATM    5  C6  UNL     1      -2.956  -1.015  -2.062  1.00  0.00     0.054 A 
HETATM    6 BR1  UNL     1      -3.610  -1.049  -3.858  1.00  0.00    -0.047 Br
HETATM    7  C7  UNL     1      -3.465  -1.914  -1.163  1.00  0.00     0.119 A 
HETATM    8  C9  UNL     1      -1.511   0.847  -2.813  1.00  0.00     0.094 C 
HETATM    9  C10 UNL     1      -0.849   2.035  -2.216  1.00  0.00     0.048 C 
HETATM   10 CL1  UNL     1      -0.700   3.444  -3.298  1.00  0.00    -0.086 Cl
HETATM   11  C11 UNL     1      -0.395   2.078  -0.990  1.00  0.00     0.098 C 
HETATM   12  O3  UNL     1       0.240   3.090  -0.276  1.00  0.00    -0.341 OA
HETATM   13  C12 UNL     1      -0.183   3.018   1.090  1.00  0.00     0.063 C 
HETATM   14  C13 UNL     1      -1.068   4.232   1.320  1.00  0.00     0.046 C 
HETATM   15  C14 UNL     1       1.031   3.006   1.960  1.00  0.00     0.046 C 
HETATM   16  C15 UNL     1      -1.010   1.753   1.187  1.00  0.00     0.081 C 
HETATM   17  C16 UNL     1      -0.486   0.922  -0.025  1.00  0.00     0.114 C 
ENDROOT
BRANCH  17  18
HETATM   18  N1  UNL     1       0.769   0.389   0.368  1.00  0.00    -0.333 N 
HETATM   19  C17 UNL     1       1.764  -0.166  -0.463  1.00  0.00     0.318 C 
HETATM   20  O4  UNL     1       1.676  -0.268  -1.705  1.00  0.00    -0.262 OA
ATOM     21  H1  UNL     1       0.975   0.410   1.367  1.00  0.00     0.164 HD
BRANCH  19  22
HETATM   22  C18 UNL     1       3.024  -0.680   0.111  1.00  0.00     0.353 C 
HETATM   23  O5  UNL     1       3.231  -0.631   1.369  1.00  0.00    -0.254 OA
BRANCH  22  24
HETATM   24  O6  UNL     1       4.031  -1.233  -0.657  1.00  0.00    -0.287 OA
BRANCH  24  25
HETATM   25  C19 UNL     1       5.234  -1.716  -0.037  1.00  0.00     0.139 C 
HETATM   26  C20 UNL     1       6.183  -2.270  -1.050  1.00  0.00     0.064 C 
HETATM   27  C21 UNL     1       5.832  -0.539   0.707  1.00  0.00     0.064 C 
HETATM   28 CL2  UNL     1       4.832  -3.002   1.114  1.00  0.00    -0.088 Cl
ENDBRANCH  24  25
ENDBRANCH  22  24
ENDBRANCH  19  22
ENDBRANCH  17  18
BRANCH   1  29
HETATM   29  O1  UNL     1      -3.425  -2.734   1.108  1.00  0.00    -0.353 OA
HETATM   30  C1  UNL     1      -2.963  -2.729   2.425  1.00  0.00     0.210 C 
ENDBRANCH   1  29
BRANCH   7  31
HETATM   31  O2  UNL     1      -4.434  -2.831  -1.543  1.00  0.00    -0.352 OA
HETATM   32  C8  UNL     1      -5.825  -2.532  -1.446  1.00  0.00     0.210 C 
ENDBRANCH   7  31
TORSDOF 6
