REMARK  9 active torsions:
REMARK  status: ('A' for Active; 'I' for Inactive)
REMARK    1  A    between atoms: N1_2  and  C2_4 
REMARK    2  A    between atoms: C3_7  and  N3_8 
REMARK    3  A    between atoms: N3_8  and  C4_10 
REMARK    4  A    between atoms: C5_13  and  N5_14 
REMARK    5  A    between atoms: C6_17  and  C7_18 
REMARK    6  A    between atoms: C7_18  and  C8_19 
REMARK    7  A    between atoms: C7_18  and  C10_23 
REMARK    8  A    between atoms: C8_19  and  S1_20 
REMARK       I    between atoms: C10_23  and  N7_25 
REMARK    9  A    between atoms: C14_36  and  N11_37 
ROOT
HETATM    1  S1  UNL     1      -4.720   2.111  -1.301  1.00  0.00    -0.046 SA
HETATM    2  C9  UNL     1      -4.720   3.858  -1.636  1.00  0.00     0.133 C 
HETATM    3  N6  UNL     1      -4.716   4.984  -1.811  1.00  0.00    -0.184 NA
ENDROOT
BRANCH   1   4
HETATM    4  C8  UNL     1      -3.033   1.649  -0.932  1.00  0.00     0.135 C 
BRANCH   4   5
HETATM    5  C7  UNL     1      -2.950   0.277  -0.187  1.00  0.00     0.038 C 
BRANCH   5   6
HETATM    6  C6  UNL     1      -1.505   0.057   0.070  1.00  0.00     0.027 A 
HETATM    7  C5  UNL     1      -0.926   0.128   1.335  1.00  0.00     0.112 A 
HETATM    8  N4  UNL     1       0.356  -0.105   1.621  1.00  0.00    -0.322 N 
HETATM    9  C4  UNL     1       1.381  -0.445   0.830  1.00  0.00     0.165 A 
ATOM     10  H4  UNL     1       0.595  -0.008   2.608  1.00  0.00     0.169 HD
HETATM   11  S2  UNL     1       0.896  -0.605  -0.817  1.00  0.00    -0.064 SA
HETATM   12  C13 UNL     1      -0.740  -0.293  -1.053  1.00  0.00     0.069 A 
BRANCH   7  13
HETATM   13  N5  UNL     1      -1.660   0.563   2.290  1.00  0.00    -0.385 N 
ATOM     14  H52 UNL     1      -1.236   0.615   3.216  1.00  0.00     0.157 HD
ATOM     15  H51 UNL     1      -2.640   0.741   2.071  1.00  0.00     0.157 HD
ENDBRANCH   7  13
BRANCH   9  16
HETATM   16  N3  UNL     1       2.535  -0.566   1.297  1.00  0.00    -0.169 N 
ATOM     17  H3  UNL     1       2.533  -0.382   2.300  1.00  0.00     0.186 HD
BRANCH  16  18
HETATM   18  C3  UNL     1       3.779  -0.865   0.878  1.00  0.00     0.713 A 
HETATM   19  N2  UNL     1       4.540   0.040   0.225  1.00  0.00    -0.021 N 
HETATM   20  C2  UNL     1       5.784  -0.180  -0.158  1.00  0.00     0.706 A 
ATOM     21  H2  UNL     1       4.128   0.949   0.015  1.00  0.00     0.203 HD
HETATM   22  N12 UNL     1       6.301  -1.405   0.138  1.00  0.00    -0.022 N 
HETATM   23  C14 UNL     1       5.602  -2.345   0.782  1.00  0.00     0.705 A 
ATOM     24  H12 UNL     1       7.259  -1.613  -0.143  1.00  0.00     0.203 HD
HETATM   25  N10 UNL     1       4.354  -2.054   1.140  1.00  0.00    -0.021 N 
ATOM     26  H10 UNL     1       3.810  -2.761   1.634  1.00  0.00     0.203 HD
BRANCH  20  27
HETATM   27  N1  UNL     1       6.564   0.649  -0.771  1.00  0.00    -0.229 N 
HETATM   28  C1  UNL     1       6.176   1.982  -1.132  1.00  0.00     0.165 C 
ATOM     29  H1  UNL     1       7.506   0.339  -1.011  1.00  0.00     0.177 HD
ENDBRANCH  20  27
BRANCH  23  30
HETATM   30  N11 UNL     1       6.072  -3.525   1.054  1.00  0.00    -0.234 N 
ATOM     31 2H11 UNL     1       5.539  -4.242   1.545  1.00  0.00     0.174 HD
ATOM     32 1H11 UNL     1       7.029  -3.748   0.780  1.00  0.00     0.174 HD
ENDBRANCH  23  30
ENDBRANCH  16  18
ENDBRANCH   9  16
ENDBRANCH   5   6
BRANCH   5  33
HETATM   33  C10 UNL     1      -4.030   0.005   0.697  1.00  0.00     0.289 C 
HETATM   34  O1  UNL     1      -4.098   0.307   1.934  1.00  0.00    -0.264 OA
HETATM   35  N7  UNL     1      -5.232  -0.673   0.265  1.00  0.00    -0.157 N 
HETATM   36  N8  UNL     1      -5.500  -1.104  -0.938  1.00  0.00    -0.286 N 
HETATM   37  N9  UNL     1      -6.262  -1.008   1.050  1.00  0.00    -0.286 N 
HETATM   38  C11 UNL     1      -6.684  -1.722  -0.965  1.00  0.00     0.128 A 
ATOM     39  H8  UNL     1      -4.889  -0.985  -1.746  1.00  0.00     0.188 HD
HETATM   40  C12 UNL     1      -7.168  -1.653   0.321  1.00  0.00     0.128 A 
ATOM     41  H9  UNL     1      -6.340  -0.802   2.046  1.00  0.00     0.188 HD
ENDBRANCH   5  33
ENDBRANCH   4   5
ENDBRANCH   1   4
TORSDOF 9
