REMARK  3 active torsions:
REMARK  status: ('A' for Active; 'I' for Inactive)
REMARK    1  A    between atoms: C2_2  and  C3_3 
REMARK       I    between atoms: C3_3  and  N1_5 
REMARK    2  A    between atoms: N1_5  and  C4_7 
REMARK    3  A    between atoms: C4_7  and  C5_8 
ROOT
HETATM    1  C5  UNL     1      -0.219   0.541   0.420  1.00  0.00     0.241 C 
HETATM    2  C6  UNL     1      -0.017  -0.672   1.284  1.00  0.00     0.040 C 
HETATM    3  C7  UNL     1      -1.355  -1.399   1.107  1.00  0.00     0.038 C 
HETATM    4  C8  UNL     1      -2.301  -0.269   0.913  1.00  0.00     0.223 C 
HETATM    5  C9  UNL     1      -3.529  -0.614   0.122  1.00  0.00     0.037 C 
HETATM    6  C10 UNL     1      -3.410   0.093  -1.211  1.00  0.00     0.032 C 
HETATM    7  C11 UNL     1      -1.912   0.371  -1.287  1.00  0.00     0.273 C 
HETATM    8  N2  UNL     1      -1.585   0.640   0.071  1.00  0.00     0.099 N 
ENDROOT
BRANCH   1   9
HETATM    9  C4  UNL     1       0.740   0.516  -0.720  1.00  0.00     0.158 C 
BRANCH   9  10
HETATM   10  N1  UNL     1       2.099   0.513  -0.183  1.00  0.00    -0.356 N 
HETATM   11  C3  UNL     1       3.237   0.490  -1.042  1.00  0.00     0.240 C 
HETATM   12  O1  UNL     1       3.038   0.473  -2.313  1.00  0.00    -0.269 OA
ATOM     13  H1  UNL     1       2.237   0.528   0.828  1.00  0.00     0.162 HD
BRANCH  11  14
HETATM   14  C2  UNL     1       4.610   0.485  -0.616  1.00  0.00     0.064 C 
HETATM   15  C1  UNL     1       4.917   0.502   0.660  1.00  0.00     0.017 C 
ENDBRANCH  11  14
ENDBRANCH   9  10
ENDBRANCH   1   9
TORSDOF 3
