REMARK  3 active torsions:
REMARK  status: ('A' for Active; 'I' for Inactive)
REMARK    1  A    between atoms: C3_3  and  N1_4 
REMARK       I    between atoms: N1_4  and  C4_6 
REMARK    2  A    between atoms: C4_6  and  C5_8 
REMARK    3  A    between atoms: C11_14  and  C12_15 
ROOT
HETATM    1  C1  UNL     1       5.379   1.094   0.713  1.00  0.00     0.014 C 
HETATM    2  C2  UNL     1       4.656   0.489  -0.037  1.00  0.00    -0.098 C 
HETATM    3  C3  UNL     1       3.745  -0.247  -0.948  1.00  0.00     0.216 C 
ENDROOT
BRANCH   3   4
HETATM    4  N1  UNL     1       2.420  -0.238  -0.372  1.00  0.00    -0.350 N 
HETATM    5  C4  UNL     1       1.349  -0.877  -1.045  1.00  0.00     0.222 C 
HETATM    6  O1  UNL     1       1.607  -1.438  -2.141  1.00  0.00    -0.273 OA
ATOM      7  H1  UNL     1       2.255   0.229   0.520  1.00  0.00     0.163 HD
BRANCH   5   8
HETATM    8  C5  UNL     1      -0.030  -0.896  -0.495  1.00  0.00     0.082 C 
HETATM    9  C6  UNL     1      -0.077  -1.572   0.865  1.00  0.00     0.015 C 
HETATM   10  C7  UNL     1      -1.480  -1.369   1.401  1.00  0.00     0.006 C 
HETATM   11  C8  UNL     1      -1.931   0.036   1.179  1.00  0.00    -0.006 C 
HETATM   12  C9  UNL     1      -0.731   0.979   1.017  1.00  0.00     0.011 C 
HETATM   13  C11 UNL     1      -2.169   0.241  -0.323  1.00  0.00     0.016 C 
HETATM   14  C10 UNL     1      -0.653   0.464  -0.424  1.00  0.00     0.007 C 
BRANCH  13  15
HETATM   15  C12 UNL     1      -2.978   1.419  -0.645  1.00  0.00    -0.031 C 
HETATM   16  C13 UNL     1      -3.861   1.383  -1.661  1.00  0.00     0.007 C 
ENDBRANCH  13  15
ENDBRANCH   5   8
ENDBRANCH   3   4
TORSDOF 3
