REMARK  10 active torsions:
REMARK  status: ('A' for Active; 'I' for Inactive)
REMARK    1  A    between atoms: C1_2  and  N1_3 
REMARK    2  A    between atoms: N1_3  and  C2_5 
REMARK    3  A    between atoms: C2_5  and  C3_6 
REMARK    4  A    between atoms: C3_6  and  C4_7 
REMARK    5  A    between atoms: C4_7  and  N2_8 
REMARK    6  A    between atoms: N3_11  and  C7_12 
REMARK    7  A    between atoms: C7_12  and  C8_13 
REMARK    8  A    between atoms: C8_13  and  C9_14 
REMARK    9  A    between atoms: C9_14  and  N4_15 
REMARK   10  A    between atoms: N4_15  and  C10_18 
ROOT
HETATM    1  N2  UNL     1      -2.370  -0.227  -0.454  1.00  0.00    -0.040 N 
HETATM    2  C5  UNL     1      -1.794   1.060  -0.223  1.00  0.00     0.267 C 
HETATM    3  C6  UNL     1      -0.286   0.837  -0.445  1.00  0.00     0.267 C 
HETATM    4  N3  UNL     1      -0.217  -0.533  -0.776  1.00  0.00    -0.040 N 
HETATM    5  C15 UNL     1      -0.536  -1.288   0.428  1.00  0.00     0.267 C 
HETATM    6  C16 UNL     1      -2.025  -1.114   0.631  1.00  0.00     0.267 C 
HETATM    7  C17 UNL     1      -1.498  -0.718  -1.505  1.00  0.00     0.473 C 
ENDROOT
BRANCH   4   8
HETATM    8  C7  UNL     1       0.863  -1.068  -1.470  1.00  0.00     0.241 C 
BRANCH   8   9
HETATM    9  C8  UNL     1       1.926  -0.209  -1.998  1.00  0.00     0.055 C 
BRANCH   9  10
HETATM   10  C9  UNL     1       2.743   0.579  -1.018  1.00  0.00     0.234 C 
BRANCH  10  11
HETATM   11  N4  UNL     1       3.403  -0.294  -0.059  1.00  0.00    -0.071 N 
ATOM     12  H42 UNL     1       2.743  -0.917   0.406  1.00  0.00     0.277 HD
ATOM     13  H41 UNL     1       3.977  -1.000  -0.519  1.00  0.00     0.277 HD
BRANCH  11  14
HETATM   14  C10 UNL     1       4.154   0.477   0.874  1.00  0.00     0.185 C 
HETATM   15  C11 UNL     1       5.276   1.277   0.281  1.00  0.00     0.033 C 
HETATM   16  C12 UNL     1       6.255   0.168  -0.094  1.00  0.00     0.002 C 
HETATM   17  C13 UNL     1       6.083  -0.872   1.004  1.00  0.00     0.002 C 
HETATM   18  C14 UNL     1       4.914  -0.421   1.836  1.00  0.00     0.033 C 
ENDBRANCH  11  14
ENDBRANCH  10  11
ENDBRANCH   9  10
ENDBRANCH   8   9
ENDBRANCH   4   8
BRANCH   1  19
HETATM   19  C4  UNL     1      -3.746  -0.236  -0.817  1.00  0.00     0.241 C 
BRANCH  19  20
HETATM   20  C3  UNL     1      -4.637   0.494   0.159  1.00  0.00     0.048 C 
BRANCH  20  21
HETATM   21  C2  UNL     1      -6.044   0.379  -0.384  1.00  0.00     0.123 C 
BRANCH  21  22
HETATM   22  N1  UNL     1      -7.047   1.017   0.402  1.00  0.00    -0.368 N 
ATOM     23  H1  UNL     1      -7.592   1.768  -0.021  1.00  0.00     0.161 HD
BRANCH  22  24
HETATM   24  C1  UNL     1      -7.320   0.660   1.731  1.00  0.00     0.348 C 
HETATM   25  O1  UNL     1      -6.716  -0.237   2.329  1.00  0.00    -0.284 OA
ENDBRANCH  22  24
ENDBRANCH  21  22
ENDBRANCH  20  21
ENDBRANCH  19  20
ENDBRANCH   1  19
TORSDOF 10
