REMARK  6 active torsions:
REMARK  status: ('A' for Active; 'I' for Inactive)
REMARK    1  A    between atoms: C2_2  and  N1_3 
REMARK    2  A    between atoms: C2_2  and  C3_7 
REMARK       I    between atoms: C3_7  and  N2_9 
REMARK    3  A    between atoms: N2_9  and  C4_11 
REMARK    4  A    between atoms: C4_11  and  N3_12 
REMARK    5  A    between atoms: C4_11  and  C5_16 
REMARK    6  A    between atoms: C5_16  and  C6_20 
ROOT
HETATM    1  C4  UNL     1       0.043   0.568  -0.098  1.00  0.00     0.335 C 
ENDROOT
BRANCH   1   2
HETATM    2  N2  UNL     1      -1.360   0.304   0.127  1.00  0.00    -0.327 N 
HETATM    3  C3  UNL     1      -2.307   0.083  -0.903  1.00  0.00     0.249 C 
HETATM    4  O1  UNL     1      -1.883   0.122  -2.088  1.00  0.00    -0.271 OA
ATOM      5  H2  UNL     1      -1.690   0.275   1.092  1.00  0.00     0.165 HD
BRANCH   3   6
HETATM    6  C2  UNL     1      -3.726  -0.184  -0.686  1.00  0.00     0.270 C 
HETATM    7  C1  UNL     1      -4.426   1.006  -0.013  1.00  0.00     0.050 C 
BRANCH   6   8
HETATM    8  N1  UNL     1      -4.370  -0.360  -1.970  1.00  0.00    -0.067 N 
ATOM      9  H13 UNL     1      -5.382  -0.469  -1.904  1.00  0.00     0.275 HD
ATOM     10  H12 UNL     1      -4.372   0.485  -2.541  1.00  0.00     0.275 HD
ATOM     11  H11 UNL     1      -3.905  -1.150  -2.417  1.00  0.00     0.275 HD
ENDBRANCH   6   8
ENDBRANCH   3   6
ENDBRANCH   1   2
BRANCH   1  12
HETATM   12  N3  UNL     1       0.426   1.877   0.394  1.00  0.00    -0.053 N 
ATOM     13  H33 UNL     1      -0.160   2.611  -0.005  1.00  0.00     0.277 HD
ATOM     14  H32 UNL     1       0.178   1.993   1.377  1.00  0.00     0.277 HD
ATOM     15  H31 UNL     1       1.416   2.063   0.235  1.00  0.00     0.277 HD
ENDBRANCH   1  12
BRANCH   1  16
HETATM   16  C5  UNL     1       0.888  -0.429   0.607  1.00  0.00     0.063 C 
HETATM   17  N4  UNL     1       0.297  -1.222   1.406  1.00  0.00    -0.399 N 
ATOM     18  H42 UNL     1      -0.714  -1.172   1.535  1.00  0.00     0.156 HD
ATOM     19  H41 UNL     1       0.877  -1.907   1.890  1.00  0.00     0.156 HD
BRANCH  16  20
HETATM   20  C6  UNL     1       2.331  -0.500   0.423  1.00  0.00    -0.010 A 
HETATM   21  C7  UNL     1       2.988   0.339  -0.481  1.00  0.00     0.013 A 
HETATM   22  C8  UNL     1       4.336   0.286  -0.652  1.00  0.00     0.001 A 
HETATM   23  C9  UNL     1       5.109  -0.599   0.061  1.00  0.00     0.000 A 
HETATM   24  C10 UNL     1       4.476  -1.423   0.947  1.00  0.00     0.001 A 
HETATM   25  C11 UNL     1       3.097  -1.392   1.144  1.00  0.00     0.013 A 
ENDBRANCH  16  20
ENDBRANCH   1  16
TORSDOF 6
