REMARK  4 active torsions:
REMARK  status: ('A' for Active; 'I' for Inactive)
REMARK    1  A    between atoms: C2_2  and  C4_8 
REMARK    2  A    between atoms: N1_3  and  N2_5 
REMARK    3  A    between atoms: N2_5  and  C3_6 
REMARK    4  A    between atoms: C7_11  and  C8_12 
ROOT
HETATM    1  C4  UNL     1       0.322  -0.043  -0.209  1.00  0.00    -0.012 A 
HETATM    2  C5  UNL     1      -0.378  -0.319  -1.346  1.00  0.00     0.014 A 
HETATM    3  C6  UNL     1      -1.746  -0.535  -1.270  1.00  0.00     0.016 A 
HETATM    4  C7  UNL     1      -2.471  -0.494  -0.105  1.00  0.00     0.004 A 
HETATM    5  C9  UNL     1      -1.728  -0.210   1.048  1.00  0.00     0.016 A 
HETATM    6  C10 UNL     1      -0.370   0.007   0.988  1.00  0.00     0.014 A 
ENDROOT
BRANCH   1   7
HETATM    7  C2  UNL     1       1.767   0.208  -0.269  1.00  0.00     0.045 C 
HETATM    8  C1  UNL     1       2.477   0.186  -1.555  1.00  0.00     0.071 C 
HETATM    9  N1  UNL     1       2.397   0.466   0.822  1.00  0.00    -0.237 N 
ATOM     10  H1  UNL     1       1.781   0.446   1.635  1.00  0.00     0.201 HD
BRANCH   9  11
HETATM   11  N2  UNL     1       3.598   0.740   1.139  1.00  0.00    -0.297 NA
BRANCH  11  12
HETATM   12  C3  UNL     1       4.908   1.039   1.485  1.00  0.00     0.466 C 
HETATM   13  O1  UNL     1       5.369   1.921   2.241  1.00  0.00    -0.266 OA
ENDBRANCH  11  12
ENDBRANCH   9  11
ENDBRANCH   1   7
BRANCH   4  14
HETATM   14  C8  UNL     1      -3.903  -0.714  -0.004  1.00  0.00     0.120 C 
HETATM   15  N3  UNL     1      -4.601  -0.985  -1.025  1.00  0.00    -0.387 N 
ATOM     16  H32 UNL     1      -4.133  -1.055  -1.929  1.00  0.00     0.157 HD
ATOM     17  H31 UNL     1      -5.607  -1.140  -0.954  1.00  0.00     0.157 HD
HETATM   18  N4  UNL     1      -4.548  -0.618   1.241  1.00  0.00    -0.082 NA
ENDBRANCH   4  14
TORSDOF 4
