REMARK  6 active torsions:
REMARK  status: ('A' for Active; 'I' for Inactive)
REMARK    1  A    between atoms: C1_2  and  C2_3 
REMARK       I    between atoms: C1_2  and  N3_14 
REMARK    2  A    between atoms: C2_3  and  N1_4 
REMARK    3  A    between atoms: N1_4  and  C3_6 
REMARK    4  A    between atoms: C3_6  and  C4_7 
REMARK    5  A    between atoms: C4_7  and  C5_8 
REMARK    6  A    between atoms: N3_14  and  C9_16 
ROOT
HETATM    1  N1  UNL     1       0.909  -1.430  -1.293  1.00  0.00    -0.413 N 
ATOM      2  H1  UNL     1       1.408  -1.547  -2.175  1.00  0.00     0.153 HD
ENDROOT
BRANCH   1   3
HETATM    3  C2  UNL     1      -0.142  -2.300  -0.919  1.00  0.00     0.217 C 
BRANCH   3   4
HETATM    4  C1  UNL     1      -1.507  -1.753  -0.985  1.00  0.00     0.235 C 
HETATM    5  O1  UNL     1      -2.446  -2.493  -0.600  1.00  0.00    -0.272 OA
HETATM    6  N3  UNL     1      -1.800  -0.464  -1.458  1.00  0.00    -0.355 N 
ATOM      7  H3  UNL     1      -1.027   0.123  -1.772  1.00  0.00     0.162 HD
BRANCH   6   8
HETATM    8  C9  UNL     1      -3.145   0.076  -1.523  1.00  0.00     0.084 A 
HETATM    9  C10 UNL     1      -3.399   0.894  -2.817  1.00  0.00     0.027 A 
HETATM   10  C11 UNL     1      -3.430   1.511  -1.462  1.00  0.00     0.027 A 
ENDBRANCH   6   8
ENDBRANCH   3   4
ENDBRANCH   1   3
BRANCH   1  11
HETATM   11  C3  UNL     1       1.243  -0.377  -0.380  1.00  0.00     0.120 C 
BRANCH  11  12
HETATM   12  C4  UNL     1       1.907  -0.928   0.884  1.00  0.00     0.076 C 
BRANCH  12  13
HETATM   13  C5  UNL     1       2.243   0.222   1.794  1.00  0.00     0.010 A 
HETATM   14  C6  UNL     1       2.002   1.566   1.520  1.00  0.00     0.026 A 
HETATM   15  C7  UNL     1       2.443   2.337   2.582  1.00  0.00     0.019 A 
HETATM   16  C8  UNL     1       2.955   1.413   3.498  1.00  0.00     0.088 A 
HETATM   17  N2  UNL     1       2.821   0.191   3.004  1.00  0.00    -0.369 N 
ATOM     18  H2  UNL     1       3.118  -0.660   3.481  1.00  0.00     0.165 HD
ENDBRANCH  12  13
ENDBRANCH  11  12
ENDBRANCH   1  11
TORSDOF 6
