REMARK  14 active torsions:
REMARK  status: ('A' for Active; 'I' for Inactive)
REMARK    1  A    between atoms: C4_5  and  N1_6 
REMARK       I    between atoms: N1_6  and  C5_8 
REMARK       I    between atoms: C5_8  and  N2_10 
REMARK    2  A    between atoms: N2_10  and  C6_12 
REMARK    3  A    between atoms: C7_17  and  C8_18 
REMARK    4  A    between atoms: C8_18  and  C9_19 
REMARK    5  A    between atoms: C9_19  and  C10_20 
REMARK    6  A    between atoms: C10_20  and  C11_21 
REMARK    7  A    between atoms: C11_21  and  C12_22 
REMARK       I    between atoms: N7_28  and  C14_30 
REMARK    8  A    between atoms: C14_30  and  C15_32 
REMARK    9  A    between atoms: C15_32  and  C16_33 
REMARK   10  A    between atoms: C16_33  and  C17_34 
REMARK   11  A    between atoms: C17_34  and  C18_35 
REMARK   12  A    between atoms: C18_35  and  C19_36 
REMARK   13  A    between atoms: C19_36  and  C20_37 
REMARK       I    between atoms: C20_37  and  N8_39 
REMARK   14  A    between atoms: N8_39  and  C21_41 
ROOT
HETATM    1  C11 UNL     1      -2.049  -0.269  -1.212  1.00  0.00     0.066 C 
ENDROOT
BRANCH   1   2
HETATM    2  C10 UNL     1      -2.339  -1.632  -0.736  1.00  0.00     0.007 C 
BRANCH   2   3
HETATM    3  C9  UNL     1      -1.870  -1.991   0.629  1.00  0.00     0.007 C 
BRANCH   3   4
HETATM    4  C8  UNL     1      -2.317  -1.165   1.754  1.00  0.00     0.066 C 
BRANCH   4   5
HETATM    5  C7  UNL     1      -3.792  -1.128   1.953  1.00  0.00     0.069 A 
HETATM    6  N4  UNL     1      -4.445  -0.401   2.874  1.00  0.00    -0.296 N 
HETATM    7  N3  UNL     1      -5.695  -0.453   2.953  1.00  0.00    -0.279 N 
ATOM      8  H4  UNL     1      -3.921   0.197   3.513  1.00  0.00     0.187 HD
HETATM    9  C6  UNL     1      -6.378  -1.241   2.110  1.00  0.00     0.169 A 
ATOM     10  H3  UNL     1      -6.189   0.100   3.653  1.00  0.00     0.189 HD
HETATM   11  S3  UNL     1      -5.105  -1.911   1.188  1.00  0.00    -0.038 SA
BRANCH   9  12
HETATM   12  N2  UNL     1      -7.679  -1.401   2.065  1.00  0.00    -0.287 N 
HETATM   13  C5  UNL     1      -8.300  -2.245   1.149  1.00  0.00     0.328 C 
HETATM   14  N1  UNL     1      -8.527  -1.926  -0.220  1.00  0.00    -0.288 N 
HETATM   15  O1  UNL     1      -8.688  -3.384   1.583  1.00  0.00    -0.247 OA
ATOM     16  H1  UNL     1      -8.057  -2.454  -0.955  1.00  0.00     0.172 HD
ATOM     17  H2  UNL     1      -8.259  -0.886   2.728  1.00  0.00     0.172 HD
BRANCH  14  18
HETATM   18  C4  UNL     1      -9.348  -0.945  -0.531  1.00  0.00     0.152 A 
HETATM   19  S1  UNL     1      -9.791  -0.366  -2.068  1.00  0.00    -0.064 SA
HETATM   20  C3  UNL     1     -10.849   0.874  -1.572  1.00  0.00     0.077 A 
HETATM   21  C2  UNL     1     -10.800   0.771  -0.208  1.00  0.00     0.014 A 
HETATM   22  C1  UNL     1     -11.619   1.710   0.677  1.00  0.00     0.068 C 
HETATM   23  N9  UNL     1     -10.029  -0.162   0.303  1.00  0.00    -0.340 N 
ATOM     24  H9  UNL     1      -9.954  -0.283   1.313  1.00  0.00     0.167 HD
ENDBRANCH  14  18
ENDBRANCH   9  12
ENDBRANCH   4   5
ENDBRANCH   3   4
ENDBRANCH   2   3
ENDBRANCH   1   2
BRANCH   1  25
HETATM   25  C12 UNL     1      -0.610   0.082  -1.275  1.00  0.00     0.069 A 
HETATM   26  N5  UNL     1       0.509  -0.553  -1.018  1.00  0.00    -0.296 N 
HETATM   27  N6  UNL     1       1.640   0.011  -1.153  1.00  0.00    -0.279 N 
ATOM     28  H5  UNL     1       0.470  -1.522  -0.702  1.00  0.00     0.187 HD
HETATM   29  C13 UNL     1       1.689   1.277  -1.567  1.00  0.00     0.167 A 
ATOM     30  H6  UNL     1       2.499  -0.499  -0.947  1.00  0.00     0.189 HD
HETATM   31  N7  UNL     1       2.694   2.071  -1.772  1.00  0.00    -0.306 N 
HETATM   32  S2  UNL     1       0.006   1.628  -1.757  1.00  0.00    -0.038 SA
HETATM   33  C14 UNL     1       4.016   1.609  -1.542  1.00  0.00     0.223 C 
ATOM     34  H7  UNL     1       2.535   3.024  -2.097  1.00  0.00     0.171 HD
HETATM   35  O2  UNL     1       4.776   1.258  -2.466  1.00  0.00    -0.273 OA
BRANCH  33  36
HETATM   36  C15 UNL     1       4.461   1.565  -0.140  1.00  0.00     0.103 C 
BRANCH  36  37
HETATM   37  C16 UNL     1       5.877   1.171   0.010  1.00  0.00     0.009 C 
BRANCH  37  38
HETATM   38  C17 UNL     1       6.264  -0.195  -0.452  1.00  0.00     0.001 C 
BRANCH  38  39
HETATM   39  C18 UNL     1       7.744  -0.418  -0.198  1.00  0.00     0.009 C 
BRANCH  39  40
HETATM   40  C19 UNL     1       8.639   0.545  -0.906  1.00  0.00     0.103 C 
BRANCH  40  41
HETATM   41  C20 UNL     1      10.079   0.236  -0.588  1.00  0.00     0.221 C 
HETATM   42  O3  UNL     1      10.392  -0.709   0.161  1.00  0.00    -0.273 OA
HETATM   43  N8  UNL     1      11.109   1.034  -1.151  1.00  0.00    -0.306 N 
ATOM     44  H8  UNL     1      10.862   1.808  -1.768  1.00  0.00     0.167 HD
BRANCH  43  45
HETATM   45  C21 UNL     1      12.503   0.770  -0.866  1.00  0.00     0.460 C 
HETATM   46  F1  UNL     1      13.003   1.913  -0.240  1.00  0.00    -0.191 F 
HETATM   47  F2  UNL     1      13.258   0.545  -1.990  1.00  0.00    -0.191 F 
ENDBRANCH  43  45
ENDBRANCH  40  41
ENDBRANCH  39  40
ENDBRANCH  38  39
ENDBRANCH  37  38
ENDBRANCH  36  37
ENDBRANCH  33  36
ENDBRANCH   1  25
TORSDOF 14
