REMARK  3 active torsions:
REMARK  status: ('A' for Active; 'I' for Inactive)
REMARK    1  A    between atoms: C1_4  and  C2_6 
REMARK    2  A    between atoms: C4_10  and  S1_11 
REMARK    3  A    between atoms: S1_11  and  N4_12 
ROOT
HETATM    1  C2  UNL     1      -1.395   0.375   0.375  1.00  0.00     0.088 A 
HETATM    2  C3  UNL     1      -0.619   1.350   0.930  1.00  0.00     0.111 A 
HETATM    3  N3  UNL     1       0.729   1.220   0.862  1.00  0.00    -0.340 N 
ATOM      4  H3  UNL     1       1.315   1.946   1.275  1.00  0.00     0.167 HD
HETATM    5  C4  UNL     1       1.318   0.172   0.272  1.00  0.00     0.226 A 
HETATM    6  N5  UNL     1       0.582  -0.805  -0.285  1.00  0.00    -0.298 N 
ATOM      7  H5  UNL     1       1.030  -1.603  -0.736  1.00  0.00     0.171 HD
HETATM    8  C5  UNL     1      -0.760  -0.707  -0.235  1.00  0.00     0.262 A 
HETATM    9  O3  UNL     1      -1.471  -1.605  -0.746  1.00  0.00    -0.267 OA
ENDROOT
BRANCH   5  10
HETATM   10  S1  UNL     1       3.061   0.153   0.268  1.00  0.00     0.289 S 
HETATM   11  O1  UNL     1       3.604   1.353  -0.449  1.00  0.00    -0.198 OA
HETATM   12  O2  UNL     1       3.505   0.128   1.712  1.00  0.00    -0.198 OA
BRANCH  10  13
HETATM   13  N4  UNL     1       3.659  -1.268  -0.534  1.00  0.00    -0.322 N 
ATOM     14  H42 UNL     1       3.059  -1.985  -0.942  1.00  0.00     0.169 HD
ATOM     15  H41 UNL     1       4.679  -1.279  -0.536  1.00  0.00     0.169 HD
ENDBRANCH  10  13
ENDBRANCH   5  10
BRANCH   1  16
HETATM   16  C1  UNL     1      -2.839   0.461   0.417  1.00  0.00     0.127 C 
HETATM   17  N1  UNL     1      -3.494   1.409   0.951  1.00  0.00    -0.387 N 
ATOM     18  H12 UNL     1      -4.512   1.470   0.981  1.00  0.00     0.157 HD
ATOM     19  H11 UNL     1      -2.977   2.173   1.386  1.00  0.00     0.157 HD
HETATM   20  N2  UNL     1      -3.572  -0.622  -0.199  1.00  0.00    -0.082 NA
ENDBRANCH   1  16
TORSDOF 3
