REMARK  7 active torsions:
REMARK  status: ('A' for Active; 'I' for Inactive)
REMARK    1  A    between atoms: N1_1  and  N2_4 
REMARK    2  A    between atoms: N2_4  and  C1_6 
REMARK    3  A    between atoms: C1_6  and  C2_7 
REMARK    4  A    between atoms: C1_6  and  N8_23 
REMARK    5  A    between atoms: C2_7  and  N3_8 
REMARK    6  A    between atoms: N3_8  and  C3_10 
REMARK    7  A    between atoms: N8_23  and  N9_25 
ROOT
HETATM    1  N3  UNL     1       0.032  -0.166   1.054  1.00  0.00    -0.367 N 
ATOM      2  H3  UNL     1       0.263  -0.964   1.646  1.00  0.00     0.161 HD
ENDROOT
BRANCH   1   3
HETATM    3  C2  UNL     1      -1.250   0.380   1.315  1.00  0.00     0.200 C 
BRANCH   3   4
HETATM    4  C1  UNL     1      -2.263   0.165   0.263  1.00  0.00     0.127 C 
BRANCH   4   5
HETATM    5  N2  UNL     1      -2.960   1.133  -0.191  1.00  0.00    -0.293 N 
ATOM      6  H2  UNL     1      -3.648   0.939  -0.919  1.00  0.00     0.187 HD
BRANCH   5   7
HETATM    7  N1  UNL     1      -2.825   2.422   0.256  1.00  0.00    -0.344 N 
ATOM      8  H12 UNL     1      -2.132   2.598   0.984  1.00  0.00     0.176 HD
ATOM      9  H11 UNL     1      -3.382   3.196  -0.107  1.00  0.00     0.176 HD
ENDBRANCH   5   7
ENDBRANCH   4   5
BRANCH   4  10
HETATM   10  N8  UNL     1      -2.481  -1.128  -0.234  1.00  0.00    -0.293 N 
ATOM     11  H8  UNL     1      -1.908  -1.484  -0.999  1.00  0.00     0.187 HD
BRANCH  10  12
HETATM   12  N9  UNL     1      -3.476  -1.921   0.315  1.00  0.00    -0.344 N 
ATOM     13  H92 UNL     1      -4.040  -1.550   1.079  1.00  0.00     0.176 HD
ATOM     14  H91 UNL     1      -3.635  -2.862  -0.047  1.00  0.00     0.176 HD
ENDBRANCH  10  12
ENDBRANCH   4  10
ENDBRANCH   3   4
ENDBRANCH   1   3
BRANCH   1  15
HETATM   15  C3  UNL     1       0.934   0.133   0.246  1.00  0.00     0.133 A 
HETATM   16  N4  UNL     1       0.846   1.142  -0.624  1.00  0.00    -0.337 N 
HETATM   17  C4  UNL     1       1.864   1.418  -1.479  1.00  0.00     0.183 A 
ATOM     18  H4  UNL     1       0.002   1.714  -0.647  1.00  0.00     0.168 HD
HETATM   19  N5  UNL     1       2.984   0.665  -1.456  1.00  0.00    -0.337 N 
HETATM   20  C5  UNL     1       3.132  -0.371  -0.599  1.00  0.00     0.138 A 
ATOM     21  H5  UNL     1       3.741   0.884  -2.104  1.00  0.00     0.168 HD
HETATM   22  N6  UNL     1       4.083  -1.279  -0.333  1.00  0.00    -0.337 N 
HETATM   23  C7  UNL     1       2.098  -0.646   0.266  1.00  0.00     0.122 A 
HETATM   24  C6  UNL     1       3.687  -2.103   0.653  1.00  0.00     0.182 A 
ATOM     25  H6  UNL     1       4.982  -1.336  -0.812  1.00  0.00     0.168 HD
HETATM   26  N7  UNL     1       2.464  -1.701   1.012  1.00  0.00    -0.346 N 
ATOM     27  H7  UNL     1       1.895  -2.130   1.742  1.00  0.00     0.167 HD
ENDBRANCH   1  15
TORSDOF 7
