REMARK  1 active torsions:
REMARK  status: ('A' for Active; 'I' for Inactive)
REMARK       I    between atoms: C1_4  and  N3_6 
REMARK    1  A    between atoms: N3_6  and  N4_8 
ROOT
HETATM    1  N4  UNL     1       0.803   0.784  -0.099  1.00  0.00    -0.289 N 
ATOM      2  H4  UNL     1       1.447   1.435   0.350  1.00  0.00     0.187 HD
HETATM    3  C2  UNL     1       1.231  -0.364  -0.468  1.00  0.00     0.185 A 
HETATM    4  C3  UNL     1       0.682  -1.459  -1.077  1.00  0.00     0.282 A 
HETATM    5  O1  UNL     1      -0.444  -1.830  -1.537  1.00  0.00    -0.265 OA
HETATM    6  N5  UNL     1       1.865  -2.050  -1.008  1.00  0.00    -0.286 N 
ATOM      7  H5  UNL     1       2.207  -2.965  -1.302  1.00  0.00     0.172 HD
HETATM    8  C4  UNL     1       2.458  -0.983  -0.398  1.00  0.00     0.282 A 
HETATM    9  O2  UNL     1       3.602  -0.687   0.034  1.00  0.00    -0.265 OA
ENDROOT
BRANCH   1  10
HETATM   10  N3  UNL     1      -0.518   1.164  -0.295  1.00  0.00    -0.273 N 
HETATM   11  C1  UNL     1      -1.536   1.027   0.671  1.00  0.00     0.200 C 
HETATM   12  N1  UNL     1      -2.542   0.213   0.534  1.00  0.00    -0.372 N 
HETATM   13  N2  UNL     1      -1.483   1.802   1.859  1.00  0.00    -0.062 NA
ATOM     14  H12 UNL     1      -3.278   0.114   1.233  1.00  0.00     0.158 HD
ATOM     15  H11 UNL     1      -2.580  -0.344  -0.320  1.00  0.00     0.158 HD
ATOM     16  H3  UNL     1      -0.769   1.569  -1.197  1.00  0.00     0.189 HD
ENDBRANCH   1  10
TORSDOF 1
