REMARK  2 active torsions:
REMARK  status: ('A' for Active; 'I' for Inactive)
REMARK       I    between atoms: C1_4  and  N3_6 
REMARK    1  A    between atoms: N3_6  and  N4_8 
REMARK    2  A    between atoms: N4_8  and  N5_9 
ROOT
HETATM    1  N4  UNL     1      -0.042   0.644  -0.689  1.00  0.00     0.004 NA
ENDROOT
BRANCH   1   2
HETATM    2  N3  UNL     1      -1.057   0.274   0.156  1.00  0.00    -0.256 N 
HETATM    3  C1  UNL     1      -2.350  -0.033  -0.297  1.00  0.00     0.199 C 
HETATM    4  N1  UNL     1      -3.202   0.871  -0.626  1.00  0.00    -0.373 N 
HETATM    5  N2  UNL     1      -2.732  -1.386  -0.394  1.00  0.00    -0.063 NA
ATOM      6  H12 UNL     1      -4.141   0.648  -0.955  1.00  0.00     0.158 HD
ATOM      7  H11 UNL     1      -2.926   1.850  -0.556  1.00  0.00     0.158 HD
ATOM      8  H3  UNL     1      -0.864   0.220   1.156  1.00  0.00     0.187 HD
ENDBRANCH   1   2
BRANCH   1   9
HETATM    9  N5  UNL     1       1.219   0.317  -0.234  1.00  0.00    -0.175 N 
HETATM   10  C2  UNL     1       1.593  -0.300   0.894  1.00  0.00     0.225 A 
HETATM   11  N6  UNL     1       2.923  -0.421   0.946  1.00  0.00    -0.345 N 
HETATM   12  C3  UNL     1       3.406   0.131  -0.174  1.00  0.00     0.200 A 
ATOM     13  H6  UNL     1       3.466  -0.851   1.695  1.00  0.00     0.167 HD
HETATM   14  N7  UNL     1       2.346   0.572  -0.875  1.00  0.00    -0.276 N 
ATOM     15  H7  UNL     1       2.404   1.040  -1.779  1.00  0.00     0.189 HD
ENDBRANCH   1   9
TORSDOF 2
