REMARK  1 active torsions:
REMARK  status: ('A' for Active; 'I' for Inactive)
REMARK    1  A    between atoms: C5_11  and  C6_12 
ROOT
HETATM    1  C1  UNL     1       0.005   2.255  -0.096  1.00  0.00     0.069 C 
HETATM    2  C2  UNL     1       0.497   0.860   0.001  1.00  0.00     0.030 A 
HETATM    3  N1  UNL     1       1.838   0.645   0.103  1.00  0.00    -0.312 N 
ATOM      4  H1  UNL     1       2.476   1.441   0.111  1.00  0.00     0.170 HD
HETATM    5  C3  UNL     1       2.331  -0.597   0.193  1.00  0.00     0.327 A 
HETATM    6  O1  UNL     1       3.575  -0.764   0.286  1.00  0.00    -0.247 OA
HETATM    7  N2  UNL     1       1.465  -1.630   0.181  1.00  0.00    -0.275 N 
ATOM      8  H2  UNL     1       1.831  -2.580   0.250  1.00  0.00     0.173 HD
HETATM    9  C4  UNL     1       0.139  -1.454   0.082  1.00  0.00     0.266 A 
HETATM   10  O2  UNL     1      -0.630  -2.423   0.073  1.00  0.00    -0.267 OA
HETATM   11  C5  UNL     1      -0.410  -0.169  -0.014  1.00  0.00     0.119 A 
ENDROOT
BRANCH  11  12
HETATM   12  C6  UNL     1      -1.852  -0.015  -0.120  1.00  0.00     0.272 C 
HETATM   13  N3  UNL     1      -2.644  -1.202  -0.121  1.00  0.00    -0.057 NA
HETATM   14  O3  UNL     1      -2.410   1.100  -0.209  1.00  0.00    -0.271 OA
ENDBRANCH  11  12
TORSDOF 1
