REMARK  4 active torsions:
REMARK  status: ('A' for Active; 'I' for Inactive)
REMARK    1  A    between atoms: C2_2  and  O1_3 
REMARK       I    between atoms: N2_11  and  C7_12 
REMARK    2  A    between atoms: C7_12  and  C8_14 
REMARK    3  A    between atoms: C8_14  and  N3_15 
REMARK       I    between atoms: N3_15  and  C9_17 
REMARK    4  A    between atoms: C9_17  and  C10_19 
ROOT
HETATM    1  C1  UNL     1       3.784  -1.772   1.225  1.00  0.00     0.074 C 
HETATM    2  C2  UNL     1       4.487  -0.857   0.297  1.00  0.00     0.164 C 
HETATM    3  C3  UNL     1       5.614  -0.090   1.009  1.00  0.00     0.228 C 
HETATM    4  F1  UNL     1       5.383  -0.018   2.367  1.00  0.00    -0.244 F 
HETATM    5  C4  UNL     1       5.632   1.294   0.377  1.00  0.00     0.082 C 
HETATM    6  C5  UNL     1       4.696   1.083  -0.806  1.00  0.00     0.200 C 
HETATM    7  C6  UNL     1       4.294   2.297  -1.415  1.00  0.00     0.085 C 
HETATM    8  N1  UNL     1       4.000   3.277  -1.914  1.00  0.00    -0.195 NA
HETATM    9  N2  UNL     1       3.675   0.277  -0.178  1.00  0.00    -0.299 N 
HETATM   10  C7  UNL     1       2.292   0.419  -0.017  1.00  0.00     0.241 C 
HETATM   11  O2  UNL     1       1.664  -0.525   0.583  1.00  0.00    -0.271 OA
ENDROOT
BRANCH   2  12
HETATM   12  O1  UNL     1       4.985  -1.511  -0.841  1.00  0.00    -0.368 OA
ATOM     13  H1  UNL     1       5.436  -0.924  -1.436  1.00  0.00     0.212 HD
ENDBRANCH   2  12
BRANCH  10  14
HETATM   14  C8  UNL     1       1.455   1.540  -0.461  1.00  0.00     0.225 C 
BRANCH  14  15
HETATM   15  N3  UNL     1       0.059   1.352  -0.164  1.00  0.00    -0.352 N 
HETATM   16  C9  UNL     1      -0.753   0.322  -0.675  1.00  0.00     0.226 C 
HETATM   17  O3  UNL     1      -0.242  -0.516  -1.467  1.00  0.00    -0.273 OA
ATOM     18  H3  UNL     1      -0.378   2.021   0.470  1.00  0.00     0.162 HD
BRANCH  16  19
HETATM   19  C10 UNL     1      -2.188   0.170  -0.327  1.00  0.00     0.042 C 
HETATM   20  C11 UNL     1      -2.403  -0.026   1.145  1.00  0.00     0.024 C 
HETATM   21  C12 UNL     1      -3.867  -0.236   1.403  1.00  0.00    -0.013 C 
HETATM   22  C13 UNL     1      -4.693   0.964   0.979  1.00  0.00     0.009 C 
HETATM   23  C17 UNL     1      -4.417  -1.434   0.657  1.00  0.00     0.009 C 
HETATM   24  C14 UNL     1      -4.427   1.190  -0.493  1.00  0.00    -0.013 C 
HETATM   25  C15 UNL     1      -4.930   0.021  -1.324  1.00  0.00     0.009 C 
HETATM   26  C19 UNL     1      -2.966   1.421  -0.728  1.00  0.00     0.024 C 
HETATM   27  C16 UNL     1      -4.210  -1.215  -0.830  1.00  0.00    -0.013 C 
HETATM   28  C18 UNL     1      -2.746  -1.018  -1.061  1.00  0.00     0.024 C 
ENDBRANCH  16  19
ENDBRANCH  14  15
ENDBRANCH  10  14
TORSDOF 4
