REMARK  4 active torsions:
REMARK  status: ('A' for Active; 'I' for Inactive)
REMARK    1  A    between atoms: C2_2  and  C3_3 
REMARK       I    between atoms: N2_8  and  C6_9 
REMARK    2  A    between atoms: C6_9  and  C7_11 
REMARK    3  A    between atoms: C7_11  and  N3_12 
REMARK    4  A    between atoms: C7_11  and  C9_17 
REMARK       I    between atoms: N3_12  and  C8_14 
ROOT
HETATM    1  C1  UNL     1       4.599  -0.713  -0.090  1.00  0.00     0.025 C 
HETATM    2  C2  UNL     1       3.295   0.063   0.153  1.00  0.00     0.039 C 
HETATM    3  C4  UNL     1       2.846  -0.193   1.556  1.00  0.00     0.038 C 
HETATM    4  C5  UNL     1       1.421   0.132   1.844  1.00  0.00     0.129 C 
HETATM    5  N2  UNL     1       0.506  -0.358   0.799  1.00  0.00    -0.333 N 
HETATM    6  C6  UNL     1      -0.879  -0.120   0.920  1.00  0.00     0.244 C 
HETATM    7  O2  UNL     1      -1.235   0.487   2.008  1.00  0.00    -0.271 OA
HETATM    8  C13 UNL     1       1.107  -1.078  -0.268  1.00  0.00     0.185 C 
HETATM    9 CL1  UNL     1       1.681  -2.695   0.240  1.00  0.00    -0.102 Cl
HETATM   10  C14 UNL     1       2.262  -0.317  -0.883  1.00  0.00     0.060 C 
ENDROOT
BRANCH   6  11
HETATM   11  C7  UNL     1      -1.930  -0.485  -0.041  1.00  0.00     0.185 C 
BRANCH  11  12
HETATM   12  N3  UNL     1      -3.138  -0.959   0.633  1.00  0.00    -0.331 N 
HETATM   13  C8  UNL     1      -3.711  -2.213   0.364  1.00  0.00     0.329 C 
HETATM   14  N4  UNL     1      -4.883  -2.600   1.059  1.00  0.00    -0.040 NA
HETATM   15  O3  UNL     1      -3.248  -3.037  -0.469  1.00  0.00    -0.251 OA
ATOM     16  H3  UNL     1      -3.582  -0.356   1.325  1.00  0.00     0.164 HD
ENDBRANCH  11  12
BRANCH  11  17
HETATM   17  C9  UNL     1      -2.350   0.677  -0.917  1.00  0.00    -0.022 C 
HETATM   18  C10 UNL     1      -3.447   0.251  -1.886  1.00  0.00     0.017 C 
HETATM   19  C11 UNL     1      -2.871   1.846  -0.127  1.00  0.00     0.017 C 
HETATM   20  C12 UNL     1      -1.232   1.209  -1.786  1.00  0.00     0.017 C 
ENDBRANCH  11  17
ENDBRANCH   6  11
BRANCH   2  21
HETATM   21  C3  UNL     1       3.649   1.486  -0.021  1.00  0.00     0.239 C 
HETATM   22  N1  UNL     1       4.639   2.044   0.816  1.00  0.00    -0.061 NA
HETATM   23  O1  UNL     1       3.105   2.207  -0.879  1.00  0.00    -0.276 OA
ENDBRANCH   2  21
TORSDOF 4
