REMARK  4 active torsions:
REMARK  status: ('A' for Active; 'I' for Inactive)
REMARK    1  A    between atoms: N1_1  and  C1_5 
REMARK    2  A    between atoms: N4_8  and  C2_9 
REMARK    3  A    between atoms: C2_9  and  N5_10 
REMARK    4  A    between atoms: N5_10  and  C3_12 
ROOT
HETATM    1  C2  UNL     1      -0.442  -0.277   0.008  1.00  0.00     0.237 C 
ENDROOT
BRANCH   1   2
HETATM    2  N4  UNL     1      -1.608   0.543   0.029  1.00  0.00    -0.155 NA
HETATM    3  C1  UNL     1      -2.873  -0.088  -0.157  1.00  0.00     0.387 C 
HETATM    4  N2  UNL     1      -3.204   1.109  -0.912  1.00  0.00    -0.081 NA
HETATM    5  N3  UNL     1      -1.837   1.245  -1.184  1.00  0.00    -0.049 NA
BRANCH   3   6
HETATM    6  N1  UNL     1      -3.620  -0.245   1.073  1.00  0.00    -0.046 N 
ATOM      7  H13 UNL     1      -3.519   0.584   1.659  1.00  0.00     0.277 HD
ATOM      8  H12 UNL     1      -4.622  -0.207   0.888  1.00  0.00     0.277 HD
ATOM      9  H11 UNL     1      -3.388  -1.085   1.603  1.00  0.00     0.277 HD
ENDBRANCH   3   6
ENDBRANCH   1   2
BRANCH   1  10
HETATM   10  N5  UNL     1       0.721   0.582   0.217  1.00  0.00    -0.363 N 
ATOM     11  H5  UNL     1       0.592   1.586   0.345  1.00  0.00     0.162 HD
BRANCH  10  12
HETATM   12  C3  UNL     1       2.018   0.035   0.243  1.00  0.00     0.101 A 
HETATM   13  C4  UNL     1       2.313  -1.316   0.081  1.00  0.00     0.049 A 
HETATM   14  C5  UNL     1       3.681  -1.403   0.176  1.00  0.00     0.021 A 
HETATM   15  C6  UNL     1       4.169  -0.147   0.387  1.00  0.00     0.090 A 
HETATM   16  N6  UNL     1       3.164   0.714   0.426  1.00  0.00    -0.353 N 
ATOM     17  H6  UNL     1       3.245   1.720   0.570  1.00  0.00     0.166 HD
ENDBRANCH  10  12
ENDBRANCH   1  10
TORSDOF 4
