REMARK  2 active torsions:
REMARK  status: ('A' for Active; 'I' for Inactive)
REMARK    1  A    between atoms: C1_2  and  C2_4 
REMARK    2  A    between atoms: N1_8  and  C6_9 
ROOT
HETATM    1  C2  UNL     1      -2.623   0.365  -0.444  1.00  0.00     0.115 C 
HETATM    2  C3  UNL     1      -3.056  -0.814   0.399  1.00  0.00     0.019 C 
HETATM    3  C4  UNL     1      -1.867  -1.701   0.729  1.00  0.00     0.031 C 
HETATM    4  C5  UNL     1      -0.912  -1.718  -0.433  1.00  0.00     0.273 C 
HETATM    5  N1  UNL     1      -0.388  -0.439  -0.788  1.00  0.00     0.093 N 
HETATM    6  C12 UNL     1      -1.145   0.669  -0.295  1.00  0.00     0.288 C 
ENDROOT
BRANCH   5   7
HETATM    7  C6  UNL     1       1.025  -0.346  -0.591  1.00  0.00     0.223 C 
HETATM    8  C7  UNL     1       1.641   0.908  -1.136  1.00  0.00     0.036 C 
HETATM    9  C8  UNL     1       2.973   1.221  -0.450  1.00  0.00     0.002 C 
HETATM   10  C9  UNL     1       3.648  -0.041   0.015  1.00  0.00     0.000 C 
HETATM   11  C10 UNL     1       2.827  -0.629   1.133  1.00  0.00     0.002 C 
HETATM   12  C11 UNL     1       1.347  -0.556   0.872  1.00  0.00     0.036 C 
ENDBRANCH   5   7
BRANCH   1  13
HETATM   13  C1  UNL     1      -3.375   1.582   0.018  1.00  0.00     0.178 C 
HETATM   14  O1  UNL     1      -4.206   1.487   0.969  1.00  0.00    -0.648 OA
HETATM   15  O2  UNL     1      -3.125   2.794  -0.630  1.00  0.00    -0.648 OA
ENDBRANCH   1  13
TORSDOF 2
