REMARK  10 active torsions:
REMARK  status: ('A' for Active; 'I' for Inactive)
REMARK       I    between atoms: C2_2  and  N1_4 
REMARK       I    between atoms: N1_4  and  C3_6 
REMARK    1  A    between atoms: C3_6  and  C4_8 
REMARK    2  A    between atoms: C5_12  and  N3_13 
REMARK    3  A    between atoms: N3_13  and  C6_15 
REMARK    4  A    between atoms: C7_19  and  N5_20 
REMARK    5  A    between atoms: N5_20  and  O4_21 
REMARK    6  A    between atoms: N6_23  and  O5_25 
REMARK    7  A    between atoms: C11_31  and  N7_32 
REMARK    8  A    between atoms: N7_32  and  C12_34 
REMARK    9  A    between atoms: C12_34  and  O7_35 
REMARK   10  A    between atoms: C12_34  and  O8_37 
ROOT
HETATM    1  C4  UNL     1       3.223   1.342  -0.530  1.00  0.00     0.175 A 
HETATM    2  N2  UNL     1       2.334   2.364  -0.753  1.00  0.00    -0.250 N 
ATOM      3  H2  UNL     1       2.683   3.318  -0.842  1.00  0.00     0.195 HD
HETATM    4  O3  UNL     1       1.093   2.149  -0.850  1.00  0.00    -0.217 OA
HETATM    5  C5  UNL     1       0.485   0.938  -0.753  1.00  0.00     0.200 A 
HETATM    6  C11 UNL     1       1.325  -0.112  -0.529  1.00  0.00     0.138 A 
HETATM    7  C13 UNL     1       2.708   0.094  -0.418  1.00  0.00     0.236 A 
HETATM    8  O9  UNL     1       3.371  -0.940  -0.218  1.00  0.00    -0.283 OA
ENDROOT
BRANCH   5   9
HETATM    9  N3  UNL     1      -0.903   0.899  -0.901  1.00  0.00    -0.318 N 
ATOM     10  H3  UNL     1      -1.309   1.817  -1.085  1.00  0.00     0.166 HD
BRANCH   9  11
HETATM   11  C6  UNL     1      -1.863  -0.124  -0.853  1.00  0.00     0.434 C 
HETATM   12  N4  UNL     1      -2.217  -0.484   0.476  1.00  0.00    -0.003 N 
HETATM   13  C7  UNL     1      -3.570  -0.057   0.650  1.00  0.00     0.372 C 
ATOM     14  H42 UNL     1      -2.072  -1.472   0.683  1.00  0.00     0.285 HD
ATOM     15  H41 UNL     1      -1.579  -0.115   1.182  1.00  0.00     0.285 HD
HETATM   16  C8  UNL     1      -4.096  -0.244  -0.773  1.00  0.00     0.108 C 
HETATM   17  C9  UNL     1      -4.238  -1.694  -1.136  1.00  0.00     0.050 C 
HETATM   18  C10 UNL     1      -5.410   0.431  -0.950  1.00  0.00     0.050 C 
HETATM   19  O6  UNL     1      -3.063   0.310  -1.478  1.00  0.00    -0.329 OA
BRANCH  13  20
HETATM   20  N5  UNL     1      -4.318  -0.791   1.617  1.00  0.00    -0.146 N 
HETATM   21  N6  UNL     1      -4.815  -0.190   2.631  1.00  0.00    -0.186 N 
ATOM     22  H6  UNL     1      -5.348  -0.730   3.313  1.00  0.00     0.218 HD
BRANCH  20  23
HETATM   23  O4  UNL     1      -4.536  -2.129   1.513  1.00  0.00    -0.269 OA
ATOM     24  H4  UNL     1      -5.034  -2.618   2.157  1.00  0.00     0.246 HD
ENDBRANCH  20  23
BRANCH  21  25
HETATM   25  O5  UNL     1      -4.654   1.161   2.832  1.00  0.00    -0.273 OA
ATOM     26  H5  UNL     1      -5.023   1.607   3.585  1.00  0.00     0.246 HD
ENDBRANCH  21  25
ENDBRANCH  13  20
ENDBRANCH   9  11
ENDBRANCH   5   9
BRANCH   6  27
HETATM   27  N7  UNL     1       0.875  -1.427  -0.331  1.00  0.00    -0.335 N 
ATOM     28  H7  UNL     1       0.422  -1.909  -1.107  1.00  0.00     0.164 HD
BRANCH  27  29
HETATM   29  C12 UNL     1       1.027  -2.135   0.938  1.00  0.00     0.366 C 
BRANCH  29  30
HETATM   30  O7  UNL     1       0.239  -3.276   1.008  1.00  0.00    -0.355 OA
ATOM     31  H7  UNL     1       0.338  -3.736   1.833  1.00  0.00     0.214 HD
ENDBRANCH  29  30
BRANCH  29  32
HETATM   32  O8  UNL     1       0.719  -1.278   1.959  1.00  0.00    -0.355 OA
ATOM     33  H8  UNL     1       0.818  -1.738   2.784  1.00  0.00     0.214 HD
ENDBRANCH  29  32
ENDBRANCH  27  29
ENDBRANCH   6  27
BRANCH   1  34
HETATM   34  C3  UNL     1       4.630   1.643  -0.430  1.00  0.00     0.280 C 
HETATM   35  N1  UNL     1       5.675   0.739  -0.202  1.00  0.00    -0.292 N 
HETATM   36  C2  UNL     1       7.024   1.165  -0.124  1.00  0.00     0.220 C 
ATOM     37  H1  UNL     1       5.459  -0.252  -0.089  1.00  0.00     0.172 HD
HETATM   38  C1  UNL     1       7.464   2.539  -0.268  1.00  0.00     0.117 C 
HETATM   39  O1  UNL     1       7.911   0.269   0.087  1.00  0.00    -0.274 OA
HETATM   40  O2  UNL     1       4.949   2.877  -0.565  1.00  0.00    -0.265 OA
ENDBRANCH   1  34
TORSDOF 10
