REMARK  1 active torsions:
REMARK  status: ('A' for Active; 'I' for Inactive)
REMARK    1  A    between atoms: C3_7  and  C4_8 
ROOT
HETATM    1  C1  UNL     1       3.136  -0.234   1.198  1.00  0.00     0.066 C 
HETATM    2  C2  UNL     1       1.855   0.239   0.598  1.00  0.00     0.020 C 
HETATM    3  N1  UNL     1       1.448   1.452   0.656  1.00  0.00    -0.299 N 
ATOM      4  H1  UNL     1       1.966   2.199   1.118  1.00  0.00     0.187 HD
HETATM    5  N2  UNL     1       0.226   1.642   0.024  1.00  0.00    -0.247 N 
HETATM    6  S1  UNL     1      -0.721   3.114   0.098  1.00  0.00     0.062 SA
HETATM    7  C3  UNL     1      -0.107   0.454  -0.678  1.00  0.00     0.143 C 
HETATM    8  C7  UNL     1       0.845  -0.562  -0.149  1.00  0.00     0.165 C 
HETATM    9  C8  UNL     1       1.587  -1.207  -1.258  1.00  0.00     0.072 C 
HETATM   10  N3  UNL     1       2.178  -1.694  -2.127  1.00  0.00    -0.196 NA
ENDROOT
BRANCH   7  11
HETATM   11  C4  UNL     1      -1.557   0.076  -0.503  1.00  0.00     0.004 C 
HETATM   12  C5  UNL     1      -1.886  -1.183  -1.253  1.00  0.00     0.012 C 
HETATM   13  C6  UNL     1      -1.986   0.050   0.930  1.00  0.00     0.012 C 
ENDBRANCH   7  11
TORSDOF 1
