REMARK  3 active torsions:
REMARK  status: ('A' for Active; 'I' for Inactive)
REMARK    1  A    between atoms: S1_2  and  C2_3 
REMARK    2  A    between atoms: N2_9  and  N3_10 
REMARK    3  A    between atoms: N3_10  and  C6_12 
ROOT
HETATM    1  C2  UNL     1      -1.076   0.586   0.444  1.00  0.00     0.156 C 
HETATM    2  N1  UNL     1      -2.325   0.640   0.122  1.00  0.00    -0.369 N 
ATOM      3  H1  UNL     1      -2.865   1.433   0.469  1.00  0.00     0.161 HD
HETATM    4  C3  UNL     1      -3.011  -0.323  -0.682  1.00  0.00     0.123 C 
HETATM    5  C4  UNL     1      -2.212  -1.535  -1.027  1.00  0.00     0.041 C 
HETATM    6  C5  UNL     1      -0.733  -1.286  -1.127  1.00  0.00     0.152 C 
HETATM    7  N2  UNL     1      -0.268  -0.494  -0.007  1.00  0.00    -0.275 N 
ENDROOT
BRANCH   7   8
HETATM    8  N3  UNL     1       0.934  -0.797   0.593  1.00  0.00    -0.328 N 
ATOM      9  H3  UNL     1       1.007  -1.027   1.584  1.00  0.00     0.180 HD
BRANCH   8  10
HETATM   10  C6  UNL     1       2.070  -0.767  -0.269  1.00  0.00     0.091 C 
HETATM   11  C7  UNL     1       2.297   0.590  -0.904  1.00  0.00     0.033 C 
HETATM   12  C8  UNL     1       3.295  -1.091   0.573  1.00  0.00     0.033 C 
ENDBRANCH   8  10
ENDBRANCH   7   8
BRANCH   1  13
HETATM   13  S1  UNL     1      -0.282   1.832   1.457  1.00  0.00    -0.097 SA
HETATM   14  C1  UNL     1      -1.449   3.124   1.941  1.00  0.00     0.099 C 
ENDBRANCH   1  13
TORSDOF 3
