REMARK  2 active torsions:
REMARK  status: ('A' for Active; 'I' for Inactive)
REMARK    1  A    between atoms: C2_2  and  N1_4 
REMARK       I    between atoms: N1_4  and  C5_6 
REMARK    2  A    between atoms: C5_6  and  C6_8 
ROOT
HETATM    1  C6  UNL     1      -0.622  -0.021   0.063  1.00  0.00     0.045 C 
HETATM    2  C7  UNL     1      -0.954  -1.474   0.256  1.00  0.00     0.027 C 
HETATM    3  C8  UNL     1      -2.426  -1.351   0.673  1.00  0.00     0.021 C 
HETATM    4  C9  UNL     1      -2.248  -0.381   1.849  1.00  0.00     0.013 C 
HETATM    5  C10 UNL     1      -1.402   0.675   1.167  1.00  0.00     0.004 C 
HETATM    6  C11 UNL     1      -2.399   1.577   0.428  1.00  0.00     0.013 C 
HETATM    7  C12 UNL     1      -2.698   0.684  -0.762  1.00  0.00     0.021 C 
HETATM    8  C13 UNL     1      -1.263   0.405  -1.240  1.00  0.00     0.027 C 
HETATM    9  C14 UNL     1      -3.256  -0.655  -0.348  1.00  0.00     0.178 C 
HETATM   10  F1  UNL     1      -4.506  -0.443   0.202  1.00  0.00    -0.249 F 
ENDROOT
BRANCH   1  11
HETATM   11  C5  UNL     1       0.806   0.306   0.161  1.00  0.00     0.229 C 
HETATM   12  N1  UNL     1       1.846  -0.240  -0.626  1.00  0.00    -0.352 N 
HETATM   13  C4  UNL     1       1.636  -1.226  -1.662  1.00  0.00     0.153 C 
HETATM   14  O1  UNL     1       1.135   1.162   1.040  1.00  0.00    -0.272 OA
BRANCH  12  15
HETATM   15  C2  UNL     1       3.200   0.200  -0.394  1.00  0.00     0.078 C 
HETATM   16  C1  UNL     1       3.591  -0.258   1.018  1.00  0.00     0.032 C 
HETATM   17  C3  UNL     1       3.331   1.703  -0.443  1.00  0.00     0.032 C 
ENDBRANCH  12  15
ENDBRANCH   1  11
TORSDOF 2
