REMARK  5 active torsions:
REMARK  status: ('A' for Active; 'I' for Inactive)
REMARK    1  A    between atoms: C4_4  and  C5_5 
REMARK    2  A    between atoms: C5_5  and  C6_6 
REMARK    3  A    between atoms: C13_17  and  C14_18 
REMARK    4  A    between atoms: C18_22  and  C19_23 
REMARK    5  A    between atoms: C19_23  and  O3_24 
ROOT
HETATM    1  C1  UNL     1       4.082   3.257   0.127  1.00  0.00     0.048 C 
HETATM    2  C2  UNL     1       3.435   1.897   0.234  1.00  0.00    -0.060 A 
HETATM    3  C3  UNL     1       4.299   0.832   0.354  1.00  0.00     0.016 A 
HETATM    4  C4  UNL     1       3.769  -0.406   0.414  1.00  0.00    -0.022 A 
HETATM    5  C9  UNL     1       2.384  -0.546   0.351  1.00  0.00     0.097 A 
HETATM    6  O1  UNL     1       1.902  -1.787   0.460  1.00  0.00    -0.272 OA
HETATM    7  C10 UNL     1       0.625  -2.022   0.435  1.00  0.00     0.316 A 
HETATM    8  O2  UNL     1       0.203  -3.207   0.552  1.00  0.00    -0.257 OA
HETATM    9  C11 UNL     1      -0.306  -1.029   0.291  1.00  0.00     0.121 A 
HETATM   10  N1  UNL     1      -1.620  -1.035   0.145  1.00  0.00    -0.349 N 
ATOM     11  H1  UNL     1      -2.217  -1.859   0.206  1.00  0.00     0.166 HD
HETATM   12  C12 UNL     1      -2.049   0.232  -0.100  1.00  0.00     0.058 A 
HETATM   13  C13 UNL     1      -3.325   0.593  -0.464  1.00  0.00     0.033 A 
HETATM   14  C20 UNL     1      -3.469   1.909  -0.864  1.00  0.00     0.129 A 
HETATM   15  F1  UNL     1      -4.706   2.316  -1.222  1.00  0.00    -0.205 F 
HETATM   16  C21 UNL     1      -2.404   2.751  -0.888  1.00  0.00     0.050 A 
HETATM   17  C22 UNL     1      -1.097   2.379  -0.518  1.00  0.00    -0.046 A 
HETATM   18  C23 UNL     1      -0.078   3.371  -0.939  1.00  0.00     0.049 C 
HETATM   19  C24 UNL     1      -0.930   1.085  -0.104  1.00  0.00     0.011 A 
HETATM   20  C25 UNL     1       0.166   0.298   0.166  1.00  0.00     0.023 A 
HETATM   21  C26 UNL     1       1.510   0.509   0.215  1.00  0.00     0.013 A 
HETATM   22  C27 UNL     1       2.080   1.722   0.173  1.00  0.00     0.022 A 
ENDROOT
BRANCH  13  23
HETATM   23  C14 UNL     1      -4.516  -0.273  -0.369  1.00  0.00    -0.058 A 
HETATM   24  C15 UNL     1      -4.987  -0.683  -1.769  1.00  0.00     0.036 A 
HETATM   25  C16 UNL     1      -5.552  -2.047  -1.571  1.00  0.00     0.005 A 
HETATM   26  C17 UNL     1      -5.437  -2.434  -0.142  1.00  0.00     0.011 A 
HETATM   27  C18 UNL     1      -4.813  -1.255   0.621  1.00  0.00     0.039 A 
BRANCH  27  28
HETATM   28  C19 UNL     1      -5.957  -0.807   1.573  1.00  0.00     0.173 C 
BRANCH  28  29
HETATM   29  O3  UNL     1      -7.127  -0.548   0.920  1.00  0.00    -0.400 OA
ATOM     30  H3  UNL     1      -7.826  -0.274   1.502  1.00  0.00     0.209 HD
ENDBRANCH  28  29
ENDBRANCH  27  28
ENDBRANCH  13  23
BRANCH   4  31
HETATM   31  C5  UNL     1       4.537  -1.652   0.471  1.00  0.00     0.045 C 
BRANCH  31  32
HETATM   32  C6  UNL     1       6.005  -1.596   0.531  1.00  0.00    -0.018 C 
HETATM   33  C7  UNL     1       6.618  -0.919   1.706  1.00  0.00     0.010 C 
HETATM   34  C8  UNL     1       6.619  -1.074  -0.786  1.00  0.00     0.010 C 
ENDBRANCH  31  32
ENDBRANCH   4  31
TORSDOF 5
