REMARK  4 active torsions:
REMARK  status: ('A' for Active; 'I' for Inactive)
REMARK    1  A    between atoms: C2_2  and  C3_3 
REMARK    2  A    between atoms: C7_7  and  N1_8 
REMARK    3  A    between atoms: C14_19  and  C15_20 
REMARK    4  A    between atoms: C16_21  and  C17_22 
ROOT
HETATM    1  C3  UNL     1      -5.856   0.111  -0.481  1.00  0.00     0.011 A 
HETATM    2  C4  UNL     1      -5.336  -0.820   0.407  1.00  0.00     0.033 A 
HETATM    3  C5  UNL     1      -3.984  -0.899   0.634  1.00  0.00    -0.039 A 
HETATM    4  C6  UNL     1      -3.144  -0.041  -0.032  1.00  0.00    -0.003 A 
HETATM    5  C7  UNL     1      -3.704   0.888  -0.923  1.00  0.00     0.106 A 
HETATM    6  N2  UNL     1      -5.036   0.950  -1.132  1.00  0.00    -0.346 N 
ATOM      7  H2  UNL     1      -5.419   1.634  -1.784  1.00  0.00     0.167 HD
HETATM    8  C8  UNL     1      -1.700   0.130  -0.013  1.00  0.00     0.032 C 
HETATM    9  C9  UNL     1      -1.364   1.253   0.944  1.00  0.00     0.011 C 
HETATM   10  C10 UNL     1       0.005   1.184   1.512  1.00  0.00     0.018 C 
HETATM   11  C11 UNL     1       1.057   0.661   0.548  1.00  0.00    -0.001 C 
HETATM   12  C12 UNL     1       1.257   1.704  -0.517  1.00  0.00     0.024 C 
HETATM   13  C13 UNL     1       2.320   0.426   1.255  1.00  0.00    -0.006 C 
HETATM   14  C14 UNL     1       3.287  -0.305   0.606  1.00  0.00    -0.056 C 
HETATM   15  C20 UNL     1       2.904  -0.885  -0.718  1.00  0.00     0.089 C 
HETATM   16  C21 UNL     1       1.469  -1.393  -0.612  1.00  0.00     0.020 C 
HETATM   17 CL1  UNL     1       1.048  -2.934  -1.295  1.00  0.00    -0.088 Cl
HETATM   18  C22 UNL     1       0.567  -0.640   0.005  1.00  0.00    -0.045 C 
HETATM   19  C23 UNL     1      -0.850  -1.071   0.139  1.00  0.00     0.032 C 
HETATM   20  C24 UNL     1      -0.993  -1.907   1.339  1.00  0.00     0.088 C 
HETATM   21  C25 UNL     1      -2.328  -2.600   1.266  1.00  0.00     0.131 C 
HETATM   22  O1  UNL     1      -2.396  -3.745   0.934  1.00  0.00    -0.298 OA
HETATM   23  C26 UNL     1      -3.607  -1.929   1.591  1.00  0.00     0.117 C 
ENDROOT
BRANCH  14  24
HETATM   24  C15 UNL     1       4.528  -0.546   1.285  1.00  0.00     0.003 C 
HETATM   25  C16 UNL     1       5.801  -0.030   0.834  1.00  0.00    -0.022 C 
BRANCH  25  26
HETATM   26  C17 UNL     1       6.407  -0.355  -0.474  1.00  0.00    -0.000 C 
HETATM   27  C18 UNL     1       7.816   0.363  -0.390  1.00  0.00     0.013 C 
HETATM   28  C19 UNL     1       5.816   0.313  -1.690  1.00  0.00     0.013 C 
ENDBRANCH  25  26
ENDBRANCH  14  24
BRANCH   5  29
HETATM   29  N1  UNL     1      -2.946   1.706  -1.568  1.00  0.00    -0.385 N 
ATOM     30  H12 UNL     1      -1.939   1.659  -1.410  1.00  0.00     0.157 HD
ATOM     31  H11 UNL     1      -3.353   2.381  -2.215  1.00  0.00     0.157 HD
ENDBRANCH   5  29
BRANCH   1  32
HETATM   32  C2  UNL     1      -7.309   0.188  -0.717  1.00  0.00     0.052 C 
HETATM   33  C1  UNL     1      -7.629   1.264  -1.711  1.00  0.00     0.011 C 
ENDBRANCH   1  32
TORSDOF 4
