REMARK  5 active torsions:
REMARK  status: ('A' for Active; 'I' for Inactive)
REMARK    1  A    between atoms: O1_2  and  C2_3 
REMARK    2  A    between atoms: C3_4  and  C4_5 
REMARK    3  A    between atoms: C5_8  and  N1_9 
REMARK       I    between atoms: N1_9  and  C6_11 
REMARK    4  A    between atoms: C6_11  and  C7_13 
REMARK       I    between atoms: C7_13  and  N2_15 
REMARK    5  A    between atoms: N2_15  and  C8_17 
ROOT
HETATM    1  C2  UNL     1      -3.203  -0.982   0.202  1.00  0.00     0.159 C 
HETATM    2  C3  UNL     1      -1.839  -1.011  -0.489  1.00  0.00     0.090 C 
HETATM    3  C5  UNL     1      -1.146   0.244  -0.168  1.00  0.00     0.025 C 
HETATM    4  C13 UNL     1      -1.894   1.530  -0.374  1.00  0.00     0.058 C 
HETATM    5  C14 UNL     1      -1.765   2.469   0.846  1.00  0.00     0.044 C 
HETATM    6  C15 UNL     1      -1.375   2.359  -1.533  1.00  0.00     0.044 C 
HETATM    7  N3  UNL     1      -3.300   1.375  -0.563  1.00  0.00    -0.398 N 
ATOM      8  H3  UNL     1      -3.830   2.017  -1.152  1.00  0.00     0.155 HD
HETATM    9  C16 UNL     1      -3.927   0.297   0.099  1.00  0.00     0.046 C 
HETATM   10  C17 UNL     1      -5.251   0.021  -0.631  1.00  0.00     0.040 C 
HETATM   11  C18 UNL     1      -4.317   0.776   1.507  1.00  0.00     0.040 C 
ENDROOT
BRANCH   3  12
HETATM   12  N1  UNL     1       0.217   0.298  -0.655  1.00  0.00    -0.323 N 
HETATM   13  C6  UNL     1       1.353   0.151   0.173  1.00  0.00     0.313 C 
HETATM   14  O2  UNL     1       1.190  -0.037   1.399  1.00  0.00    -0.262 OA
ATOM     15  H1  UNL     1       0.366   0.451  -1.652  1.00  0.00     0.169 HD
BRANCH  13  16
HETATM   16  C7  UNL     1       2.687   0.214  -0.369  1.00  0.00     0.310 C 
HETATM   17  O3  UNL     1       2.844   0.407  -1.621  1.00  0.00    -0.262 OA
HETATM   18  N2  UNL     1       3.859   0.073   0.415  1.00  0.00    -0.341 N 
ATOM     19  H2  UNL     1       3.784  -0.083   1.420  1.00  0.00     0.163 HD
BRANCH  18  20
HETATM   20  C8  UNL     1       5.145   0.149  -0.201  1.00  0.00     0.158 C 
HETATM   21  C9  UNL     1       5.878  -1.156   0.082  1.00  0.00     0.036 C 
HETATM   22  C10 UNL     1       7.315  -0.742  -0.163  1.00  0.00     0.048 C 
HETATM   23  C11 UNL     1       7.406   0.708   0.267  1.00  0.00     0.241 C 
HETATM   24  F1  UNL     1       7.985   1.422  -0.759  1.00  0.00    -0.241 F 
HETATM   25  C12 UNL     1       6.004   1.147   0.467  1.00  0.00     0.183 C 
HETATM   26  O4  UNL     1       5.654   2.149   1.073  1.00  0.00    -0.293 OA
ENDBRANCH  18  20
ENDBRANCH  13  16
ENDBRANCH   3  12
BRANCH   2  27
HETATM   27  C4  UNL     1      -1.898  -1.544  -1.855  1.00  0.00     0.141 C 
HETATM   28 BR1  UNL     1      -2.948  -0.677  -3.166  1.00  0.00    -0.078 Br
HETATM   29 BR2  UNL     1      -0.193  -2.015  -2.634  1.00  0.00    -0.078 Br
ENDBRANCH   2  27
BRANCH   1  30
HETATM   30  O1  UNL     1      -3.004  -1.304   1.525  1.00  0.00    -0.387 OA
HETATM   31  C1  UNL     1      -3.515  -2.533   1.884  1.00  0.00     0.202 C 
ENDBRANCH   1  30
TORSDOF 5
