REMARK  0 active torsions:
REMARK  status: ('A' for Active; 'I' for Inactive)
ROOT
HETATM    1  F1  UNL     1       1.183   0.020   1.365  1.00  0.00    -0.191 F 
HETATM    2  C1  UNL     1       0.704  -0.084   0.082  1.00  0.00     0.364 A 
HETATM    3 CL1  UNL     1       1.881  -0.835  -1.043  1.00  0.00    -0.051 Cl
HETATM    4  C2  UNL     1      -0.730  -0.366  -0.059  1.00  0.00     0.329 A 
HETATM    5  N1  UNL     1      -0.198   0.913  -0.437  1.00  0.00    -0.016 N 
ATOM      6  H11 UNL     1      -0.227   1.471  -1.290  1.00  0.00     0.282 HD
ATOM      7  H12 UNL     1      -0.415   1.877  -0.183  1.00  0.00     0.282 HD
ENDROOT
TORSDOF 0
