REMARK  6 active torsions:
REMARK  status: ('A' for Active; 'I' for Inactive)
REMARK    1  A    between atoms: C2_2  and  N1_3 
REMARK    2  A    between atoms: C5_8  and  N3_9 
REMARK    3  A    between atoms: N3_9  and  C6_11 
REMARK    4  A    between atoms: C6_11  and  C7_12 
REMARK    5  A    between atoms: N4_15  and  C10_16 
REMARK    6  A    between atoms: N6_26  and  C18_28 
ROOT
HETATM    1  N1  UNL     1      -5.027   2.444   1.121  1.00  0.00    -0.301 N 
HETATM    2  C3  UNL     1      -3.767   2.603   1.559  1.00  0.00     0.142 A 
HETATM    3  C4  UNL     1      -3.075   1.539   0.997  1.00  0.00     0.098 A 
HETATM    4  N2  UNL     1      -1.794   1.195   1.088  1.00  0.00    -0.188 N 
ATOM      5  H2  UNL     1      -1.149   1.755   1.646  1.00  0.00     0.184 HD
HETATM    6  C5  UNL     1      -1.351   0.092   0.432  1.00  0.00     0.680 A 
HETATM    7  N5  UNL     1      -2.181  -0.657  -0.304  1.00  0.00    -0.175 N 
ATOM      8  H5  UNL     1      -1.808  -1.478  -0.780  1.00  0.00     0.186 HD
HETATM    9  C17 UNL     1      -3.523  -0.362  -0.445  1.00  0.00     0.148 A 
HETATM   10  N6  UNL     1      -4.189  -1.097  -1.130  1.00  0.00    -0.370 N 
ATOM     11  H6  UNL     1      -3.506  -1.790  -1.436  1.00  0.00     0.161 HD
HETATM   12  C21 UNL     1      -3.947   0.762   0.230  1.00  0.00     0.121 A 
HETATM   13  N7  UNL     1      -5.122   1.386   0.360  1.00  0.00    -0.293 N 
ATOM     14  H7  UNL     1      -5.987   1.074  -0.081  1.00  0.00     0.187 HD
ENDROOT
BRANCH   6  15
HETATM   15  N3  UNL     1      -0.107  -0.161   0.569  1.00  0.00    -0.226 N 
ATOM     16  H3  UNL     1       0.436   0.477   1.151  1.00  0.00     0.177 HD
BRANCH  15  17
HETATM   17  C6  UNL     1       0.591  -1.258  -0.020  1.00  0.00     0.142 C 
BRANCH  17  18
HETATM   18  C7  UNL     1       2.028  -0.848  -0.223  1.00  0.00     0.007 C 
HETATM   19  C8  UNL     1       2.694  -0.491   1.060  1.00  0.00     0.026 C 
HETATM   20  C9  UNL     1       4.147  -0.947   1.103  1.00  0.00     0.117 C 
HETATM   21  N4  UNL     1       4.814  -0.797  -0.133  1.00  0.00    -0.408 N 
HETATM   22  C15 UNL     1       4.172  -1.307  -1.280  1.00  0.00     0.117 C 
HETATM   23  C16 UNL     1       2.849  -1.953  -0.863  1.00  0.00     0.026 C 
BRANCH  21  24
HETATM   24  C10 UNL     1       5.490   0.446  -0.238  1.00  0.00     0.079 C 
HETATM   25  C11 UNL     1       6.583   0.503   0.824  1.00  0.00     0.025 C 
HETATM   26  C12 UNL     1       7.900   0.508   0.098  1.00  0.00     0.002 C 
HETATM   27  C13 UNL     1       7.537   0.020  -1.287  1.00  0.00     0.002 C 
HETATM   28  C14 UNL     1       6.210   0.705  -1.518  1.00  0.00     0.025 C 
ENDBRANCH  21  24
ENDBRANCH  17  18
ENDBRANCH  15  17
ENDBRANCH   6  15
BRANCH  10  29
HETATM   29  C18 UNL     1      -5.327  -1.526  -1.724  1.00  0.00     0.075 C 
HETATM   30  C19 UNL     1      -5.623  -3.024  -1.574  1.00  0.00     0.031 C 
HETATM   31  C20 UNL     1      -6.637  -0.818  -1.440  1.00  0.00     0.031 C 
ENDBRANCH  10  29
BRANCH   1  32
HETATM   32  C2  UNL     1      -6.128   3.330   1.450  1.00  0.00     0.143 C 
HETATM   33  C1  UNL     1      -6.861   2.915   2.694  1.00  0.00     0.028 C 
ENDBRANCH   1  32
TORSDOF 6
