REMARK  8 active torsions:
REMARK  status: ('A' for Active; 'I' for Inactive)
REMARK    1  A    between atoms: C4_4  and  N1_5 
REMARK    2  A    between atoms: N1_5  and  C5_7 
REMARK    3  A    between atoms: C6_10  and  N3_11 
REMARK    4  A    between atoms: C7_13  and  C8_14 
REMARK    5  A    between atoms: C8_14  and  N4_15 
REMARK    6  A    between atoms: C13_23  and  N6_24 
REMARK    7  A    between atoms: N6_24  and  C14_26 
REMARK    8  A    between atoms: C17_29  and  N7_30 
ROOT
HETATM    1  C5  UNL     1      -0.759   2.018  -0.959  1.00  0.00     0.711 A 
HETATM    2  N2  UNL     1      -2.047   1.763  -0.718  1.00  0.00    -0.021 N 
ATOM      3  H2  UNL     1      -2.753   2.436  -1.017  1.00  0.00     0.203 HD
HETATM    4  C6  UNL     1      -2.444   0.606  -0.072  1.00  0.00     0.711 A 
HETATM    5  N5  UNL     1      -1.455  -0.211   0.280  1.00  0.00    -0.021 N 
ATOM      6  H5  UNL     1      -1.715  -1.073   0.759  1.00  0.00     0.203 HD
HETATM    7  C13 UNL     1      -0.133  -0.003   0.061  1.00  0.00     0.711 A 
HETATM    8  N8  UNL     1       0.188   1.136  -0.570  1.00  0.00    -0.021 N 
ATOM      9  H8  UNL     1       1.169   1.341  -0.761  1.00  0.00     0.203 HD
ENDROOT
BRANCH   7  10
HETATM   10  N6  UNL     1       0.680  -0.879   0.462  1.00  0.00    -0.191 N 
ATOM     11  H6  UNL     1       0.236  -1.673   0.922  1.00  0.00     0.184 HD
BRANCH  10  12
HETATM   12  C14 UNL     1       2.056  -0.970   0.398  1.00  0.00     0.049 A 
HETATM   13  C15 UNL     1       2.690  -2.092  -0.086  1.00  0.00     0.032 A 
HETATM   14  C16 UNL     1       4.058  -2.202  -0.156  1.00  0.00     0.031 A 
HETATM   15  C17 UNL     1       4.882  -1.157   0.270  1.00  0.00     0.030 A 
HETATM   16  C23 UNL     1       4.262  -0.033   0.754  1.00  0.00     0.031 A 
HETATM   17  C24 UNL     1       2.871   0.053   0.815  1.00  0.00     0.032 A 
BRANCH  15  18
HETATM   18  N7  UNL     1       6.296  -1.288   0.202  1.00  0.00    -0.381 N 
HETATM   19  C18 UNL     1       7.132  -0.127   0.334  1.00  0.00     0.123 C 
HETATM   20  C19 UNL     1       8.173  -0.234  -0.794  1.00  0.00     0.020 C 
HETATM   21  C20 UNL     1       9.018  -1.439  -0.543  1.00  0.00     0.003 C 
HETATM   22  C21 UNL     1       8.394  -2.424   0.436  1.00  0.00     0.020 C 
HETATM   23  C22 UNL     1       6.930  -2.575   0.013  1.00  0.00     0.123 C 
ENDBRANCH  15  18
ENDBRANCH  10  12
ENDBRANCH   7  10
BRANCH   4  24
HETATM   24  N3  UNL     1      -3.658   0.482   0.096  1.00  0.00    -0.203 N 
HETATM   25  C7  UNL     1      -4.688  -0.271   0.582  1.00  0.00     0.098 C 
ATOM     26  H3  UNL     1      -4.085   1.315  -0.310  1.00  0.00     0.183 HD
BRANCH  25  27
HETATM   27  C8  UNL     1      -4.316  -1.590   1.133  1.00  0.00     0.167 C 
BRANCH  27  28
HETATM   28  N4  UNL     1      -5.374  -2.388   1.646  1.00  0.00    -0.385 N 
HETATM   29  C9  UNL     1      -6.018  -1.955   2.825  1.00  0.00     0.148 C 
HETATM   30  C10 UNL     1      -7.332  -1.299   2.605  1.00  0.00     0.187 C 
HETATM   31  O1  UNL     1      -7.796  -1.247   1.328  1.00  0.00    -0.385 OA
HETATM   32  C11 UNL     1      -7.533  -2.302   0.509  1.00  0.00     0.212 C 
HETATM   33  C12 UNL     1      -6.254  -3.029   0.760  1.00  0.00     0.084 C 
ENDBRANCH  27  28
ENDBRANCH  25  27
ENDBRANCH   4  24
BRANCH   1  34
HETATM   34  N1  UNL     1      -0.370   3.095  -1.560  1.00  0.00    -0.191 N 
ATOM     35  H1  UNL     1       0.628   3.234  -1.718  1.00  0.00     0.184 HD
BRANCH  34  36
HETATM   36  C4  UNL     1      -1.273   4.088  -2.007  1.00  0.00     0.049 A 
HETATM   37  C3  UNL     1      -1.776   4.133  -3.283  1.00  0.00     0.030 A 
HETATM   38  C2  UNL     1      -2.665   5.138  -3.665  1.00  0.00     0.002 A 
HETATM   39  C1  UNL     1      -3.055   6.106  -2.768  1.00  0.00     0.000 A 
HETATM   40  C26 UNL     1      -2.559   6.081  -1.470  1.00  0.00     0.002 A 
HETATM   41  C25 UNL     1      -1.691   5.077  -1.142  1.00  0.00     0.030 A 
ENDBRANCH  34  36
ENDBRANCH   1  34
TORSDOF 8
