REMARK  7 active torsions:
REMARK  status: ('A' for Active; 'I' for Inactive)
REMARK    1  A    between atoms: O1_2  and  C2_3 
REMARK    2  A    between atoms: C7_8  and  N1_9 
REMARK    3  A    between atoms: N1_9  and  C8_11 
REMARK    4  A    between atoms: C11_16  and  N3_17 
REMARK    5  A    between atoms: N3_17  and  C12_19 
REMARK    6  A    between atoms: C12_19  and  C13_20 
REMARK    7  A    between atoms: C13_20  and  N4_21 
ROOT
HETATM    1  N1  UNL     1      -1.372   0.899  -1.325  1.00  0.00    -0.189 N 
ATOM      2  H1  UNL     1      -1.246   1.323  -2.244  1.00  0.00     0.184 HD
ENDROOT
BRANCH   1   3
HETATM    3  C7  UNL     1      -2.687   0.656  -0.904  1.00  0.00     0.084 A 
HETATM    4  C2  UNL     1      -3.230  -0.612  -1.080  1.00  0.00     0.096 A 
HETATM    5  C3  UNL     1      -4.513  -0.888  -0.686  1.00  0.00     0.049 A 
HETATM    6  C4  UNL     1      -5.260   0.145  -0.100  1.00  0.00    -0.011 A 
HETATM    7  C5  UNL     1      -4.746   1.395   0.081  1.00  0.00     0.044 A 
HETATM    8  C20 UNL     1      -6.653   0.132   0.423  1.00  0.00     0.074 A 
HETATM    9  C6  UNL     1      -3.429   1.658  -0.329  1.00  0.00     0.063 A 
HETATM   10  N7  UNL     1      -5.702   2.257   0.677  1.00  0.00    -0.326 N 
HETATM   11  C19 UNL     1      -6.884   1.514   0.882  1.00  0.00     0.235 A 
ATOM     12  H7  UNL     1      -5.560   3.239   0.915  1.00  0.00     0.169 HD
HETATM   13  O2  UNL     1      -7.968   1.985   1.385  1.00  0.00    -0.272 OA
HETATM   14  C21 UNL     1      -6.769  -0.818   1.604  1.00  0.00     0.050 C 
HETATM   15  C24 UNL     1      -7.635  -0.141  -0.672  1.00  0.00     0.050 C 
HETATM   16  C22 UNL     1      -7.477  -2.062   1.121  1.00  0.00     0.169 C 
HETATM   17  O3  UNL     1      -8.799  -1.636   0.851  1.00  0.00    -0.391 OA
HETATM   18  C23 UNL     1      -8.820  -0.960  -0.340  1.00  0.00     0.169 C 
BRANCH   4  19
HETATM   19  O1  UNL     1      -2.484  -1.636  -1.663  1.00  0.00    -0.354 OA
HETATM   20  C1  UNL     1      -3.024  -2.923  -1.848  1.00  0.00     0.210 C 
ENDBRANCH   4  19
ENDBRANCH   1   3
BRANCH   1  21
HETATM   21  C8  UNL     1      -0.328   0.636  -0.658  1.00  0.00     0.684 A 
HETATM   22  N2  UNL     1      -0.432   0.076   0.564  1.00  0.00    -0.202 N 
HETATM   23  C9  UNL     1       0.711  -0.188   1.217  1.00  0.00     0.110 A 
ATOM     24  H2  UNL     1      -1.341  -0.138   0.975  1.00  0.00     0.183 HD
HETATM   25  C10 UNL     1       1.949   0.082   0.704  1.00  0.00     0.066 A 
HETATM   26  C11 UNL     1       2.014   0.652  -0.541  1.00  0.00     0.118 A 
HETATM   27  N6  UNL     1       0.872   0.927  -1.217  1.00  0.00    -0.177 N 
ATOM     28  H6  UNL     1       0.915   1.352  -2.143  1.00  0.00     0.186 HD
BRANCH  26  29
HETATM   29  N3  UNL     1       3.107   0.955  -1.157  1.00  0.00    -0.374 N 
ATOM     30  H3  UNL     1       3.021   1.376  -2.082  1.00  0.00     0.161 HD
BRANCH  29  31
HETATM   31  C12 UNL     1       4.432   0.750  -0.650  1.00  0.00     0.140 C 
BRANCH  31  32
HETATM   32  C13 UNL     1       5.419   1.691  -1.302  1.00  0.00     0.136 C 
BRANCH  32  33
HETATM   33  N4  UNL     1       6.757   1.508  -0.825  1.00  0.00    -0.408 N 
HETATM   34  C14 UNL     1       6.975   1.884   0.537  1.00  0.00     0.147 C 
HETATM   35  C15 UNL     1       7.376   0.720   1.415  1.00  0.00     0.291 C 
HETATM   36  N5  UNL     1       8.573   0.086   0.901  1.00  0.00     0.087 N 
HETATM   37  C16 UNL     1       8.647  -1.276   1.429  1.00  0.00     0.310 C 
HETATM   38  C17 UNL     1       8.691   0.136  -0.524  1.00  0.00     0.291 C 
HETATM   39  C18 UNL     1       7.368   0.283  -1.228  1.00  0.00     0.147 C 
ENDBRANCH  32  33
ENDBRANCH  31  32
ENDBRANCH  29  31
ENDBRANCH  26  29
ENDBRANCH   1  21
TORSDOF 7
