REMARK  12 active torsions:
REMARK  status: ('A' for Active; 'I' for Inactive)
REMARK    1  A    between atoms: C2_2  and  C4_4 
REMARK    2  A    between atoms: C4_4  and  N1_5 
REMARK    3  A    between atoms: C4_4  and  C9_12 
REMARK       I    between atoms: N1_5  and  C5_7 
REMARK    4  A    between atoms: C5_7  and  C6_9 
REMARK       I    between atoms: C9_12  and  N2_14 
REMARK       I    between atoms: N3_17  and  C12_18 
REMARK    5  A    between atoms: C12_18  and  O4_20 
REMARK    6  A    between atoms: O4_20  and  C13_21 
REMARK    7  A    between atoms: C13_21  and  C14_22 
REMARK    8  A    between atoms: C16_27  and  C17_28 
REMARK       I    between atoms: C17_28  and  N6_30 
REMARK    9  A    between atoms: N6_30  and  C18_32 
REMARK   10  A    between atoms: C18_32  and  C21_35 
REMARK   11  A    between atoms: C21_35  and  O6_36 
REMARK   12  A    between atoms: O6_36  and  C22_37 
ROOT
HETATM    1  O4  UNL     1       0.886   0.973  -0.855  1.00  0.00    -0.298 OA
ENDROOT
BRANCH   1   2
HETATM    2  C12 UNL     1       1.480   1.005   0.337  1.00  0.00     0.366 C 
HETATM    3  N3  UNL     1       2.540   0.128   0.680  1.00  0.00    -0.304 N 
HETATM    4  C11 UNL     1       3.153  -0.648  -0.424  1.00  0.00     0.153 C 
HETATM    5  C27 UNL     1       3.034  -0.133   1.968  1.00  0.00     0.089 C 
HETATM    6  C10 UNL     1       4.590   0.002  -0.443  1.00  0.00     0.146 C 
HETATM    7  N2  UNL     1       5.213  -0.395   0.798  1.00  0.00    -0.344 N 
HETATM    8  C9  UNL     1       6.637  -0.422   0.888  1.00  0.00     0.243 C 
HETATM    9  C28 UNL     1       4.450  -0.679   1.971  1.00  0.00     0.170 C 
HETATM   10  O2  UNL     1       7.200  -0.966   1.842  1.00  0.00    -0.271 OA
HETATM   11  O3  UNL     1       1.006   1.874   1.140  1.00  0.00    -0.238 OA
BRANCH   8  12
HETATM   12  C4  UNL     1       7.446   0.248  -0.201  1.00  0.00     0.180 C 
BRANCH  12  13
HETATM   13  C2  UNL     1       7.686   1.678   0.301  1.00  0.00     0.009 C 
HETATM   14  C1  UNL     1       8.316   2.483  -0.780  1.00  0.00     0.012 C 
HETATM   15  C3  UNL     1       8.580   1.629   1.526  1.00  0.00     0.012 C 
ENDBRANCH  12  13
BRANCH  12  16
HETATM   16  N1  UNL     1       8.622  -0.427  -0.595  1.00  0.00    -0.347 N 
HETATM   17  C5  UNL     1       8.735  -1.784  -0.939  1.00  0.00     0.222 C 
HETATM   18  O1  UNL     1       7.769  -2.599  -0.866  1.00  0.00    -0.273 OA
ATOM     19  H1  UNL     1       9.477   0.128  -0.634  1.00  0.00     0.163 HD
BRANCH  17  20
HETATM   20  C6  UNL     1      10.037  -2.341  -1.422  1.00  0.00     0.078 A 
HETATM   21  C7  UNL     1      10.355  -3.757  -1.415  1.00  0.00     0.015 A 
HETATM   22  C8  UNL     1      10.990  -2.878  -0.361  1.00  0.00     0.015 A 
ENDBRANCH  17  20
ENDBRANCH  12  16
ENDBRANCH   8  12
ENDBRANCH   1   2
BRANCH   1  23
HETATM   23  C13 UNL     1       0.006   1.404  -1.733  1.00  0.00     0.241 C 
BRANCH  23  24
HETATM   24  C14 UNL     1      -1.412   1.529  -1.220  1.00  0.00     0.074 A 
HETATM   25  N4  UNL     1      -1.892   2.558  -0.495  1.00  0.00    -0.299 N 
HETATM   26  N5  UNL     1      -3.220   2.406  -0.346  1.00  0.00    -0.290 N 
ATOM     27  H4  UNL     1      -1.338   3.328  -0.120  1.00  0.00     0.187 HD
HETATM   28  C15 UNL     1      -4.072   3.373   0.278  1.00  0.00     0.178 C 
HETATM   29  C16 UNL     1      -3.589   1.280  -0.965  1.00  0.00     0.142 A 
HETATM   30  C26 UNL     1      -2.459   0.698  -1.547  1.00  0.00     0.094 A 
HETATM   31 CL1  UNL     1      -2.322  -0.744  -2.511  1.00  0.00    -0.079 Cl
BRANCH  29  32
HETATM   32  C17 UNL     1      -4.828   0.497  -0.856  1.00  0.00     0.272 C 
HETATM   33  O5  UNL     1      -5.180  -0.275  -1.798  1.00  0.00    -0.266 OA
HETATM   34  N6  UNL     1      -5.601   0.595   0.313  1.00  0.00    -0.345 N 
ATOM     35  H6  UNL     1      -5.269   1.270   1.002  1.00  0.00     0.163 HD
BRANCH  34  36
HETATM   36  C18 UNL     1      -6.758  -0.099   0.666  1.00  0.00     0.047 C 
HETATM   37  C19 UNL     1      -6.482  -1.607   0.784  1.00  0.00     0.040 C 
HETATM   38  C20 UNL     1      -7.175   0.308   2.106  1.00  0.00     0.040 C 
BRANCH  36  39
HETATM   39  C21 UNL     1      -7.979   0.088  -0.229  1.00  0.00     0.199 C 
BRANCH  39  40
HETATM   40  O6  UNL     1      -8.955  -0.741   0.224  1.00  0.00    -0.379 OA
BRANCH  40  41
HETATM   41  C22 UNL     1     -10.202  -0.723  -0.270  1.00  0.00     0.050 C 
HETATM   42  C23 UNL     1     -10.330  -0.868  -1.786  1.00  0.00     0.045 C 
HETATM   43  C24 UNL     1     -11.142   0.326   0.244  1.00  0.00     0.045 C 
HETATM   44  C25 UNL     1     -10.834  -2.070   0.229  1.00  0.00     0.045 C 
ENDBRANCH  40  41
ENDBRANCH  39  40
ENDBRANCH  36  39
ENDBRANCH  34  36
ENDBRANCH  29  32
ENDBRANCH  23  24
ENDBRANCH   1  23
TORSDOF 12
