REMARK  5 active torsions:
REMARK  status: ('A' for Active; 'I' for Inactive)
REMARK    1  A    between atoms: C5_6  and  O2_7 
REMARK    2  A    between atoms: O2_7  and  C6_8 
REMARK    3  A    between atoms: C14_16  and  O3_17 
REMARK    4  A    between atoms: C20_24  and  C21_25 
REMARK    5  A    between atoms: C21_25  and  O4_26 
ROOT
HETATM    1  O1  UNL     1      -0.680   2.063   2.713  1.00  0.00    -0.297 OA
HETATM    2  C1  UNL     1      -1.267   1.487   1.786  1.00  0.00     0.135 C 
HETATM    3  C2  UNL     1      -1.020   2.005   0.396  1.00  0.00     0.057 C 
HETATM    4  C3  UNL     1       0.365   1.720   0.018  1.00  0.00     0.015 C 
HETATM    5  C4  UNL     1       0.768   1.222  -1.319  1.00  0.00     0.034 C 
HETATM    6  C5  UNL     1       1.677   0.001  -1.289  1.00  0.00     0.133 C 
HETATM    7  C12 UNL     1       1.056  -1.329  -1.438  1.00  0.00     0.021 A 
HETATM    8  C13 UNL     1      -0.361  -1.488  -1.798  1.00  0.00     0.045 A 
HETATM    9  C14 UNL     1      -0.736  -2.112  -0.484  1.00  0.00     0.062 A 
HETATM   10  C15 UNL     1       0.670  -1.988  -0.096  1.00  0.00     0.045 A 
HETATM   11  C16 UNL     1      -1.830  -1.507   0.314  1.00  0.00     0.021 C 
HETATM   12  C17 UNL     1      -1.509  -0.946   1.653  1.00  0.00     0.020 C 
HETATM   13  C18 UNL     1      -2.172   0.332   2.062  1.00  0.00     0.057 C 
HETATM   14  C19 UNL     1      -3.441   0.653   1.378  1.00  0.00     0.024 C 
HETATM   15  C20 UNL     1      -3.128   0.669  -0.095  1.00  0.00    -0.017 C 
HETATM   16  C22 UNL     1      -2.148   1.712  -0.512  1.00  0.00     0.024 C 
HETATM   17  C23 UNL     1      -2.861  -0.736  -0.484  1.00  0.00     0.019 C 
ENDROOT
BRANCH   6  18
HETATM   18  O2  UNL     1       2.451  -0.017  -0.132  1.00  0.00    -0.345 OA
BRANCH  18  19
HETATM   19  C6  UNL     1       3.793   0.064   0.071  1.00  0.00     0.069 A 
HETATM   20  C7  UNL     1       4.346   0.023   1.359  1.00  0.00     0.037 A 
HETATM   21  C8  UNL     1       5.701   0.105   1.563  1.00  0.00     0.003 A 
HETATM   22  C9  UNL     1       6.576   0.231   0.513  1.00  0.00     0.000 A 
HETATM   23  C10 UNL     1       6.063   0.275  -0.761  1.00  0.00     0.003 A 
HETATM   24  C11 UNL     1       4.676   0.190  -0.961  1.00  0.00     0.037 A 
ENDBRANCH  18  19
ENDBRANCH   6  18
BRANCH   9  25
HETATM   25  O3  UNL     1      -1.015  -3.494  -0.766  1.00  0.00    -0.389 OA
ATOM     26  H3  UNL     1      -1.252  -3.889   0.065  1.00  0.00     0.210 HD
ENDBRANCH   9  25
BRANCH  15  27
HETATM   27  C21 UNL     1      -4.488   1.037  -0.743  1.00  0.00     0.173 C 
BRANCH  27  28
HETATM   28  O4  UNL     1      -5.449   0.105  -0.433  1.00  0.00    -0.400 OA
ATOM     29  H4  UNL     1      -6.282   0.330  -0.830  1.00  0.00     0.209 HD
ENDBRANCH  27  28
ENDBRANCH  15  27
TORSDOF 5
