REMARK  9 active torsions:
REMARK  status: ('A' for Active; 'I' for Inactive)
REMARK    1  A    between atoms: C2_2  and  O1_4 
REMARK    2  A    between atoms: C2_2  and  C4_6 
REMARK    3  A    between atoms: C4_6  and  C5_8 
REMARK       I    between atoms: C5_8  and  N1_10 
REMARK    4  A    between atoms: N1_10  and  C6_12 
REMARK    5  A    between atoms: C6_12  and  C7_13 
REMARK    6  A    between atoms: C6_12  and  C15_21 
REMARK    7  A    between atoms: C8_14  and  C9_15 
REMARK    8  A    between atoms: C15_21  and  O4_22 
REMARK    9  A    between atoms: C15_21  and  O5_24 
ROOT
HETATM    1  C6  UNL     1       0.004  -1.412   1.114  1.00  0.00     0.219 C 
ENDROOT
BRANCH   1   2
HETATM    2  N1  UNL     1      -0.961  -0.809   0.226  1.00  0.00    -0.335 N 
HETATM    3  C5  UNL     1      -2.013   0.029   0.657  1.00  0.00     0.291 C 
HETATM    4  O3  UNL     1      -2.168   0.305   1.903  1.00  0.00    -0.264 OA
ATOM      5  H1  UNL     1      -0.878  -1.000  -0.773  1.00  0.00     0.164 HD
BRANCH   3   6
HETATM    6  C4  UNL     1      -2.924   0.580  -0.331  1.00  0.00     0.249 C 
HETATM    7  O2  UNL     1      -2.745   0.291  -1.535  1.00  0.00    -0.284 OA
BRANCH   6   8
HETATM    8  C2  UNL     1      -4.058   1.477   0.079  1.00  0.00     0.120 C 
HETATM    9  C1  UNL     1      -5.361   0.779  -0.289  1.00  0.00     0.054 C 
HETATM   10  C3  UNL     1      -3.951   2.825  -0.589  1.00  0.00     0.054 C 
BRANCH   8  11
HETATM   11  O1  UNL     1      -4.073   1.665   1.448  1.00  0.00    -0.382 OA
ATOM     12  H1  UNL     1      -3.260   2.100   1.678  1.00  0.00     0.211 HD
ENDBRANCH   8  11
ENDBRANCH   6   8
ENDBRANCH   3   6
ENDBRANCH   1   2
BRANCH   1  13
HETATM   13  C7  UNL     1       1.353  -0.948   0.728  1.00  0.00    -0.070 C 
HETATM   14  C8  UNL     1       2.450  -0.549   0.422  1.00  0.00    -0.065 C 
BRANCH  14  15
HETATM   15  C9  UNL     1       3.752  -0.055   0.072  1.00  0.00     0.017 A 
HETATM   16  C10 UNL     1       3.925   0.639  -1.107  1.00  0.00     0.020 A 
HETATM   17  C11 UNL     1       5.151   1.140  -1.501  1.00  0.00     0.001 A 
HETATM   18  C12 UNL     1       6.244   0.935  -0.677  1.00  0.00     0.000 A 
HETATM   19  C13 UNL     1       6.112   0.248   0.505  1.00  0.00     0.001 A 
HETATM   20  C14 UNL     1       4.867  -0.237   0.863  1.00  0.00     0.020 A 
ENDBRANCH  14  15
ENDBRANCH   1  13
BRANCH   1  21
HETATM   21  C15 UNL     1      -0.061  -2.920   1.088  1.00  0.00     0.288 C 
BRANCH  21  22
HETATM   22  O4  UNL     1       0.191  -3.421  -0.189  1.00  0.00    -0.368 OA
ATOM     23  H4  UNL     1       0.150  -4.370  -0.205  1.00  0.00     0.212 HD
ENDBRANCH  21  22
BRANCH  21  24
HETATM   24  O5  UNL     1       0.891  -3.408   1.977  1.00  0.00    -0.368 OA
ATOM     25  H5  UNL     1       0.850  -4.357   1.961  1.00  0.00     0.212 HD
ENDBRANCH  21  24
ENDBRANCH   1  21
TORSDOF 9
