REMARK  7 active torsions:
REMARK  status: ('A' for Active; 'I' for Inactive)
REMARK    1  A    between atoms: C3_3  and  N1_4 
REMARK    2  A    between atoms: N1_4  and  C4_6 
REMARK    3  A    between atoms: N5_15  and  C7_17 
REMARK    4  A    between atoms: C11_22  and  N6_23 
REMARK    5  A    between atoms: N6_23  and  C12_25 
REMARK    6  A    between atoms: C12_25  and  C13_26 
REMARK    7  A    between atoms: N8_36  and  C20_38 
ROOT
HETATM    1  C1  UNL     1      -8.023   2.951  -0.391  1.00  0.00     0.014 C 
HETATM    2  C2  UNL     1      -7.297   2.834   0.561  1.00  0.00    -0.098 C 
HETATM    3  C3  UNL     1      -6.421   2.682   1.748  1.00  0.00     0.215 C 
ENDROOT
BRANCH   3   4
HETATM    4  N1  UNL     1      -5.274   1.881   1.483  1.00  0.00    -0.364 N 
ATOM      5  H1  UNL     1      -5.430   0.955   1.085  1.00  0.00     0.162 HD
BRANCH   4   6
HETATM    6  C4  UNL     1      -4.058   2.232   1.705  1.00  0.00     0.134 A 
HETATM    7  N2  UNL     1      -3.625   3.399   2.219  1.00  0.00    -0.283 N 
HETATM    8  N3  UNL     1      -2.308   3.318   2.262  1.00  0.00    -0.283 N 
ATOM      9  H2  UNL     1      -4.200   4.188   2.516  1.00  0.00     0.188 HD
HETATM   10  C5  UNL     1      -1.877   2.135   1.792  1.00  0.00     0.153 A 
ATOM     11  H3  UNL     1      -1.697   4.058   2.607  1.00  0.00     0.188 HD
HETATM   12  N4  UNL     1      -0.656   1.562   1.618  1.00  0.00    -0.174 N 
HETATM   13  C25 UNL     1      -2.980   1.414   1.425  1.00  0.00     0.099 A 
HETATM   14  C6  UNL     1      -0.491   0.332   1.109  1.00  0.00     0.685 A 
ATOM     15  H4  UNL     1       0.173   2.092   1.887  1.00  0.00     0.186 HD
HETATM   16  N5  UNL     1       0.636  -0.267   0.959  1.00  0.00    -0.192 N 
HETATM   17  N7  UNL     1      -1.612  -0.370   0.748  1.00  0.00    -0.176 N 
ATOM     18  H5  UNL     1       0.621  -1.203   0.555  1.00  0.00     0.184 HD
HETATM   19  C19 UNL     1      -2.851   0.117   0.884  1.00  0.00     0.135 A 
ATOM     20  H7  UNL     1      -1.496  -1.305   0.358  1.00  0.00     0.186 HD
HETATM   21  N8  UNL     1      -3.931  -0.460   0.566  1.00  0.00    -0.370 N 
ATOM     22  H8  UNL     1      -4.802   0.042   0.738  1.00  0.00     0.161 HD
BRANCH  16  23
HETATM   23  C7  UNL     1       1.889   0.268   1.309  1.00  0.00     0.051 A 
HETATM   24  C8  UNL     1       2.202   0.724   2.576  1.00  0.00     0.032 A 
HETATM   25  C9  UNL     1       3.430   1.248   2.923  1.00  0.00     0.028 A 
HETATM   26  C10 UNL     1       4.422   1.332   1.965  1.00  0.00     0.060 A 
HETATM   27 CL1  UNL     1       5.989   1.997   2.410  1.00  0.00    -0.082 Cl
HETATM   28  C11 UNL     1       4.157   0.883   0.666  1.00  0.00     0.052 A 
HETATM   29  C18 UNL     1       2.920   0.371   0.369  1.00  0.00     0.060 A 
BRANCH  28  30
HETATM   30  N6  UNL     1       5.165   0.985  -0.324  1.00  0.00    -0.388 N 
ATOM     31  H6  UNL     1       6.010   1.500  -0.075  1.00  0.00     0.159 HD
BRANCH  30  32
HETATM   32  C12 UNL     1       5.104   0.431  -1.640  1.00  0.00     0.124 C 
BRANCH  32  33
HETATM   33  C13 UNL     1       5.170  -1.087  -1.613  1.00  0.00     0.007 C 
HETATM   34  C14 UNL     1       5.113  -1.715  -2.965  1.00  0.00     0.032 C 
HETATM   35  C15 UNL     1       6.399  -1.709  -3.723  1.00  0.00     0.168 C 
HETATM   36  O1  UNL     1       7.500  -2.081  -2.948  1.00  0.00    -0.391 OA
HETATM   37  C16 UNL     1       7.619  -1.182  -1.878  1.00  0.00     0.168 C 
HETATM   38  C17 UNL     1       6.496  -1.432  -0.932  1.00  0.00     0.032 C 
ENDBRANCH  32  33
ENDBRANCH  30  32
ENDBRANCH  28  30
ENDBRANCH  16  23
BRANCH  21  39
HETATM   39  C20 UNL     1      -4.023  -1.772  -0.021  1.00  0.00     0.083 C 
HETATM   40  C21 UNL     1      -4.931  -2.682   0.783  1.00  0.00     0.025 C 
HETATM   41  C22 UNL     1      -6.052  -3.062  -0.146  1.00  0.00     0.002 C 
HETATM   42  C23 UNL     1      -6.134  -1.874  -1.085  1.00  0.00     0.002 C 
HETATM   43  C24 UNL     1      -4.661  -1.649  -1.395  1.00  0.00     0.025 C 
ENDBRANCH  21  39
ENDBRANCH   4   6
ENDBRANCH   3   4
TORSDOF 7
