REMARK  12 active torsions:
REMARK  status: ('A' for Active; 'I' for Inactive)
REMARK    1  A    between atoms: C2_2  and  C3_3 
REMARK    2  A    between atoms: C2_2  and  C4_6 
REMARK    3  A    between atoms: C2_2  and  C16_41 
REMARK    4  A    between atoms: C5_8  and  C6_9 
REMARK    5  A    between atoms: C6_9  and  C7_13 
REMARK    6  A    between atoms: C7_13  and  O3_14 
REMARK    7  A    between atoms: C7_13  and  N3_16 
REMARK    8  A    between atoms: N7_28  and  O4_29 
REMARK    9  A    between atoms: C14_37  and  O5_38 
REMARK   10  A    between atoms: C16_41  and  O6_42 
REMARK   11  A    between atoms: C16_41  and  C17_44 
REMARK   12  A    between atoms: C17_44  and  O7_45 
ROOT
HETATM    1  C4  UNL     1      -1.469  -0.772  -0.547  1.00  0.00     0.089 A 
HETATM    2  O2  UNL     1      -0.464  -1.630  -0.415  1.00  0.00    -0.308 OA
HETATM    3  C5  UNL     1       0.661  -1.049  -0.139  1.00  0.00     0.130 A 
HETATM    4  C10 UNL     1       0.454   0.312  -0.070  1.00  0.00     0.085 A 
HETATM    5  N6  UNL     1       1.250   1.375   0.173  1.00  0.00    -0.348 N 
ATOM      6  H6  UNL     1       2.238   1.207   0.362  1.00  0.00     0.166 HD
HETATM    7  C11 UNL     1       0.810   2.632   0.178  1.00  0.00     0.109 A 
HETATM    8  C12 UNL     1       1.663   3.772   0.439  1.00  0.00     0.191 C 
HETATM    9  N7  UNL     1       2.714   3.744   1.223  1.00  0.00    -0.129 N 
HETATM   10  N8  UNL     1       3.296   5.008   1.247  1.00  0.00     0.022 NA
HETATM   11  N9  UNL     1       2.393   5.934   0.727  1.00  0.00    -0.005 NA
HETATM   12  N10 UNL     1       1.579   5.094  -0.053  1.00  0.00    -0.266 N 
ATOM     13  H10 UNL     1       1.016   5.392  -0.849  1.00  0.00     0.185 HD
HETATM   14  C13 UNL     1      -0.517   2.833  -0.078  1.00  0.00     0.111 A 
HETATM   15  N11 UNL     1      -1.113   4.123  -0.102  1.00  0.00    -0.097 NA
HETATM   16  C14 UNL     1      -1.379   1.757  -0.334  1.00  0.00     0.107 A 
HETATM   17  C15 UNL     1      -0.914   0.462  -0.335  1.00  0.00     0.060 A 
ENDROOT
BRANCH   3  18
HETATM   18  C6  UNL     1       1.958  -1.727   0.067  1.00  0.00     0.090 C 
HETATM   19  N2  UNL     1       1.968  -3.009  -0.021  1.00  0.00    -0.396 N 
ATOM     20  H22 UNL     1       1.109  -3.524  -0.215  1.00  0.00     0.156 HD
ATOM     21  H21 UNL     1       2.863  -3.477   0.121  1.00  0.00     0.156 HD
BRANCH  18  22
HETATM   22  C7  UNL     1       3.191  -0.988   0.345  1.00  0.00     0.295 C 
BRANCH  22  23
HETATM   23  O3  UNL     1       3.527  -0.258  -0.807  1.00  0.00    -0.369 OA
ATOM     24  H3  UNL     1       4.327   0.221  -0.627  1.00  0.00     0.212 HD
ENDBRANCH  22  23
BRANCH  22  25
HETATM   25  N3  UNL     1       4.263  -1.912   0.623  1.00  0.00    -0.252 N 
HETATM   26  C8  UNL     1       4.616  -2.477   1.809  1.00  0.00     0.204 A 
HETATM   27  N4  UNL     1       5.677  -3.269   1.599  1.00  0.00    -0.346 N 
HETATM   28  C9  UNL     1       5.978  -3.198   0.312  1.00  0.00     0.198 A 
ATOM     29  H4  UNL     1       6.163  -3.825   2.302  1.00  0.00     0.167 HD
HETATM   30  N5  UNL     1       5.120  -2.373  -0.289  1.00  0.00    -0.290 N 
ATOM     31  H5  UNL     1       5.119  -2.134  -1.281  1.00  0.00     0.188 HD
ENDBRANCH  22  25
ENDBRANCH  18  22
ENDBRANCH   3  18
BRANCH   1  32
HETATM   32  C2  UNL     1      -2.876  -1.127  -0.854  1.00  0.00     0.113 C 
HETATM   33  C1  UNL     1      -3.269  -0.654  -2.245  1.00  0.00     0.035 C 
BRANCH  32  34
HETATM   34  C3  UNL     1      -3.871  -0.765   0.156  1.00  0.00     0.248 C 
HETATM   35  N1  UNL     1      -3.520  -1.086   1.523  1.00  0.00    -0.061 NA
HETATM   36  O1  UNL     1      -4.956  -0.220  -0.085  1.00  0.00    -0.276 OA
ENDBRANCH  32  34
BRANCH  32  37
HETATM   37  C16 UNL     1      -2.943  -2.641  -0.926  1.00  0.00     0.165 C 
BRANCH  37  38
HETATM   38  O6  UNL     1      -2.078  -3.151  -1.883  1.00  0.00    -0.392 OA
ATOM     39  H6  UNL     1      -2.120  -4.099  -1.928  1.00  0.00     0.210 HD
ENDBRANCH  37  38
BRANCH  37  40
HETATM   40  C17 UNL     1      -4.366  -3.120  -1.093  1.00  0.00     0.197 C 
BRANCH  40  41
HETATM   41  O7  UNL     1      -4.391  -4.509  -0.988  1.00  0.00    -0.398 OA
ATOM     42  H7  UNL     1      -5.286  -4.810  -1.093  1.00  0.00     0.209 HD
ENDBRANCH  40  41
ENDBRANCH  37  40
ENDBRANCH  32  37
ENDBRANCH   1  32
BRANCH  16  43
HETATM   43  O5  UNL     1      -2.707   1.970  -0.593  1.00  0.00    -0.358 OA
ATOM     44  H5  UNL     1      -3.291   1.241  -0.766  1.00  0.00     0.217 HD
ENDBRANCH  16  43
BRANCH   9  45
HETATM   45  O4  UNL     1       3.196   2.668   1.926  1.00  0.00    -0.268 OA
ATOM     46  H4  UNL     1       3.957   2.648   2.494  1.00  0.00     0.246 HD
ENDBRANCH   9  45
TORSDOF 12
