REMARK  11 active torsions:
REMARK  status: ('A' for Active; 'I' for Inactive)
REMARK    1  A    between atoms: C2_3  and  C3_4 
REMARK    2  A    between atoms: C6_9  and  C7_10 
REMARK    3  A    between atoms: C7_10  and  O2_12 
REMARK    4  A    between atoms: O2_12  and  N3_13 
REMARK       I    between atoms: C8_15  and  N5_17 
REMARK    5  A    between atoms: N5_17  and  N6_19 
REMARK    6  A    between atoms: C9_21  and  C10_22 
REMARK    7  A    between atoms: C12_24  and  N7_25 
REMARK    8  A    between atoms: C13_28  and  N8_29 
REMARK    9  A    between atoms: N8_29  and  C14_31 
REMARK   10  A    between atoms: C15_34  and  N10_35 
REMARK   11  A    between atoms: N10_35  and  N11_36 
ROOT
HETATM    1  N1  UNL     1       9.205   1.214  -3.452  1.00  0.00    -0.197 NA
HETATM    2  C1  UNL     1       9.357   0.836  -2.359  1.00  0.00     0.063 C 
HETATM    3  C2  UNL     1       9.558   0.379  -0.969  1.00  0.00     0.163 C 
ENDROOT
BRANCH   3   4
HETATM    4  C3  UNL     1       8.478  -0.547  -0.583  1.00  0.00    -0.029 A 
HETATM    5  C4  UNL     1       8.634  -1.893  -0.797  1.00  0.00     0.095 A 
HETATM    6  N2  UNL     1       7.665  -2.738  -0.453  1.00  0.00    -0.374 N 
HETATM    7  C5  UNL     1       6.498  -2.357   0.110  1.00  0.00     0.105 A 
ATOM      8  H2  UNL     1       7.813  -3.733  -0.625  1.00  0.00     0.164 HD
HETATM    9  C6  UNL     1       6.336  -1.008   0.327  1.00  0.00     0.057 A 
HETATM   10  C18 UNL     1       7.310  -0.102  -0.013  1.00  0.00     0.028 A 
BRANCH   9  11
HETATM   11  C7  UNL     1       5.092  -0.553   0.930  1.00  0.00     0.316 C 
HETATM   12  O1  UNL     1       4.172  -1.366   1.256  1.00  0.00    -0.257 OA
BRANCH  11  13
HETATM   13  O2  UNL     1       4.831   0.786   1.186  1.00  0.00    -0.192 OA
BRANCH  13  14
HETATM   14  N3  UNL     1       3.667   1.241   1.753  1.00  0.00    -0.228 N 
HETATM   15  C8  UNL     1       2.565   1.210   1.092  1.00  0.00     0.227 C 
HETATM   16  N4  UNL     1       2.554   0.704  -0.224  1.00  0.00    -0.060 NA
HETATM   17  N5  UNL     1       1.373   1.692   1.700  1.00  0.00    -0.272 N 
ATOM     18  H5  UNL     1       1.185   1.397   2.658  1.00  0.00     0.189 HD
ATOM     19  H3  UNL     1       3.676   1.606   2.705  1.00  0.00     0.198 HD
BRANCH  17  20
HETATM   20  N6  UNL     1       0.466   2.510   1.113  1.00  0.00    -0.308 N 
HETATM   21  C9  UNL     1      -0.685   2.421   0.701  1.00  0.00     0.126 C 
ATOM     22  H6  UNL     1       0.841   3.449   0.978  1.00  0.00     0.186 HD
BRANCH  21  23
HETATM   23  C10 UNL     1      -1.520   1.216   0.739  1.00  0.00     0.026 A 
HETATM   24  C11 UNL     1      -1.246  -0.028   1.221  1.00  0.00     0.059 A 
HETATM   25  C12 UNL     1      -2.204  -0.972   1.131  1.00  0.00     0.138 A 
HETATM   26  C13 UNL     1      -3.385  -0.619   0.559  1.00  0.00     0.110 A 
HETATM   27  S1  UNL     1      -3.127   1.046   0.158  1.00  0.00    -0.069 SA
BRANCH  25  28
HETATM   28  N7  UNL     1      -1.996  -2.329   1.614  1.00  0.00    -0.113 N 
HETATM   29  O3  UNL     1      -0.840  -2.776   1.590  1.00  0.00    -0.532 OA
HETATM   30  O4  UNL     1      -3.019  -3.096   2.071  1.00  0.00    -0.532 OA
ENDBRANCH  25  28
BRANCH  26  31
HETATM   31  N8  UNL     1      -4.587  -1.374   0.298  1.00  0.00    -0.330 N 
ATOM     32  H8  UNL     1      -4.647  -2.360   0.552  1.00  0.00     0.168 HD
BRANCH  31  33
HETATM   33  C14 UNL     1      -5.692  -0.713  -0.324  1.00  0.00     0.172 C 
HETATM   34  N9  UNL     1      -6.627  -0.256   0.398  1.00  0.00    -0.350 N 
HETATM   35  C15 UNL     1      -7.764   0.415  -0.160  1.00  0.00     0.215 C 
ATOM     36  H9  UNL     1      -6.569  -0.369   1.410  1.00  0.00     0.163 HD
HETATM   37  C16 UNL     1      -7.423   1.062  -1.458  1.00  0.00     0.167 C 
HETATM   38  N12 UNL     1      -6.795   0.109  -2.332  1.00  0.00    -0.351 N 
HETATM   39  C17 UNL     1      -5.662  -0.588  -1.776  1.00  0.00     0.285 C 
ATOM     40  H12 UNL     1      -7.128  -0.062  -3.281  1.00  0.00     0.162 HD
HETATM   41  O5  UNL     1      -4.754  -1.032  -2.512  1.00  0.00    -0.264 OA
BRANCH  35  42
HETATM   42  N10 UNL     1      -8.335   1.389   0.755  1.00  0.00    -0.121 NA
BRANCH  42  43
HETATM   43  N11 UNL     1      -8.738   0.757   1.913  1.00  0.00    -0.346 N 
ATOM     44 2H11 UNL     1      -8.643  -0.244   2.086  1.00  0.00     0.172 HD
ATOM     45 1H11 UNL     1      -9.139   1.441   2.555  1.00  0.00     0.172 HD
ENDBRANCH  42  43
ENDBRANCH  35  42
ENDBRANCH  31  33
ENDBRANCH  26  31
ENDBRANCH  21  23
ENDBRANCH  17  20
ENDBRANCH  13  14
ENDBRANCH  11  13
ENDBRANCH   9  11
ENDBRANCH   3   4
TORSDOF 11
