REMARK  7 active torsions:
REMARK  status: ('A' for Active; 'I' for Inactive)
REMARK    1  A    between atoms: C3_4  and  C4_5 
REMARK    2  A    between atoms: C4_5  and  N1_6 
REMARK    3  A    between atoms: N1_6  and  C5_8 
REMARK    4  A    between atoms: N4_18  and  C11_19 
REMARK    5  A    between atoms: C11_19  and  C12_20 
REMARK    6  A    between atoms: C12_20  and  C13_21 
REMARK    7  A    between atoms: C13_21  and  N5_22 
ROOT
HETATM    1  C5  UNL     1       2.553   1.397   0.612  1.00  0.00     0.117 A 
HETATM    2  N2  UNL     1       2.082   2.496   1.230  1.00  0.00    -0.338 N 
ATOM      3  H2  UNL     1       2.717   3.282   1.370  1.00  0.00     0.168 HD
HETATM    4  C6  UNL     1       0.818   2.612   1.672  1.00  0.00     0.183 A 
HETATM    5  N3  UNL     1      -0.070   1.613   1.517  1.00  0.00    -0.338 N 
ATOM      6  H3  UNL     1      -1.030   1.697   1.850  1.00  0.00     0.168 HD
HETATM    7  C7  UNL     1       0.368   0.496   0.901  1.00  0.00     0.123 A 
HETATM    8  C8  UNL     1       1.669   0.351   0.436  1.00  0.00     0.060 A 
HETATM    9  C9  UNL     1       1.818  -0.888  -0.148  1.00  0.00    -0.018 A 
HETATM   10  C10 UNL     1       0.589  -1.502  -0.033  1.00  0.00     0.020 A 
HETATM   11  N4  UNL     1      -0.276  -0.667   0.596  1.00  0.00    -0.335 N 
HETATM   12  C18 UNL     1       0.475  -2.873  -0.590  1.00  0.00     0.058 C 
HETATM   13  C19 UNL     1       1.652  -3.726  -0.153  1.00  0.00     0.006 C 
HETATM   14  C20 UNL     1       2.965  -3.027  -0.211  1.00  0.00     0.005 C 
HETATM   15  C21 UNL     1       2.910  -1.639  -0.814  1.00  0.00     0.042 C 
ENDROOT
BRANCH  11  16
HETATM   16  C11 UNL     1      -1.666  -0.910   0.920  1.00  0.00     0.132 C 
BRANCH  16  17
HETATM   17  C12 UNL     1      -2.564  -0.437  -0.209  1.00  0.00     0.040 C 
BRANCH  17  18
HETATM   18  C13 UNL     1      -4.020  -0.673   0.109  1.00  0.00     0.118 C 
BRANCH  18  19
HETATM   19  N5  UNL     1      -4.819  -0.204  -0.970  1.00  0.00    -0.408 N 
HETATM   20  C14 UNL     1      -4.845   1.217  -1.158  1.00  0.00     0.143 C 
HETATM   21  C15 UNL     1      -6.183   1.840  -0.845  1.00  0.00     0.187 C 
HETATM   22  O2  UNL     1      -6.762   1.084   0.173  1.00  0.00    -0.388 OA
HETATM   23  C16 UNL     1      -7.205  -0.104  -0.403  1.00  0.00     0.187 C 
HETATM   24  C17 UNL     1      -6.097  -0.839  -1.110  1.00  0.00     0.143 C 
ENDBRANCH  18  19
ENDBRANCH  17  18
ENDBRANCH  16  17
ENDBRANCH  11  16
BRANCH   1  25
HETATM   25  N1  UNL     1       3.779   1.286   0.185  1.00  0.00    -0.369 N 
ATOM     26  H1  UNL     1       4.112   0.442  -0.281  1.00  0.00     0.161 HD
BRANCH  25  27
HETATM   27  C4  UNL     1       4.643   2.428   0.408  1.00  0.00     0.186 C 
BRANCH  27  28
HETATM   28  C3  UNL     1       6.041   2.144   0.001  1.00  0.00     0.070 A 
HETATM   29  O1  UNL     1       6.998   3.030   0.050  1.00  0.00    -0.325 OA
HETATM   30  C2  UNL     1       8.122   2.553  -0.353  1.00  0.00     0.142 A 
HETATM   31  C1  UNL     1       7.936   1.247  -0.706  1.00  0.00     0.027 A 
HETATM   32  C22 UNL     1       6.603   0.984  -0.479  1.00  0.00     0.036 A 
ENDBRANCH  27  28
ENDBRANCH  25  27
ENDBRANCH   1  25
TORSDOF 7
