REMARK  9 active torsions:
REMARK  status: ('A' for Active; 'I' for Inactive)
REMARK    1  A    between atoms: C2_3  and  C3_4 
REMARK    2  A    between atoms: C3_4  and  N2_5 
REMARK    3  A    between atoms: C3_4  and  C16_25 
REMARK       I    between atoms: N2_5  and  C4_7 
REMARK       I    between atoms: C4_7  and  N3_9 
REMARK    4  A    between atoms: N3_9  and  C5_11 
REMARK    5  A    between atoms: C8_14  and  O2_15 
REMARK    6  A    between atoms: O2_15  and  C9_16 
REMARK       I    between atoms: C16_25  and  N5_27 
REMARK    7  A    between atoms: N5_27  and  S1_29 
REMARK    8  A    between atoms: S1_29  and  C17_32 
REMARK    9  A    between atoms: C23_38  and  C24_39 
ROOT
HETATM    1  C3  UNL     1      -1.534  -0.976  -0.021  1.00  0.00     0.229 C 
ENDROOT
BRANCH   1   2
HETATM    2  C2  UNL     1      -2.071  -2.349   0.144  1.00  0.00     0.044 A 
HETATM    3  N1  UNL     1      -2.423  -3.020   1.251  1.00  0.00    -0.351 N 
HETATM    4  C1  UNL     1      -2.339  -2.522   2.621  1.00  0.00     0.156 C 
HETATM    5  C23 UNL     1      -2.871  -4.251   0.937  1.00  0.00     0.083 A 
HETATM    6  C22 UNL     1      -2.807  -4.392  -0.430  1.00  0.00     0.033 A 
HETATM    7  C21 UNL     1      -2.307  -3.204  -0.919  1.00  0.00     0.030 A 
BRANCH   5   8
HETATM    8  C24 UNL     1      -3.351  -5.266   1.890  1.00  0.00     0.282 C 
HETATM    9  C25 UNL     1      -3.823  -6.497   1.139  1.00  0.00     0.097 C 
HETATM   10  F1  UNL     1      -2.421  -5.644   2.810  1.00  0.00    -0.200 F 
HETATM   11  F2  UNL     1      -4.450  -4.800   2.604  1.00  0.00    -0.200 F 
ENDBRANCH   5   8
ENDBRANCH   1   2
BRANCH   1  12
HETATM   12  N2  UNL     1      -0.413  -0.951  -0.933  1.00  0.00    -0.324 N 
HETATM   13  C4  UNL     1       0.769  -0.183  -0.627  1.00  0.00     0.321 C 
HETATM   14  O1  UNL     1       0.768   0.464   0.467  1.00  0.00    -0.247 OA
HETATM   15  N3  UNL     1       1.820  -0.195  -1.534  1.00  0.00    -0.309 N 
ATOM     16  H3  UNL     1       1.691  -0.779  -2.361  1.00  0.00     0.170 HD
ATOM     17  H2  UNL     1      -0.458  -1.482  -1.803  1.00  0.00     0.165 HD
BRANCH  15  18
HETATM   18  C5  UNL     1       3.043   0.500  -1.453  1.00  0.00     0.036 A 
HETATM   19  C6  UNL     1       3.251   1.571  -0.626  1.00  0.00     0.032 A 
HETATM   20  C7  UNL     1       4.491   2.194  -0.618  1.00  0.00     0.039 A 
HETATM   21  C8  UNL     1       5.553   1.782  -1.422  1.00  0.00     0.076 A 
HETATM   22  C14 UNL     1       5.350   0.701  -2.257  1.00  0.00     0.039 A 
HETATM   23  C15 UNL     1       4.129   0.091  -2.262  1.00  0.00     0.032 A 
BRANCH  21  24
HETATM   24  O2  UNL     1       6.778   2.383  -1.438  1.00  0.00    -0.311 OA
BRANCH  24  25
HETATM   25  C9  UNL     1       7.795   2.144  -0.557  1.00  0.00     0.078 A 
HETATM   26  C10 UNL     1       8.690   1.115  -0.775  1.00  0.00     0.054 A 
HETATM   27  C11 UNL     1       9.683   0.964   0.176  1.00  0.00     0.090 A 
HETATM   28  N4  UNL     1       9.790   1.764   1.260  1.00  0.00    -0.375 N 
HETATM   29  C12 UNL     1       8.926   2.762   1.476  1.00  0.00     0.090 A 
ATOM     30  H4  UNL     1      10.545   1.603   1.927  1.00  0.00     0.164 HD
HETATM   31  C13 UNL     1       7.917   2.967   0.572  1.00  0.00     0.054 A 
ENDBRANCH  24  25
ENDBRANCH  21  24
ENDBRANCH  15  18
ENDBRANCH   1  12
BRANCH   1  32
HETATM   32  C16 UNL     1      -2.589  -0.062  -0.591  1.00  0.00     0.259 C 
HETATM   33  O3  UNL     1      -2.452   0.409  -1.740  1.00  0.00    -0.270 OA
HETATM   34  N5  UNL     1      -3.708   0.250   0.181  1.00  0.00    -0.252 N 
ATOM     35  H5  UNL     1      -3.761  -0.156   1.115  1.00  0.00     0.181 HD
BRANCH  34  36
HETATM   36  S1  UNL     1      -4.984   1.247  -0.306  1.00  0.00     0.240 S 
HETATM   37  O4  UNL     1      -5.502   0.858  -1.683  1.00  0.00    -0.205 OA
HETATM   38  O5  UNL     1      -6.183   1.052   0.629  1.00  0.00    -0.205 OA
BRANCH  36  39
HETATM   39  C17 UNL     1      -4.538   2.939  -0.338  1.00  0.00     0.072 C 
HETATM   40  C18 UNL     1      -3.450   3.311  -1.310  1.00  0.00     0.033 C 
HETATM   41  C19 UNL     1      -3.985   3.283   1.049  1.00  0.00     0.033 C 
HETATM   42  C20 UNL     1      -5.796   3.754  -0.605  1.00  0.00     0.033 C 
ENDBRANCH  36  39
ENDBRANCH  34  36
ENDBRANCH   1  32
TORSDOF 9
