REMARK  8 active torsions:
REMARK  status: ('A' for Active; 'I' for Inactive)
REMARK    1  A    between atoms: N3_4  and  C2_6 
REMARK    2  A    between atoms: C2_6  and  C3_7 
REMARK    3  A    between atoms: C3_7  and  C4_8 
REMARK    4  A    between atoms: C4_8  and  C5_9 
REMARK    5  A    between atoms: C5_9  and  C6_10 
REMARK    6  A    between atoms: C5_9  and  N7_24 
REMARK    7  A    between atoms: C6_10  and  N4_11 
REMARK       I    between atoms: N4_11  and  C7_13 
REMARK       I    between atoms: C7_13  and  N5_15 
REMARK    8  A    between atoms: N5_15  and  C8_17 
REMARK       I    between atoms: N7_24  and  C14_26 
REMARK       I    between atoms: C14_26  and  N8_28 
ROOT
HETATM    1  C5  UNL     1       2.268   0.726  -1.285  1.00  0.00     0.104 C 
ENDROOT
BRANCH   1   2
HETATM    2  C4  UNL     1       2.451   1.786  -0.288  1.00  0.00     0.028 C 
BRANCH   2   3
HETATM    3  C3  UNL     1       1.182   2.684  -0.334  1.00  0.00     0.022 C 
BRANCH   3   4
HETATM    4  C2  UNL     1       1.325   3.751   0.721  1.00  0.00     0.122 C 
BRANCH   4   5
HETATM    5  N3  UNL     1       2.506   4.555   0.487  1.00  0.00    -0.367 N 
HETATM    6  C1  UNL     1       3.469   4.596   1.363  1.00  0.00     0.196 C 
HETATM    7  N1  UNL     1       4.619   5.393   1.117  1.00  0.00    -0.067 NA
HETATM    8  N2  UNL     1       3.375   3.835   2.553  1.00  0.00    -0.067 NA
ATOM      9  H3  UNL     1       2.585   5.096  -0.374  1.00  0.00     0.161 HD
ENDBRANCH   4   5
ENDBRANCH   3   4
ENDBRANCH   2   3
ENDBRANCH   1   2
BRANCH   1  10
HETATM   10  C6  UNL     1       3.287  -0.317  -1.531  1.00  0.00     0.149 C 
BRANCH  10  11
HETATM   11  N4  UNL     1       3.658  -1.129  -0.432  1.00  0.00    -0.341 N 
HETATM   12  C7  UNL     1       4.451  -0.655   0.658  1.00  0.00     0.320 C 
HETATM   13  O1  UNL     1       4.930   0.454   0.823  1.00  0.00    -0.247 OA
HETATM   14  N5  UNL     1       4.700  -1.639   1.671  1.00  0.00    -0.309 N 
ATOM     15  H5  UNL     1       4.317  -2.577   1.556  1.00  0.00     0.170 HD
ATOM     16  H4  UNL     1       3.344  -2.099  -0.418  1.00  0.00     0.164 HD
BRANCH  14  17
HETATM   17  C8  UNL     1       5.458  -1.346   2.818  1.00  0.00     0.036 A 
HETATM   18  C9  UNL     1       5.437  -0.135   3.425  1.00  0.00     0.031 A 
HETATM   19  C10 UNL     1       6.246   0.093   4.531  1.00  0.00     0.029 A 
HETATM   20  C11 UNL     1       7.073  -0.874   5.037  1.00  0.00     0.046 A 
HETATM   21  N6  UNL     1       7.888  -0.615   6.162  1.00  0.00    -0.102 NA
HETATM   22  C12 UNL     1       7.070  -2.094   4.399  1.00  0.00     0.029 A 
HETATM   23  C13 UNL     1       6.294  -2.353   3.317  1.00  0.00     0.031 A 
ENDBRANCH  14  17
ENDBRANCH  10  11
ENDBRANCH   1  10
BRANCH   1  24
HETATM   24  N7  UNL     1       1.010   0.003  -0.997  1.00  0.00    -0.337 N 
HETATM   25  C14 UNL     1       0.145  -0.392  -2.047  1.00  0.00     0.318 C 
HETATM   26  O2  UNL     1       0.435  -0.147  -3.266  1.00  0.00    -0.247 OA
HETATM   27  N8  UNL     1      -1.050  -1.068  -1.739  1.00  0.00    -0.334 N 
HETATM   28  C15 UNL     1      -1.889  -1.528  -2.814  1.00  0.00     0.127 C 
HETATM   29  C27 UNL     1      -1.442  -1.277  -0.364  1.00  0.00     0.133 C 
HETATM   30  C16 UNL     1      -2.995  -0.610  -3.214  1.00  0.00     0.020 C 
HETATM   31  C17 UNL     1      -4.119  -1.462  -3.836  1.00  0.00     0.002 C 
HETATM   32  C18 UNL     1      -4.706  -2.337  -2.772  1.00  0.00     0.000 C 
HETATM   33  C19 UNL     1      -6.221  -2.425  -2.816  1.00  0.00     0.000 C 
HETATM   34  C20 UNL     1      -6.780  -2.385  -1.408  1.00  0.00     0.000 C 
HETATM   35  C21 UNL     1      -7.404  -1.073  -1.071  1.00  0.00     0.000 C 
HETATM   36  C22 UNL     1      -6.416  -0.010  -0.693  1.00  0.00     0.000 C 
HETATM   37  C23 UNL     1      -5.713  -0.276   0.623  1.00  0.00     0.006 C 
HETATM   38  C24 UNL     1      -4.419   0.528   0.594  1.00  0.00     0.079 C 
HETATM   39  C25 UNL     1      -3.235  -0.305   1.048  1.00  0.00     0.245 C 
HETATM   40  F1  UNL     1      -2.961  -0.029   2.401  1.00  0.00    -0.206 F 
HETATM   41  F2  UNL     1      -3.558  -1.623   1.004  1.00  0.00    -0.206 F 
HETATM   42  C26 UNL     1      -2.011  -0.020   0.253  1.00  0.00     0.099 C 
ATOM     43  H7  UNL     1       0.763  -0.214  -0.031  1.00  0.00     0.164 HD
ENDBRANCH   1  24
TORSDOF 8
