REMARK  10 active torsions:
REMARK  status: ('A' for Active; 'I' for Inactive)
REMARK    1  A    between atoms: C2_2  and  C3_3 
REMARK    2  A    between atoms: C3_3  and  C4_4 
REMARK    3  A    between atoms: C4_4  and  C5_5 
REMARK    4  A    between atoms: C5_5  and  N1_6 
REMARK    5  A    between atoms: N3_28  and  C24_29 
REMARK    6  A    between atoms: C24_29  and  C25_30 
REMARK    7  A    between atoms: C24_29  and  C26_33 
REMARK    8  A    between atoms: C25_30  and  O2_31 
REMARK    9  A    between atoms: C26_33  and  C27_34 
REMARK   10  A    between atoms: C27_34  and  C28_35 
ROOT
HETATM    1  N1  UNL     1       3.687   0.412   1.325  1.00  0.00    -0.378 N 
HETATM    2  C6  UNL     1       3.019   1.410   2.172  1.00  0.00     0.128 C 
HETATM    3  C7  UNL     1       1.739   1.638   1.375  1.00  0.00     0.061 C 
HETATM    4  C8  UNL     1       1.467   0.259   0.863  1.00  0.00    -0.021 A 
HETATM    5  C9  UNL     1       0.252  -0.322   0.440  1.00  0.00    -0.040 A 
HETATM    6  C10 UNL     1       0.217  -1.626   0.013  1.00  0.00    -0.036 A 
HETATM    7  C11 UNL     1       1.406  -2.345   0.014  1.00  0.00     0.012 A 
HETATM    8  C12 UNL     1       2.591  -1.750   0.437  1.00  0.00     0.072 A 
HETATM    9  N2  UNL     1       3.577  -2.652   0.356  1.00  0.00    -0.353 N 
ATOM     10  H2  UNL     1       4.556  -2.500   0.600  1.00  0.00     0.166 HD
HETATM   11  C13 UNL     1       3.031  -3.817  -0.115  1.00  0.00     0.043 A 
HETATM   12  C14 UNL     1       3.677  -5.022  -0.354  1.00  0.00     0.030 A 
HETATM   13  C15 UNL     1       2.985  -6.117  -0.827  1.00  0.00     0.002 A 
HETATM   14  C16 UNL     1       1.638  -5.940  -1.042  1.00  0.00     0.001 A 
HETATM   15  C17 UNL     1       0.968  -4.744  -0.811  1.00  0.00     0.014 A 
HETATM   16  C18 UNL     1       1.684  -3.668  -0.339  1.00  0.00     0.004 A 
HETATM   17  C19 UNL     1       2.642  -0.434   0.867  1.00  0.00     0.065 A 
HETATM   18  C20 UNL     1      -1.004  -2.271  -0.460  1.00  0.00     0.061 C 
HETATM   19  C21 UNL     1      -2.227  -1.412  -0.576  1.00  0.00     0.062 C 
HETATM   20  C22 UNL     1      -2.967  -1.694  -1.906  1.00  0.00     0.028 C 
HETATM   21  C23 UNL     1      -3.143  -1.436   0.561  1.00  0.00     0.231 C 
HETATM   22  O1  UNL     1      -3.594  -2.386   1.288  1.00  0.00    -0.272 OA
HETATM   23  N3  UNL     1      -3.284  -0.040   0.486  1.00  0.00    -0.338 N 
HETATM   24  C30 UNL     1      -2.085   0.021  -0.335  1.00  0.00     0.109 C 
HETATM   25  C31 UNL     1      -0.955   0.496   0.497  1.00  0.00     0.066 C 
ENDROOT
BRANCH  23  26
HETATM   26  C24 UNL     1      -4.208   0.902   1.022  1.00  0.00     0.111 C 
BRANCH  26  27
HETATM   27  C25 UNL     1      -4.150   0.970   2.553  1.00  0.00     0.189 C 
BRANCH  27  28
HETATM   28  O2  UNL     1      -5.103   1.917   2.938  1.00  0.00    -0.399 OA
ATOM     29  H2  UNL     1      -5.067   1.959   3.886  1.00  0.00     0.209 HD
ENDBRANCH  27  28
ENDBRANCH  26  27
BRANCH  26  30
HETATM   30  C26 UNL     1      -5.644   0.731   0.645  1.00  0.00     0.027 C 
BRANCH  30  31
HETATM   31  C27 UNL     1      -5.929   0.828  -0.812  1.00  0.00     0.002 C 
BRANCH  31  32
HETATM   32  C28 UNL     1      -5.517   2.178  -1.390  1.00  0.00    -0.004 C 
HETATM   33  C29 UNL     1      -6.267   3.299  -0.701  1.00  0.00     0.005 C 
ENDBRANCH  31  32
ENDBRANCH  30  31
ENDBRANCH  26  30
ENDBRANCH  23  26
BRANCH   1  34
HETATM   34  C5  UNL     1       5.079   0.373   1.064  1.00  0.00     0.123 C 
BRANCH  34  35
HETATM   35  C4  UNL     1       5.544   1.572   0.239  1.00  0.00     0.020 C 
BRANCH  35  36
HETATM   36  C3  UNL     1       4.872   1.648  -1.087  1.00  0.00     0.001 C 
BRANCH  36  37
HETATM   37  C2  UNL     1       5.420   2.872  -1.801  1.00  0.00    -0.004 C 
HETATM   38  C1  UNL     1       5.147   4.137  -1.022  1.00  0.00     0.005 C 
ENDBRANCH  36  37
ENDBRANCH  35  36
ENDBRANCH  34  35
ENDBRANCH   1  34
TORSDOF 10
