REMARK  4 active torsions:
REMARK  status: ('A' for Active; 'I' for Inactive)
REMARK    1  A    between atoms: C3_5  and  N2_6 
REMARK    2  A    between atoms: C5_12  and  N4_13 
REMARK    3  A    between atoms: N4_13  and  C6_14 
REMARK    4  A    between atoms: N4_13  and  C8_16 
ROOT
HETATM    1  C1  UNL     1       2.734  -2.222  -0.223  1.00  0.00     0.046 C 
HETATM    2  C2  UNL     1       2.562  -0.933  -0.168  1.00  0.00     0.068 A 
HETATM    3  N1  UNL     1       3.580  -0.050  -0.155  1.00  0.00    -0.191 N 
ATOM      4  H1  UNL     1       4.574  -0.276  -0.189  1.00  0.00     0.184 HD
HETATM    5  C3  UNL     1       3.051   1.174  -0.089  1.00  0.00     0.676 A 
HETATM    6  N3  UNL     1       1.693   1.054  -0.062  1.00  0.00    -0.189 N 
ATOM      7  H3  UNL     1       1.034   1.831  -0.013  1.00  0.00     0.184 HD
HETATM    8  C4  UNL     1       1.364  -0.224  -0.109  1.00  0.00     0.090 A 
HETATM    9  C5  UNL     1       0.185  -0.808  -0.104  1.00  0.00     0.118 C 
ENDROOT
BRANCH   9  10
HETATM   10  N4  UNL     1      -1.083  -0.237  -0.046  1.00  0.00    -0.389 N 
BRANCH  10  11
HETATM   11  C6  UNL     1      -1.542   0.894  -0.774  1.00  0.00     0.118 C 
HETATM   12  C7  UNL     1      -1.928   2.087   0.089  1.00  0.00     0.026 C 
ENDBRANCH  10  11
BRANCH  10  13
HETATM   13  C8  UNL     1      -2.069  -0.905   0.833  1.00  0.00     0.118 C 
HETATM   14  C9  UNL     1      -3.146  -1.578   0.041  1.00  0.00     0.026 C 
ENDBRANCH  10  13
ENDBRANCH   9  10
BRANCH   5  15
HETATM   15  N2  UNL     1       3.667   2.321  -0.051  1.00  0.00    -0.234 N 
ATOM     16  H22 UNL     1       4.683   2.411  -0.071  1.00  0.00     0.174 HD
ATOM     17  H21 UNL     1       3.263   3.256  -0.001  1.00  0.00     0.174 HD
ENDBRANCH   5  15
TORSDOF 4
