REMARK  4 active torsions:
REMARK  status: ('A' for Active; 'I' for Inactive)
REMARK    1  A    between atoms: N2_7  and  C5_8 
REMARK    2  A    between atoms: C5_8  and  C6_9 
REMARK    3  A    between atoms: C6_9  and  N3_10 
REMARK    4  A    between atoms: N5_17  and  O1_18 
ROOT
HETATM    1  C1  UNL     1       4.508  -0.135   0.355  1.00  0.00     0.091 C 
HETATM    2  C2  UNL     1       3.034   0.045   0.173  1.00  0.00     0.108 A 
HETATM    3  N1  UNL     1       2.358   0.300  -0.972  1.00  0.00    -0.340 N 
ATOM      4  H1  UNL     1       2.773   0.408  -1.898  1.00  0.00     0.167 HD
HETATM    5  C3  UNL     1       1.039   0.388  -0.682  1.00  0.00     0.099 A 
HETATM    6  C4  UNL     1      -0.246   0.602  -1.188  1.00  0.00     0.143 A 
HETATM    7  N2  UNL     1      -1.051   0.510  -0.115  1.00  0.00    -0.298 N 
HETATM    8  N4  UNL     1      -0.353   0.260   0.981  1.00  0.00    -0.280 N 
ATOM      9  H4  UNL     1      -0.747   0.148   1.915  1.00  0.00     0.189 HD
HETATM   10  C7  UNL     1       0.954   0.176   0.677  1.00  0.00     0.177 A 
HETATM   11  N5  UNL     1       2.176  -0.035   1.203  1.00  0.00    -0.192 N 
ENDROOT
BRANCH   7  12
HETATM   12  C5  UNL     1      -2.485   0.657  -0.118  1.00  0.00     0.175 C 
BRANCH  12  13
HETATM   13  C6  UNL     1      -3.083  -0.727  -0.351  1.00  0.00     0.251 C 
BRANCH  13  14
HETATM   14  N3  UNL     1      -4.511  -0.598  -0.356  1.00  0.00    -0.078 N 
ATOM     15  H33 UNL     1      -4.870  -0.150   0.487  1.00  0.00     0.274 HD
ATOM     16  H32 UNL     1      -4.842   0.093  -1.029  1.00  0.00     0.274 HD
ATOM     17  H31 UNL     1      -4.911  -1.523  -0.512  1.00  0.00     0.274 HD
ENDBRANCH  13  14
ENDBRANCH  12  13
ENDBRANCH   7  12
BRANCH  11  18
HETATM   18  O1  UNL     1       2.473  -0.282   2.538  1.00  0.00    -0.280 OA
ATOM     19  H1  UNL     1       1.866  -0.339   3.267  1.00  0.00     0.245 HD
ENDBRANCH  11  18
TORSDOF 4
