REMARK  3 active torsions:
REMARK  status: ('A' for Active; 'I' for Inactive)
REMARK    1  A    between atoms: C4_8  and  C5_9 
REMARK    2  A    between atoms: C15_19  and  C16_20 
REMARK    3  A    between atoms: C22_27  and  N2_28 
ROOT
HETATM    1  O1  UNL     1      -0.259  -0.470   3.673  1.00  0.00    -0.273 OA
HETATM    2  C1  UNL     1       0.474  -0.364   2.630  1.00  0.00     0.228 C 
HETATM    3  C2  UNL     1       1.701  -1.141   2.447  1.00  0.00     0.179 C 
HETATM    4  S1  UNL     1       1.886  -1.065   0.632  1.00  0.00    -0.125 SA
HETATM    5  C3  UNL     1       0.406  -0.019   0.265  1.00  0.00     0.116 C 
HETATM    6  N1  UNL     1       0.170   0.500   1.579  1.00  0.00    -0.339 N 
ATOM      7  H1  UNL     1      -0.196   1.439   1.735  1.00  0.00     0.164 HD
HETATM    8  C4  UNL     1       0.934   1.038  -0.680  1.00  0.00     0.060 C 
HETATM    9  C11 UNL     1       0.501   0.577  -2.017  1.00  0.00     0.020 C 
HETATM   10  C12 UNL     1      -0.261  -0.699  -1.865  1.00  0.00     0.019 C 
HETATM   11  C13 UNL     1      -1.558  -0.556  -2.615  1.00  0.00     0.008 C 
HETATM   12  C14 UNL     1      -2.645  -0.881  -1.653  1.00  0.00     0.012 C 
HETATM   13  C15 UNL     1      -2.029  -0.664  -0.254  1.00  0.00     0.051 C 
HETATM   14  C22 UNL     1      -0.588  -0.860  -0.379  1.00  0.00     0.084 C 
ENDROOT
BRANCH  13  15
HETATM   15  C16 UNL     1      -2.584   0.519   0.386  1.00  0.00    -0.051 A 
HETATM   16  C17 UNL     1      -2.565   1.735  -0.240  1.00  0.00     0.011 A 
HETATM   17  C18 UNL     1      -3.101   2.888   0.353  1.00  0.00     0.043 A 
HETATM   18  C19 UNL     1      -3.673   2.818   1.613  1.00  0.00     0.116 A 
HETATM   19  F1  UNL     1      -4.185   3.956   2.164  1.00  0.00    -0.206 F 
HETATM   20  C20 UNL     1      -3.697   1.611   2.244  1.00  0.00     0.043 A 
HETATM   21  C21 UNL     1      -3.165   0.503   1.638  1.00  0.00     0.011 A 
ENDBRANCH  13  15
BRANCH  14  22
HETATM   22  N2  UNL     1      -0.303  -2.260   0.021  1.00  0.00    -0.337 N 
HETATM   23  C23 UNL     1      -0.865  -2.920   1.050  1.00  0.00     0.110 A 
HETATM   24  C24 UNL     1      -0.359  -4.213   1.122  1.00  0.00     0.106 A 
HETATM   25  N3  UNL     1       0.506  -4.316   0.130  1.00  0.00    -0.361 N 
HETATM   26  C25 UNL     1       0.537  -3.142  -0.528  1.00  0.00     0.183 A 
ATOM     27  H3  UNL     1       1.057  -5.144  -0.099  1.00  0.00     0.166 HD
ENDBRANCH  14  22
BRANCH   8  28
HETATM   28  C5  UNL     1       2.402   1.189  -0.677  1.00  0.00    -0.051 A 
HETATM   29  C6  UNL     1       3.182   0.262  -1.320  1.00  0.00     0.007 A 
HETATM   30  C7  UNL     1       4.581   0.388  -1.327  1.00  0.00     0.001 A 
HETATM   31  C8  UNL     1       5.206   1.441  -0.692  1.00  0.00     0.000 A 
HETATM   32  C9  UNL     1       4.420   2.368  -0.050  1.00  0.00     0.001 A 
HETATM   33  C10 UNL     1       3.049   2.233  -0.050  1.00  0.00     0.007 A 
ENDBRANCH   8  28
TORSDOF 3
