REMARK  0 active torsions:
REMARK  status: ('A' for Active; 'I' for Inactive)
ROOT
HETATM    1  O1  UNL     1       8.238   2.866  -2.422  1.00  0.00    -0.268 OA
HETATM    2  C1  UNL     1       7.264   2.726  -1.581  1.00  0.00     0.251 C 
HETATM    3  N1  UNL     1       7.620   1.709  -0.604  1.00  0.00    -0.351 N 
ATOM      4  H1  UNL     1       8.466   1.157  -0.746  1.00  0.00     0.163 HD
HETATM    5  C2  UNL     1       6.790   1.457   0.583  1.00  0.00     0.179 C 
HETATM    6  C3  UNL     1       6.425   0.026   0.685  1.00  0.00     0.026 A 
HETATM    7  C4  UNL     1       6.545  -0.948   1.589  1.00  0.00     0.027 A 
HETATM    8  C5  UNL     1       6.040  -2.275   1.368  1.00  0.00     0.011 A 
HETATM    9  C6  UNL     1       5.408  -2.560   0.179  1.00  0.00    -0.038 A 
HETATM   10  C7  UNL     1       5.282  -1.558  -0.759  1.00  0.00     0.095 A 
HETATM   11  N2  UNL     1       5.790  -0.359  -0.445  1.00  0.00    -0.367 N 
ATOM     12  H2  UNL     1       5.683   0.364  -1.157  1.00  0.00     0.165 HD
HETATM   13  C8  UNL     1       4.815  -3.940  -0.079  1.00  0.00     0.078 C 
HETATM   14  C9  UNL     1       3.344  -3.940   0.325  1.00  0.00    -0.054 A 
HETATM   15  C10 UNL     1       2.985  -4.266   1.602  1.00  0.00     0.010 A 
HETATM   16  C11 UNL     1       1.611  -4.227   1.995  1.00  0.00     0.037 A 
HETATM   17  C12 UNL     1       0.612  -3.869   1.137  1.00  0.00     0.069 A 
HETATM   18  C13 UNL     1       0.989  -3.547  -0.129  1.00  0.00     0.037 A 
HETATM   19  C14 UNL     1       2.349  -3.577  -0.552  1.00  0.00     0.010 A 
HETATM   20  O2  UNL     1      -0.708  -3.840   1.559  1.00  0.00    -0.347 OA
HETATM   21  C15 UNL     1      -1.751  -4.741   1.409  1.00  0.00     0.214 C 
HETATM   22  C16 UNL     1      -3.037  -4.100   0.933  1.00  0.00    -0.034 A 
HETATM   23  C17 UNL     1      -3.238  -4.365  -0.438  1.00  0.00     0.009 A 
HETATM   24  C18 UNL     1      -4.312  -3.899  -1.156  1.00  0.00     0.001 A 
HETATM   25  C19 UNL     1      -5.183  -3.148  -0.430  1.00  0.00     0.007 A 
HETATM   26  C20 UNL     1      -5.013  -2.859   0.958  1.00  0.00    -0.052 A 
HETATM   27  C21 UNL     1      -3.936  -3.336   1.645  1.00  0.00     0.016 A 
HETATM   28  C22 UNL     1      -6.189  -2.010   1.356  1.00  0.00     0.097 C 
HETATM   29  C23 UNL     1      -6.021  -0.752   0.571  1.00  0.00     0.043 A 
HETATM   30  N3  UNL     1      -4.768  -0.269   0.498  1.00  0.00    -0.194 N 
ATOM     31  H3  UNL     1      -4.028  -0.774   0.985  1.00  0.00     0.184 HD
HETATM   32  C24 UNL     1      -4.438   0.842  -0.181  1.00  0.00     0.679 A 
HETATM   33  N4  UNL     1      -5.417   1.501  -0.820  1.00  0.00    -0.191 N 
ATOM     34  H4  UNL     1      -5.183   2.347  -1.340  1.00  0.00     0.184 HD
HETATM   35  C25 UNL     1      -6.685   1.088  -0.799  1.00  0.00     0.061 A 
HETATM   36  C26 UNL     1      -7.706   1.754  -1.447  1.00  0.00     0.031 A 
HETATM   37  C27 UNL     1      -8.999   1.292  -1.392  1.00  0.00     0.002 A 
HETATM   38  C28 UNL     1      -9.286   0.129  -0.667  1.00  0.00     0.001 A 
HETATM   39  C29 UNL     1      -8.279  -0.548  -0.014  1.00  0.00     0.016 A 
HETATM   40  C30 UNL     1      -7.001  -0.074  -0.081  1.00  0.00     0.015 A 
HETATM   41  N5  UNL     1      -3.097   1.290  -0.209  1.00  0.00    -0.222 N 
ATOM     42  H5  UNL     1      -2.759   1.685  -1.086  1.00  0.00     0.178 HD
HETATM   43  C31 UNL     1      -2.159   1.239   0.894  1.00  0.00     0.176 C 
HETATM   44  C32 UNL     1      -1.345   2.504   1.042  1.00  0.00    -0.037 A 
HETATM   45  C33 UNL     1      -1.837   3.264   2.134  1.00  0.00     0.009 A 
HETATM   46  C34 UNL     1      -1.299   4.457   2.526  1.00  0.00     0.003 A 
HETATM   47  C35 UNL     1      -0.229   4.880   1.777  1.00  0.00     0.037 A 
HETATM   48  C36 UNL     1       0.296   4.162   0.682  1.00  0.00     0.069 A 
HETATM   49  C37 UNL     1      -0.283   2.951   0.318  1.00  0.00     0.045 A 
HETATM   50  O3  UNL     1       1.352   4.825   0.138  1.00  0.00    -0.347 OA
HETATM   51  C38 UNL     1       1.950   5.284  -0.984  1.00  0.00     0.214 C 
HETATM   52  C39 UNL     1       3.322   4.633  -1.130  1.00  0.00    -0.034 A 
HETATM   53  C40 UNL     1       4.440   5.160  -0.538  1.00  0.00     0.010 A 
HETATM   54  C41 UNL     1       5.701   4.529  -0.701  1.00  0.00     0.017 A 
HETATM   55  C42 UNL     1       5.915   3.379  -1.435  1.00  0.00     0.032 A 
HETATM   56  C43 UNL     1       4.761   2.887  -2.008  1.00  0.00     0.017 A 
HETATM   57  C44 UNL     1       3.486   3.489  -1.868  1.00  0.00     0.010 A 
ENDROOT
TORSDOF 0
