REMARK  10 active torsions:
REMARK  status: ('A' for Active; 'I' for Inactive)
REMARK    1  A    between atoms: C2_2  and  C3_3 
REMARK    2  A    between atoms: C3_3  and  N1_4 
REMARK    3  A    between atoms: N1_4  and  C4_6 
REMARK    4  A    between atoms: C5_9  and  C6_10 
REMARK    5  A    between atoms: C6_10  and  O1_11 
REMARK    6  A    between atoms: C6_10  and  C7_13 
REMARK    7  A    between atoms: C7_13  and  N3_14 
REMARK    8  A    between atoms: N3_14  and  C8_16 
REMARK    9  A    between atoms: C8_16  and  C9_17 
REMARK   10  A    between atoms: C9_17  and  C10_18 
ROOT
HETATM    1  C6  UNL     1       0.192   0.867  -0.338  1.00  0.00     0.224 C 
ENDROOT
BRANCH   1   2
HETATM    2  C5  UNL     1       1.167   0.195   0.596  1.00  0.00     0.132 A 
HETATM    3  N2  UNL     1       2.450   0.136   0.250  1.00  0.00    -0.178 N 
HETATM    4  C4  UNL     1       3.381  -0.449   1.014  1.00  0.00     0.680 A 
ATOM      5  H2  UNL     1       2.737   0.554  -0.635  1.00  0.00     0.185 HD
HETATM    6  N7  UNL     1       2.974  -1.000   2.191  1.00  0.00    -0.188 N 
HETATM    7  C13 UNL     1       1.707  -0.963   2.574  1.00  0.00     0.199 A 
ATOM      8  H7  UNL     1       3.662  -1.452   2.793  1.00  0.00     0.185 HD
HETATM    9  N6  UNL     1       0.804  -0.356   1.758  1.00  0.00    -0.339 N 
ATOM     10  H6  UNL     1      -0.176  -0.320   2.040  1.00  0.00     0.168 HD
BRANCH   4  11
HETATM   11  N1  UNL     1       4.612  -0.477   0.652  1.00  0.00    -0.223 N 
ATOM     12  H1  UNL     1       5.318  -0.924   1.238  1.00  0.00     0.178 HD
BRANCH  11  13
HETATM   13  C3  UNL     1       4.978   0.141  -0.609  1.00  0.00     0.164 C 
BRANCH  13  14
HETATM   14  C2  UNL     1       6.131  -0.493  -1.266  1.00  0.00    -0.017 C 
HETATM   15  C1  UNL     1       7.216   0.225  -1.506  1.00  0.00     0.008 C 
ENDBRANCH  13  14
ENDBRANCH  11  13
ENDBRANCH   4  11
ENDBRANCH   1   2
BRANCH   1  16
HETATM   16  O1  UNL     1       0.328   0.386  -1.608  1.00  0.00    -0.383 OA
ATOM     17  H1  UNL     1      -0.286   0.809  -2.196  1.00  0.00     0.211 HD
ENDBRANCH   1  16
BRANCH   1  18
HETATM   18  C7  UNL     1      -1.168   0.714   0.273  1.00  0.00     0.099 C 
BRANCH  18  19
HETATM   19  N3  UNL     1      -2.238   1.353  -0.384  1.00  0.00    -0.379 N 
ATOM     20  H3  UNL     1      -2.686   2.164   0.043  1.00  0.00     0.164 HD
BRANCH  19  21
HETATM   21  C8  UNL     1      -2.689   0.876  -1.626  1.00  0.00     0.066 C 
BRANCH  21  22
HETATM   22  C9  UNL     1      -3.364  -0.486  -1.538  1.00  0.00     0.103 C 
BRANCH  22  23
HETATM   23  C10 UNL     1      -4.560  -0.399  -0.627  1.00  0.00     0.030 A 
HETATM   24  C11 UNL     1      -5.414  -1.431  -0.324  1.00  0.00     0.114 A 
HETATM   25  N4  UNL     1      -6.349  -0.948   0.522  1.00  0.00    -0.360 N 
HETATM   26  C12 UNL     1      -6.087   0.351   0.741  1.00  0.00     0.180 A 
ATOM     27  H4  UNL     1      -7.121  -1.478   0.925  1.00  0.00     0.166 HD
HETATM   28  N5  UNL     1      -4.996   0.678   0.039  1.00  0.00    -0.354 N 
ATOM     29  H5  UNL     1      -4.564   1.602   0.015  1.00  0.00     0.166 HD
ENDBRANCH  22  23
ENDBRANCH  21  22
ENDBRANCH  19  21
ENDBRANCH  18  19
ENDBRANCH   1  18
TORSDOF 10
