REMARK  4 active torsions:
REMARK  status: ('A' for Active; 'I' for Inactive)
REMARK    1  A    between atoms: C7_8  and  C8_9 
REMARK    2  A    between atoms: N1_10  and  O2_12 
REMARK    3  A    between atoms: O2_12  and  C9_13 
REMARK    4  A    between atoms: C19_28  and  O4_29 
ROOT
HETATM    1  C1  UNL     1       2.688  -0.108   1.539  1.00  0.00     0.018 C 
HETATM    2  C2  UNL     1       2.681  -0.624   0.147  1.00  0.00    -0.011 C 
HETATM    3  C3  UNL     1       2.329  -2.051  -0.015  1.00  0.00     0.012 C 
HETATM    4  C4  UNL     1       0.929  -2.270  -0.608  1.00  0.00     0.009 C 
HETATM    5  C5  UNL     1       0.040  -1.234   0.002  1.00  0.00     0.029 C 
HETATM    6  C6  UNL     1       0.405   0.099  -0.665  1.00  0.00     0.132 C 
HETATM    7  O1  UNL     1      -0.279   1.059   0.022  1.00  0.00    -0.373 OA
HETATM    8  C7  UNL     1      -1.590   1.068  -0.424  1.00  0.00     0.176 C 
HETATM    9  C10 UNL     1      -2.229  -0.278  -0.551  1.00  0.00     0.031 C 
HETATM   10  C11 UNL     1      -3.548  -0.204   0.240  1.00  0.00     0.025 C 
HETATM   11  C12 UNL     1      -2.635  -0.577  -1.940  1.00  0.00     0.073 C 
HETATM   12  N2  UNL     1      -2.382  -1.759  -2.239  1.00  0.00    -0.381 N 
ATOM     13  H2  UNL     1      -2.585  -2.166  -3.152  1.00  0.00     0.164 HD
HETATM   14  C13 UNL     1      -1.785  -2.474  -1.182  1.00  0.00     0.071 C 
HETATM   15  C14 UNL     1      -1.413  -1.439  -0.156  1.00  0.00     0.009 C 
HETATM   16  C15 UNL     1      -1.977  -1.960   1.180  1.00  0.00     0.023 C 
HETATM   17  C16 UNL     1       1.840   0.227  -0.804  1.00  0.00     0.027 C 
HETATM   18  C17 UNL     1       2.458   1.564  -0.561  1.00  0.00     0.026 C 
HETATM   19  C18 UNL     1       3.942   1.222  -0.644  1.00  0.00     0.087 C 
HETATM   20 BR1  UNL     1       4.512   1.638  -2.451  1.00  0.00    -0.088 Br
HETATM   21  C19 UNL     1       4.053  -0.279  -0.460  1.00  0.00     0.141 C 
ENDROOT
BRANCH   8  22
HETATM   22  C8  UNL     1      -2.401   2.017   0.398  1.00  0.00     0.120 C 
HETATM   23  N1  UNL     1      -3.028   3.015  -0.124  1.00  0.00    -0.268 N 
ATOM     24  H1  UNL     1      -2.966   3.157  -1.132  1.00  0.00     0.193 HD
BRANCH  23  25
HETATM   25  O2  UNL     1      -3.764   3.881   0.606  1.00  0.00    -0.172 OA
BRANCH  25  26
HETATM   26  C9  UNL     1      -3.686   5.261   0.512  1.00  0.00     0.467 C 
HETATM   27  O3  UNL     1      -2.882   5.761  -0.300  1.00  0.00    -0.222 OA
HETATM   28  F1  UNL     1      -4.458   6.056   1.278  1.00  0.00    -0.134 F 
ENDBRANCH  25  26
ENDBRANCH  23  25
ENDBRANCH   8  22
BRANCH  21  29
HETATM   29  O4  UNL     1       4.138  -0.963  -1.648  1.00  0.00    -0.394 OA
ATOM     30  H4  UNL     1       4.985  -0.750  -2.023  1.00  0.00     0.210 HD
ENDBRANCH  21  29
TORSDOF 4
