REMARK  18 active torsions:
REMARK  status: ('A' for Active; 'I' for Inactive)
REMARK    1  A    between atoms: C2_2  and  C3_3 
REMARK    2  A    between atoms: C2_2  and  O2_5 
REMARK    3  A    between atoms: O2_5  and  C4_6 
REMARK    4  A    between atoms: C4_6  and  C5_7 
REMARK    5  A    between atoms: C4_6  and  C8_14 
REMARK    6  A    between atoms: C5_7  and  O3_8 
REMARK    7  A    between atoms: C5_7  and  C6_10 
REMARK    8  A    between atoms: C6_10  and  C7_12 
REMARK    9  A    between atoms: C8_14  and  C10_16 
REMARK   10  A    between atoms: C11_17  and  O5_18 
REMARK   11  A    between atoms: C12_20  and  C13_21 
REMARK   12  A    between atoms: C13_21  and  O7_23 
REMARK   13  A    between atoms: C21_32  and  O9_33 
REMARK   14  A    between atoms: C21_32  and  C22_35 
REMARK   15  A    between atoms: C22_35  and  C23_37 
REMARK   16  A    between atoms: C23_37  and  O11_38 
REMARK   17  A    between atoms: O11_38  and  C24_39 
REMARK   18  A    between atoms: C26_42  and  O13_44 
ROOT
HETATM    1  C10 UNL     1      -0.929  -0.093  -0.023  1.00  0.00     0.059 C 
HETATM    2  C11 UNL     1      -0.294  -1.312   0.570  1.00  0.00     0.173 C 
HETATM    3  C12 UNL     1       0.928  -1.423  -0.312  1.00  0.00     0.209 C 
HETATM    4  O8  UNL     1       0.791  -0.463  -1.306  1.00  0.00    -0.352 OA
HETATM    5  C15 UNL     1       0.128   0.640  -0.650  1.00  0.00     0.077 C 
HETATM    6  C16 UNL     1      -0.434   1.351  -1.898  1.00  0.00     0.047 C 
HETATM    7  C17 UNL     1       1.234   1.356  -0.020  1.00  0.00     0.036 A 
HETATM    8  C18 UNL     1       1.758   2.500  -0.951  1.00  0.00     0.021 A 
HETATM    9  C19 UNL     1       1.327   2.722   0.482  1.00  0.00    -0.003 A 
HETATM   10  C20 UNL     1       0.290   3.763   0.599  1.00  0.00     0.011 C 
HETATM   11  C21 UNL     1       2.412   0.463   0.363  1.00  0.00     0.165 C 
HETATM   12  C26 UNL     1       2.139  -0.990   0.468  1.00  0.00     0.136 C 
HETATM   13  C27 UNL     1       3.275  -1.839  -0.086  1.00  0.00     0.053 C 
ENDROOT
BRANCH   1  14
HETATM   14  C8  UNL     1      -2.045   0.486   0.744  1.00  0.00     0.024 C 
HETATM   15  C9  UNL     1      -1.645   0.820   2.178  1.00  0.00     0.013 C 
BRANCH  14  16
HETATM   16  C4  UNL     1      -3.211  -0.503   0.863  1.00  0.00     0.169 C 
BRANCH  16  17
HETATM   17  O2  UNL     1      -3.559  -0.849  -0.429  1.00  0.00    -0.340 OA
BRANCH  17  18
HETATM   18  C2  UNL     1      -4.063  -0.253  -1.513  1.00  0.00     0.097 C 
HETATM   19  C1  UNL     1      -4.226  -1.018  -2.605  1.00  0.00     0.054 C 
BRANCH  18  20
HETATM   20  C3  UNL     1      -4.471   1.139  -1.685  1.00  0.00     0.294 C 
HETATM   21  O1  UNL     1      -4.938   1.562  -2.787  1.00  0.00    -0.299 OA
ENDBRANCH  18  20
ENDBRANCH  17  18
ENDBRANCH  16  17
BRANCH  16  22
HETATM   22  C5  UNL     1      -4.376   0.031   1.653  1.00  0.00     0.218 C 
BRANCH  22  23
HETATM   23  O3  UNL     1      -4.056   0.340   2.963  1.00  0.00    -0.385 OA
ATOM     24  H3  UNL     1      -4.791   0.677   3.462  1.00  0.00     0.210 HD
ENDBRANCH  22  23
BRANCH  22  25
HETATM   25  C6  UNL     1      -5.453  -0.978   1.668  1.00  0.00     0.167 C 
HETATM   26  O4  UNL     1      -5.659  -1.677   0.657  1.00  0.00    -0.294 OA
BRANCH  25  27
HETATM   27  C7  UNL     1      -6.358  -1.265   2.795  1.00  0.00     0.167 C 
HETATM   28  S1  UNL     1      -6.261  -0.127   4.172  1.00  0.00    -0.090 SA
ENDBRANCH  25  27
ENDBRANCH  22  25
ENDBRANCH  16  22
ENDBRANCH  14  16
ENDBRANCH   1  14
BRANCH   2  29
HETATM   29  O5  UNL     1      -1.012  -2.489   0.382  1.00  0.00    -0.391 OA
ATOM     30  H5  UNL     1      -0.609  -3.263   0.758  1.00  0.00     0.210 HD
ENDBRANCH   2  29
BRANCH   3  31
HETATM   31  C13 UNL     1       1.050  -2.782  -0.903  1.00  0.00     0.299 C 
HETATM   32  O6  UNL     1       1.054  -2.945  -2.153  1.00  0.00    -0.262 OA
BRANCH  31  33
HETATM   33  O7  UNL     1       1.158  -3.862  -0.079  1.00  0.00    -0.324 OA
HETATM   34  C14 UNL     1       1.276  -5.192  -0.573  1.00  0.00     0.213 C 
ENDBRANCH  31  33
ENDBRANCH   3  31
BRANCH  12  35
HETATM   35  O13 UNL     1       2.022  -1.408   1.819  1.00  0.00    -0.383 OA
ATOM     36  H13 UNL     1       2.787  -1.135   2.312  1.00  0.00     0.210 HD
ENDBRANCH  12  35
BRANCH  11  37
HETATM   37  O9  UNL     1       2.825   0.885   1.633  1.00  0.00    -0.378 OA
ATOM     38  H9  UNL     1       3.558   0.329   1.871  1.00  0.00     0.211 HD
ENDBRANCH  11  37
BRANCH  11  39
HETATM   39  C22 UNL     1       3.607   0.625  -0.533  1.00  0.00     0.189 C 
HETATM   40  O10 UNL     1       3.539   0.317  -1.712  1.00  0.00    -0.292 OA
BRANCH  39  41
HETATM   41  C23 UNL     1       4.899   1.149  -0.034  1.00  0.00     0.260 C 
BRANCH  41  42
HETATM   42  O11 UNL     1       5.980   1.105  -0.866  1.00  0.00    -0.314 OA
BRANCH  42  43
HETATM   43  C24 UNL     1       6.096   1.748  -2.063  1.00  0.00     0.255 C 
HETATM   44  C25 UNL     1       7.323   1.640  -2.919  1.00  0.00     0.126 C 
HETATM   45  O12 UNL     1       5.195   2.476  -2.546  1.00  0.00    -0.266 OA
ENDBRANCH  42  43
ENDBRANCH  41  42
ENDBRANCH  39  41
ENDBRANCH  11  39
TORSDOF 18
