REMARK  17 active torsions:
REMARK  status: ('A' for Active; 'I' for Inactive)
REMARK    1  A    between atoms: C2_2  and  C3_3 
REMARK    2  A    between atoms: C2_2  and  O6_23 
REMARK    3  A    between atoms: C3_3  and  C4_4 
REMARK    4  A    between atoms: C4_4  and  C5_5 
REMARK    5  A    between atoms: C5_5  and  O1_7 
REMARK    6  A    between atoms: O1_7  and  C7_8 
REMARK    7  A    between atoms: C10_12  and  O3_13 
REMARK    8  A    between atoms: C11_15  and  C12_17 
REMARK    9  A    between atoms: C12_17  and  O4_18 
REMARK   10  A    between atoms: C13_20  and  O5_21 
REMARK   11  A    between atoms: O6_23  and  C14_24 
REMARK   12  A    between atoms: C14_24  and  C15_25 
REMARK   13  A    between atoms: C20_31  and  C21_32 
REMARK   14  A    between atoms: C21_32  and  O8_33 
REMARK   15  A    between atoms: C21_32  and  C22_35 
REMARK   16  A    between atoms: C22_35  and  O9_36 
REMARK   17  A    between atoms: C25_41  and  O11_42 
ROOT
HETATM    1  O6  UNL     1      -0.540  -1.252   1.142  1.00  0.00    -0.382 OA
ENDROOT
BRANCH   1   2
HETATM    2  C2  UNL     1       0.832  -1.351   1.191  1.00  0.00     0.117 C 
HETATM    3  C1  UNL     1       1.420  -0.965   2.523  1.00  0.00     0.039 C 
BRANCH   2   4
HETATM    4  C3  UNL     1       1.423  -0.557   0.052  1.00  0.00     0.034 C 
BRANCH   4   5
HETATM    5  C4  UNL     1       2.897  -0.730  -0.086  1.00  0.00     0.034 C 
BRANCH   5   6
HETATM    6  C5  UNL     1       3.386   0.098  -1.245  1.00  0.00     0.120 C 
HETATM    7  C6  UNL     1       2.741  -0.305  -2.548  1.00  0.00     0.039 C 
BRANCH   6   8
HETATM    8  O1  UNL     1       4.753   0.191  -1.338  1.00  0.00    -0.354 OA
BRANCH   8   9
HETATM    9  C7  UNL     1       5.229   1.486  -1.161  1.00  0.00     0.292 C 
HETATM   10  O2  UNL     1       5.936   1.822  -2.316  1.00  0.00    -0.351 OA
HETATM   11  C8  UNL     1       6.711   0.729  -2.663  1.00  0.00     0.152 C 
HETATM   12  C9  UNL     1       7.377   1.029  -3.989  1.00  0.00     0.042 C 
HETATM   13  C10 UNL     1       7.782   0.432  -1.636  1.00  0.00     0.191 C 
HETATM   14  C11 UNL     1       7.226   0.441  -0.229  1.00  0.00     0.182 C 
HETATM   15  F1  UNL     1       6.585  -0.754   0.043  1.00  0.00    -0.235 F 
HETATM   16  C13 UNL     1       6.238   1.564  -0.021  1.00  0.00     0.217 C 
BRANCH  13  17
HETATM   17  O3  UNL     1       8.818   1.324  -1.816  1.00  0.00    -0.389 OA
ATOM     18  H3  UNL     1       9.490   1.138  -1.171  1.00  0.00     0.210 HD
ENDBRANCH  13  17
BRANCH  14  19
HETATM   19  C12 UNL     1       8.390   0.650   0.717  1.00  0.00     0.213 C 
BRANCH  19  20
HETATM   20  O4  UNL     1       9.320  -0.377   0.577  1.00  0.00    -0.397 OA
ATOM     21  H4  UNL     1      10.050  -0.246   1.170  1.00  0.00     0.209 HD
ENDBRANCH  19  20
ENDBRANCH  14  19
BRANCH  16  22
HETATM   22  O5  UNL     1       5.648   1.438   1.213  1.00  0.00    -0.387 OA
ATOM     23  H5  UNL     1       6.277   1.487   1.923  1.00  0.00     0.210 HD
ENDBRANCH  16  22
ENDBRANCH   8   9
ENDBRANCH   6   8
ENDBRANCH   5   6
ENDBRANCH   4   5
ENDBRANCH   2   4
ENDBRANCH   1   2
BRANCH   1  24
HETATM   24  C14 UNL     1      -1.183  -2.455   0.905  1.00  0.00     0.202 C 
BRANCH  24  25
HETATM   25  C15 UNL     1      -2.636  -2.222   0.878  1.00  0.00    -0.053 C 
HETATM   26  C16 UNL     1      -3.418  -2.870   1.773  1.00  0.00    -0.021 C 
HETATM   27  C17 UNL     1      -4.884  -2.553   1.649  1.00  0.00     0.035 C 
HETATM   28  C18 UNL     1      -5.001  -1.052   1.752  1.00  0.00     0.024 C 
HETATM   29  C19 UNL     1      -6.406  -0.559   1.665  1.00  0.00     0.176 C 
HETATM   30  C27 UNL     1      -4.147  -0.329   0.784  1.00  0.00    -0.002 C 
HETATM   31  O7  UNL     1      -6.416   0.796   1.856  1.00  0.00    -0.358 OA
HETATM   32  C20 UNL     1      -6.490   1.585   0.743  1.00  0.00     0.290 C 
HETATM   33  O10 UNL     1      -5.398   1.561  -0.083  1.00  0.00    -0.352 OA
HETATM   34  C23 UNL     1      -4.875   0.335  -0.362  1.00  0.00     0.136 C 
HETATM   35  C24 UNL     1      -3.709   0.549  -1.339  1.00  0.00     0.065 C 
HETATM   36  C25 UNL     1      -2.665  -0.521  -0.984  1.00  0.00     0.129 C 
HETATM   37  C26 UNL     1      -3.367  -1.354  -0.020  1.00  0.00     0.056 C 
HETATM   38  C28 UNL     1      -3.290   0.702   1.441  1.00  0.00     0.019 C 
BRANCH  32  39
HETATM   39  C21 UNL     1      -7.813   1.423  -0.014  1.00  0.00     0.196 C 
BRANCH  39  40
HETATM   40  O8  UNL     1      -7.802   2.256  -1.124  1.00  0.00    -0.389 OA
ATOM     41  H8  UNL     1      -8.622   2.156  -1.593  1.00  0.00     0.210 HD
ENDBRANCH  39  40
BRANCH  39  42
HETATM   42  C22 UNL     1      -8.885   1.972   0.923  1.00  0.00     0.200 C 
BRANCH  42  43
HETATM   43  O9  UNL     1     -10.137   1.986   0.344  1.00  0.00    -0.398 OA
ATOM     44  H9  UNL     1     -10.804   2.328   0.927  1.00  0.00     0.209 HD
ENDBRANCH  42  43
ENDBRANCH  39  42
ENDBRANCH  32  39
BRANCH  36  45
HETATM   45  O11 UNL     1      -2.399  -1.275  -2.150  1.00  0.00    -0.395 OA
ATOM     46  H11 UNL     1      -1.754  -1.937  -1.931  1.00  0.00     0.210 HD
ENDBRANCH  36  45
ENDBRANCH  24  25
ENDBRANCH   1  24
TORSDOF 17
