REMARK  17 active torsions:
REMARK  status: ('A' for Active; 'I' for Inactive)
REMARK    1  A    between atoms: C2_2  and  C3_4 
REMARK    2  A    between atoms: C4_5  and  O1_6 
REMARK    3  A    between atoms: O1_6  and  C5_7 
REMARK    4  A    between atoms: C5_7  and  C6_8 
REMARK    5  A    between atoms: C6_8  and  O2_10 
REMARK    6  A    between atoms: O2_10  and  C8_11 
REMARK    7  A    between atoms: C9_12  and  O3_13 
REMARK    8  A    between atoms: C10_15  and  O4_16 
REMARK    9  A    between atoms: C11_18  and  O5_19 
REMARK   10  A    between atoms: O5_19  and  C12_20 
REMARK   11  A    between atoms: C12_20  and  C13_22 
REMARK   12  A    between atoms: C19_28  and  O7_29 
REMARK   13  A    between atoms: O7_29  and  C20_30 
REMARK   14  A    between atoms: C22_33  and  O9_34 
REMARK   15  A    between atoms: C23_36  and  O10_37 
REMARK   16  A    between atoms: C24_39  and  O11_40 
REMARK   17  A    between atoms: C25_42  and  C26_43 
ROOT
HETATM    1  C8  UNL     1       0.719  -0.986   0.523  1.00  0.00     0.184 C 
HETATM    2  C9  UNL     1       1.220  -0.707   1.903  1.00  0.00     0.181 C 
HETATM    3  C10 UNL     1       2.246   0.426   1.758  1.00  0.00     0.181 C 
HETATM    4  C11 UNL     1       3.391  -0.117   0.992  1.00  0.00     0.195 C 
HETATM    5  C19 UNL     1       3.015  -0.747  -0.333  1.00  0.00     0.195 C 
HETATM    6  C22 UNL     1       1.848  -1.662  -0.257  1.00  0.00     0.181 C 
ENDROOT
BRANCH   1   7
HETATM    7  O2  UNL     1      -0.363  -1.831   0.445  1.00  0.00    -0.373 OA
BRANCH   7   8
HETATM    8  C6  UNL     1      -1.440  -1.308  -0.257  1.00  0.00     0.142 C 
HETATM    9  C7  UNL     1      -1.788  -2.139  -1.470  1.00  0.00     0.042 C 
BRANCH   8  10
HETATM   10  C5  UNL     1      -2.638  -1.364   0.673  1.00  0.00     0.199 C 
BRANCH  10  11
HETATM   11  O1  UNL     1      -3.768  -0.858   0.088  1.00  0.00    -0.380 OA
BRANCH  11  12
HETATM   12  C4  UNL     1      -4.916  -0.843   0.830  1.00  0.00     0.163 C 
HETATM   13  C3  UNL     1      -5.666   0.480   0.561  1.00  0.00     0.077 C 
HETATM   14  C25 UNL     1      -5.563   0.454  -0.949  1.00  0.00     0.098 C 
HETATM   15  C24 UNL     1      -6.022  -1.003  -1.241  1.00  0.00     0.161 C 
HETATM   16  C23 UNL     1      -5.971  -1.737   0.068  1.00  0.00     0.177 C 
BRANCH  13  17
HETATM   17  C2  UNL     1      -5.077   1.607   1.240  1.00  0.00     0.022 C 
HETATM   18  C1  UNL     1      -4.183   1.551   2.189  1.00  0.00     0.035 C 
HETATM   19  N1  UNL     1      -5.453   2.943   0.838  1.00  0.00    -0.107 NA
ENDBRANCH  13  17
BRANCH  14  20
HETATM   20  C26 UNL     1      -6.535   1.331  -1.639  1.00  0.00     0.130 C 
HETATM   21  C27 UNL     1      -6.454   1.470  -3.112  1.00  0.00     0.091 C 
HETATM   22  O12 UNL     1      -7.382   1.924  -1.034  1.00  0.00    -0.298 OA
ENDBRANCH  14  20
BRANCH  15  23
HETATM   23  O11 UNL     1      -5.279  -1.576  -2.248  1.00  0.00    -0.392 OA
ATOM     24  H11 UNL     1      -5.311  -1.112  -3.076  1.00  0.00     0.210 HD
ENDBRANCH  15  23
BRANCH  16  25
HETATM   25  O10 UNL     1      -5.547  -3.035  -0.000  1.00  0.00    -0.390 OA
ATOM     26  H10 UNL     1      -6.182  -3.573  -0.458  1.00  0.00     0.210 HD
ENDBRANCH  16  25
ENDBRANCH  11  12
ENDBRANCH  10  11
ENDBRANCH   8  10
ENDBRANCH   7   8
ENDBRANCH   1   7
BRANCH   2  27
HETATM   27  O3  UNL     1       0.247  -0.335   2.799  1.00  0.00    -0.390 OA
ATOM     28  H3  UNL     1       0.565  -0.158   3.676  1.00  0.00     0.210 HD
ENDBRANCH   2  27
BRANCH   6  29
HETATM   29  O9  UNL     1       2.238  -2.855   0.330  1.00  0.00    -0.390 OA
ATOM     30  H9  UNL     1       2.939  -3.275  -0.154  1.00  0.00     0.210 HD
ENDBRANCH   6  29
BRANCH   3  31
HETATM   31  O4  UNL     1       2.693   0.681   3.069  1.00  0.00    -0.390 OA
ATOM     32  H4  UNL     1       3.328   1.382   2.979  1.00  0.00     0.210 HD
ENDBRANCH   3  31
BRANCH   5  33
HETATM   33  O7  UNL     1       4.205  -1.370  -0.763  1.00  0.00    -0.311 OA
BRANCH  33  34
HETATM   34  C20 UNL     1       4.903  -1.055  -1.897  1.00  0.00     0.255 C 
HETATM   35  C21 UNL     1       6.155  -1.783  -2.257  1.00  0.00     0.126 C 
HETATM   36  O8  UNL     1       4.422  -0.130  -2.596  1.00  0.00    -0.266 OA
ENDBRANCH  33  34
ENDBRANCH   5  33
BRANCH   4  37
HETATM   37  O5  UNL     1       4.428   0.815   0.776  1.00  0.00    -0.307 OA
BRANCH  37  38
HETATM   38  C12 UNL     1       5.710   0.697   1.234  1.00  0.00     0.293 C 
HETATM   39  O6  UNL     1       6.001  -0.330   1.909  1.00  0.00    -0.259 OA
BRANCH  38  40
HETATM   40  C13 UNL     1       6.720   1.701   0.968  1.00  0.00     0.039 A 
HETATM   41  C14 UNL     1       6.369   2.814   0.225  1.00  0.00     0.017 A 
HETATM   42  C15 UNL     1       7.338   3.763  -0.022  1.00  0.00     0.001 A 
HETATM   43  C16 UNL     1       8.632   3.638   0.445  1.00  0.00     0.000 A 
HETATM   44  C17 UNL     1       8.929   2.508   1.181  1.00  0.00     0.001 A 
HETATM   45  C18 UNL     1       8.002   1.543   1.450  1.00  0.00     0.017 A 
ENDBRANCH  38  40
ENDBRANCH  37  38
ENDBRANCH   4  37
TORSDOF 17
