REMARK  4 active torsions:
REMARK  status: ('A' for Active; 'I' for Inactive)
REMARK    1  A    between atoms: O1_2  and  C2_3 
REMARK    2  A    between atoms: C4_5  and  C5_6 
REMARK    3  A    between atoms: C5_6  and  C6_7 
REMARK    4  A    between atoms: C6_7  and  C7_8 
ROOT
HETATM    1  C6  UNL     1       0.300  -0.174  -0.834  1.00  0.00     0.068 C 
ENDROOT
BRANCH   1   2
HETATM    2  C5  UNL     1       1.254   0.967  -0.718  1.00  0.00     0.043 C 
BRANCH   2   3
HETATM    3  C4  UNL     1       2.631   0.404  -0.643  1.00  0.00    -0.052 A 
HETATM    4  C3  UNL     1       3.238   0.074   0.552  1.00  0.00     0.047 A 
HETATM    5  C2  UNL     1       4.504  -0.446   0.644  1.00  0.00     0.104 A 
HETATM    6  C16 UNL     1       5.199  -0.643  -0.545  1.00  0.00     0.138 A 
HETATM    7  C15 UNL     1       4.643  -0.331  -1.767  1.00  0.00     0.108 A 
HETATM    8  O7  UNL     1       6.478  -1.143  -0.802  1.00  0.00    -0.320 OA
HETATM    9  C14 UNL     1       3.377   0.184  -1.802  1.00  0.00     0.047 A 
HETATM   10  O8  UNL     1       5.554  -0.629  -2.772  1.00  0.00    -0.323 OA
HETATM   11  C17 UNL     1       6.593  -1.410  -2.182  1.00  0.00     0.352 C 
BRANCH   5  12
HETATM   12  O1  UNL     1       5.106  -0.774   1.851  1.00  0.00    -0.353 OA
HETATM   13  C1  UNL     1       4.363  -0.558   3.043  1.00  0.00     0.210 C 
ENDBRANCH   5  12
ENDBRANCH   2   3
ENDBRANCH   1   2
BRANCH   1  14
HETATM   14  C7  UNL     1      -1.141   0.256  -0.919  1.00  0.00     0.299 C 
HETATM   15  O2  UNL     1      -1.972  -0.845  -1.025  1.00  0.00    -0.334 OA
HETATM   16  C8  UNL     1      -2.229  -1.457   0.183  1.00  0.00     0.345 C 
HETATM   17  O3  UNL     1      -2.781  -0.633   1.136  1.00  0.00    -0.328 OA
HETATM   18  C9  UNL     1      -3.590   0.348   0.613  1.00  0.00     0.203 C 
HETATM   19  C10 UNL     1      -4.236   1.090   1.792  1.00  0.00     0.098 C 
HETATM   20  C13 UNL     1      -4.707  -0.152  -0.242  1.00  0.00     0.098 C 
HETATM   21  O5  UNL     1      -2.813   1.332  -0.042  1.00  0.00    -0.198 OA
HETATM   22  C11 UNL     1      -5.142   2.134   1.134  1.00  0.00     0.173 C 
HETATM   23  O4  UNL     1      -6.249   1.497   0.616  1.00  0.00    -0.391 OA
HETATM   24  C12 UNL     1      -6.069   0.162   0.356  1.00  0.00     0.173 C 
HETATM   25  O6  UNL     1      -1.544   1.030   0.140  1.00  0.00    -0.205 OA
ENDBRANCH   1  14
TORSDOF 4
