REMARK  10 active torsions:
REMARK  status: ('A' for Active; 'I' for Inactive)
REMARK    1  A    between atoms: O1_2  and  C2_3 
REMARK    2  A    between atoms: C3_6  and  C4_7 
REMARK    3  A    between atoms: C4_7  and  C5_8 
REMARK    4  A    between atoms: C9_12  and  C11_14 
REMARK    5  A    between atoms: C11_14  and  C13_16 
REMARK    6  A    between atoms: C13_16  and  N2_17 
REMARK    7  A    between atoms: C14_21  and  C15_22 
REMARK    8  A    between atoms: C20_28  and  N3_29 
REMARK    9  A    between atoms: C20_28  and  O4_34 
REMARK       I    between atoms: N3_29  and  C21_31 
REMARK   10  A    between atoms: C25_37  and  C26_38 
ROOT
HETATM    1  C5  UNL     1       0.596   1.490   0.032  1.00  0.00    -0.013 C 
HETATM    2  C6  UNL     1      -0.550   0.728   0.547  1.00  0.00    -0.045 C 
HETATM    3  C7  UNL     1      -0.581  -0.257   1.414  1.00  0.00    -0.018 C 
HETATM    4  C8  UNL     1      -1.835  -0.930   1.835  1.00  0.00     0.038 C 
HETATM    5  C9  UNL     1      -2.898  -1.068   0.786  1.00  0.00    -0.025 C 
HETATM    6  C10 UNL     1      -4.231  -0.929   1.513  1.00  0.00     0.016 C 
HETATM    7  C14 UNL     1      -2.711  -0.093  -0.299  1.00  0.00     0.068 C 
HETATM    8  C16 UNL     1      -1.924   1.135   0.028  1.00  0.00    -0.006 C 
HETATM    9  C17 UNL     1      -2.628   2.076   0.949  1.00  0.00     0.021 C 
HETATM   10  C18 UNL     1      -1.629   1.865  -1.253  1.00  0.00     0.020 C 
HETATM   11  C19 UNL     1      -0.836   3.118  -1.063  1.00  0.00     0.067 C 
HETATM   12  C20 UNL     1       0.372   2.951  -0.115  1.00  0.00     0.161 C 
ENDROOT
BRANCH   1  13
HETATM   13  C4  UNL     1       1.922   1.064   0.523  1.00  0.00     0.097 C 
BRANCH  13  14
HETATM   14  C3  UNL     1       2.396  -0.275   0.180  1.00  0.00     0.016 A 
HETATM   15  N1  UNL     1       3.549  -0.667   0.809  1.00  0.00    -0.340 N 
HETATM   16  C2  UNL     1       4.142  -1.844   0.568  1.00  0.00     0.148 A 
ATOM     17  H1  UNL     1       3.973  -0.036   1.489  1.00  0.00     0.167 HD
HETATM   18  C27 UNL     1       3.620  -2.739  -0.339  1.00  0.00     0.001 A 
HETATM   19  C25 UNL     1       2.457  -2.373  -0.990  1.00  0.00     0.018 A 
HETATM   20  C28 UNL     1       4.297  -4.017  -0.577  1.00  0.00     0.053 C 
HETATM   21  C24 UNL     1       1.875  -1.153  -0.715  1.00  0.00     0.038 A 
BRANCH  16  22
HETATM   22  O1  UNL     1       5.324  -2.209   1.234  1.00  0.00    -0.340 OA
HETATM   23  C1  UNL     1       5.911  -1.328   2.181  1.00  0.00     0.211 C 
ENDBRANCH  16  22
BRANCH  19  24
HETATM   24  C26 UNL     1       1.866  -3.304  -1.989  1.00  0.00     0.387 C 
HETATM   25  F1  UNL     1       2.693  -3.442  -3.107  1.00  0.00    -0.209 F 
HETATM   26  F2  UNL     1       1.565  -4.514  -1.414  1.00  0.00    -0.209 F 
ENDBRANCH  19  24
ENDBRANCH  13  14
ENDBRANCH   1  13
BRANCH  12  27
HETATM   27  N3  UNL     1       1.500   3.534  -0.852  1.00  0.00    -0.326 N 
HETATM   28  C21 UNL     1       1.473   4.941  -1.051  1.00  0.00     0.216 C 
HETATM   29  C22 UNL     1       2.553   5.621  -1.775  1.00  0.00     0.117 C 
HETATM   30  O3  UNL     1       0.523   5.662  -0.615  1.00  0.00    -0.274 OA
ATOM     31  H3  UNL     1       2.265   2.958  -1.204  1.00  0.00     0.165 HD
ENDBRANCH  12  27
BRANCH  12  32
HETATM   32  O4  UNL     1       0.121   3.700   0.951  1.00  0.00    -0.361 OA
HETATM   33  C23 UNL     1       0.956   3.833   1.992  1.00  0.00     0.205 C 
ENDBRANCH  12  32
BRANCH   7  34
HETATM   34  C15 UNL     1      -3.964   0.337  -0.976  1.00  0.00     0.237 C 
HETATM   35  O2  UNL     1      -4.114   0.347  -2.188  1.00  0.00    -0.306 OA
ENDBRANCH   7  34
BRANCH   5  36
HETATM   36  C11 UNL     1      -2.860  -2.509   0.334  1.00  0.00     0.016 C 
HETATM   37  C12 UNL     1      -1.554  -2.945  -0.250  1.00  0.00     0.012 C 
BRANCH  36  38
HETATM   38  C13 UNL     1      -4.046  -2.947  -0.464  1.00  0.00     0.234 C 
BRANCH  38  39
HETATM   39  N2  UNL     1      -3.906  -4.362  -0.849  1.00  0.00    -0.079 N 
ATOM     40  H23 UNL     1      -3.030  -4.538  -1.341  1.00  0.00     0.274 HD
ATOM     41  H22 UNL     1      -3.748  -4.963  -0.040  1.00  0.00     0.274 HD
ATOM     42  H21 UNL     1      -4.715  -4.661  -1.393  1.00  0.00     0.274 HD
ENDBRANCH  38  39
ENDBRANCH  36  38
ENDBRANCH   5  36
TORSDOF 10
