REMARK  0 active torsions:
REMARK  status: ('A' for Active; 'I' for Inactive)
ROOT
HETATM    1  C1  UNL     1      -0.205   1.108   0.058  1.00  0.00     0.261 C 
HETATM    2  C2  UNL     1      -0.993  -0.145  -0.183  1.00  0.00     0.197 C 
HETATM    3  O1  UNL     1      -0.094  -1.077  -0.666  1.00  0.00    -0.363 OA
HETATM    4  C3  UNL     1       1.075  -0.831   0.027  1.00  0.00     0.399 C 
HETATM    5  N1  UNL     1       1.134   0.595   0.285  1.00  0.00    -0.052 N 
ATOM      6  H11 UNL     1       1.504   0.824   1.207  1.00  0.00     0.279 HD
ATOM      7  H12 UNL     1       1.849   1.076  -0.261  1.00  0.00     0.279 HD
ENDROOT
TORSDOF 0
