REMARK  3 active torsions:
REMARK  status: ('A' for Active; 'I' for Inactive)
REMARK    1  A    between atoms: O1_2  and  N1_3 
REMARK    2  A    between atoms: N1_3  and  C2_5 
REMARK    3  A    between atoms: C6_16  and  N5_17 
ROOT
HETATM    1  C2  UNL     1       0.277  -0.746   0.595  1.00  0.00     0.155 C 
HETATM    2  N2  UNL     1      -0.622  -1.780   0.505  1.00  0.00    -0.348 N 
ATOM      3  H2  UNL     1      -0.333  -2.684   0.878  1.00  0.00     0.167 HD
HETATM    4  C3  UNL     1      -1.870  -1.698  -0.042  1.00  0.00     0.107 C 
HETATM    5  C4  UNL     1      -2.497  -0.629  -0.628  1.00  0.00     0.106 C 
HETATM    6  N3  UNL     1      -2.130   0.682  -0.619  1.00  0.00    -0.349 N 
ATOM      7  H3  UNL     1      -2.769   1.316  -1.099  1.00  0.00     0.167 HD
HETATM    8  C5  UNL     1      -1.049   1.264  -0.070  1.00  0.00     0.129 C 
HETATM    9  N4  UNL     1      -0.894   2.505  -0.218  1.00  0.00    -0.384 N 
ATOM     10  H41 UNL     1      -0.074   2.946   0.198  1.00  0.00     0.157 HD
ATOM     11  H42 UNL     1      -1.606   3.001  -0.755  1.00  0.00     0.157 HD
HETATM   12  C6  UNL     1      -0.066   0.579   0.671  1.00  0.00     0.116 C 
ENDROOT
BRANCH   1  13
HETATM   13  N1  UNL     1       1.489  -1.075   0.600  1.00  0.00    -0.249 N 
ATOM     14  H1  UNL     1       1.682  -2.075   0.540  1.00  0.00     0.196 HD
BRANCH  13  15
HETATM   15  O1  UNL     1       2.567  -0.267   0.675  1.00  0.00    -0.284 OA
HETATM   16  C1  UNL     1       3.269   0.112  -0.500  1.00  0.00     0.237 C 
ENDBRANCH  13  15
ENDBRANCH   1  13
BRANCH  12  17
HETATM   17  N5  UNL     1       0.535   1.309   1.518  1.00  0.00    -0.393 N 
ATOM     18  H52 UNL     1       1.247   0.813   2.055  1.00  0.00     0.156 HD
ATOM     19  H51 UNL     1       0.280   2.295   1.575  1.00  0.00     0.156 HD
ENDBRANCH  12  17
TORSDOF 3
