REMARK  16 active torsions:
REMARK  status: ('A' for Active; 'I' for Inactive)
REMARK    1  A    between atoms: C2_2  and  O2_4 
REMARK    2  A    between atoms: O2_4  and  C3_5 
REMARK    3  A    between atoms: C3_5  and  N1_6 
REMARK    4  A    between atoms: C3_5  and  C4_10 
REMARK    5  A    between atoms: C4_10  and  N2_11 
REMARK    6  A    between atoms: C4_10  and  C5_15 
REMARK    7  A    between atoms: C5_15  and  O4_17 
REMARK    8  A    between atoms: O4_17  and  N3_18 
REMARK    9  A    between atoms: N4_20  and  O5_22 
REMARK   10  A    between atoms: C7_24  and  O6_26 
REMARK   11  A    between atoms: N5_28  and  N6_29 
REMARK   12  A    between atoms: N6_29  and  N7_31 
REMARK   13  A    between atoms: N7_31  and  C9_33 
REMARK   14  A    between atoms: C12_36  and  S1_37 
REMARK   15  A    between atoms: S1_37  and  N8_40 
REMARK       I    between atoms: N8_40  and  C13_42 
REMARK   16  A    between atoms: C13_42  and  C14_44 
ROOT
HETATM    1  N3  UNL     1      -2.424  -1.975  -0.372  1.00  0.00    -0.199 N 
HETATM    2  C6  UNL     1      -2.079  -3.353  -0.332  1.00  0.00     0.184 C 
HETATM    3  N4  UNL     1      -2.877  -4.376  -0.343  1.00  0.00    -0.251 N 
ATOM      4  H4  UNL     1      -2.490  -5.319  -0.310  1.00  0.00     0.195 HD
HETATM    5  C7  UNL     1      -0.600  -3.435  -0.272  1.00  0.00     0.210 C 
HETATM    6  C8  UNL     1      -0.235  -4.020   1.071  1.00  0.00     0.082 C 
HETATM    7  N5  UNL     1      -0.174  -2.054  -0.340  1.00  0.00    -0.241 N 
HETATM    8  C17 UNL     1      -1.270  -1.281  -0.915  1.00  0.00     0.147 C 
HETATM    9  C18 UNL     1      -1.225  -1.435  -2.421  1.00  0.00     0.067 C 
HETATM   10  C19 UNL     1      -1.209   0.168  -0.573  1.00  0.00     0.067 C 
ENDROOT
BRANCH   7  11
HETATM   11  N6  UNL     1       1.034  -1.484   0.053  1.00  0.00    -0.239 N 
ATOM     12  H6  UNL     1       1.460  -1.704   0.953  1.00  0.00     0.208 HD
BRANCH  11  13
HETATM   13  N7  UNL     1       1.588  -0.666  -0.773  1.00  0.00    -0.285 N 
ATOM     14  H7  UNL     1       1.181  -0.431  -1.678  1.00  0.00     0.188 HD
BRANCH  13  15
HETATM   15  C9  UNL     1       2.828  -0.114  -0.307  1.00  0.00     0.067 A 
HETATM   16  C10 UNL     1       2.840   1.182   0.170  1.00  0.00     0.034 A 
HETATM   17  C11 UNL     1       4.071   1.672   0.616  1.00  0.00     0.027 A 
HETATM   18  C12 UNL     1       5.210   0.908   0.583  1.00  0.00     0.081 A 
HETATM   19  C15 UNL     1       5.160  -0.382   0.102  1.00  0.00     0.046 A 
HETATM   20  C16 UNL     1       3.957  -0.885  -0.344  1.00  0.00     0.040 A 
HETATM   21 BR1  UNL     1       3.907  -2.684  -1.012  1.00  0.00    -0.049 Br
BRANCH  18  22
HETATM   22  S1  UNL     1       6.747   1.509   1.129  1.00  0.00     0.265 S 
HETATM   23  O7  UNL     1       6.546   2.593   2.172  1.00  0.00    -0.200 OA
HETATM   24  O8  UNL     1       7.497   0.390   1.776  1.00  0.00    -0.200 OA
BRANCH  22  25
HETATM   25  N8  UNL     1       7.672   2.144  -0.158  1.00  0.00    -0.249 N 
HETATM   26  C13 UNL     1       7.231   3.231  -0.944  1.00  0.00     0.244 C 
HETATM   27  O9  UNL     1       6.119   3.778  -0.717  1.00  0.00    -0.271 OA
ATOM     28  H8  UNL     1       8.577   1.722  -0.367  1.00  0.00     0.182 HD
BRANCH  26  29
HETATM   29  C14 UNL     1       8.093   3.742  -2.063  1.00  0.00     0.218 C 
HETATM   30 CL1  UNL     1       9.581   2.788  -2.132  1.00  0.00    -0.121 Cl
ENDBRANCH  26  29
ENDBRANCH  22  25
ENDBRANCH  18  22
ENDBRANCH  13  15
ENDBRANCH  11  13
ENDBRANCH   7  11
BRANCH   5  31
HETATM   31  O6  UNL     1      -0.086  -4.210  -1.294  1.00  0.00    -0.363 OA
ATOM     32  H6  UNL     1       0.862  -4.263  -1.256  1.00  0.00     0.213 HD
ENDBRANCH   5  31
BRANCH   1  33
HETATM   33  O4  UNL     1      -3.603  -1.429   0.025  1.00  0.00    -0.191 OA
BRANCH  33  34
HETATM   34  C5  UNL     1      -3.786  -0.759   1.225  1.00  0.00     0.316 C 
HETATM   35  O3  UNL     1      -2.795  -0.655   1.989  1.00  0.00    -0.261 OA
BRANCH  34  36
HETATM   36  C4  UNL     1      -5.097  -0.207   1.554  1.00  0.00     0.340 C 
BRANCH  36  37
HETATM   37  C3  UNL     1      -5.076   1.284   1.794  1.00  0.00     0.367 C 
BRANCH  37  38
HETATM   38  O2  UNL     1      -4.680   1.901   0.585  1.00  0.00    -0.285 OA
BRANCH  38  39
HETATM   39  C2  UNL     1      -5.501   2.730  -0.152  1.00  0.00     0.256 C 
HETATM   40  C1  UNL     1      -4.978   3.319  -1.402  1.00  0.00     0.126 C 
HETATM   41  O1  UNL     1      -6.660   2.956   0.261  1.00  0.00    -0.266 OA
ENDBRANCH  38  39
ENDBRANCH  37  38
BRANCH  37  42
HETATM   42  N1  UNL     1      -4.268   1.683   2.898  1.00  0.00    -0.050 N 
ATOM     43  H13 UNL     1      -3.279   1.519   2.708  1.00  0.00     0.277 HD
ATOM     44  H12 UNL     1      -4.250   2.698   2.992  1.00  0.00     0.277 HD
ATOM     45  H11 UNL     1      -4.554   1.238   3.770  1.00  0.00     0.277 HD
ENDBRANCH  37  42
ENDBRANCH  36  37
BRANCH  36  46
HETATM   46  N2  UNL     1      -6.043  -0.500   0.493  1.00  0.00    -0.061 N 
ATOM     47  H23 UNL     1      -6.971  -0.124   0.685  1.00  0.00     0.275 HD
ATOM     48  H22 UNL     1      -5.849   0.028  -0.358  1.00  0.00     0.275 HD
ATOM     49  H21 UNL     1      -6.057  -1.507   0.331  1.00  0.00     0.275 HD
ENDBRANCH  36  46
ENDBRANCH  34  36
ENDBRANCH  33  34
ENDBRANCH   1  33
BRANCH   3  50
HETATM   50  O5  UNL     1      -4.238  -4.201  -0.398  1.00  0.00    -0.288 OA
ATOM     51  H5  UNL     1      -4.822  -4.950  -0.406  1.00  0.00     0.244 HD
ENDBRANCH   3  50
TORSDOF 16
