REMARK  1 active torsions:
REMARK  status: ('A' for Active; 'I' for Inactive)
REMARK    1  A    between atoms: C2_2  and  N1_3 
ROOT
HETATM    1  N1  UNL     1       0.325  -0.049  -0.117  1.00  0.00    -0.267 N 
HETATM    2  C3  UNL     1      -0.166   1.267  -0.343  1.00  0.00     0.331 C 
HETATM    3  O1  UNL     1       0.661   2.146  -0.749  1.00  0.00    -0.246 OA
HETATM    4  N2  UNL     1      -1.532   1.604  -0.128  1.00  0.00    -0.276 N 
ATOM      5  H2  UNL     1      -1.863   2.554  -0.297  1.00  0.00     0.173 HD
HETATM    6  C4  UNL     1      -2.431   0.595   0.327  1.00  0.00     0.274 C 
HETATM    7  O2  UNL     1      -3.580   0.938   0.705  1.00  0.00    -0.269 OA
HETATM    8  C5  UNL     1      -2.060  -0.832   0.369  1.00  0.00     0.274 C 
HETATM    9 CL1  UNL     1      -2.711  -1.649  -1.090  1.00  0.00    -0.081 Cl
HETATM   10 CL2  UNL     1      -2.716  -1.632   1.821  1.00  0.00    -0.081 Cl
HETATM   11  C6  UNL     1      -0.582  -1.022   0.330  1.00  0.00     0.276 C 
HETATM   12  O3  UNL     1      -0.117  -2.128   0.724  1.00  0.00    -0.269 OA
ENDROOT
BRANCH   1  13
HETATM   13  C2  UNL     1       1.723  -0.350  -0.349  1.00  0.00     0.132 C 
HETATM   14  C1  UNL     1       2.581  -0.144   0.850  1.00  0.00     0.027 C 
ENDBRANCH   1  13
TORSDOF 1
