REMARK  3 active torsions:
REMARK  status: ('A' for Active; 'I' for Inactive)
REMARK    1  A    between atoms: C1_2  and  C2_3 
REMARK       I    between atoms: C1_2  and  N1_5 
REMARK    2  A    between atoms: C3_7  and  C4_9 
REMARK    3  A    between atoms: C4_9  and  O2_10 
ROOT
HETATM    1  O1  UNL     1       1.355  -1.514  -1.067  1.00  0.00    -0.272 OA
HETATM    2  C1  UNL     1       1.421  -0.533  -0.254  1.00  0.00     0.236 C 
HETATM    3  N1  UNL     1       0.279   0.322  -0.199  1.00  0.00    -0.322 N 
ATOM      4  H1  UNL     1       0.352   1.301  -0.475  1.00  0.00     0.169 HD
HETATM    5  C3  UNL     1      -0.835  -0.156   0.201  1.00  0.00     0.082 C 
HETATM    6 BR1  UNL     1      -1.057  -1.965   0.741  1.00  0.00    -0.034 Br
ENDROOT
BRANCH   2   7
HETATM    7  C2  UNL     1       2.603  -0.283   0.579  1.00  0.00     0.217 C 
HETATM    8 CL1  UNL     1       3.563   1.111   0.040  1.00  0.00    -0.121 Cl
ENDBRANCH   2   7
BRANCH   5   9
HETATM    9  C4  UNL     1      -2.061   0.724   0.249  1.00  0.00     0.229 C 
BRANCH   9  10
HETATM   10  O2  UNL     1      -2.979   0.280  -0.725  1.00  0.00    -0.394 OA
ATOM     11  H2  UNL     1      -3.750   0.834  -0.695  1.00  0.00     0.209 HD
ENDBRANCH   9  10
ENDBRANCH   5   9
TORSDOF 3
