REMARK  4 active torsions:
REMARK  status: ('A' for Active; 'I' for Inactive)
REMARK    1  A    between atoms: N1_1  and  C1_5 
REMARK    2  A    between atoms: C1_5  and  C2_6 
REMARK    3  A    between atoms: N3_9  and  C4_10 
REMARK    4  A    between atoms: C4_10  and  C5_11 
ROOT
HETATM    1  C2  UNL     1      -1.906  -0.205  -0.265  1.00  0.00     0.041 C 
HETATM    2  C3  UNL     1      -2.010  -1.245   0.838  1.00  0.00     0.136 C 
HETATM    3  N2  UNL     1      -0.634  -1.671   1.005  1.00  0.00    -0.165 NA
HETATM    4  N3  UNL     1       0.174  -0.678   0.537  1.00  0.00    -0.234 NA
HETATM    5  C9  UNL     1      -0.606   0.484   0.203  1.00  0.00     0.117 C 
ENDROOT
BRANCH   1   6
HETATM    6  C1  UNL     1      -2.982   0.828  -0.193  1.00  0.00     0.236 C 
BRANCH   6   7
HETATM    7  N1  UNL     1      -2.789   1.767  -1.301  1.00  0.00    -0.079 N 
ATOM      8  H13 UNL     1      -1.854   2.173  -1.314  1.00  0.00     0.274 HD
ATOM      9  H12 UNL     1      -2.750   1.302  -2.208  1.00  0.00     0.274 HD
ATOM     10  H11 UNL     1      -3.524   2.473  -1.252  1.00  0.00     0.274 HD
ENDBRANCH   6   7
ENDBRANCH   1   6
BRANCH   4  11
HETATM   11  C4  UNL     1       1.046  -1.123  -0.477  1.00  0.00     0.114 C 
BRANCH  11  12
HETATM   12  C5  UNL     1       2.246  -0.296  -0.767  1.00  0.00     0.009 A 
HETATM   13  C6  UNL     1       3.143  -0.236   0.532  1.00  0.00    -0.004 A 
HETATM   14  C7  UNL     1       3.971   1.099   0.598  1.00  0.00     0.011 A 
HETATM   15  C8  UNL     1       2.669   0.914  -0.059  1.00  0.00    -0.004 A 
ENDBRANCH  11  12
ENDBRANCH   4  11
TORSDOF 4
