REMARK  3 active torsions:
REMARK  status: ('A' for Active; 'I' for Inactive)
REMARK    1  A    between atoms: N2_4  and  N3_6 
REMARK    2  A    between atoms: C1_8  and  N4_9 
REMARK    3  A    between atoms: N4_9  and  C2_11 
ROOT
HETATM    1  N3  UNL     1       2.603  -0.586  -0.162  1.00  0.00    -0.283 N 
ATOM      2  H3  UNL     1       2.525  -1.167  -0.997  1.00  0.00     0.189 HD
HETATM    3  C1  UNL     1       1.576  -0.374   0.596  1.00  0.00     0.194 C 
ENDROOT
BRANCH   1   4
HETATM    4  N2  UNL     1       3.810  -0.006   0.186  1.00  0.00    -0.248 N 
HETATM    5  N1  UNL     1       3.995   1.218  -0.017  1.00  0.00    -0.331 N 
ATOM      6  H12 UNL     1       3.248   1.770  -0.438  1.00  0.00     0.178 HD
ATOM      7  H11 UNL     1       4.885   1.646   0.240  1.00  0.00     0.178 HD
ATOM      8  H2  UNL     1       4.547  -0.572   0.606  1.00  0.00     0.207 HD
ENDBRANCH   1   4
BRANCH   3   9
HETATM    9  N4  UNL     1       0.325  -0.958   0.261  1.00  0.00    -0.380 N 
ATOM     10  H4  UNL     1       0.283  -1.806  -0.305  1.00  0.00     0.160 HD
BRANCH   9  11
HETATM   11  C2  UNL     1      -0.886  -0.332   0.735  1.00  0.00     0.082 C 
HETATM   12  C3  UNL     1      -0.981   1.086   0.201  1.00  0.00     0.025 C 
HETATM   13  C4  UNL     1      -2.198   0.628  -0.596  1.00  0.00     0.004 C 
HETATM   14  C5  UNL     1      -2.156  -0.744   0.076  1.00  0.00     0.025 C 
ENDBRANCH   9  11
ENDBRANCH   3   9
TORSDOF 3
