REMARK  3 active torsions:
REMARK  status: ('A' for Active; 'I' for Inactive)
REMARK    1  A    between atoms: C1_2  and  N1_3 
REMARK    2  A    between atoms: C2_5  and  N2_6 
REMARK    3  A    between atoms: N2_6  and  C3_8 
ROOT
HETATM    1  N1  UNL     1       1.934   0.171   0.531  1.00  0.00    -0.331 N 
ATOM      2  H1  UNL     1       1.435   0.907   1.031  1.00  0.00     0.168 HD
HETATM    3  C2  UNL     1       1.256  -0.831   0.145  1.00  0.00     0.178 C 
ENDROOT
BRANCH   3   4
HETATM    4  N2  UNL     1      -0.124  -0.865   0.427  1.00  0.00    -0.381 N 
ATOM      5  H2  UNL     1      -0.474  -1.425   1.205  1.00  0.00     0.160 HD
BRANCH   4   6
HETATM    6  C3  UNL     1      -1.033  -0.111  -0.382  1.00  0.00     0.082 A 
HETATM    7  C4  UNL     1      -2.475  -0.187  -0.035  1.00  0.00     0.027 A 
HETATM    8  C5  UNL     1      -1.743   1.091   0.239  1.00  0.00     0.027 A 
ENDBRANCH   4   6
ENDBRANCH   3   4
BRANCH   1   9
HETATM    9  C1  UNL     1       3.316   0.353   0.328  1.00  0.00     0.353 C 
HETATM   10  O1  UNL     1       3.775   1.519   0.480  1.00  0.00    -0.283 OA
ENDBRANCH   1   9
TORSDOF 3
