REMARK  4 active torsions:
REMARK  status: ('A' for Active; 'I' for Inactive)
REMARK    1  A    between atoms: N1_2  and  C2_3 
REMARK    2  A    between atoms: N1_2  and  C7_14 
REMARK    3  A    between atoms: C2_3  and  S2_5 
REMARK    4  A    between atoms: S2_5  and  C3_6 
ROOT
HETATM    1  C2  UNL     1       0.759   0.332  -0.432  1.00  0.00     0.144 C 
HETATM    2  S1  UNL     1       1.082  -1.231  -0.210  1.00  0.00    -0.052 SA
ENDROOT
BRANCH   1   3
HETATM    3  N1  UNL     1      -0.487   0.860  -0.720  1.00  0.00    -0.366 N 
HETATM    4  C1  UNL     1      -0.523   2.348  -0.934  1.00  0.00     0.151 C 
BRANCH   3   5
HETATM    5  C7  UNL     1      -1.728   0.190  -0.866  1.00  0.00     0.085 C 
HETATM    6  C8  UNL     1      -2.795   1.000  -0.106  1.00  0.00     0.025 C 
HETATM    7  C9  UNL     1      -3.135   0.243   1.140  1.00  0.00     0.002 C 
HETATM    8  C10 UNL     1      -3.965  -0.973   0.678  1.00  0.00     0.000 C 
HETATM    9  C11 UNL     1      -3.170  -1.767  -0.327  1.00  0.00     0.002 C 
HETATM   10  C12 UNL     1      -1.734  -1.216  -0.417  1.00  0.00     0.025 C 
ENDBRANCH   3   5
ENDBRANCH   1   3
BRANCH   1  11
HETATM   11  S2  UNL     1       2.187   1.456  -0.321  1.00  0.00    -0.024 SA
BRANCH  11  12
HETATM   12  C3  UNL     1       3.654   0.533   0.061  1.00  0.00     0.151 A 
HETATM   13  N2  UNL     1       3.691  -0.786   0.238  1.00  0.00    -0.346 N 
HETATM   14  C4  UNL     1       4.824  -1.459   0.528  1.00  0.00     0.091 A 
ATOM     15  H2  UNL     1       2.822  -1.313   0.150  1.00  0.00     0.167 HD
HETATM   16  C5  UNL     1       6.004  -0.765   0.649  1.00  0.00     0.034 A 
HETATM   17  C6  UNL     1       5.983   0.600   0.469  1.00  0.00     0.091 A 
HETATM   18  N3  UNL     1       4.813   1.202   0.182  1.00  0.00    -0.346 N 
ATOM     19  H3  UNL     1       4.806   2.213   0.050  1.00  0.00     0.167 HD
ENDBRANCH  11  12
ENDBRANCH   1  11
TORSDOF 4
