REMARK  3 active torsions:
REMARK  status: ('A' for Active; 'I' for Inactive)
REMARK    1  A    between atoms: C2_3  and  C3_4 
REMARK    2  A    between atoms: C3_4  and  O1_7 
REMARK    3  A    between atoms: C6_13  and  C7_14 
ROOT
HETATM    1  C1  UNL     1       1.814  -1.198   0.938  1.00  0.00     0.159 C 
HETATM    2  N1  UNL     1       1.587  -0.046   0.096  1.00  0.00    -0.325 N 
HETATM    3  C2  UNL     1       2.566   0.674  -0.472  1.00  0.00     0.133 A 
HETATM    4  N2  UNL     1       1.884   1.601  -1.164  1.00  0.00    -0.285 N 
ATOM      5  H2  UNL     1       2.320   2.332  -1.725  1.00  0.00     0.188 HD
HETATM    6  N3  UNL     1       0.593   1.451  -1.030  1.00  0.00    -0.287 N 
ATOM      7  H3  UNL     1      -0.122   2.034  -1.464  1.00  0.00     0.188 HD
HETATM    8  C6  UNL     1       0.362   0.383  -0.212  1.00  0.00     0.108 A 
ENDROOT
BRANCH   8   9
HETATM    9  C7  UNL     1      -0.990   0.020   0.135  1.00  0.00     0.021 C 
HETATM   10  C8  UNL     1      -1.212  -0.991   1.195  1.00  0.00     0.018 C 
HETATM   11  C9  UNL     1      -2.695  -1.319   1.331  1.00  0.00     0.006 C 
HETATM   12  C10 UNL     1      -3.565  -0.792   0.268  1.00  0.00    -0.010 C 
HETATM   13  C11 UNL     1      -4.069   0.582   0.678  1.00  0.00     0.010 C 
HETATM   14  C14 UNL     1      -2.983  -0.652  -1.100  1.00  0.00    -0.009 C 
HETATM   15  C12 UNL     1      -3.075   1.411  -0.114  1.00  0.00    -0.013 C 
HETATM   16  C13 UNL     1      -3.274   0.800  -1.468  1.00  0.00     0.010 C 
HETATM   17  C16 UNL     1      -1.756   1.258   0.473  1.00  0.00     0.022 C 
HETATM   18  C15 UNL     1      -1.491  -0.690  -1.154  1.00  0.00     0.022 C 
ENDBRANCH   8   9
BRANCH   3  19
HETATM   19  C3  UNL     1       4.051   0.561  -0.417  1.00  0.00     0.110 C 
HETATM   20  C4  UNL     1       4.573  -0.703  -1.054  1.00  0.00     0.054 C 
HETATM   21  C5  UNL     1       4.578   0.742   0.993  1.00  0.00     0.054 C 
BRANCH  19  22
HETATM   22  O1  UNL     1       4.589   1.596  -1.201  1.00  0.00    -0.383 OA
ATOM     23  H1  UNL     1       5.536   1.524  -1.166  1.00  0.00     0.211 HD
ENDBRANCH  19  22
ENDBRANCH   3  19
TORSDOF 3
