REMARK  9 active torsions:
REMARK  status: ('A' for Active; 'I' for Inactive)
REMARK    1  A    between atoms: C2_2  and  C3_3 
REMARK    2  A    between atoms: C3_3  and  C4_4 
REMARK    3  A    between atoms: C4_4  and  C5_5 
REMARK    4  A    between atoms: C5_5  and  N1_6 
REMARK    5  A    between atoms: N1_6  and  C6_7 
REMARK    6  A    between atoms: C6_7  and  N2_9 
REMARK    7  A    between atoms: N2_9  and  C8_11 
REMARK    8  A    between atoms: C10_15  and  C11_16 
REMARK       I    between atoms: N5_20  and  C12_22 
REMARK    9  A    between atoms: C12_22  and  C13_24 
ROOT
HETATM    1  N1  UNL     1      -0.502   0.209   0.585  1.00  0.00    -0.378 NA
ENDROOT
BRANCH   1   2
HETATM    2  C5  UNL     1      -1.678  -0.400   0.468  1.00  0.00     0.160 C 
HETATM    3  N5  UNL     1      -1.871  -1.661   0.604  1.00  0.00    -0.296 N 
HETATM    4  C12 UNL     1      -1.023  -2.703   0.950  1.00  0.00     0.324 C 
ATOM      5  H5  UNL     1      -2.831  -1.953   0.423  1.00  0.00     0.171 HD
HETATM    6  O1  UNL     1      -0.159  -2.626   1.882  1.00  0.00    -0.260 OA
BRANCH   2   7
HETATM    7  C4  UNL     1      -2.957   0.394   0.066  1.00  0.00     0.092 C 
BRANCH   7   8
HETATM    8  C3  UNL     1      -3.126   1.432   1.114  1.00  0.00     0.008 C 
BRANCH   8   9
HETATM    9  C2  UNL     1      -4.336   2.311   0.892  1.00  0.00    -0.004 C 
HETATM   10  C1  UNL     1      -4.210   3.008  -0.437  1.00  0.00     0.005 C 
ENDBRANCH   8   9
ENDBRANCH   7   8
ENDBRANCH   2   7
BRANCH   4  11
HETATM   11  C13 UNL     1      -1.116  -3.965   0.213  1.00  0.00     0.270 C 
HETATM   12  O2  UNL     1      -1.955  -4.084  -0.697  1.00  0.00    -0.640 OA
HETATM   13  O3  UNL     1      -0.278  -5.008   0.527  1.00  0.00    -0.640 OA
ENDBRANCH   4  11
ENDBRANCH   1   2
BRANCH   1  14
HETATM   14  C6  UNL     1       0.570   0.704   0.707  1.00  0.00     0.168 C 
HETATM   15  C7  UNL     1       0.759   2.183   0.383  1.00  0.00     0.107 C 
BRANCH  14  16
HETATM   16  N2  UNL     1       1.779   0.085   1.141  1.00  0.00    -0.168 N 
ATOM     17  H2  UNL     1       1.925  -0.112   2.131  1.00  0.00     0.186 HD
BRANCH  16  18
HETATM   18  C8  UNL     1       2.690  -0.226   0.277  1.00  0.00     0.684 A 
HETATM   19  N3  UNL     1       2.583  -0.005  -1.047  1.00  0.00    -0.200 N 
HETATM   20  C9  UNL     1       3.693  -0.444  -1.662  1.00  0.00     0.132 A 
ATOM     21  H3  UNL     1       1.784   0.428  -1.510  1.00  0.00     0.183 HD
HETATM   22  C10 UNL     1       4.513  -0.952  -0.684  1.00  0.00     0.052 A 
HETATM   23  N4  UNL     1       3.875  -0.804   0.480  1.00  0.00    -0.193 N 
ATOM     24  H4  UNL     1       4.239  -1.090   1.389  1.00  0.00     0.184 HD
BRANCH  22  25
HETATM   25  C11 UNL     1       5.845  -1.548  -0.908  1.00  0.00     0.144 C 
HETATM   26 BR1  UNL     1       7.193  -0.183  -0.811  1.00  0.00    -0.090 Br
ENDBRANCH  22  25
ENDBRANCH  16  18
ENDBRANCH  14  16
ENDBRANCH   1  14
TORSDOF 9
