REMARK  13 active torsions:
REMARK  status: ('A' for Active; 'I' for Inactive)
REMARK    1  A    between atoms: C2_2  and  N1_3 
REMARK    2  A    between atoms: N1_3  and  C3_5 
REMARK    3  A    between atoms: C4_8  and  N3_9 
REMARK    4  A    between atoms: N3_9  and  C5_11 
REMARK    5  A    between atoms: C11_19  and  N5_20 
REMARK    6  A    between atoms: N5_20  and  C12_22 
REMARK    7  A    between atoms: C12_22  and  C13_23 
REMARK    8  A    between atoms: C13_23  and  C14_24 
REMARK    9  A    between atoms: C14_24  and  C15_25 
REMARK   10  A    between atoms: C15_25  and  N6_26 
REMARK   11  A    between atoms: C21_32  and  N7_33 
REMARK   12  A    between atoms: N7_33  and  N8_34 
REMARK       I    between atoms: N8_34  and  C22_36 
REMARK   13  A    between atoms: C22_36  and  C23_38 
ROOT
HETATM    1  C3  UNL     1      -3.452   0.500  -0.065  1.00  0.00     0.695 C 
HETATM    2  N2  UNL     1      -3.127  -0.567   0.722  1.00  0.00    -0.022 N 
ATOM      3  H2  UNL     1      -3.761  -0.757   1.498  1.00  0.00     0.203 HD
HETATM    4  C4  UNL     1      -2.069  -1.405   0.602  1.00  0.00     0.694 C 
HETATM    5  N4  UNL     1      -0.806  -1.035   0.208  1.00  0.00    -0.172 N 
ATOM      6  H4  UNL     1      -0.035  -1.588   0.582  1.00  0.00     0.186 HD
HETATM    7  C11 UNL     1      -0.473  -0.029  -0.613  1.00  0.00     0.178 C 
HETATM    8  C21 UNL     1      -1.250   1.077  -1.033  1.00  0.00     0.262 C 
HETATM    9  N9  UNL     1      -2.620   1.117  -0.915  1.00  0.00    -0.159 N 
ATOM     10  H9  UNL     1      -3.083   1.722  -1.593  1.00  0.00     0.187 HD
ENDROOT
BRANCH   7  11
HETATM   11  N5  UNL     1       0.699  -0.032  -1.104  1.00  0.00    -0.372 N 
ATOM     12  H5  UNL     1       0.964   0.729  -1.730  1.00  0.00     0.161 HD
BRANCH  11  13
HETATM   13  C12 UNL     1       1.677  -1.060  -0.820  1.00  0.00     0.121 C 
BRANCH  13  14
HETATM   14  C13 UNL     1       2.874  -0.950  -1.748  1.00  0.00     0.021 C 
BRANCH  14  15
HETATM   15  C14 UNL     1       3.845  -2.050  -1.392  1.00  0.00     0.032 C 
BRANCH  15  16
HETATM   16  C15 UNL     1       4.337  -1.952   0.028  1.00  0.00     0.272 C 
BRANCH  16  17
HETATM   17  N6  UNL     1       5.007  -0.688   0.202  1.00  0.00     0.088 N 
HETATM   18  C16 UNL     1       5.443  -0.487   1.575  1.00  0.00     0.272 C 
HETATM   19  C17 UNL     1       5.853   0.968   1.659  1.00  0.00     0.030 C 
HETATM   20  C18 UNL     1       7.173   1.096   0.951  1.00  0.00     0.003 C 
HETATM   21  C19 UNL     1       7.305   0.119  -0.148  1.00  0.00     0.030 C 
HETATM   22  C20 UNL     1       6.083  -0.477  -0.724  1.00  0.00     0.272 C 
ENDBRANCH  16  17
ENDBRANCH  15  16
ENDBRANCH  14  15
ENDBRANCH  13  14
ENDBRANCH  11  13
ENDBRANCH   7  11
BRANCH   8  23
HETATM   23  N7  UNL     1      -0.728   2.036  -1.519  1.00  0.00    -0.300 NA
BRANCH  23  24
HETATM   24  N8  UNL     1      -0.062   3.013  -2.028  1.00  0.00    -0.201 N 
HETATM   25  C22 UNL     1      -0.253   4.427  -1.799  1.00  0.00     0.245 C 
HETATM   26  O1  UNL     1      -1.179   4.740  -1.012  1.00  0.00    -0.271 OA
ATOM     27  H8  UNL     1       0.690   2.759  -2.669  1.00  0.00     0.205 HD
BRANCH  25  28
HETATM   28  C23 UNL     1       0.550   5.476  -2.419  1.00  0.00     0.101 C 
HETATM   29  C24 UNL     1       0.162   6.859  -2.018  1.00  0.00     0.014 C 
ENDBRANCH  25  28
ENDBRANCH  23  24
ENDBRANCH   8  23
BRANCH   4  30
HETATM   30  N3  UNL     1      -2.159  -2.635   0.837  1.00  0.00    -0.221 N 
ATOM     31  H3  UNL     1      -1.281  -3.137   0.703  1.00  0.00     0.178 HD
BRANCH  30  32
HETATM   32  C5  UNL     1      -3.227  -3.473   1.250  1.00  0.00     0.099 C 
HETATM   33  C6  UNL     1      -3.553  -3.269   2.677  1.00  0.00     0.026 C 
HETATM   34  C7  UNL     1      -4.989  -3.206   3.051  1.00  0.00     0.002 C 
HETATM   35  C8  UNL     1      -5.971  -3.808   2.130  1.00  0.00     0.000 C 
HETATM   36  C9  UNL     1      -5.396  -4.458   0.892  1.00  0.00     0.002 C 
HETATM   37  C10 UNL     1      -4.417  -3.420   0.316  1.00  0.00     0.026 C 
ENDBRANCH  30  32
ENDBRANCH   4  30
BRANCH   1  38
HETATM   38  N1  UNL     1      -4.644   0.906   0.048  1.00  0.00    -0.226 N 
ATOM     39  H1  UNL     1      -5.240   0.405   0.707  1.00  0.00     0.177 HD
BRANCH  38  40
HETATM   40  C2  UNL     1      -5.237   1.994  -0.655  1.00  0.00     0.133 C 
HETATM   41  C1  UNL     1      -4.633   3.309  -0.163  1.00  0.00     0.027 C 
ENDBRANCH  38  40
ENDBRANCH   1  38
TORSDOF 13
