REMARK  2 active torsions:
REMARK  status: ('A' for Active; 'I' for Inactive)
REMARK    1  A    between atoms: N1_1  and  C1_5 
REMARK    2  A    between atoms: C9_13  and  N2_14 
ROOT
HETATM    1  C1  UNL     1      -1.270  -0.504  -0.324  1.00  0.00     0.126 C 
HETATM    2  C2  UNL     1      -1.691   0.909  -0.608  1.00  0.00     0.039 C 
HETATM    3  C3  UNL     1      -0.584   1.873  -0.769  1.00  0.00     0.007 C 
HETATM    4  C4  UNL     1       0.570   1.712   0.153  1.00  0.00    -0.012 C 
HETATM    5  C5  UNL     1       0.231   1.253   1.531  1.00  0.00     0.009 C 
HETATM    6  C6  UNL     1       0.117  -0.216   1.706  1.00  0.00    -0.009 C 
HETATM    7  C7  UNL     1      -1.211  -0.680   1.168  1.00  0.00     0.043 C 
HETATM    8  C8  UNL     1       1.205  -1.014   1.061  1.00  0.00     0.043 C 
HETATM    9  C9  UNL     1       1.241  -0.631  -0.405  1.00  0.00     0.126 C 
HETATM   10  C10 UNL     1       1.627   0.840  -0.452  1.00  0.00     0.043 C 
HETATM   11  C11 UNL     1      -0.060  -0.912  -1.059  1.00  0.00     0.077 C 
ENDROOT
BRANCH   1  12
HETATM   12  N1  UNL     1      -2.377  -1.363  -0.785  1.00  0.00    -0.070 N 
ATOM     13  H13 UNL     1      -3.278  -1.118  -0.375  1.00  0.00     0.275 HD
ATOM     14  H12 UNL     1      -2.635  -1.204  -1.759  1.00  0.00     0.275 HD
ATOM     15  H11 UNL     1      -2.091  -2.323  -0.592  1.00  0.00     0.275 HD
ENDBRANCH   1  12
BRANCH   9  16
HETATM   16  N2  UNL     1       2.324  -1.353  -1.013  1.00  0.00    -0.070 N 
ATOM     17  H23 UNL     1       3.216  -1.204  -0.541  1.00  0.00     0.275 HD
ATOM     18  H22 UNL     1       2.262  -2.361  -0.866  1.00  0.00     0.275 HD
ATOM     19  H21 UNL     1       2.348  -1.095  -2.000  1.00  0.00     0.275 HD
ENDBRANCH   9  16
TORSDOF 2
