REMARK  5 active torsions:
REMARK  status: ('A' for Active; 'I' for Inactive)
REMARK       I    between atoms: C2_4  and  N2_5 
REMARK       I    between atoms: C2_4  and  N6_17 
REMARK       I    between atoms: C3_7  and  N4_9 
REMARK    1  A    between atoms: N4_9  and  C4_11 
REMARK    2  A    between atoms: C4_11  and  C5_12 
REMARK    3  A    between atoms: C5_12  and  C6_13 
REMARK    4  A    between atoms: C6_13  and  N5_14 
REMARK    5  A    between atoms: N6_17  and  C9_19 
ROOT
HETATM    1  C1  UNL     1      -1.530  -3.462  -0.476  1.00  0.00     0.165 C 
HETATM    2  N1  UNL     1      -2.135  -2.257   0.017  1.00  0.00    -0.231 N 
ATOM      3  H1  UNL     1      -3.127  -2.129  -0.182  1.00  0.00     0.177 HD
HETATM    4  C2  UNL     1      -1.559  -1.330   0.678  1.00  0.00     0.676 C 
HETATM    5  N2  UNL     1      -0.190  -1.468   0.972  1.00  0.00    -0.164 N 
ATOM      6  H2  UNL     1       0.065  -1.864   1.877  1.00  0.00     0.187 HD
HETATM    7  C3  UNL     1       0.771  -1.125   0.168  1.00  0.00     0.202 C 
HETATM    8  N3  UNL     1       0.438  -0.570  -1.091  1.00  0.00    -0.063 NA
HETATM    9  N4  UNL     1       2.105  -1.309   0.537  1.00  0.00    -0.364 N 
ATOM     10  H4  UNL     1       2.307  -1.357   1.536  1.00  0.00     0.162 HD
HETATM   11  N6  UNL     1      -2.265  -0.189   1.121  1.00  0.00    -0.222 N 
ATOM     12  H6  UNL     1      -1.827   0.458   1.777  1.00  0.00     0.178 HD
ENDROOT
BRANCH  11  13
HETATM   13  C9  UNL     1      -3.617   0.066   0.643  1.00  0.00     0.099 C 
HETATM   14  C10 UNL     1      -4.144   1.301   1.304  1.00  0.00     0.026 C 
HETATM   15  C11 UNL     1      -5.470   1.735   0.712  1.00  0.00     0.002 C 
HETATM   16  C12 UNL     1      -5.309   2.067  -0.738  1.00  0.00     0.000 C 
HETATM   17  C13 UNL     1      -4.237   1.336  -1.458  1.00  0.00     0.002 C 
HETATM   18  C14 UNL     1      -3.736   0.085  -0.843  1.00  0.00     0.026 C 
ENDBRANCH  11  13
BRANCH   9  19
HETATM   19  C4  UNL     1       3.226  -1.438  -0.366  1.00  0.00     0.127 C 
BRANCH  19  20
HETATM   20  C5  UNL     1       3.572  -0.204  -1.093  1.00  0.00     0.064 C 
BRANCH  20  21
HETATM   21  C6  UNL     1       3.971   0.943  -0.227  1.00  0.00     0.058 C 
BRANCH  21  22
HETATM   22  N5  UNL     1       5.110   0.791   0.535  1.00  0.00    -0.402 N 
HETATM   23  C7  UNL     1       5.253  -0.039   1.628  1.00  0.00     0.148 C 
HETATM   24  C8  UNL     1       6.274   1.527   0.121  1.00  0.00     0.148 C 
ENDBRANCH  21  22
ENDBRANCH  20  21
ENDBRANCH  19  20
ENDBRANCH   9  19
TORSDOF 5
