REMARK  10 active torsions:
REMARK  status: ('A' for Active; 'I' for Inactive)
REMARK    1  A    between atoms: C2_2  and  N1_3 
REMARK    2  A    between atoms: N2_6  and  C5_7 
REMARK    3  A    between atoms: C8_12  and  N4_13 
REMARK    4  A    between atoms: N4_13  and  C9_14 
REMARK    5  A    between atoms: N4_13  and  C11_18 
REMARK    6  A    between atoms: C9_14  and  C10_15 
REMARK    7  A    between atoms: C10_15  and  O1_16 
REMARK    8  A    between atoms: C11_18  and  C12_19 
REMARK    9  A    between atoms: C12_19  and  O2_20 
REMARK   10  A    between atoms: C13_24  and  N6_25 
ROOT
HETATM    1  C5  UNL     1       1.174   0.760  -0.481  1.00  0.00     0.683 A 
HETATM    2  N3  UNL     1       0.957  -0.386   0.198  1.00  0.00    -0.175 N 
ATOM      3  H3  UNL     1       1.765  -0.927   0.507  1.00  0.00     0.186 HD
HETATM    4  C6  UNL     1      -0.259  -0.846   0.485  1.00  0.00     0.156 A 
HETATM    5  C7  UNL     1      -1.367  -0.107   0.065  1.00  0.00     0.098 A 
HETATM    6  C8  UNL     1      -2.612  -0.561   0.340  1.00  0.00     0.137 A 
HETATM    7  N5  UNL     1      -2.673  -1.768   1.036  1.00  0.00    -0.176 N 
ATOM      8  H5  UNL     1      -3.590  -2.152   1.264  1.00  0.00     0.186 HD
HETATM    9  C13 UNL     1      -1.592  -2.442   1.417  1.00  0.00     0.680 A 
HETATM   10  N7  UNL     1      -0.347  -1.998   1.151  1.00  0.00    -0.171 N 
HETATM   11  C14 UNL     1       0.801  -2.756   1.586  1.00  0.00     0.177 C 
HETATM   12  C15 UNL     1      -1.186   1.072  -0.634  1.00  0.00     0.132 A 
HETATM   13  N8  UNL     1      -2.148   1.771  -1.062  1.00  0.00    -0.384 N 
ATOM     14  H81 UNL     1      -2.014   2.641  -1.578  1.00  0.00     0.157 HD
ATOM     15  H82 UNL     1      -3.112   1.490  -0.884  1.00  0.00     0.157 HD
HETATM   16  N9  UNL     1       0.106   1.448  -0.873  1.00  0.00    -0.176 N 
ATOM     17  H9  UNL     1       0.261   2.315  -1.387  1.00  0.00     0.186 HD
ENDROOT
BRANCH   6  18
HETATM   18  N4  UNL     1      -3.863   0.034   0.079  1.00  0.00    -0.362 N 
BRANCH  18  19
HETATM   19  C9  UNL     1      -4.578   0.669   1.151  1.00  0.00     0.150 C 
BRANCH  19  20
HETATM   20  C10 UNL     1      -4.946   2.096   0.984  1.00  0.00     0.183 C 
BRANCH  20  21
HETATM   21  O1  UNL     1      -5.637   2.467   2.167  1.00  0.00    -0.399 OA
ATOM     22  H1  UNL     1      -5.873   3.381   2.060  1.00  0.00     0.209 HD
ENDBRANCH  20  21
ENDBRANCH  19  20
ENDBRANCH  18  19
BRANCH  18  23
HETATM   23  C11 UNL     1      -4.503  -0.118  -1.195  1.00  0.00     0.150 C 
BRANCH  23  24
HETATM   24  C12 UNL     1      -5.674  -1.112  -1.064  1.00  0.00     0.183 C 
BRANCH  24  25
HETATM   25  O2  UNL     1      -6.306  -1.277  -2.273  1.00  0.00    -0.399 OA
ATOM     26  H2  UNL     1      -7.028  -1.890  -2.192  1.00  0.00     0.209 HD
ENDBRANCH  24  25
ENDBRANCH  23  24
ENDBRANCH  18  23
ENDBRANCH   6  18
BRANCH   9  27
HETATM   27  N6  UNL     1      -1.689  -3.552   2.058  1.00  0.00    -0.234 N 
ATOM     28  H62 UNL     1      -2.631  -3.888   2.259  1.00  0.00     0.174 HD
ATOM     29  H61 UNL     1      -0.860  -4.069   2.350  1.00  0.00     0.174 HD
ENDBRANCH   9  27
BRANCH   1  30
HETATM   30  N2  UNL     1       2.509   1.165  -0.740  1.00  0.00    -0.214 N 
HETATM   31  C4  UNL     1       3.214   1.901   0.284  1.00  0.00     0.161 C 
HETATM   32  C3  UNL     1       4.482   1.123   0.680  1.00  0.00     0.142 C 
HETATM   33  N1  UNL     1       4.754   0.178  -0.339  1.00  0.00    -0.391 N 
HETATM   34  C17 UNL     1       4.669   0.638  -1.674  1.00  0.00     0.142 C 
HETATM   35  C16 UNL     1       3.181   0.874  -1.979  1.00  0.00     0.161 C 
BRANCH  33  36
HETATM   36  C2  UNL     1       5.576  -0.921  -0.043  1.00  0.00     0.054 C 
HETATM   37  C1  UNL     1       7.025  -0.603   0.233  1.00  0.00     0.054 C 
ENDBRANCH  33  36
ENDBRANCH   1  30
TORSDOF 10
