REMARK  8 active torsions:
REMARK  status: ('A' for Active; 'I' for Inactive)
REMARK    1  A    between atoms: C2_2  and  O1_3 
REMARK    2  A    between atoms: O1_3  and  C3_4 
REMARK       I    between atoms: C3_4  and  N1_6 
REMARK    3  A    between atoms: N1_6  and  N2_8 
REMARK       I    between atoms: N2_8  and  C4_10 
REMARK    4  A    between atoms: C4_10  and  C5_12 
REMARK    5  A    between atoms: C5_12  and  S1_13 
REMARK    6  A    between atoms: S1_13  and  C6_14 
REMARK    7  A    between atoms: C8_19  and  O5_20 
REMARK    8  A    between atoms: C9_22  and  C10_23 
REMARK       I    between atoms: C10_23  and  N4_25 
ROOT
HETATM    1  C6  UNL     1      -1.914   1.673  -0.743  1.00  0.00     0.148 A 
HETATM    2  N3  UNL     1      -2.541   2.857  -0.473  1.00  0.00    -0.301 N 
ATOM      3  H3  UNL     1      -2.058   3.740  -0.638  1.00  0.00     0.171 HD
HETATM    4  C7  UNL     1      -3.781   2.857   0.005  1.00  0.00     0.283 A 
HETATM    5  O4  UNL     1      -4.396   3.950   0.271  1.00  0.00    -0.265 OA
HETATM    6  C8  UNL     1      -4.482   1.680   0.244  1.00  0.00     0.167 A 
HETATM    7  C9  UNL     1      -3.862   0.482  -0.024  1.00  0.00     0.141 A 
HETATM    8  N5  UNL     1      -2.585   0.543  -0.511  1.00  0.00    -0.330 N 
ATOM      9  H5  UNL     1      -2.112  -0.338  -0.711  1.00  0.00     0.168 HD
ENDROOT
BRANCH   1  10
HETATM   10  S1  UNL     1      -0.282   1.711  -1.469  1.00  0.00    -0.084 SA
BRANCH  10  11
HETATM   11  C5  UNL     1       0.456   0.104  -1.566  1.00  0.00     0.186 C 
BRANCH  11  12
HETATM   12  C4  UNL     1       1.142  -0.209  -0.255  1.00  0.00     0.245 C 
HETATM   13  N2  UNL     1       2.539  -0.016  -0.282  1.00  0.00    -0.265 N 
ATOM     14  H2  UNL     1       2.965   0.302  -1.153  1.00  0.00     0.190 HD
HETATM   15  O3  UNL     1       0.467  -0.598   0.699  1.00  0.00    -0.271 OA
BRANCH  13  16
HETATM   16  N1  UNL     1       3.361  -0.233   0.803  1.00  0.00    -0.243 N 
HETATM   17  C3  UNL     1       4.770  -0.447   0.619  1.00  0.00     0.379 C 
HETATM   18  O2  UNL     1       5.251  -0.434  -0.568  1.00  0.00    -0.237 OA
ATOM     19  H1  UNL     1       2.966  -0.242   1.743  1.00  0.00     0.192 HD
BRANCH  17  20
HETATM   20  O1  UNL     1       5.684  -0.678   1.620  1.00  0.00    -0.303 OA
BRANCH  20  21
HETATM   21  C2  UNL     1       7.064  -0.890   1.356  1.00  0.00     0.176 C 
HETATM   22  C1  UNL     1       7.731   0.259   0.654  1.00  0.00     0.034 C 
ENDBRANCH  20  21
ENDBRANCH  17  20
ENDBRANCH  13  16
ENDBRANCH  11  12
ENDBRANCH  10  11
ENDBRANCH   1  10
BRANCH   7  23
HETATM   23  C10 UNL     1      -4.525  -0.804   0.110  1.00  0.00     0.270 C 
HETATM   24  O6  UNL     1      -3.793  -1.822  -0.165  1.00  0.00    -0.266 OA
HETATM   25  N4  UNL     1      -5.847  -1.023   0.491  1.00  0.00    -0.360 N 
HETATM   26  C11 UNL     1      -6.302  -2.443   0.535  1.00  0.00     0.149 C 
ATOM     27  H4  UNL     1      -6.472  -0.252   0.728  1.00  0.00     0.162 HD
ENDBRANCH   7  23
BRANCH   6  28
HETATM   28  O5  UNL     1      -5.768   1.761   0.741  1.00  0.00    -0.354 OA
ATOM     29  H5  UNL     1      -6.247   0.957   0.904  1.00  0.00     0.218 HD
ENDBRANCH   6  28
TORSDOF 8
