REMARK  8 active torsions:
REMARK  status: ('A' for Active; 'I' for Inactive)
REMARK    1  A    between atoms: N1_2  and  C2_4 
REMARK    2  A    between atoms: C2_4  and  O1_6 
REMARK    3  A    between atoms: O1_6  and  C3_7 
REMARK    4  A    between atoms: C3_7  and  N2_8 
REMARK    5  A    between atoms: N2_8  and  N3_9 
REMARK    6  A    between atoms: N3_9  and  C4_11 
REMARK    7  A    between atoms: C6_16  and  N6_17 
REMARK    8  A    between atoms: C7_20  and  N7_21 
ROOT
HETATM    1  C4  UNL     1      -1.144   0.037   0.694  1.00  0.00     0.697 A 
HETATM    2  N4  UNL     1      -1.732   0.815  -0.222  1.00  0.00    -0.175 N 
ATOM      3  H4  UNL     1      -1.182   1.515  -0.719  1.00  0.00     0.185 HD
HETATM    4  C5  UNL     1      -3.019   0.684  -0.488  1.00  0.00     0.168 A 
HETATM    5  N5  UNL     1      -3.716   1.509  -1.411  1.00  0.00    -0.079 NA
HETATM    6  C6  UNL     1      -3.772  -0.285   0.190  1.00  0.00     0.188 A 
HETATM    7  C7  UNL     1      -3.137  -1.058   1.116  1.00  0.00     0.151 A 
HETATM    8  N8  UNL     1      -1.839  -0.904   1.374  1.00  0.00    -0.173 N 
ATOM      9  H8  UNL     1      -1.377  -1.486   2.073  1.00  0.00     0.186 HD
ENDROOT
BRANCH   1  10
HETATM   10  N3  UNL     1       0.129   0.001   0.797  1.00  0.00    -0.134 N 
ATOM     11  H3  UNL     1       0.480  -0.612   1.533  1.00  0.00     0.201 HD
BRANCH  10  12
HETATM   12  N2  UNL     1       1.082   0.638   0.095  1.00  0.00    -0.100 NA
BRANCH  12  13
HETATM   13  C3  UNL     1       2.251   0.951   0.867  1.00  0.00     0.313 C 
BRANCH  13  14
HETATM   14  O1  UNL     1       3.315   0.306   0.301  1.00  0.00    -0.309 OA
BRANCH  14  15
HETATM   15  C2  UNL     1       3.967   0.200  -0.822  1.00  0.00     0.210 C 
HETATM   16  S1  UNL     1       3.476   0.699  -2.287  1.00  0.00    -0.033 SA
BRANCH  15  17
HETATM   17  N1  UNL     1       5.266  -0.429  -0.788  1.00  0.00    -0.366 N 
HETATM   18  C1  UNL     1       5.710  -0.866   0.539  1.00  0.00     0.149 C 
ATOM     19  H1  UNL     1       5.833  -0.560  -1.626  1.00  0.00     0.161 HD
ENDBRANCH  15  17
ENDBRANCH  14  15
ENDBRANCH  13  14
ENDBRANCH  12  13
ENDBRANCH  10  12
ENDBRANCH   1  10
BRANCH   7  20
HETATM   20  N7  UNL     1      -3.846  -2.001   1.728  1.00  0.00    -0.383 N 
ATOM     21  H72 UNL     1      -4.840  -2.119   1.530  1.00  0.00     0.157 HD
ATOM     22  H71 UNL     1      -3.371  -2.579   2.421  1.00  0.00     0.157 HD
ENDBRANCH   7  20
BRANCH   6  23
HETATM   23  N6  UNL     1      -5.154  -0.460  -0.134  1.00  0.00    -0.108 N 
HETATM   24  O2  UNL     1      -5.959   0.386   0.207  1.00  0.00    -0.532 OA
HETATM   25  O3  UNL     1      -5.535  -1.555  -0.841  1.00  0.00    -0.532 OA
ENDBRANCH   6  23
TORSDOF 8
