REMARK  8 active torsions:
REMARK  status: ('A' for Active; 'I' for Inactive)
REMARK    1  A    between atoms: C1_2  and  O3_4 
REMARK    2  A    between atoms: O3_4  and  C2_5 
REMARK    3  A    between atoms: C2_5  and  C3_7 
REMARK    4  A    between atoms: C4_8  and  O5_9 
REMARK    5  A    between atoms: C8_14  and  O6_15 
REMARK    6  A    between atoms: C12_22  and  O9_23 
REMARK    7  A    between atoms: C12_22  and  O10_25 
REMARK    8  A    between atoms: C14_28  and  O11_29 
ROOT
HETATM    1  C3  UNL     1       2.194  -0.007   0.079  1.00  0.00     0.107 A 
HETATM    2  C4  UNL     1       1.591  -0.071  -1.148  1.00  0.00     0.085 A 
HETATM    3  C5  UNL     1       0.246  -0.419  -1.207  1.00  0.00     0.049 A 
HETATM    4  C6  UNL     1      -0.490  -0.697  -0.108  1.00  0.00    -0.003 A 
HETATM    5  C7  UNL     1       0.102  -0.635   1.128  1.00  0.00     0.054 A 
HETATM    6  C8  UNL     1       1.437  -0.293   1.227  1.00  0.00     0.099 A 
HETATM    7  C9  UNL     1      -0.883  -0.965   2.172  1.00  0.00     0.177 C 
HETATM    8  O7  UNL     1      -0.674  -1.396   3.314  1.00  0.00    -0.291 OA
HETATM    9  C10 UNL     1      -2.179  -0.655   1.517  1.00  0.00     0.175 C 
HETATM   10  C11 UNL     1      -2.366   0.824   1.338  1.00  0.00     0.203 C 
HETATM   11  O8  UNL     1      -1.912   1.729   2.013  1.00  0.00    -0.291 OA
HETATM   12  C12 UNL     1      -3.240   0.936   0.137  1.00  0.00     0.226 C 
HETATM   13  C13 UNL     1      -2.851  -0.240  -0.707  1.00  0.00     0.121 C 
HETATM   14  C14 UNL     1      -1.920  -1.099   0.115  1.00  0.00     0.109 C 
ENDROOT
BRANCH   1  15
HETATM   15  C2  UNL     1       3.593   0.347   0.258  1.00  0.00     0.308 C 
HETATM   16  O4  UNL     1       4.061   0.378   1.455  1.00  0.00    -0.258 OA
BRANCH  15  17
HETATM   17  O3  UNL     1       4.499   0.660  -0.729  1.00  0.00    -0.214 OA
BRANCH  17  18
HETATM   18  C1  UNL     1       5.823   0.987  -0.477  1.00  0.00     0.340 C 
HETATM   19  O1  UNL     1       6.219   0.999   0.733  1.00  0.00    -0.623 OA
HETATM   20  O2  UNL     1       6.718   1.300  -1.495  1.00  0.00    -0.623 OA
ENDBRANCH  17  18
ENDBRANCH  15  17
ENDBRANCH   1  15
BRANCH   2  21
HETATM   21  O5  UNL     1       2.239   0.190  -2.340  1.00  0.00    -0.360 OA
ATOM     22  H5  UNL     1       1.820   0.146  -3.192  1.00  0.00     0.217 HD
ENDBRANCH   2  21
BRANCH   6  23
HETATM   23  O6  UNL     1       2.063  -0.223   2.471  1.00  0.00    -0.359 OA
ATOM     24  H6  UNL     1       1.551  -0.416   3.247  1.00  0.00     0.217 HD
ENDBRANCH   6  23
BRANCH  14  25
HETATM   25  O11 UNL     1      -2.079  -2.445  -0.101  1.00  0.00    -0.383 OA
ATOM     26  H11 UNL     1      -2.983  -2.699   0.040  1.00  0.00     0.211 HD
ENDBRANCH  14  25
BRANCH  12  27
HETATM   27  O9  UNL     1      -3.032   2.154  -0.522  1.00  0.00    -0.359 OA
ATOM     28  H9  UNL     1      -3.589   2.225  -1.288  1.00  0.00     0.213 HD
ENDBRANCH  12  27
BRANCH  12  29
HETATM   29  O10 UNL     1      -4.560   0.859   0.598  1.00  0.00    -0.359 OA
ATOM     30  H10 UNL     1      -5.117   0.930  -0.168  1.00  0.00     0.213 HD
ENDBRANCH  12  29
TORSDOF 8
