REMARK  9 active torsions:
REMARK  status: ('A' for Active; 'I' for Inactive)
REMARK    1  A    between atoms: S1_2  and  C2_3 
REMARK    2  A    between atoms: C2_3  and  N2_12 
REMARK    3  A    between atoms: N1_4  and  C3_6 
REMARK    4  A    between atoms: N2_12  and  C7_14 
REMARK    5  A    between atoms: C7_14  and  S3_23 
REMARK       I    between atoms: N3_15  and  C8_17 
REMARK    6  A    between atoms: C8_17  and  C9_19 
REMARK    7  A    between atoms: S3_23  and  C13_24 
REMARK    8  A    between atoms: C13_24  and  C14_25 
REMARK    9  A    between atoms: C14_25  and  O3_28 
ROOT
HETATM    1  C7  UNL     1      -0.288   0.312   0.215  1.00  0.00     0.148 C 
HETATM    2  N3  UNL     1      -0.085   1.566   0.094  1.00  0.00    -0.307 N 
ATOM      3  H3  UNL     1       0.865   1.858  -0.136  1.00  0.00     0.171 HD
HETATM    4  C8  UNL     1      -1.037   2.579   0.246  1.00  0.00     0.231 C 
HETATM    5  O2  UNL     1      -1.402   2.898   1.405  1.00  0.00    -0.272 OA
ENDROOT
BRANCH   1   6
HETATM    6  N2  UNL     1       0.749  -0.617   0.039  1.00  0.00    -0.317 N 
ATOM      7  H2  UNL     1       0.506  -1.531  -0.343  1.00  0.00     0.170 HD
BRANCH   6   8
HETATM    8  C2  UNL     1       2.110  -0.377   0.353  1.00  0.00     0.142 C 
HETATM    9  N1  UNL     1       2.890  -0.017  -0.603  1.00  0.00    -0.351 N 
ATOM     10  H1  UNL     1       2.531   0.089  -1.552  1.00  0.00     0.163 HD
BRANCH   8  11
HETATM   11  S1  UNL     1       2.617  -0.597   2.047  1.00  0.00    -0.099 SA
HETATM   12  C1  UNL     1       1.243  -1.103   3.079  1.00  0.00     0.099 C 
ENDBRANCH   8  11
BRANCH   9  13
HETATM   13  C3  UNL     1       4.261   0.231  -0.319  1.00  0.00     0.215 C 
HETATM   14  S2  UNL     1       5.046  -1.147   0.600  1.00  0.00    -0.136 SA
HETATM   15  C4  UNL     1       6.458  -1.417  -0.542  1.00  0.00     0.084 C 
HETATM   16  C5  UNL     1       5.888  -0.840  -1.817  1.00  0.00     0.091 C 
HETATM   17  C6  UNL     1       5.128   0.359  -1.502  1.00  0.00     0.160 C 
HETATM   18  O1  UNL     1       5.184   1.409  -2.153  1.00  0.00    -0.295 OA
ENDBRANCH   9  13
ENDBRANCH   6   8
ENDBRANCH   1   6
BRANCH   1  19
HETATM   19  S3  UNL     1      -1.916  -0.259   0.613  1.00  0.00    -0.091 SA
BRANCH  19  20
HETATM   20  C13 UNL     1      -1.887  -2.065   0.714  1.00  0.00     0.119 C 
BRANCH  20  21
HETATM   21  C14 UNL     1      -3.254  -2.628   1.052  1.00  0.00     0.059 C 
HETATM   22  C15 UNL     1      -4.248  -2.238  -0.001  1.00  0.00     0.046 C 
HETATM   23  C16 UNL     1      -3.108  -4.126   1.190  1.00  0.00     0.046 C 
BRANCH  21  24
HETATM   24  O3  UNL     1      -3.626  -2.085   2.272  1.00  0.00    -0.390 OA
ATOM     25  H3  UNL     1      -4.482  -2.438   2.484  1.00  0.00     0.210 HD
ENDBRANCH  21  24
ENDBRANCH  20  21
ENDBRANCH  19  20
ENDBRANCH   1  19
BRANCH   4  26
HETATM   26  C9  UNL     1      -1.625   3.283  -0.913  1.00  0.00     0.030 C 
HETATM   27  C10 UNL     1      -0.584   3.993  -1.748  1.00  0.00     0.025 C 
HETATM   28  C11 UNL     1      -2.618   4.334  -0.447  1.00  0.00     0.025 C 
HETATM   29  C12 UNL     1      -2.382   2.312  -1.818  1.00  0.00     0.025 C 
ENDBRANCH   4  26
TORSDOF 9
