REMARK  5 active torsions:
REMARK  status: ('A' for Active; 'I' for Inactive)
REMARK    1  A    between atoms: C2_2  and  C3_8 
REMARK    2  A    between atoms: N1_3  and  O1_5 
REMARK    3  A    between atoms: O1_5  and  O2_6 
REMARK    4  A    between atoms: C3_8  and  O3_9 
REMARK    5  A    between atoms: C12_21  and  C13_22 
ROOT
HETATM    1  C3  UNL     1      -3.197   0.446  -0.809  1.00  0.00     0.165 C 
HETATM    2  C4  UNL     1      -2.786   1.830  -0.467  1.00  0.00     0.168 C 
HETATM    3  O4  UNL     1      -3.460   2.644   0.095  1.00  0.00    -0.294 OA
HETATM    4  C5  UNL     1      -1.402   2.004  -0.949  1.00  0.00     0.088 C 
HETATM    5  C6  UNL     1      -0.974   0.673  -1.515  1.00  0.00     0.009 C 
HETATM    6  C7  UNL     1       0.475   0.419  -1.309  1.00  0.00    -0.004 C 
HETATM    7  C8  UNL     1       1.131   1.342  -0.321  1.00  0.00     0.022 C 
HETATM    8  C9  UNL     1       2.536   0.727  -0.248  1.00  0.00     0.022 C 
HETATM    9  C10 UNL     1       3.303   1.390  -1.404  1.00  0.00     0.024 C 
HETATM   10  C11 UNL     1       3.234   1.107   0.976  1.00  0.00     0.149 C 
HETATM   11  O5  UNL     1       3.041   2.156   1.509  1.00  0.00    -0.296 OA
HETATM   12  C12 UNL     1       4.206   0.150   1.556  1.00  0.00     0.157 C 
HETATM   13  C14 UNL     1       3.440  -1.132   1.781  1.00  0.00     0.024 C 
HETATM   14  C15 UNL     1       2.784  -1.663   0.560  1.00  0.00     0.007 C 
HETATM   15  C16 UNL     1       2.327  -0.727  -0.457  1.00  0.00     0.006 C 
HETATM   16  C17 UNL     1       0.832  -0.927  -0.765  1.00  0.00    -0.005 C 
HETATM   17  C18 UNL     1       0.023  -1.224   0.449  1.00  0.00     0.006 C 
HETATM   18  C19 UNL     1      -1.346  -0.641   0.483  1.00  0.00     0.014 C 
HETATM   19  C20 UNL     1      -1.900  -0.316  -0.858  1.00  0.00     0.004 C 
HETATM   20  C21 UNL     1      -2.081  -1.571  -1.650  1.00  0.00     0.019 C 
ENDROOT
BRANCH   1  21
HETATM   21  C2  UNL     1      -4.200  -0.069   0.120  1.00  0.00     0.051 C 
HETATM   22  C1  UNL     1      -4.809  -1.399  -0.018  1.00  0.00     0.069 C 
HETATM   23  N1  UNL     1      -4.575   0.664   1.106  1.00  0.00    -0.240 N 
ATOM     24  H1  UNL     1      -4.152   1.587   1.200  1.00  0.00     0.196 HD
BRANCH  23  25
HETATM   25  O1  UNL     1      -5.503   0.291   2.038  1.00  0.00    -0.115 OA
BRANCH  25  26
HETATM   26  O2  UNL     1      -5.881   1.244   2.922  1.00  0.00    -0.227 OA
ATOM     27  H2  UNL     1      -6.526   0.985   3.570  1.00  0.00     0.256 HD
ENDBRANCH  25  26
ENDBRANCH  23  25
ENDBRANCH   1  21
BRANCH   1  28
HETATM   28  O3  UNL     1      -3.672   0.500  -2.134  1.00  0.00    -0.375 OA
ATOM     29  H3  UNL     1      -3.020   0.835  -2.738  1.00  0.00     0.211 HD
ENDBRANCH   1  28
BRANCH  12  30
HETATM   30  C13 UNL     1       5.362  -0.097   0.687  1.00  0.00     0.184 C 
HETATM   31  O6  UNL     1       5.640  -1.245   0.254  1.00  0.00    -0.647 OA
HETATM   32  O7  UNL     1       6.205   0.940   0.303  1.00  0.00    -0.647 OA
ENDBRANCH  12  30
TORSDOF 5
