REMARK  4 active torsions:
REMARK  status: ('A' for Active; 'I' for Inactive)
REMARK    1  A    between atoms: C4_5  and  N2_6 
REMARK    2  A    between atoms: N2_6  and  C5_8 
REMARK    3  A    between atoms: C5_8  and  N3_10 
REMARK    4  A    between atoms: C9_14  and  C10_15 
ROOT
HETATM    1  N3  UNL     1      -0.508   0.425   0.269  1.00  0.00    -0.358 N 
HETATM    2  C6  UNL     1      -0.828   0.992  -1.019  1.00  0.00     0.125 C 
HETATM    3  C7  UNL     1      -1.281  -0.114  -1.928  1.00  0.00     0.020 C 
HETATM    4  C8  UNL     1      -1.766  -1.333  -1.257  1.00  0.00     0.010 C 
HETATM    5  C9  UNL     1      -2.314  -1.198   0.111  1.00  0.00     0.033 C 
HETATM    6  C15 UNL     1      -1.653  -0.145   0.966  1.00  0.00     0.132 C 
ENDROOT
BRANCH   1   7
HETATM    7  C5  UNL     1       0.793   0.420   0.803  1.00  0.00     0.170 C 
HETATM    8  S1  UNL     1       0.969  -0.273   2.296  1.00  0.00    -0.041 SA
BRANCH   7   9
HETATM    9  N2  UNL     1       1.945   0.943   0.196  1.00  0.00    -0.362 N 
ATOM     10  H2  UNL     1       1.858   1.375  -0.724  1.00  0.00     0.162 HD
BRANCH   9  11
HETATM   11  C4  UNL     1       3.259   0.897   0.820  1.00  0.00     0.087 C 
HETATM   12  C3  UNL     1       3.670  -0.513   1.060  1.00  0.00     0.044 C 
HETATM   13  C2  UNL     1       5.023  -0.886   0.587  1.00  0.00     0.118 C 
HETATM   14  N1  UNL     1       5.439  -0.381  -0.663  1.00  0.00    -0.416 N 
HETATM   15  C1  UNL     1       6.859  -0.478  -0.903  1.00  0.00     0.143 C 
HETATM   16  C17 UNL     1       4.862   0.844  -1.102  1.00  0.00     0.118 C 
HETATM   17  C16 UNL     1       4.273   1.677   0.010  1.00  0.00     0.044 C 
ENDBRANCH   9  11
ENDBRANCH   7   9
ENDBRANCH   1   7
BRANCH   5  18
HETATM   18  C10 UNL     1      -3.839  -1.079   0.148  1.00  0.00     0.127 C 
HETATM   19  C11 UNL     1      -4.342   0.104  -0.604  1.00  0.00     0.032 C 
HETATM   20  C12 UNL     1      -5.853   0.124  -0.466  1.00  0.00     0.004 C 
HETATM   21  C13 UNL     1      -6.200   0.217   0.980  1.00  0.00     0.026 C 
HETATM   22  C14 UNL     1      -5.079  -0.171   1.886  1.00  0.00     0.168 C 
HETATM   23  O1  UNL     1      -4.290  -1.192   1.435  1.00  0.00    -0.385 OA
ENDBRANCH   5  18
TORSDOF 4
