REMARK  2 active torsions:
REMARK  status: ('A' for Active; 'I' for Inactive)
REMARK       I    between atoms: C2_2  and  N1_4 
REMARK    1  A    between atoms: N1_4  and  C3_6 
REMARK    2  A    between atoms: C3_6  and  C4_7 
ROOT
HETATM    1  C4  UNL     1       2.613  -0.863  -0.182  1.00  0.00     0.012 C 
HETATM    2  C5  UNL     1       2.856  -0.615  -1.667  1.00  0.00     0.008 C 
HETATM    3  C6  UNL     1       1.364  -0.398  -1.819  1.00  0.00     0.010 C 
HETATM    4  C7  UNL     1       1.226  -0.327  -0.293  1.00  0.00    -0.035 C 
HETATM    5  C8  UNL     1       1.059   1.083   0.198  1.00  0.00     0.012 C 
HETATM    6  C9  UNL     1      -0.286   1.633  -0.106  1.00  0.00     0.037 C 
HETATM    7  C10 UNL     1      -1.382   0.617  -0.184  1.00  0.00     0.229 C 
HETATM    8  C11 UNL     1      -1.093  -0.600   0.646  1.00  0.00     0.048 C 
HETATM    9  C12 UNL     1      -2.182  -1.611   0.577  1.00  0.00     0.279 C 
HETATM   10  N2  UNL     1      -3.487  -1.112   0.346  1.00  0.00     0.097 N 
HETATM   11  C13 UNL     1      -3.691  -0.592  -0.979  1.00  0.00     0.308 C 
HETATM   12  C14 UNL     1      -3.677   0.934  -0.851  1.00  0.00     0.252 C 
HETATM   13  C15 UNL     1      -5.032   1.288  -0.239  1.00  0.00     0.040 C 
HETATM   14  C16 UNL     1      -5.358   0.260   0.845  1.00  0.00     0.040 C 
HETATM   15  C17 UNL     1      -3.991  -0.229   1.350  1.00  0.00     0.251 C 
HETATM   16  C18 UNL     1      -3.133   1.043   1.418  1.00  0.00     0.309 C 
HETATM   17  N3  UNL     1      -2.623   1.248   0.089  1.00  0.00     0.102 N 
HETATM   18  C19 UNL     1       0.172  -1.260   0.165  1.00  0.00     0.018 C 
ENDROOT
BRANCH   1  19
HETATM   19  C3  UNL     1       3.578  -0.074   0.642  1.00  0.00     0.128 C 
BRANCH  19  20
HETATM   20  N1  UNL     1       4.953  -0.431   0.351  1.00  0.00    -0.361 N 
HETATM   21  C2  UNL     1       6.058   0.164   0.989  1.00  0.00     0.213 C 
HETATM   22  C1  UNL     1       7.450  -0.223   0.670  1.00  0.00     0.117 C 
HETATM   23  O1  UNL     1       5.824   1.058   1.860  1.00  0.00    -0.274 OA
ATOM     24  H1  UNL     1       5.128  -1.149  -0.351  1.00  0.00     0.162 HD
ENDBRANCH  19  20
ENDBRANCH   1  19
TORSDOF 2
