REMARK  6 active torsions:
REMARK  status: ('A' for Active; 'I' for Inactive)
REMARK    1  A    between atoms: C2_2  and  C5_5 
REMARK    2  A    between atoms: C7_7  and  O1_8 
REMARK    3  A    between atoms: C7_7  and  C8_10 
REMARK       I    between atoms: C8_10  and  N1_12 
REMARK    4  A    between atoms: C11_15  and  C12_16 
REMARK    5  A    between atoms: C17_22  and  C18_23 
REMARK       I    between atoms: C18_23  and  N2_25 
REMARK    6  A    between atoms: C20_27  and  O4_28 
ROOT
HETATM    1  C5  UNL     1      -1.689  -0.627   0.107  1.00  0.00     0.009 C 
HETATM    2  C6  UNL     1      -0.327  -0.467   0.719  1.00  0.00     0.054 C 
HETATM    3  C7  UNL     1       0.656   0.389  -0.027  1.00  0.00     0.139 C 
HETATM    4  C15 UNL     1       0.088   1.711  -0.461  1.00  0.00     0.049 C 
HETATM    5  C16 UNL     1      -1.418   1.713  -0.436  1.00  0.00     0.018 C 
HETATM    6  C17 UNL     1      -1.897   0.343  -0.962  1.00  0.00     0.083 C 
ENDROOT
BRANCH   3   7
HETATM    7  O1  UNL     1       1.111  -0.267  -1.144  1.00  0.00    -0.380 OA
ATOM      8  H1  UNL     1       1.733   0.274  -1.616  1.00  0.00     0.211 HD
ENDBRANCH   3   7
BRANCH   3   9
HETATM    9  C8  UNL     1       1.766   0.682   0.891  1.00  0.00     0.254 C 
HETATM   10  O2  UNL     1       1.523   1.335   1.979  1.00  0.00    -0.270 OA
HETATM   11  N1  UNL     1       3.091   0.300   0.670  1.00  0.00    -0.350 N 
HETATM   12  C9  UNL     1       3.540  -0.435  -0.478  1.00  0.00     0.126 C 
HETATM   13  C14 UNL     1       4.149   0.641   1.638  1.00  0.00     0.126 C 
HETATM   14  C10 UNL     1       5.042  -0.727  -0.344  1.00  0.00     0.027 C 
HETATM   15  C11 UNL     1       5.829   0.538  -0.208  1.00  0.00     0.017 C 
HETATM   16  C13 UNL     1       5.228   1.392   0.891  1.00  0.00     0.027 C 
BRANCH  15  17
HETATM   17  C12 UNL     1       7.252   0.213   0.141  1.00  0.00     0.227 C 
HETATM   18  F1  UNL     1       7.786  -0.566  -0.869  1.00  0.00    -0.255 F 
ENDBRANCH  15  17
ENDBRANCH   3   9
BRANCH   1  19
HETATM   19  C2  UNL     1      -1.951  -2.069  -0.180  1.00  0.00    -0.047 C 
HETATM   20  C1  UNL     1      -1.881  -2.850   1.131  1.00  0.00     0.015 C 
HETATM   21  C3  UNL     1      -3.269  -2.395  -0.785  1.00  0.00     0.015 C 
HETATM   22  C4  UNL     1      -0.903  -2.717  -1.067  1.00  0.00     0.015 C 
ENDBRANCH   1  19
BRANCH   6  23
HETATM   23  C18 UNL     1      -3.271   0.626  -1.410  1.00  0.00     0.224 C 
HETATM   24  O3  UNL     1      -3.562   0.344  -2.598  1.00  0.00    -0.273 OA
HETATM   25  N2  UNL     1      -4.277   1.191  -0.602  1.00  0.00    -0.347 N 
HETATM   26  C19 UNL     1      -5.658   1.522  -0.893  1.00  0.00     0.159 C 
HETATM   27  C21 UNL     1      -4.523   1.696   0.732  1.00  0.00     0.159 C 
HETATM   28  C20 UNL     1      -5.993   1.297   0.543  1.00  0.00     0.154 C 
BRANCH  28  29
HETATM   29  O4  UNL     1      -6.859   2.213   1.126  1.00  0.00    -0.392 OA
ATOM     30  H4  UNL     1      -7.072   2.070   2.041  1.00  0.00     0.210 HD
ENDBRANCH  28  29
ENDBRANCH   6  23
TORSDOF 6
