REMARK  6 active torsions:
REMARK  status: ('A' for Active; 'I' for Inactive)
REMARK    1  A    between atoms: C2_2  and  C3_3 
REMARK    2  A    between atoms: C3_3  and  N1_4 
REMARK    3  A    between atoms: N3_15  and  N4_17 
REMARK    4  A    between atoms: N4_17  and  C12_19 
REMARK    5  A    between atoms: C12_19  and  N5_21 
REMARK    6  A    between atoms: N5_21  and  C13_23 
ROOT
HETATM    1  C1  UNL     1       0.525   1.343   2.693  1.00  0.00     0.066 C 
HETATM    2  C2  UNL     1       0.558   1.086   1.202  1.00  0.00     0.028 C 
HETATM    3  N3  UNL     1       1.678   0.696   0.745  1.00  0.00    -0.305 N 
ATOM      4  H3  UNL     1       2.426   0.602   1.432  1.00  0.00     0.186 HD
ENDROOT
BRANCH   2   5
HETATM    5  C3  UNL     1      -0.662   1.351   0.446  1.00  0.00     0.328 C 
BRANCH   5   6
HETATM    6  N1  UNL     1      -1.116   0.318  -0.436  1.00  0.00     0.115 N 
HETATM    7  C4  UNL     1      -2.192   0.904  -1.223  1.00  0.00     0.302 C 
HETATM    8  C5  UNL     1      -3.424   0.087  -1.316  1.00  0.00     0.268 C 
HETATM    9  N2  UNL     1      -3.965  -0.313  -0.041  1.00  0.00    -0.062 N 
HETATM   10  C6  UNL     1      -4.654  -1.573  -0.241  1.00  0.00     0.237 C 
HETATM   11  C9  UNL     1      -4.925   0.631   0.485  1.00  0.00     0.237 C 
HETATM   12  C10 UNL     1      -2.931  -0.532   0.949  1.00  0.00     0.289 C 
HETATM   13  C7  UNL     1      -6.125  -1.246  -0.412  1.00  0.00     0.029 C 
HETATM   14  C8  UNL     1      -6.298   0.137   0.179  1.00  0.00     0.029 C 
HETATM   15  C11 UNL     1      -1.645  -0.853   0.250  1.00  0.00     0.344 C 
HETATM   16 CL1  UNL     1      -0.546  -1.548   1.421  1.00  0.00    -0.090 Cl
ENDBRANCH   5   6
ENDBRANCH   2   5
BRANCH   3  17
HETATM   17  N4  UNL     1       2.019   0.382  -0.558  1.00  0.00    -0.276 N 
ATOM     18  H4  UNL     1       1.308   0.395  -1.289  1.00  0.00     0.189 HD
BRANCH  17  19
HETATM   19  C12 UNL     1       3.357   0.042  -0.877  1.00  0.00     0.187 C 
HETATM   20  S1  UNL     1       3.706  -0.308  -2.449  1.00  0.00    -0.040 SA
BRANCH  19  21
HETATM   21  N5  UNL     1       4.349   0.017   0.125  1.00  0.00    -0.358 N 
ATOM     22  H5  UNL     1       4.051   0.257   1.070  1.00  0.00     0.162 HD
BRANCH  21  23
HETATM   23  C13 UNL     1       5.730  -0.310  -0.048  1.00  0.00     0.021 C 
HETATM   24  C14 UNL     1       5.994  -1.721  -0.499  1.00  0.00     0.037 C 
HETATM   25  C15 UNL     1       6.490  -0.095   1.253  1.00  0.00     0.037 C 
HETATM   26  C16 UNL     1       6.311   0.609  -1.123  1.00  0.00     0.037 C 
ENDBRANCH  21  23
ENDBRANCH  19  21
ENDBRANCH  17  19
ENDBRANCH   3  17
TORSDOF 6
