REMARK  7 active torsions:
REMARK  status: ('A' for Active; 'I' for Inactive)
REMARK    1  A    between atoms: C4_5  and  N1_6 
REMARK    2  A    between atoms: N1_6  and  C5_8 
REMARK    3  A    between atoms: N4_14  and  C7_16 
REMARK    4  A    between atoms: C10_19  and  S1_20 
REMARK    5  A    between atoms: S1_20  and  C11_21 
REMARK    6  A    between atoms: C14_24  and  C15_25 
REMARK    7  A    between atoms: C15_25  and  N5_26 
ROOT
HETATM    1  C7  UNL     1       2.723  -0.243   1.088  1.00  0.00     0.084 C 
HETATM    2  C8  UNL     1       1.549  -0.126   2.007  1.00  0.00     0.026 C 
HETATM    3  C9  UNL     1       0.553   0.773   1.314  1.00  0.00     0.017 C 
HETATM    4  C10 UNL     1       0.870   0.698  -0.144  1.00  0.00     0.054 C 
HETATM    5  C23 UNL     1       2.344   0.367  -0.242  1.00  0.00     0.040 C 
ENDROOT
BRANCH   1   6
HETATM    6  N4  UNL     1       3.081  -1.624   0.827  1.00  0.00    -0.365 N 
HETATM    7  C6  UNL     1       4.329  -1.943   0.556  1.00  0.00     0.163 A 
HETATM    8  N3  UNL     1       4.821  -3.153   0.295  1.00  0.00    -0.278 N 
HETATM    9  S2  UNL     1       5.718  -0.955   0.448  1.00  0.00    -0.015 SA
HETATM   10  N2  UNL     1       6.068  -3.272   0.054  1.00  0.00    -0.278 N 
ATOM     11  H3  UNL     1       4.211  -3.970   0.288  1.00  0.00     0.189 HD
HETATM   12  C5  UNL     1       6.841  -2.186   0.070  1.00  0.00     0.167 A 
ATOM     13  H2  UNL     1       6.469  -4.188  -0.149  1.00  0.00     0.189 HD
ATOM     14  H4  UNL     1       2.364  -2.349   0.853  1.00  0.00     0.162 HD
BRANCH  12  15
HETATM   15  N1  UNL     1       8.135  -2.115  -0.152  1.00  0.00    -0.333 N 
ATOM     16  H1  UNL     1       8.689  -2.943  -0.369  1.00  0.00     0.168 HD
BRANCH  15  17
HETATM   17  C4  UNL     1       8.720  -0.825  -0.073  1.00  0.00     0.073 A 
HETATM   18  C3  UNL     1       8.635  -0.103   1.098  1.00  0.00     0.036 A 
HETATM   19  C2  UNL     1       9.181   1.150   1.237  1.00  0.00     0.044 A 
HETATM   20  C1  UNL     1       9.838   1.724   0.190  1.00  0.00     0.119 A 
HETATM   21  F1  UNL     1      10.404   2.961   0.254  1.00  0.00    -0.206 F 
HETATM   22  C25 UNL     1       9.946   1.039  -0.999  1.00  0.00     0.086 A 
HETATM   23  C24 UNL     1       9.386  -0.230  -1.121  1.00  0.00     0.145 A 
HETATM   24  F2  UNL     1       9.510  -0.878  -2.301  1.00  0.00    -0.204 F 
ENDBRANCH  15  17
ENDBRANCH  12  15
ENDBRANCH   1   6
BRANCH   4  25
HETATM   25  S1  UNL     1      -0.142  -0.484  -1.059  1.00  0.00    -0.125 SA
BRANCH  25  26
HETATM   26  C11 UNL     1      -1.828   0.097  -1.079  1.00  0.00     0.001 A 
HETATM   27  C12 UNL     1      -2.797  -0.654  -1.704  1.00  0.00     0.019 A 
HETATM   28  C13 UNL     1      -4.104  -0.261  -1.756  1.00  0.00     0.010 A 
HETATM   29  C14 UNL     1      -4.443   0.926  -1.157  1.00  0.00    -0.030 A 
HETATM   30  C21 UNL     1      -3.514   1.725  -0.512  1.00  0.00     0.010 A 
HETATM   31  C22 UNL     1      -2.205   1.282  -0.489  1.00  0.00     0.019 A 
BRANCH  29  32
HETATM   32  C15 UNL     1      -5.849   1.394  -1.183  1.00  0.00     0.311 C 
BRANCH  32  33
HETATM   33  N5  UNL     1      -6.480   1.046   0.057  1.00  0.00     0.092 N 
HETATM   34  C16 UNL     1      -7.852   1.476   0.087  1.00  0.00     0.272 C 
HETATM   35  C17 UNL     1      -8.788   0.318  -0.170  1.00  0.00     0.030 C 
HETATM   36  C18 UNL     1      -8.701  -0.677   0.981  1.00  0.00     0.003 C 
HETATM   37  C19 UNL     1      -7.255  -0.758   1.450  1.00  0.00     0.030 C 
HETATM   38  C20 UNL     1      -6.328  -0.354   0.318  1.00  0.00     0.272 C 
ENDBRANCH  32  33
ENDBRANCH  29  32
ENDBRANCH  25  26
ENDBRANCH   4  25
TORSDOF 7
