REMARK  8 active torsions:
REMARK  status: ('A' for Active; 'I' for Inactive)
REMARK    1  A    between atoms: C4_5  and  C5_6 
REMARK    2  A    between atoms: C5_6  and  C6_7 
REMARK    3  A    between atoms: C6_7  and  O1_8 
REMARK    4  A    between atoms: C6_7  and  C7_10 
REMARK    5  A    between atoms: C10_15  and  N3_16 
REMARK    6  A    between atoms: N3_16  and  C11_18 
REMARK    7  A    between atoms: C14_21  and  O2_22 
REMARK    8  A    between atoms: O2_22  and  C15_23 
ROOT
HETATM    1  C7  UNL     1       1.803   0.987   2.603  1.00  0.00     0.056 A 
HETATM    2  C8  UNL     1       2.544   1.004   3.780  1.00  0.00     0.046 A 
HETATM    3  C9  UNL     1       2.049   0.472   4.946  1.00  0.00     0.108 A 
HETATM    4  N2  UNL     1       0.830  -0.071   4.941  1.00  0.00    -0.202 N 
ATOM      5  H2  UNL     1       0.448  -0.470   5.798  1.00  0.00     0.183 HD
HETATM    6  C10 UNL     1       0.109  -0.094   3.817  1.00  0.00     0.682 A 
HETATM    7  N4  UNL     1       0.596   0.425   2.686  1.00  0.00    -0.193 N 
ATOM      8  H4  UNL     1       0.018   0.390   1.847  1.00  0.00     0.184 HD
ENDROOT
BRANCH   6   9
HETATM    9  N3  UNL     1      -1.061  -0.638   3.899  1.00  0.00    -0.192 N 
ATOM     10  H3  UNL     1      -1.388  -1.020   4.786  1.00  0.00     0.184 HD
BRANCH   9  11
HETATM   11  C11 UNL     1      -1.891  -0.701   2.742  1.00  0.00     0.050 A 
HETATM   12  C12 UNL     1      -3.163  -0.188   2.711  1.00  0.00     0.033 A 
HETATM   13  C13 UNL     1      -3.951  -0.267   1.563  1.00  0.00     0.040 A 
HETATM   14  C14 UNL     1      -3.507  -0.857   0.406  1.00  0.00     0.086 A 
HETATM   15  C20 UNL     1      -2.209  -1.374   0.457  1.00  0.00     0.046 A 
HETATM   16 BR1  UNL     1      -1.545  -2.208  -1.133  1.00  0.00    -0.048 Br
HETATM   17  C21 UNL     1      -1.427  -1.298   1.591  1.00  0.00     0.052 A 
BRANCH  14  18
HETATM   18  O2  UNL     1      -4.191  -0.989  -0.769  1.00  0.00    -0.344 OA
BRANCH  18  19
HETATM   19  C15 UNL     1      -5.475  -0.531  -0.962  1.00  0.00     0.129 C 
HETATM   20  C16 UNL     1      -5.604   0.417  -2.140  1.00  0.00     0.032 C 
HETATM   21  C17 UNL     1      -6.683  -0.176  -3.017  1.00  0.00     0.002 C 
HETATM   22  C18 UNL     1      -7.490  -1.006  -2.041  1.00  0.00     0.002 C 
HETATM   23  C19 UNL     1      -6.356  -1.725  -1.302  1.00  0.00     0.032 C 
ENDBRANCH  18  19
ENDBRANCH  14  18
ENDBRANCH   9  11
ENDBRANCH   6   9
BRANCH   1  24
HETATM   24  C6  UNL     1       2.358   1.576   1.336  1.00  0.00     0.168 C 
BRANCH  24  25
HETATM   25  C5  UNL     1       2.736   0.420   0.459  1.00  0.00     0.043 C 
BRANCH  25  26
HETATM   26  C4  UNL     1       3.213   0.810  -0.913  1.00  0.00    -0.007 C 
HETATM   27  C3  UNL     1       3.538  -0.499  -1.634  1.00  0.00     0.035 C 
HETATM   28  C2  UNL     1       4.232  -0.106  -2.907  1.00  0.00     0.274 C 
HETATM   29  N1  UNL     1       5.558   0.374  -2.627  1.00  0.00     0.102 N 
HETATM   30  C1  UNL     1       6.439  -0.776  -2.538  1.00  0.00     0.311 C 
HETATM   31  C23 UNL     1       5.665   1.116  -1.402  1.00  0.00     0.318 C 
HETATM   32  C22 UNL     1       4.377   1.724  -0.935  1.00  0.00     0.056 C 
HETATM   33 CL1  UNL     1       6.349   0.157  -0.069  1.00  0.00    -0.092 Cl
ENDBRANCH  25  26
ENDBRANCH  24  25
BRANCH  24  34
HETATM   34  O1  UNL     1       1.325   2.330   0.778  1.00  0.00    -0.389 OA
ATOM     35  H1  UNL     1       1.086   3.062   1.334  1.00  0.00     0.210 HD
ENDBRANCH  24  34
ENDBRANCH   1  24
TORSDOF 8
