REMARK  7 active torsions:
REMARK  status: ('A' for Active; 'I' for Inactive)
REMARK    1  A    between atoms: N1_2  and  C3_4 
REMARK    2  A    between atoms: C4_7  and  C5_8 
REMARK    3  A    between atoms: C6_12  and  C7_13 
REMARK    4  A    between atoms: C7_13  and  O2_15 
REMARK    5  A    between atoms: O2_15  and  C8_16 
REMARK    6  A    between atoms: C8_16  and  C9_17 
REMARK       I    between atoms: C9_17  and  N3_19 
REMARK    7  A    between atoms: N3_19  and  C10_21 
ROOT
HETATM    1  C3  UNL     1       4.458   0.418   0.797  1.00  0.00     0.227 A 
HETATM    2  N2  UNL     1       4.666  -0.049  -0.444  1.00  0.00    -0.315 N 
ATOM      3  H2  UNL     1       5.544  -0.033  -0.962  1.00  0.00     0.169 HD
HETATM    4  C4  UNL     1       3.471  -0.550  -0.877  1.00  0.00     0.160 A 
HETATM    5  C6  UNL     1       2.595  -0.348   0.155  1.00  0.00     0.185 A 
HETATM    6  O4  UNL     1       3.213   0.237   1.154  1.00  0.00    -0.271 OA
ENDROOT
BRANCH   5   7
HETATM    7  C7  UNL     1       1.181  -0.713   0.177  1.00  0.00     0.320 C 
HETATM    8  O1  UNL     1       0.528  -0.446   1.241  1.00  0.00    -0.257 OA
BRANCH   7   9
HETATM    9  O2  UNL     1       0.557  -1.320  -0.896  1.00  0.00    -0.307 OA
BRANCH   9  10
HETATM   10  C8  UNL     1      -0.796  -1.636  -0.809  1.00  0.00     0.281 C 
BRANCH  10  11
HETATM   11  C9  UNL     1      -1.709  -0.495  -0.627  1.00  0.00     0.242 C 
HETATM   12  O3  UNL     1      -1.335   0.700  -0.580  1.00  0.00    -0.271 OA
HETATM   13  N3  UNL     1      -3.090  -0.783  -0.500  1.00  0.00    -0.355 N 
ATOM     14  H3  UNL     1      -3.421  -1.747  -0.535  1.00  0.00     0.162 HD
BRANCH  13  15
HETATM   15  C10 UNL     1      -4.024   0.305  -0.320  1.00  0.00     0.084 C 
HETATM   16  C11 UNL     1      -5.073   0.199  -1.393  1.00  0.00     0.025 C 
HETATM   17  C12 UNL     1      -6.368  -0.050  -0.665  1.00  0.00     0.002 C 
HETATM   18  C13 UNL     1      -6.124   0.580   0.687  1.00  0.00     0.002 C 
HETATM   19  C14 UNL     1      -4.733   0.127   1.007  1.00  0.00     0.025 C 
ENDBRANCH  13  15
ENDBRANCH  10  11
ENDBRANCH   9  10
ENDBRANCH   7   9
ENDBRANCH   5   7
BRANCH   4  20
HETATM   20  C5  UNL     1       3.255  -1.179  -2.205  1.00  0.00     0.435 C 
HETATM   21  F1  UNL     1       2.861  -2.488  -2.124  1.00  0.00    -0.165 F 
HETATM   22  F2  UNL     1       2.373  -0.409  -2.968  1.00  0.00    -0.165 F 
HETATM   23  F3  UNL     1       4.446  -1.164  -2.908  1.00  0.00    -0.165 F 
ENDBRANCH   4  20
BRANCH   1  24
HETATM   24  N1  UNL     1       5.483   1.031   1.605  1.00  0.00    -0.356 N 
HETATM   25  C1  UNL     1       5.183   1.509   2.933  1.00  0.00     0.152 C 
HETATM   26  C2  UNL     1       6.816   1.163   1.072  1.00  0.00     0.152 C 
ENDBRANCH   1  24
TORSDOF 7
