REMARK  6 active torsions:
REMARK  status: ('A' for Active; 'I' for Inactive)
REMARK    1  A    between atoms: C1_2  and  C2_3 
REMARK    2  A    between atoms: C3_4  and  N1_5 
REMARK    3  A    between atoms: C4_11  and  C5_12 
REMARK    4  A    between atoms: C5_12  and  N3_13 
REMARK       I    between atoms: N3_13  and  C6_15 
REMARK    5  A    between atoms: C6_15  and  C7_17 
REMARK    6  A    between atoms: C10_20  and  C11_21 
ROOT
HETATM    1  N3  UNL     1      -0.943   0.486   0.477  1.00  0.00    -0.355 N 
ATOM      2  H3  UNL     1      -0.906  -0.042   1.349  1.00  0.00     0.162 HD
HETATM    3  C6  UNL     1       0.228   1.015  -0.088  1.00  0.00     0.222 C 
HETATM    4  O5  UNL     1       0.193   1.664  -1.157  1.00  0.00    -0.273 OA
ENDROOT
BRANCH   1   5
HETATM    5  C5  UNL     1      -2.206   0.704  -0.200  1.00  0.00     0.191 C 
BRANCH   5   6
HETATM    6  C4  UNL     1      -3.315   0.074   0.544  1.00  0.00     0.111 A 
HETATM    7  C2  UNL     1      -4.623   0.094   0.178  1.00  0.00     0.087 A 
HETATM    8  C3  UNL     1      -5.350  -0.595   1.119  1.00  0.00     0.209 A 
HETATM    9  N2  UNL     1      -4.419  -1.008   2.029  1.00  0.00    -0.239 N 
HETATM   10  O4  UNL     1      -3.238  -0.594   1.654  1.00  0.00    -0.238 OA
ATOM     11  H2  UNL     1      -4.615  -1.553   2.868  1.00  0.00     0.196 HD
BRANCH   7  12
HETATM   12  C1  UNL     1      -5.187   0.731  -1.004  1.00  0.00     0.276 C 
HETATM   13  O1  UNL     1      -4.484   1.354  -1.842  1.00  0.00    -0.301 OA
ENDBRANCH   7  12
BRANCH   8  14
HETATM   14  N1  UNL     1      -6.744  -0.855   1.188  1.00  0.00    -0.095 N 
HETATM   15  O2  UNL     1      -7.415  -0.988   0.150  1.00  0.00    -0.530 OA
HETATM   16  O3  UNL     1      -7.399  -0.970   2.387  1.00  0.00    -0.530 OA
ENDBRANCH   8  14
ENDBRANCH   5   6
ENDBRANCH   1   5
BRANCH   3  17
HETATM   17  C7  UNL     1       1.583   0.832   0.555  1.00  0.00     0.078 C 
HETATM   18  C8  UNL     1       2.649   1.477  -0.223  1.00  0.00     0.015 C 
HETATM   19  C9  UNL     1       3.919   0.769  -0.418  1.00  0.00     0.014 C 
HETATM   20  C10 UNL     1       4.070  -0.530   0.321  1.00  0.00     0.093 C 
HETATM   21  C12 UNL     1       2.783  -1.324   0.059  1.00  0.00     0.014 C 
HETATM   22  C13 UNL     1       1.730  -0.608   0.858  1.00  0.00     0.015 C 
BRANCH  20  23
HETATM   23  C11 UNL     1       5.194  -1.323  -0.314  1.00  0.00     0.391 C 
HETATM   24  F1  UNL     1       6.394  -0.643  -0.262  1.00  0.00    -0.171 F 
HETATM   25  F2  UNL     1       5.311  -2.511   0.375  1.00  0.00    -0.171 F 
HETATM   26  F3  UNL     1       4.877  -1.607  -1.615  1.00  0.00    -0.171 F 
ENDBRANCH  20  23
ENDBRANCH   3  17
TORSDOF 6
