REMARK  5 active torsions:
REMARK  status: ('A' for Active; 'I' for Inactive)
REMARK       I    between atoms: N1_1  and  C1_4 
REMARK       I    between atoms: C1_4  and  N3_6 
REMARK    1  A    between atoms: N3_6  and  N4_8 
REMARK       I    between atoms: N4_8  and  C2_10 
REMARK    2  A    between atoms: C2_10  and  C3_12 
REMARK    3  A    between atoms: C3_12  and  S1_13 
REMARK    4  A    between atoms: S1_13  and  C4_14 
REMARK    5  A    between atoms: C4_14  and  C5_15 
ROOT
HETATM    1  S1  UNL     1      -0.266  -0.298   1.193  1.00  0.00    -0.153 SA
ENDROOT
BRANCH   1   2
HETATM    2  C3  UNL     1       0.222  -0.914  -0.429  1.00  0.00     0.178 C 
BRANCH   2   3
HETATM    3  C2  UNL     1       1.449  -0.208  -0.855  1.00  0.00     0.245 C 
HETATM    4  N4  UNL     1       2.045   0.780  -0.031  1.00  0.00    -0.267 N 
ATOM      5  H4  UNL     1       1.633   1.018   0.871  1.00  0.00     0.190 HD
HETATM    6  O1  UNL     1       1.950  -0.505  -1.967  1.00  0.00    -0.271 OA
BRANCH   4   7
HETATM    7  N3  UNL     1       3.213   1.428  -0.474  1.00  0.00    -0.271 N 
HETATM    8  C1  UNL     1       4.481   0.859  -0.189  1.00  0.00     0.200 C 
HETATM    9  N1  UNL     1       5.539   1.570  -0.175  1.00  0.00    -0.372 N 
HETATM   10  N2  UNL     1       4.578  -0.531   0.088  1.00  0.00    -0.062 NA
ATOM     11  H12 UNL     1       6.451   1.161   0.030  1.00  0.00     0.158 HD
ATOM     12  H11 UNL     1       5.469   2.568  -0.374  1.00  0.00     0.158 HD
ATOM     13  H3  UNL     1       3.148   2.301  -0.997  1.00  0.00     0.189 HD
ENDBRANCH   4   7
ENDBRANCH   2   3
ENDBRANCH   1   2
BRANCH   1  14
HETATM   14  C4  UNL     1      -1.751  -1.139   1.750  1.00  0.00     0.140 C 
BRANCH  14  15
HETATM   15  C5  UNL     1      -2.880  -0.771   0.884  1.00  0.00     0.080 A 
HETATM   16  N5  UNL     1      -3.218  -1.436  -0.232  1.00  0.00    -0.283 N 
HETATM   17  N6  UNL     1      -4.202  -1.167  -1.033  1.00  0.00    -0.240 N 
ATOM     18  H5  UNL     1      -2.639  -2.239  -0.476  1.00  0.00     0.189 HD
HETATM   19  N7  UNL     1      -5.067  -0.208  -0.934  1.00  0.00    -0.265 N 
ATOM     20  H6  UNL     1      -4.307  -1.785  -1.838  1.00  0.00     0.208 HD
HETATM   21  C6  UNL     1      -5.137   0.727   0.026  1.00  0.00     0.159 A 
ATOM     22  H7  UNL     1      -5.774  -0.158  -1.668  1.00  0.00     0.190 HD
HETATM   23  N8  UNL     1      -6.026   1.666   0.075  1.00  0.00    -0.379 N 
HETATM   24  S2  UNL     1      -3.917   0.566   1.209  1.00  0.00    -0.038 SA
ATOM     25  H82 UNL     1      -6.755   1.762  -0.632  1.00  0.00     0.158 HD
ATOM     26  H81 UNL     1      -6.079   2.377   0.805  1.00  0.00     0.158 HD
ENDBRANCH  14  15
ENDBRANCH   1  14
TORSDOF 5
