REMARK  18 active torsions:
REMARK  status: ('A' for Active; 'I' for Inactive)
REMARK    1  A    between atoms: C2_2  and  N1_3 
REMARK    2  A    between atoms: C2_2  and  C23_33 
REMARK    3  A    between atoms: N1_3  and  C3_5 
REMARK    4  A    between atoms: C3_5  and  C4_6 
REMARK    5  A    between atoms: N2_9  and  C7_10 
REMARK    6  A    between atoms: C7_10  and  O1_11 
REMARK    7  A    between atoms: C7_10  and  C8_13 
REMARK    8  A    between atoms: C8_13  and  N3_14 
REMARK       I    between atoms: N3_14  and  C9_16 
REMARK    9  A    between atoms: C9_16  and  C10_18 
REMARK   10  A    between atoms: C10_18  and  C11_19 
REMARK   11  A    between atoms: C11_19  and  C12_20 
REMARK   12  A    between atoms: C23_33  and  C24_34 
REMARK   13  A    between atoms: C23_33  and  C32_47 
REMARK   14  A    between atoms: C24_34  and  C25_35 
REMARK   15  A    between atoms: C25_35  and  C26_36 
REMARK   16  A    between atoms: C26_36  and  N4_37 
REMARK   17  A    between atoms: N5_39  and  N6_40 
REMARK   18  A    between atoms: C32_47  and  C33_48 
ROOT
HETATM    1  C4  UNL     1      -0.319  -0.350   1.382  1.00  0.00     0.152 C 
HETATM    2  C5  UNL     1       0.169   0.409   0.219  1.00  0.00     0.054 C 
HETATM    3  C6  UNL     1       1.564   0.977   0.544  1.00  0.00     0.139 C 
HETATM    4  N2  UNL     1       2.421  -0.054   1.100  1.00  0.00    -0.275 N 
HETATM    5  C22 UNL     1       1.851  -1.378   1.295  1.00  0.00     0.369 C 
HETATM    6  O3  UNL     1       2.584  -2.379   1.082  1.00  0.00    -0.238 OA
HETATM    7  O4  UNL     1       0.532  -1.429   1.704  1.00  0.00    -0.296 OA
ENDROOT
BRANCH   1   8
HETATM    8  C3  UNL     1      -1.758  -0.876   1.213  1.00  0.00     0.146 C 
BRANCH   8   9
HETATM    9  N1  UNL     1      -1.819  -1.840   0.192  1.00  0.00    -0.415 N 
ATOM     10  H1  UNL     1      -0.995  -1.995  -0.388  1.00  0.00     0.153 HD
BRANCH   9  11
HETATM   11  C2  UNL     1      -2.969  -2.592  -0.055  1.00  0.00     0.076 C 
HETATM   12  C1  UNL     1      -3.319  -3.457   1.116  1.00  0.00     0.032 C 
BRANCH  11  13
HETATM   13  C23 UNL     1      -4.180  -1.887  -0.623  1.00  0.00     0.010 C 
BRANCH  13  14
HETATM   14  C24 UNL     1      -4.930  -0.946   0.189  1.00  0.00     0.008 C 
BRANCH  14  15
HETATM   15  C25 UNL     1      -5.519  -1.424   1.500  1.00  0.00     0.031 C 
BRANCH  15  16
HETATM   16  C26 UNL     1      -6.269  -0.193   2.059  1.00  0.00     0.275 C 
BRANCH  16  17
HETATM   17  N4  UNL     1      -7.320   0.150   1.102  1.00  0.00     0.109 N 
HETATM   18  C27 UNL     1      -8.337  -0.894   1.096  1.00  0.00     0.421 C 
HETATM   19  N5  UNL     1      -9.620  -0.246   0.984  1.00  0.00    -0.230 N 
HETATM   20  C28 UNL     1      -9.396   1.173   0.886  1.00  0.00     0.075 C 
HETATM   21  C29 UNL     1      -9.300   1.611  -0.548  1.00  0.00     0.042 C 
HETATM   22  C30 UNL     1     -10.457   1.958   1.642  1.00  0.00     0.042 C 
HETATM   23  C31 UNL     1      -8.048   1.315   1.540  1.00  0.00     0.306 C 
BRANCH  19  24
HETATM   24  N6  UNL     1     -10.849  -0.882   0.975  1.00  0.00    -0.039 N 
HETATM   25  O5  UNL     1     -11.130  -1.586  -0.034  1.00  0.00    -0.516 OA
HETATM   26  O6  UNL     1     -11.760  -0.770   2.021  1.00  0.00    -0.516 OA
ENDBRANCH  19  24
ENDBRANCH  16  17
ENDBRANCH  15  16
ENDBRANCH  14  15
ENDBRANCH  13  14
BRANCH  13  27
HETATM   27  C32 UNL     1      -3.758  -1.429  -1.966  1.00  0.00     0.038 C 
BRANCH  27  28
HETATM   28  C33 UNL     1      -4.615  -0.674  -2.882  1.00  0.00     0.121 C 
HETATM   29  C34 UNL     1      -5.066   0.665  -2.446  1.00  0.00     0.034 C 
HETATM   30  C35 UNL     1      -5.107   1.494  -3.743  1.00  0.00     0.029 C 
HETATM   31  C36 UNL     1      -4.627   0.514  -4.757  1.00  0.00     0.168 C 
HETATM   32  O7  UNL     1      -3.852  -0.401  -4.056  1.00  0.00    -0.386 OA
ENDBRANCH  27  28
ENDBRANCH  13  27
ENDBRANCH  11  13
ENDBRANCH   9  11
ENDBRANCH   8   9
ENDBRANCH   1   8
BRANCH   4  33
HETATM   33  C7  UNL     1       3.746   0.205   1.449  1.00  0.00     0.151 C 
BRANCH  33  34
HETATM   34  O1  UNL     1       4.401  -0.862   1.870  1.00  0.00    -0.347 OA
ATOM     35  H1  UNL     1       5.304  -0.686   2.108  1.00  0.00     0.219 HD
ENDBRANCH  33  34
BRANCH  33  36
HETATM   36  C8  UNL     1       4.553   1.396   1.447  1.00  0.00     0.098 C 
HETATM   37  C18 UNL     1       4.202   2.282   2.660  1.00  0.00     0.040 C 
HETATM   38  C19 UNL     1       5.023   3.552   2.387  1.00  0.00     0.003 C 
HETATM   39  C20 UNL     1       5.278   3.593   0.897  1.00  0.00     0.003 C 
HETATM   40  C21 UNL     1       4.439   2.401   0.362  1.00  0.00     0.040 C 
BRANCH  36  41
HETATM   41  N3  UNL     1       5.994   1.077   1.580  1.00  0.00    -0.344 N 
HETATM   42  C9  UNL     1       6.633   0.293   0.583  1.00  0.00     0.218 C 
HETATM   43  O2  UNL     1       5.963  -0.122  -0.409  1.00  0.00    -0.274 OA
ATOM     44  H3  UNL     1       6.523   1.418   2.382  1.00  0.00     0.163 HD
BRANCH  42  45
HETATM   45  C10 UNL     1       8.065  -0.056   0.667  1.00  0.00     0.103 C 
BRANCH  45  46
HETATM   46  C11 UNL     1       8.433  -0.853  -0.541  1.00  0.00     0.014 C 
BRANCH  46  47
HETATM   47  C12 UNL     1       9.878  -1.290  -0.594  1.00  0.00    -0.014 C 
HETATM   48  C13 UNL     1      10.714  -0.029  -0.578  1.00  0.00     0.004 C 
HETATM   49  C14 UNL     1      12.139  -0.297  -0.996  1.00  0.00     0.000 C 
HETATM   50  C15 UNL     1      12.086  -0.808  -2.429  1.00  0.00     0.000 C 
HETATM   51  C16 UNL     1      11.442  -2.178  -2.366  1.00  0.00     0.000 C 
HETATM   52  C17 UNL     1      10.031  -2.031  -1.910  1.00  0.00     0.004 C 
ENDBRANCH  46  47
ENDBRANCH  45  46
ENDBRANCH  42  45
ENDBRANCH  36  41
ENDBRANCH  33  36
ENDBRANCH   4  33
TORSDOF 18
