REMARK  9 active torsions:
REMARK  status: ('A' for Active; 'I' for Inactive)
REMARK    1  A    between atoms: C2_2  and  O2_4 
REMARK    2  A    between atoms: O2_4  and  C3_5 
REMARK    3  A    between atoms: C14_17  and  C15_18 
REMARK    4  A    between atoms: C15_18  and  O4_20 
REMARK    5  A    between atoms: O4_20  and  C16_21 
REMARK    6  A    between atoms: C16_21  and  C17_22 
REMARK    7  A    between atoms: C16_21  and  C21_26 
REMARK    8  A    between atoms: C17_22  and  C18_23 
REMARK    9  A    between atoms: C21_26  and  C22_28 
ROOT
HETATM    1  C3  UNL     1      -3.342  -0.379  -0.223  1.00  0.00     0.174 C 
HETATM    2  C4  UNL     1      -3.152  -0.638   1.230  1.00  0.00     0.255 C 
HETATM    3  C5  UNL     1      -3.609   0.638   1.955  1.00  0.00     0.075 C 
HETATM    4  C6  UNL     1      -2.125   0.931   1.875  1.00  0.00     0.243 C 
HETATM    5  C7  UNL     1      -1.730   1.861   0.830  1.00  0.00     0.135 C 
HETATM    6  C8  UNL     1      -2.651   3.031   0.943  1.00  0.00     0.067 C 
HETATM    7  N1  UNL     1      -3.374   3.939   1.023  1.00  0.00    -0.197 NA
HETATM    8  C9  UNL     1      -1.567   1.387  -0.570  1.00  0.00    -0.011 C 
HETATM    9  C10 UNL     1      -2.128   2.528  -1.437  1.00  0.00     0.018 C 
HETATM   10  C11 UNL     1      -0.111   1.253  -0.885  1.00  0.00     0.014 A 
HETATM   11  C12 UNL     1       0.455   1.736  -2.140  1.00  0.00     0.008 A 
HETATM   12  C13 UNL     1       0.732   0.291  -2.554  1.00  0.00     0.020 A 
HETATM   13  C14 UNL     1       0.204  -0.170  -1.226  1.00  0.00     0.053 A 
HETATM   14  C24 UNL     1      -1.085  -0.909  -1.198  1.00  0.00     0.032 C 
HETATM   15  C25 UNL     1      -2.191   0.130  -0.989  1.00  0.00    -0.005 C 
HETATM   16  C26 UNL     1      -2.812   0.298  -2.395  1.00  0.00     0.019 C 
HETATM   17  N3  UNL     1      -1.837  -0.437   1.740  1.00  0.00     0.097 N 
HETATM   18  C27 UNL     1      -1.678  -1.144   3.011  1.00  0.00     0.311 C 
ENDROOT
BRANCH  13  19
HETATM   19  C15 UNL     1       1.272  -0.822  -0.386  1.00  0.00     0.268 C 
HETATM   20  O3  UNL     1       1.000  -1.876   0.238  1.00  0.00    -0.264 OA
BRANCH  19  21
HETATM   21  O4  UNL     1       2.535  -0.318  -0.269  1.00  0.00    -0.308 OA
BRANCH  21  22
HETATM   22  C16 UNL     1       3.544  -0.968   0.546  1.00  0.00     0.202 C 
BRANCH  22  23
HETATM   23  C17 UNL     1       4.682  -1.412  -0.303  1.00  0.00     0.044 C 
BRANCH  23  24
HETATM   24  C18 UNL     1       5.783  -2.109   0.437  1.00  0.00    -0.020 C 
HETATM   25  C19 UNL     1       5.287  -3.358   1.150  1.00  0.00     0.009 C 
HETATM   26  C20 UNL     1       6.811  -2.555  -0.631  1.00  0.00     0.009 C 
ENDBRANCH  23  24
ENDBRANCH  22  23
BRANCH  22  27
HETATM   27  C21 UNL     1       3.999   0.010   1.547  1.00  0.00     0.169 C 
HETATM   28  O5  UNL     1       4.798  -0.279   2.404  1.00  0.00    -0.294 OA
BRANCH  27  29
HETATM   29  C22 UNL     1       3.474   1.398   1.524  1.00  0.00     0.204 C 
HETATM   30  C23 UNL     1       4.031   2.219   2.581  1.00  0.00     0.066 C 
HETATM   31  N2  UNL     1       4.475   2.886   3.419  1.00  0.00    -0.197 NA
ENDBRANCH  27  29
ENDBRANCH  22  27
ENDBRANCH  21  22
ENDBRANCH  19  21
ENDBRANCH  13  19
BRANCH   1  32
HETATM   32  O2  UNL     1      -4.467   0.456  -0.429  1.00  0.00    -0.313 OA
BRANCH  32  33
HETATM   33  C2  UNL     1      -5.651   0.078  -0.999  1.00  0.00     0.255 C 
HETATM   34  C1  UNL     1      -6.806   0.995  -1.197  1.00  0.00     0.126 C 
HETATM   35  O1  UNL     1      -5.795  -1.108  -1.385  1.00  0.00    -0.266 OA
ENDBRANCH  32  33
ENDBRANCH   1  32
TORSDOF 9
