REMARK  7 active torsions:
REMARK  status: ('A' for Active; 'I' for Inactive)
REMARK    1  A    between atoms: C2_2  and  C3_3 
REMARK    2  A    between atoms: C2_2  and  C5_5 
REMARK    3  A    between atoms: C9_9  and  O1_10 
REMARK    4  A    between atoms: C10_12  and  O2_13 
REMARK    5  A    between atoms: C14_18  and  O3_19 
REMARK    6  A    between atoms: C15_21  and  O4_22 
REMARK    7  A    between atoms: C17_24  and  O5_25 
ROOT
HETATM    1  C5  UNL     1       2.959   0.408   0.001  1.00  0.00     0.006 A 
HETATM    2  C6  UNL     1       2.221  -0.166   1.065  1.00  0.00     0.026 A 
HETATM    3  C7  UNL     1       0.894  -0.182   1.086  1.00  0.00    -0.004 A 
HETATM    4  C8  UNL     1       0.222   0.412  -0.018  1.00  0.00     0.022 A 
HETATM    5  C9  UNL     1       0.847   0.970  -1.074  1.00  0.00     0.111 A 
HETATM    6  C10 UNL     1       2.227   0.957  -1.039  1.00  0.00     0.113 A 
HETATM    7  C12 UNL     1      -1.230   0.548  -0.098  1.00  0.00     0.011 A 
HETATM    8  C13 UNL     1      -1.580   1.781  -0.525  1.00  0.00     0.082 A 
HETATM    9 CL1  UNL     1      -0.421   3.076  -0.477  1.00  0.00    -0.080 Cl
HETATM   10  C14 UNL     1      -2.917   2.019  -0.743  1.00  0.00     0.124 A 
HETATM   11  C15 UNL     1      -3.854   0.990  -0.508  1.00  0.00     0.137 A 
HETATM   12  C17 UNL     1      -3.428  -0.254  -0.060  1.00  0.00     0.111 A 
HETATM   13  C19 UNL     1      -2.123  -0.523   0.162  1.00  0.00    -0.009 A 
HETATM   14  C20 UNL     1      -1.757  -1.849   0.711  1.00  0.00     0.046 C 
HETATM   15  C21 UNL     1      -0.742  -1.959   1.744  1.00  0.00     0.053 C 
HETATM   16  C22 UNL     1       0.175  -0.893   2.187  1.00  0.00     0.128 C 
HETATM   17  C23 UNL     1      -0.440   0.092   3.154  1.00  0.00     0.057 C 
HETATM   18  F1  UNL     1       1.205  -1.521   2.913  1.00  0.00    -0.238 F 
ENDROOT
BRANCH   1  19
HETATM   19  C2  UNL     1       4.407   0.352   0.081  1.00  0.00    -0.055 C 
HETATM   20  C1  UNL     1       5.179   1.267  -0.426  1.00  0.00     0.020 C 
BRANCH  19  21
HETATM   21  C3  UNL     1       5.015  -0.825   0.751  1.00  0.00     0.034 C 
HETATM   22  C4  UNL     1       4.608  -2.120   0.070  1.00  0.00     0.010 C 
ENDBRANCH  19  21
ENDBRANCH   1  19
BRANCH   6  23
HETATM   23  O2  UNL     1       2.949   1.522  -2.104  1.00  0.00    -0.352 OA
HETATM   24  C11 UNL     1       3.315   0.750  -3.234  1.00  0.00     0.210 C 
ENDBRANCH   6  23
BRANCH   5  25
HETATM   25  O1  UNL     1       0.139   1.480  -2.106  1.00  0.00    -0.357 OA
ATOM     26  H1  UNL     1       0.579   1.873  -2.850  1.00  0.00     0.217 HD
ENDBRANCH   5  25
BRANCH  10  27
HETATM   27  O3  UNL     1      -3.348   3.236  -1.182  1.00  0.00    -0.356 OA
ATOM     28  H3  UNL     1      -4.271   3.400  -1.333  1.00  0.00     0.218 HD
ENDBRANCH  10  27
BRANCH  12  29
HETATM   29  O5  UNL     1      -4.346  -1.294   0.185  1.00  0.00    -0.352 OA
HETATM   30  C18 UNL     1      -4.607  -2.137  -0.947  1.00  0.00     0.210 C 
ENDBRANCH  12  29
BRANCH  11  31
HETATM   31  O4  UNL     1      -5.208   1.191  -0.717  1.00  0.00    -0.351 OA
HETATM   32  C16 UNL     1      -6.101   1.660   0.254  1.00  0.00     0.210 C 
ENDBRANCH  11  31
TORSDOF 7
