REMARK  5 active torsions:
REMARK  status: ('A' for Active; 'I' for Inactive)
REMARK    1  A    between atoms: C1_4  and  C2_6 
REMARK    2  A    between atoms: C4_8  and  C5_9 
REMARK    3  A    between atoms: C7_13  and  C8_14 
REMARK    4  A    between atoms: C12_20  and  N4_21 
REMARK    5  A    between atoms: N4_21  and  C13_23 
ROOT
HETATM    1  C2  UNL     1      -0.706   3.554  -0.319  1.00  0.00     0.089 A 
HETATM    2  C3  UNL     1       0.268   2.587  -0.262  1.00  0.00     0.052 A 
HETATM    3  C4  UNL     1      -0.051   1.230  -0.095  1.00  0.00     0.047 A 
HETATM    4  C12 UNL     1      -1.382   0.948   0.004  1.00  0.00     0.129 A 
HETATM    5  N5  UNL     1      -2.339   1.920  -0.055  1.00  0.00    -0.284 N 
ATOM      6  H5  UNL     1      -3.323   1.664   0.023  1.00  0.00     0.188 HD
HETATM    7  N6  UNL     1      -2.005   3.187  -0.212  1.00  0.00    -0.296 N 
ATOM      8  H6  UNL     1      -2.734   3.899  -0.253  1.00  0.00     0.187 HD
ENDROOT
BRANCH   3   9
HETATM    9  C5  UNL     1       0.995   0.241  -0.039  1.00  0.00     0.107 A 
HETATM   10  C6  UNL     1       0.899  -1.102   0.114  1.00  0.00     0.128 A 
HETATM   11  N3  UNL     1       2.187  -1.570   0.100  1.00  0.00    -0.345 N 
HETATM   12  C7  UNL     1       3.021  -0.527  -0.057  1.00  0.00     0.153 A 
ATOM     13  H3  UNL     1       2.466  -2.547   0.193  1.00  0.00     0.167 HD
HETATM   14  O2  UNL     1       2.288   0.555  -0.140  1.00  0.00    -0.293 OA
BRANCH  12  15
HETATM   15  C8  UNL     1       4.525  -0.583  -0.127  1.00  0.00     0.196 C 
HETATM   16  C9  UNL     1       5.050  -1.889   0.361  1.00  0.00     0.042 C 
HETATM   17  C10 UNL     1       5.851  -1.488   1.588  1.00  0.00     0.029 C 
HETATM   18  C11 UNL     1       6.205  -0.052   1.251  1.00  0.00     0.168 C 
HETATM   19  O1  UNL     1       5.059   0.423   0.668  1.00  0.00    -0.378 OA
ENDBRANCH  12  15
ENDBRANCH   3   9
BRANCH   4  20
HETATM   20  N4  UNL     1      -1.786  -0.234   0.155  1.00  0.00    -0.370 N 
ATOM     21  H4  UNL     1      -1.059  -0.948   0.197  1.00  0.00     0.161 HD
BRANCH  20  22
HETATM   22  C13 UNL     1      -3.134  -0.711   0.276  1.00  0.00     0.083 C 
HETATM   23  C14 UNL     1      -3.117  -2.119   0.856  1.00  0.00     0.025 C 
HETATM   24  C15 UNL     1      -4.391  -2.882   0.560  1.00  0.00     0.002 C 
HETATM   25  C16 UNL     1      -4.595  -3.043  -0.934  1.00  0.00     0.000 C 
HETATM   26  C17 UNL     1      -3.631  -2.098  -1.677  1.00  0.00     0.002 C 
HETATM   27  C18 UNL     1      -3.870  -0.739  -1.019  1.00  0.00     0.025 C 
ENDBRANCH  20  22
ENDBRANCH   4  20
BRANCH   1  28
HETATM   28  C1  UNL     1      -0.405   4.959  -0.490  1.00  0.00     0.138 C 
HETATM   29  N1  UNL     1      -1.346   5.817  -0.537  1.00  0.00    -0.386 N 
ATOM     30  H12 UNL     1      -1.134   6.807  -0.658  1.00  0.00     0.157 HD
ATOM     31  H11 UNL     1      -2.318   5.519  -0.454  1.00  0.00     0.157 HD
HETATM   32  N2  UNL     1       0.938   5.371  -0.604  1.00  0.00    -0.081 NA
ENDBRANCH   1  28
TORSDOF 5
