REMARK  7 active torsions:
REMARK  status: ('A' for Active; 'I' for Inactive)
REMARK    1  A    between atoms: O1_2  and  C2_3 
REMARK    2  A    between atoms: C2_3  and  C3_4 
REMARK    3  A    between atoms: C7_8  and  O2_9 
REMARK    4  A    between atoms: C8_11  and  O3_12 
REMARK    5  A    between atoms: C9_14  and  C10_15 
REMARK    6  A    between atoms: C13_19  and  O4_20 
REMARK    7  A    between atoms: C15_24  and  C17_26 
ROOT
HETATM    1  C3  UNL     1       1.746  -0.063   0.040  1.00  0.00     0.005 A 
HETATM    2  C4  UNL     1       2.954  -0.858   0.061  1.00  0.00    -0.046 A 
HETATM    3  C5  UNL     1       4.218  -0.137   0.467  1.00  0.00     0.049 C 
HETATM    4  C6  UNL     1       2.994  -2.153  -0.242  1.00  0.00     0.047 A 
HETATM    5  C7  UNL     1       1.800  -2.830  -0.616  1.00  0.00     0.100 A 
HETATM    6  C8  UNL     1       0.667  -2.084  -0.643  1.00  0.00     0.110 A 
HETATM    7  C9  UNL     1       0.608  -0.688  -0.316  1.00  0.00     0.019 A 
ENDROOT
BRANCH   7   8
HETATM    8  C10 UNL     1      -0.768  -0.145  -0.376  1.00  0.00    -0.035 C 
HETATM    9  C11 UNL     1      -1.303  -0.231  -1.655  1.00  0.00     0.005 C 
HETATM   10  C12 UNL     1      -2.619   0.207  -2.053  1.00  0.00     0.135 C 
HETATM   11 CL1  UNL     1      -2.515   1.798  -2.897  1.00  0.00    -0.118 Cl
HETATM   12  C13 UNL     1      -3.641   0.208  -0.966  1.00  0.00     0.159 C 
HETATM   13  C14 UNL     1      -3.136  -0.019   0.385  1.00  0.00     0.126 C 
HETATM   14 CL2  UNL     1      -3.601  -1.667   0.968  1.00  0.00    -0.121 Cl
HETATM   15  C15 UNL     1      -1.669   0.202   0.651  1.00  0.00     0.016 C 
HETATM   16  C16 UNL     1      -1.359  -0.853   1.814  1.00  0.00     0.023 C 
BRANCH  12  17
HETATM   17  O4  UNL     1      -4.428   1.329  -1.154  1.00  0.00    -0.392 OA
ATOM     18  H4  UNL     1      -5.079   1.330  -0.462  1.00  0.00     0.210 HD
ENDBRANCH  12  17
BRANCH  15  19
HETATM   19  C17 UNL     1      -1.536   1.466   1.469  1.00  0.00     0.130 C 
HETATM   20 CL3  UNL     1      -1.596   2.978   0.589  1.00  0.00    -0.129 Cl
ENDBRANCH  15  19
ENDBRANCH   7   8
BRANCH   1  21
HETATM   21  C2  UNL     1       2.048   1.374   0.156  1.00  0.00     0.146 C 
BRANCH  21  22
HETATM   22  O1  UNL     1       1.773   2.071   1.258  1.00  0.00    -0.367 OA
HETATM   23  C1  UNL     1       2.219   3.402   1.021  1.00  0.00     0.208 C 
ENDBRANCH  21  22
ENDBRANCH   1  21
BRANCH   6  24
HETATM   24  O3  UNL     1      -0.497  -2.682  -1.019  1.00  0.00    -0.357 OA
ATOM     25  H3  UNL     1      -1.290  -2.160  -1.038  1.00  0.00     0.217 HD
ENDBRANCH   6  24
BRANCH   5  26
HETATM   26  O2  UNL     1       1.909  -4.166  -0.917  1.00  0.00    -0.358 OA
ATOM     27  H2  UNL     1       1.112  -4.618  -1.167  1.00  0.00     0.217 HD
ENDBRANCH   5  26
TORSDOF 7
