REMARK  7 active torsions:
REMARK  status: ('A' for Active; 'I' for Inactive)
REMARK    1  A    between atoms: C2_2  and  O1_3 
REMARK    2  A    between atoms: C2_2  and  C3_6 
REMARK    3  A    between atoms: C4_8  and  C5_9 
REMARK    4  A    between atoms: C5_9  and  C6_10 
REMARK    5  A    between atoms: C6_10  and  O2_11 
REMARK    6  A    between atoms: C9_15  and  C10_16 
REMARK    7  A    between atoms: N1_19  and  O3_21 
ROOT
HETATM    1  C6  UNL     1       1.650   0.337   0.139  1.00  0.00     0.078 C 
HETATM    2  C7  UNL     1       1.298  -1.056  -0.276  1.00  0.00     0.040 C 
HETATM    3  C8  UNL     1       0.042  -0.824  -1.096  1.00  0.00     0.010 C 
HETATM    4  C9  UNL     1      -0.578   0.452  -0.536  1.00  0.00     0.016 C 
HETATM    5  C19 UNL     1       0.284   0.834   0.643  1.00  0.00     0.121 C 
HETATM    6 CL1  UNL     1       0.337   2.599   0.853  1.00  0.00    -0.121 Cl
ENDROOT
BRANCH   4   7
HETATM    7  C10 UNL     1      -2.029   0.234  -0.174  1.00  0.00    -0.026 C 
HETATM    8  C11 UNL     1      -2.285  -0.818   0.855  1.00  0.00     0.065 C 
HETATM    9  C12 UNL     1      -3.746  -0.939   1.088  1.00  0.00     0.015 C 
HETATM   10  N1  UNL     1      -4.206  -1.134   2.274  1.00  0.00    -0.277 N 
HETATM   11  C13 UNL     1      -4.642  -0.827  -0.095  1.00  0.00     0.034 C 
ATOM     12  H1  UNL     1      -3.574  -1.209   3.071  1.00  0.00     0.193 HD
HETATM   13  C14 UNL     1      -5.040   0.623  -0.314  1.00  0.00     0.015 C 
HETATM   14  C18 UNL     1      -3.779  -1.089  -1.323  1.00  0.00     0.016 C 
HETATM   15  C15 UNL     1      -3.798   1.273  -0.854  1.00  0.00    -0.008 C 
HETATM   16  C16 UNL     1      -2.714   1.532   0.180  1.00  0.00     0.015 C 
HETATM   17  C17 UNL     1      -2.947   0.153  -1.376  1.00  0.00    -0.001 C 
BRANCH  10  18
HETATM   18  O3  UNL     1      -5.568  -1.240   2.445  1.00  0.00    -0.290 OA
ATOM     19  H3  UNL     1      -5.908  -1.384   3.320  1.00  0.00     0.244 HD
ENDBRANCH  10  18
ENDBRANCH   4   7
BRANCH   1  20
HETATM   20  C5  UNL     1       2.676   0.389   1.238  1.00  0.00     0.069 C 
BRANCH  20  21
HETATM   21  C4  UNL     1       3.976  -0.061   0.614  1.00  0.00     0.020 C 
HETATM   22  C3  UNL     1       5.022   0.736   0.595  1.00  0.00     0.156 C 
HETATM   23  F2  UNL     1       4.927   1.963   1.140  1.00  0.00    -0.205 F 
BRANCH  22  24
HETATM   24  C2  UNL     1       6.292   0.299  -0.013  1.00  0.00     0.253 C 
HETATM   25  C1  UNL     1       6.185  -1.106  -0.564  1.00  0.00     0.093 C 
HETATM   26  F1  UNL     1       7.284   0.321   0.953  1.00  0.00    -0.204 F 
BRANCH  24  27
HETATM   27  O1  UNL     1       6.641   1.184  -1.038  1.00  0.00    -0.357 OA
ATOM     28  H1  UNL     1       6.708   2.066  -0.692  1.00  0.00     0.213 HD
ENDBRANCH  24  27
ENDBRANCH  22  24
ENDBRANCH  20  21
ENDBRANCH   1  20
BRANCH   1  29
HETATM   29  O2  UNL     1       1.983   1.170  -0.924  1.00  0.00    -0.388 OA
ATOM     30  H2  UNL     1       1.335   1.137  -1.618  1.00  0.00     0.210 HD
ENDBRANCH   1  29
TORSDOF 7
