REMARK  15 active torsions:
REMARK  status: ('A' for Active; 'I' for Inactive)
REMARK    1  A    between atoms: N1_2  and  C2_3 
REMARK    2  A    between atoms: N1_2  and  C19_31 
REMARK    3  A    between atoms: C2_3  and  C3_4 
REMARK    4  A    between atoms: C3_4  and  N2_5 
REMARK    5  A    between atoms: C6_10  and  C7_11 
REMARK    6  A    between atoms: N4_13  and  C9_14 
REMARK    7  A    between atoms: C9_14  and  C10_15 
REMARK       I    between atoms: C10_15  and  N5_17 
REMARK    8  A    between atoms: N5_17  and  C11_19 
REMARK    9  A    between atoms: C11_19  and  C12_20 
REMARK   10  A    between atoms: C12_20  and  C13_21 
REMARK   11  A    between atoms: C13_21  and  N6_22 
REMARK   12  A    between atoms: C21_37  and  N10_38 
REMARK   13  A    between atoms: N11_41  and  C24_42 
REMARK   14  A    between atoms: C24_42  and  C25_43 
REMARK   15  A    between atoms: C25_43  and  O3_44 
ROOT
HETATM    1  N2  UNL     1      -1.208   1.326   0.078  1.00  0.00    -0.335 N 
HETATM    2  C4  UNL     1      -2.172   1.853  -0.745  1.00  0.00     0.183 A 
HETATM    3  N3  UNL     1      -2.062   1.271  -1.923  1.00  0.00    -0.360 N 
ATOM      4  H3  UNL     1      -2.650   1.466  -2.734  1.00  0.00     0.166 HD
HETATM    5  C5  UNL     1      -1.066   0.391  -1.890  1.00  0.00     0.121 A 
HETATM    6  C6  UNL     1      -0.509   0.427  -0.590  1.00  0.00     0.079 A 
ENDROOT
BRANCH   1   7
HETATM    7  C3  UNL     1      -1.141   1.729   1.461  1.00  0.00     0.175 C 
BRANCH   7   8
HETATM    8  C2  UNL     1      -2.158   1.145   2.365  1.00  0.00     0.101 C 
BRANCH   8   9
HETATM    9  N1  UNL     1      -2.266  -0.234   2.582  1.00  0.00    -0.199 N 
HETATM   10  C1  UNL     1      -1.303  -1.016   3.322  1.00  0.00     0.174 C 
BRANCH   9  11
HETATM   11  C19 UNL     1      -3.401  -0.968   2.067  1.00  0.00     0.699 A 
HETATM   12  N8  UNL     1      -3.515  -2.289   2.250  1.00  0.00    -0.186 N 
HETATM   13  C20 UNL     1      -4.586  -2.942   1.774  1.00  0.00     0.215 A 
ATOM     14  H8  UNL     1      -2.788  -2.799   2.751  1.00  0.00     0.185 HD
HETATM   15  N9  UNL     1      -5.569  -2.283   1.101  1.00  0.00    -0.187 N 
HETATM   16  C21 UNL     1      -5.469  -0.951   0.908  1.00  0.00     0.696 A 
ATOM     17  H9  UNL     1      -6.377  -2.793   0.744  1.00  0.00     0.185 HD
HETATM   18  N12 UNL     1      -4.388  -0.336   1.397  1.00  0.00    -0.022 N 
ATOM     19  H12 UNL     1      -4.304   0.671   1.256  1.00  0.00     0.203 HD
BRANCH  16  20
HETATM   20  N10 UNL     1      -6.499  -0.245   0.211  1.00  0.00    -0.211 N 
HETATM   21  C22 UNL     1      -6.411   1.153  -0.103  1.00  0.00     0.161 C 
HETATM   22  C23 UNL     1      -7.133   1.570  -1.345  1.00  0.00     0.147 C 
HETATM   23  N11 UNL     1      -8.436   0.998  -1.493  1.00  0.00    -0.369 N 
HETATM   24  C26 UNL     1      -8.811   0.061  -0.525  1.00  0.00     0.083 C 
HETATM   25  C27 UNL     1      -7.718  -0.951  -0.206  1.00  0.00     0.186 C 
BRANCH  23  26
HETATM   26  C24 UNL     1      -8.972   1.005  -2.783  1.00  0.00     0.089 C 
BRANCH  26  27
HETATM   27  C25 UNL     1     -10.326   0.344  -2.841  1.00  0.00     0.208 C 
BRANCH  27  28
HETATM   28  O3  UNL     1     -10.854   0.390  -4.143  1.00  0.00    -0.396 OA
ATOM     29  H3  UNL     1     -11.707  -0.026  -4.180  1.00  0.00     0.209 HD
ENDBRANCH  27  28
ENDBRANCH  26  27
ENDBRANCH  23  26
ENDBRANCH  16  20
ENDBRANCH   9  11
ENDBRANCH   8   9
ENDBRANCH   7   8
ENDBRANCH   1   7
BRANCH   6  30
HETATM   30  C7  UNL     1       0.652  -0.393  -0.218  1.00  0.00     0.077 A 
HETATM   31  C8  UNL     1       1.416  -0.483   0.898  1.00  0.00     0.124 A 
HETATM   32  N4  UNL     1       2.420  -1.388   0.733  1.00  0.00    -0.342 N 
HETATM   33  C18 UNL     1       2.282  -1.871  -0.504  1.00  0.00     0.183 A 
HETATM   34  N7  UNL     1       1.234  -1.286  -1.077  1.00  0.00    -0.349 N 
ATOM     35  H7  UNL     1       0.909  -1.476  -2.025  1.00  0.00     0.166 HD
BRANCH  32  36
HETATM   36  C9  UNL     1       3.416  -1.756   1.688  1.00  0.00     0.232 C 
BRANCH  36  37
HETATM   37  C10 UNL     1       4.639  -0.876   1.590  1.00  0.00     0.239 C 
HETATM   38  O1  UNL     1       4.574   0.012   0.730  1.00  0.00    -0.271 OA
HETATM   39  N5  UNL     1       5.741  -1.088   2.433  1.00  0.00    -0.339 N 
ATOM     40  H5  UNL     1       5.646  -1.845   3.110  1.00  0.00     0.167 HD
BRANCH  39  41
HETATM   41  C11 UNL     1       6.953  -0.390   2.461  1.00  0.00     0.065 C 
BRANCH  41  42
HETATM   42  C12 UNL     1       7.945  -0.468   1.371  1.00  0.00     0.074 C 
BRANCH  42  43
HETATM   43  C13 UNL     1       7.547  -0.064   0.015  1.00  0.00     0.277 C 
BRANCH  43  44
HETATM   44  N6  UNL     1       8.725  -0.159  -0.887  1.00  0.00     0.092 N 
HETATM   45  C14 UNL     1       9.656   0.880  -0.460  1.00  0.00     0.298 C 
HETATM   46  C15 UNL     1      10.520   1.309  -1.646  1.00  0.00     0.198 C 
HETATM   47  O2  UNL     1      10.687   0.163  -2.444  1.00  0.00    -0.388 OA
HETATM   48  C16 UNL     1       9.484   0.016  -3.144  1.00  0.00     0.198 C 
HETATM   49  C17 UNL     1       8.291   0.244  -2.230  1.00  0.00     0.298 C 
ENDBRANCH  43  44
ENDBRANCH  42  43
ENDBRANCH  41  42
ENDBRANCH  39  41
ENDBRANCH  36  37
ENDBRANCH  32  36
ENDBRANCH   6  30
TORSDOF 15
