REMARK  6 active torsions:
REMARK  status: ('A' for Active; 'I' for Inactive)
REMARK    1  A    between atoms: C5_7  and  N2_8 
REMARK    2  A    between atoms: C6_13  and  N4_14 
REMARK    3  A    between atoms: N4_14  and  C7_16 
REMARK    4  A    between atoms: C7_16  and  C8_17 
REMARK    5  A    between atoms: C8_17  and  C9_18 
REMARK    6  A    between atoms: C9_18  and  N5_19 
ROOT
HETATM    1  C1  UNL     1       6.745   0.991  -2.308  1.00  0.00     0.154 C 
HETATM    2  N1  UNL     1       5.895   0.784  -1.122  1.00  0.00    -0.368 N 
HETATM    3  C2  UNL     1       6.249   0.934   0.160  1.00  0.00     0.109 A 
HETATM    4  C3  UNL     1       5.115   0.628   0.925  1.00  0.00     0.035 A 
HETATM    5  S1  UNL     1       4.463   0.492   2.493  1.00  0.00    -0.082 SA
HETATM    6  C4  UNL     1       2.874   0.011   2.090  1.00  0.00     0.078 A 
HETATM    7  C5  UNL     1       1.721  -0.301   2.837  1.00  0.00     0.134 A 
HETATM    8  N3  UNL     1       0.580  -0.659   2.218  1.00  0.00    -0.176 N 
ATOM      9  H3  UNL     1      -0.270  -0.891   2.733  1.00  0.00     0.186 HD
HETATM   10  C6  UNL     1       0.637  -0.690   0.888  1.00  0.00     0.680 A 
HETATM   11  N6  UNL     1       1.699  -0.405   0.153  1.00  0.00    -0.190 N 
ATOM     12  H6  UNL     1       1.629  -0.463  -0.863  1.00  0.00     0.184 HD
HETATM   13  C14 UNL     1       2.900  -0.031   0.722  1.00  0.00     0.083 A 
HETATM   14  C15 UNL     1       4.074   0.293   0.121  1.00  0.00     0.027 A 
HETATM   15  C16 UNL     1       4.611   0.404  -1.178  1.00  0.00     0.105 A 
ENDROOT
BRANCH  10  16
HETATM   16  N4  UNL     1      -0.446  -1.031   0.274  1.00  0.00    -0.226 N 
ATOM     17  H4  UNL     1      -0.426  -1.062  -0.745  1.00  0.00     0.177 HD
BRANCH  16  18
HETATM   18  C7  UNL     1      -1.668  -1.367   0.926  1.00  0.00     0.140 C 
BRANCH  18  19
HETATM   19  C8  UNL     1      -2.567  -2.057  -0.076  1.00  0.00     0.050 C 
BRANCH  19  20
HETATM   20  C9  UNL     1      -2.879  -1.188  -1.260  1.00  0.00     0.274 C 
BRANCH  20  21
HETATM   21  N5  UNL     1      -3.549   0.005  -0.772  1.00  0.00     0.088 N 
HETATM   22  C10 UNL     1      -3.880   0.900  -1.892  1.00  0.00     0.272 C 
HETATM   23  C11 UNL     1      -4.727   1.935  -1.188  1.00  0.00     0.032 C 
HETATM   24  C12 UNL     1      -5.495   1.079  -0.190  1.00  0.00     0.032 C 
HETATM   25  C13 UNL     1      -4.877  -0.308  -0.281  1.00  0.00     0.272 C 
ENDBRANCH  20  21
ENDBRANCH  19  20
ENDBRANCH  18  19
ENDBRANCH  16  18
ENDBRANCH  10  16
BRANCH   7  26
HETATM   26  N2  UNL     1       1.845  -0.220   4.105  1.00  0.00    -0.384 N 
ATOM     27  H22 UNL     1       2.709   0.051   4.574  1.00  0.00     0.157 HD
ATOM     28  H21 UNL     1       1.010  -0.446   4.646  1.00  0.00     0.157 HD
ENDBRANCH   7  26
TORSDOF 6
