REMARK  5 active torsions:
REMARK  status: ('A' for Active; 'I' for Inactive)
REMARK    1  A    between atoms: C3_3  and  C4_4 
REMARK    2  A    between atoms: C4_4  and  O1_5 
REMARK    3  A    between atoms: O1_5  and  C5_6 
REMARK    4  A    between atoms: C10_17  and  C11_18 
REMARK    5  A    between atoms: N5_23  and  C14_25 
ROOT
HETATM    1  C1  UNL     1      -4.566   2.956   1.126  1.00  0.00     0.112 C 
HETATM    2  C2  UNL     1      -3.270   2.280   1.062  1.00  0.00    -0.109 C 
HETATM    3  C3  UNL     1      -2.171   1.730   1.002  1.00  0.00    -0.080 C 
ENDROOT
BRANCH   3   4
HETATM    4  C4  UNL     1      -0.863   1.145   0.912  1.00  0.00     0.269 C 
BRANCH   4   5
HETATM    5  O1  UNL     1      -0.790  -0.218   1.057  1.00  0.00    -0.337 OA
BRANCH   5   6
HETATM    6  C5  UNL     1      -1.363  -1.227   0.347  1.00  0.00     0.107 A 
HETATM    7  C6  UNL     1      -2.601  -1.744   0.704  1.00  0.00     0.040 A 
HETATM    8  C7  UNL     1      -3.268  -1.277   1.965  1.00  0.00     0.071 C 
HETATM    9  N1  UNL     1      -3.178  -2.716  -0.014  1.00  0.00    -0.365 N 
HETATM   10  C8  UNL     1      -2.595  -3.234  -1.097  1.00  0.00     0.120 A 
ATOM     11  H1  UNL     1      -4.090  -3.071   0.275  1.00  0.00     0.165 HD
HETATM   12  C9  UNL     1      -1.363  -2.763  -1.491  1.00  0.00     0.079 A 
HETATM   13  N2  UNL     1      -0.565  -3.112  -2.525  1.00  0.00    -0.298 N 
HETATM   14  C16 UNL     1      -0.711  -1.749  -0.778  1.00  0.00     0.059 A 
HETATM   15  N3  UNL     1       0.527  -2.405  -2.504  1.00  0.00    -0.297 N 
ATOM     16  H2  UNL     1      -0.787  -3.825  -3.220  1.00  0.00     0.187 HD
HETATM   17  C10 UNL     1       0.487  -1.536  -1.418  1.00  0.00     0.092 A 
ATOM     18  H3  UNL     1       1.291  -2.476  -3.176  1.00  0.00     0.187 HD
BRANCH  17  19
HETATM   19  C11 UNL     1       1.578  -0.631  -1.108  1.00  0.00     0.094 A 
HETATM   20  C12 UNL     1       2.375  -0.086  -2.114  1.00  0.00     0.138 A 
HETATM   21  N4  UNL     1       3.364   0.586  -1.542  1.00  0.00    -0.200 N 
HETATM   22  C13 UNL     1       3.262   0.513  -0.225  1.00  0.00     0.679 A 
ATOM     23  H4  UNL     1       4.097   1.087  -2.044  1.00  0.00     0.183 HD
HETATM   24  N5  UNL     1       4.057   1.052   0.624  1.00  0.00    -0.214 N 
HETATM   25  N7  UNL     1       2.159  -0.239   0.026  1.00  0.00    -0.188 N 
ATOM     26  H5  UNL     1       3.868   0.921   1.618  1.00  0.00     0.178 HD
ATOM     27  H7  UNL     1       1.820  -0.473   0.959  1.00  0.00     0.184 HD
BRANCH  24  28
HETATM   28  C14 UNL     1       5.209   1.838   0.239  1.00  0.00     0.262 C 
HETATM   29  C15 UNL     1       6.118   1.879   1.378  1.00  0.00     0.079 C 
HETATM   30  N6  UNL     1       6.838   1.914   2.284  1.00  0.00    -0.196 NA
ENDBRANCH  24  28
ENDBRANCH  17  19
ENDBRANCH   5   6
ENDBRANCH   4   5
ENDBRANCH   3   4
TORSDOF 5
