REMARK  4 active torsions:
REMARK  status: ('A' for Active; 'I' for Inactive)
REMARK    1  A    between atoms: C8_13  and  O1_14 
REMARK    2  A    between atoms: O1_14  and  C9_15 
REMARK    3  A    between atoms: C9_15  and  C10_16 
REMARK    4  A    between atoms: C10_16  and  N3_17 
ROOT
HETATM    1  N1  UNL     1      -4.897   1.620   2.298  1.00  0.00    -0.380 N 
ATOM      2  H11 UNL     1      -5.877   1.706   2.567  1.00  0.00     0.158 HD
ATOM      3  H12 UNL     1      -4.282   2.396   2.545  1.00  0.00     0.158 HD
HETATM    4  C1  UNL     1      -4.441   0.579   1.670  1.00  0.00     0.134 C 
HETATM    5  N2  UNL     1      -3.084   0.460   1.297  1.00  0.00    -0.362 N 
ATOM      6  H2  UNL     1      -2.415   1.019   1.827  1.00  0.00     0.162 HD
HETATM    7  C2  UNL     1      -2.551  -0.357   0.260  1.00  0.00     0.128 C 
HETATM    8  C3  UNL     1      -1.723   0.495  -0.643  1.00  0.00     0.025 A 
HETATM    9  C4  UNL     1      -2.358   1.149  -1.662  1.00  0.00     0.039 A 
HETATM   10  C5  UNL     1      -1.599   1.933  -2.487  1.00  0.00     0.030 A 
HETATM   11  C6  UNL     1      -0.247   2.060  -2.299  1.00  0.00     0.005 A 
HETATM   12  C7  UNL     1       0.378   1.399  -1.272  1.00  0.00     0.037 A 
HETATM   13  C8  UNL     1      -0.337   0.605  -0.424  1.00  0.00     0.079 A 
HETATM   14  N4  UNL     1      -3.760   0.985  -1.820  1.00  0.00    -0.389 N 
ATOM     15  H4  UNL     1      -4.299   1.732  -2.258  1.00  0.00     0.159 HD
HETATM   16  C15 UNL     1      -4.437  -0.194  -1.384  1.00  0.00     0.127 C 
HETATM   17  C16 UNL     1      -3.558  -1.092  -0.544  1.00  0.00     0.040 C 
HETATM   18  C17 UNL     1      -4.477  -1.946   0.304  1.00  0.00     0.091 C 
HETATM   19  S1  UNL     1      -5.527  -0.792   1.234  1.00  0.00    -0.094 SA
ENDROOT
BRANCH  13  20
HETATM   20  O1  UNL     1       0.184  -0.086   0.617  1.00  0.00    -0.349 OA
BRANCH  20  21
HETATM   21  C9  UNL     1       1.464  -0.232   1.114  1.00  0.00     0.206 C 
BRANCH  21  22
HETATM   22  C10 UNL     1       2.469  -0.887   0.222  1.00  0.00     0.299 C 
BRANCH  22  23
HETATM   23  N3  UNL     1       3.770  -0.957   0.911  1.00  0.00     0.090 N 
HETATM   24  C11 UNL     1       4.751  -1.606   0.050  1.00  0.00     0.272 C 
HETATM   25  C12 UNL     1       6.089  -1.012   0.426  1.00  0.00     0.032 C 
HETATM   26  C13 UNL     1       5.779   0.321   1.049  1.00  0.00     0.032 C 
HETATM   27  C14 UNL     1       4.272   0.402   0.956  1.00  0.00     0.272 C 
ENDBRANCH  22  23
ENDBRANCH  21  22
ENDBRANCH  20  21
ENDBRANCH  13  20
TORSDOF 4
