REMARK  5 active torsions:
REMARK  status: ('A' for Active; 'I' for Inactive)
REMARK    1  A    between atoms: C2_2  and  C4_4 
REMARK    2  A    between atoms: C5_5  and  C6_6 
REMARK    3  A    between atoms: C7_7  and  C8_8 
REMARK       I    between atoms: C8_8  and  N1_10 
REMARK    4  A    between atoms: N1_10  and  N2_12 
REMARK    5  A    between atoms: N2_12  and  S1_14 
ROOT
HETATM    1  C8  UNL     1      -1.663  -0.362   0.435  1.00  0.00     0.262 C 
HETATM    2  O1  UNL     1      -2.211   0.739   0.204  1.00  0.00    -0.267 OA
HETATM    3  N1  UNL     1      -2.408  -1.485   0.855  1.00  0.00    -0.253 N 
HETATM    4  C9  UNL     1      -1.721  -2.748   1.124  1.00  0.00     0.182 C 
ENDROOT
BRANCH   1   5
HETATM    5  C7  UNL     1      -0.206  -0.475   0.260  1.00  0.00     0.076 C 
HETATM    6  C6  UNL     1       0.478   0.569  -0.135  1.00  0.00     0.005 C 
BRANCH   6   7
HETATM    7  C5  UNL     1       1.926   0.433  -0.302  1.00  0.00    -0.003 C 
HETATM    8  C4  UNL     1       2.613   1.457  -0.691  1.00  0.00    -0.023 C 
BRANCH   8   9
HETATM    9  C2  UNL     1       4.078   1.418  -0.888  1.00  0.00    -0.000 C 
HETATM   10  C1  UNL     1       4.575   0.035  -0.609  1.00  0.00     0.013 C 
HETATM   11  C3  UNL     1       4.787   2.406   0.010  1.00  0.00     0.013 C 
ENDBRANCH   8   9
ENDBRANCH   6   7
ENDBRANCH   1   5
BRANCH   3  12
HETATM   12  N2  UNL     1      -3.761  -1.443   1.019  1.00  0.00    -0.223 N 
ATOM     13  H2  UNL     1      -4.194  -1.599   1.929  1.00  0.00     0.200 HD
BRANCH  12  14
HETATM   14  S1  UNL     1      -4.693  -1.117  -0.371  1.00  0.00     0.240 S 
HETATM   15  C10 UNL     1      -5.282   0.553  -0.304  1.00  0.00     0.187 C 
HETATM   16  O2  UNL     1      -5.830  -2.100  -0.464  1.00  0.00    -0.205 OA
HETATM   17  O3  UNL     1      -3.891  -1.281  -1.637  1.00  0.00    -0.205 OA
ENDBRANCH  12  14
ENDBRANCH   3  12
TORSDOF 5
