REMARK  5 active torsions:
REMARK  status: ('A' for Active; 'I' for Inactive)
REMARK    1  A    between atoms: C2_2  and  C3_3 
REMARK    2  A    between atoms: N1_5  and  C5_6 
REMARK    3  A    between atoms: C5_6  and  C6_7 
REMARK       I    between atoms: C6_7  and  N2_9 
REMARK    4  A    between atoms: N2_9  and  C7_11 
REMARK    5  A    between atoms: N3_16  and  C12_17 
ROOT
HETATM    1  C3  UNL     1      -1.863  -0.391   0.645  1.00  0.00     0.134 C 
HETATM    2  C4  UNL     1      -1.099   0.674   1.416  1.00  0.00     0.302 C 
HETATM    3  N1  UNL     1       0.106   1.034   0.694  1.00  0.00     0.104 N 
HETATM    4  C10 UNL     1      -0.152   1.318  -0.686  1.00  0.00     0.317 C 
HETATM    5  C11 UNL     1      -1.566   1.170  -1.141  1.00  0.00     0.089 C 
HETATM    6  N3  UNL     1      -2.350   0.168  -0.556  1.00  0.00    -0.378 N 
ENDROOT
BRANCH   3   7
HETATM    7  C5  UNL     1       1.159   0.073   0.910  1.00  0.00     0.375 C 
BRANCH   7   8
HETATM    8  C6  UNL     1       2.403   0.551   0.286  1.00  0.00     0.246 C 
HETATM    9  O1  UNL     1       2.431   1.650  -0.309  1.00  0.00    -0.272 OA
HETATM   10  N2  UNL     1       3.586  -0.235   0.355  1.00  0.00    -0.356 N 
ATOM     11  H2  UNL     1       3.578  -1.135   0.835  1.00  0.00     0.162 HD
BRANCH  10  12
HETATM   12  C7  UNL     1       4.796   0.250  -0.259  1.00  0.00     0.076 C 
HETATM   13  C8  UNL     1       5.816   0.440   0.846  1.00  0.00     0.032 C 
HETATM   14  C9  UNL     1       5.258  -0.743  -1.282  1.00  0.00     0.032 C 
ENDBRANCH  10  12
ENDBRANCH   7   8
ENDBRANCH   3   7
BRANCH   1  15
HETATM   15  C2  UNL     1      -2.840  -1.060   1.494  1.00  0.00    -0.010 C 
HETATM   16  C1  UNL     1      -2.631  -2.271   1.977  1.00  0.00     0.009 C 
ENDBRANCH   1  15
BRANCH   6  17
HETATM   17  C12 UNL     1      -3.730   0.165  -0.811  1.00  0.00     0.076 C 
HETATM   18  C13 UNL     1      -4.267  -1.244  -0.933  1.00  0.00     0.032 C 
HETATM   19  C14 UNL     1      -4.154   0.936  -2.030  1.00  0.00     0.032 C 
ENDBRANCH   6  17
TORSDOF 5
