REMARK  6 active torsions:
REMARK  status: ('A' for Active; 'I' for Inactive)
REMARK    1  A    between atoms: C2_2  and  N1_4 
REMARK    2  A    between atoms: C5_9  and  N3_10 
REMARK    3  A    between atoms: N5_16  and  C7_18 
REMARK    4  A    between atoms: C7_18  and  O1_19 
REMARK    5  A    between atoms: C8_23  and  C9_24 
REMARK    6  A    between atoms: C10_29  and  N9_30 
ROOT
HETATM    1  N1  UNL     1       1.323   1.258   0.518  1.00  0.00    -0.370 N 
ATOM      2  H1  UNL     1       0.491   0.936   1.012  1.00  0.00     0.161 HD
HETATM    3  C4  UNL     1       1.856   0.416  -0.229  1.00  0.00     0.148 C 
HETATM    4  N2  UNL     1       2.985   0.702  -0.969  1.00  0.00    -0.174 N 
ATOM      5  H2  UNL     1       3.072   1.657  -1.318  1.00  0.00     0.186 HD
HETATM    6  C5  UNL     1       3.996  -0.155  -1.283  1.00  0.00     0.692 C 
HETATM    7  N4  UNL     1       4.173  -1.413  -0.840  1.00  0.00    -0.023 N 
ATOM      8  H4  UNL     1       5.111  -1.796  -0.954  1.00  0.00     0.203 HD
HETATM    9  C6  UNL     1       3.266  -2.237  -0.262  1.00  0.00     0.695 C 
HETATM   10  N5  UNL     1       3.677  -3.294   0.283  1.00  0.00    -0.205 N 
ATOM     11  H5  UNL     1       2.954  -3.877   0.704  1.00  0.00     0.179 HD
HETATM   12  N6  UNL     1       1.918  -2.024  -0.191  1.00  0.00    -0.184 N 
ATOM     13  H6  UNL     1       1.343  -2.863  -0.119  1.00  0.00     0.184 HD
HETATM   14  C8  UNL     1       1.238  -0.845  -0.203  1.00  0.00     0.139 C 
ENDROOT
BRANCH  14  15
HETATM   15  C9  UNL     1      -0.205  -0.854  -0.139  1.00  0.00     0.167 A 
HETATM   16  N7  UNL     1      -0.836  -2.074   0.005  1.00  0.00    -0.269 N 
HETATM   17  N8  UNL     1      -2.103  -1.863   0.083  1.00  0.00    -0.130 N 
ATOM     18  H7  UNL     1      -0.377  -2.984   0.043  1.00  0.00     0.189 HD
HETATM   19  C10 UNL     1      -2.331  -0.525  -0.007  1.00  0.00     0.696 A 
ATOM     20  H8  UNL     1      -2.819  -2.581   0.194  1.00  0.00     0.205 HD
HETATM   21  N10 UNL     1      -1.130   0.074  -0.147  1.00  0.00    -0.172 N 
ATOM     22  H10 UNL     1      -0.970   1.077  -0.243  1.00  0.00     0.186 HD
BRANCH  19  23
HETATM   23  N9  UNL     1      -3.630  -0.007   0.075  1.00  0.00    -0.216 N 
HETATM   24  C11 UNL     1      -4.124   0.971  -0.845  1.00  0.00     0.141 C 
HETATM   25  C12 UNL     1      -5.661   1.040  -0.728  1.00  0.00     0.020 C 
HETATM   26  C13 UNL     1      -6.263  -0.326  -0.689  1.00  0.00     0.003 C 
HETATM   27  C14 UNL     1      -5.655  -1.187   0.370  1.00  0.00     0.020 C 
HETATM   28  C15 UNL     1      -4.529  -0.448   1.107  1.00  0.00     0.141 C 
ENDBRANCH  19  23
ENDBRANCH  14  15
BRANCH   1  29
HETATM   29  C2  UNL     1       1.701   2.591   0.781  1.00  0.00     0.075 C 
HETATM   30  C1  UNL     1       3.175   2.801   1.022  1.00  0.00     0.031 C 
HETATM   31  C3  UNL     1       1.242   3.628  -0.218  1.00  0.00     0.031 C 
ENDBRANCH   1  29
BRANCH   6  32
HETATM   32  N3  UNL     1       4.867   0.335  -2.107  1.00  0.00    -0.234 N 
ATOM     33  H32 UNL     1       4.733   1.289  -2.443  1.00  0.00     0.174 HD
ATOM     34  H31 UNL     1       5.624  -0.307  -2.342  1.00  0.00     0.174 HD
ENDBRANCH   6  32
BRANCH  10  35
HETATM   35  C7  UNL     1       5.003  -3.793   0.397  1.00  0.00     0.305 C 
BRANCH  35  36
HETATM   36  O1  UNL     1       5.038  -4.552   1.597  1.00  0.00    -0.382 OA
ATOM     37  H1  UNL     1       5.924  -4.886   1.673  1.00  0.00     0.211 HD
ENDBRANCH  35  36
ENDBRANCH  10  35
TORSDOF 6
