REMARK  8 active torsions:
REMARK  status: ('A' for Active; 'I' for Inactive)
REMARK    1  A    between atoms: C2_2  and  C3_4 
REMARK    2  A    between atoms: C3_4  and  N1_5 
REMARK    3  A    between atoms: C3_4  and  C5_10 
REMARK       I    between atoms: N1_5  and  C4_7 
REMARK    4  A    between atoms: C16_22  and  C18_24 
REMARK    5  A    between atoms: C18_24  and  C19_25 
REMARK    6  A    between atoms: C19_25  and  N4_26 
REMARK    7  A    between atoms: C19_25  and  C20_30 
REMARK    8  A    between atoms: N5_34  and  N6_36 
ROOT
HETATM    1  C5  UNL     1      -2.130  -0.754  -0.593  1.00  0.00     0.072 C 
HETATM    2  C6  UNL     1      -2.755   0.582  -1.092  1.00  0.00     0.048 C 
HETATM    3  C7  UNL     1      -1.863   1.513  -0.271  1.00  0.00    -0.067 C 
HETATM    4  C8  UNL     1      -2.575   1.954   0.737  1.00  0.00    -0.018 C 
HETATM    5  C9  UNL     1      -2.278   2.864   1.862  1.00  0.00     0.072 C 
HETATM    6  C10 UNL     1      -0.846   3.095   2.056  1.00  0.00     0.068 C 
HETATM    7  N3  UNL     1       0.061   3.138   1.203  1.00  0.00    -0.361 N 
HETATM    8  C11 UNL     1       1.293   3.246   0.489  1.00  0.00     0.091 A 
HETATM    9  C12 UNL     1       0.089   2.926  -0.190  1.00  0.00     0.143 A 
HETATM   10  C13 UNL     1      -0.438   1.693  -0.697  1.00  0.00     0.034 C 
HETATM   11  C14 UNL     1      -0.663   2.028  -2.230  1.00  0.00     0.028 C 
HETATM   12  C15 UNL     1       0.137   0.343  -0.602  1.00  0.00    -0.013 C 
HETATM   13  C16 UNL     1       1.519  -0.064  -0.560  1.00  0.00    -0.054 C 
HETATM   14  C17 UNL     1       2.462   0.382  -1.607  1.00  0.00     0.048 C 
HETATM   15  C23 UNL     1      -0.808  -0.632  -1.265  1.00  0.00     0.040 C 
HETATM   16  N5  UNL     1      -0.554  -1.246  -2.328  1.00  0.00    -0.310 N 
ATOM     17  H5  UNL     1       0.390  -1.073  -2.673  1.00  0.00     0.186 HD
ENDROOT
BRANCH  13  18
HETATM   18  C18 UNL     1       2.068  -0.469   0.777  1.00  0.00     0.013 C 
BRANCH  18  19
HETATM   19  C19 UNL     1       3.443  -0.912   0.949  1.00  0.00     0.210 C 
BRANCH  19  20
HETATM   20  N4  UNL     1       3.540  -1.282   2.416  1.00  0.00    -0.071 N 
ATOM     21  H43 UNL     1       3.260  -0.537   3.053  1.00  0.00     0.275 HD
ATOM     22  H42 UNL     1       2.842  -1.960   2.722  1.00  0.00     0.275 HD
ATOM     23  H41 UNL     1       4.504  -1.593   2.537  1.00  0.00     0.275 HD
ENDBRANCH  19  20
BRANCH  19  24
HETATM   24  C20 UNL     1       4.573   0.053   0.805  1.00  0.00     0.011 C 
HETATM   25  C21 UNL     1       5.878  -0.771   1.057  1.00  0.00     0.012 C 
HETATM   26  C22 UNL     1       4.586   1.090   1.918  1.00  0.00     0.012 C 
ENDBRANCH  19  24
ENDBRANCH  18  19
ENDBRANCH  13  18
BRANCH   1  27
HETATM   27  C3  UNL     1      -2.978  -1.903  -0.772  1.00  0.00     0.165 C 
BRANCH  27  28
HETATM   28  C2  UNL     1      -2.432  -3.169  -0.231  1.00  0.00     0.146 C 
HETATM   29  C1  UNL     1      -1.041  -3.378   0.203  1.00  0.00     0.093 C 
HETATM   30  O1  UNL     1      -3.180  -4.159  -0.113  1.00  0.00    -0.296 OA
ENDBRANCH  27  28
BRANCH  27  31
HETATM   31  N1  UNL     1      -4.298  -1.758  -0.135  1.00  0.00    -0.333 N 
HETATM   32  C4  UNL     1      -5.456  -1.949  -0.894  1.00  0.00     0.329 C 
HETATM   33  N2  UNL     1      -6.757  -1.811  -0.286  1.00  0.00    -0.040 NA
HETATM   34  O2  UNL     1      -5.352  -2.242  -2.111  1.00  0.00    -0.251 OA
ATOM     35  H1  UNL     1      -4.367  -1.520   0.854  1.00  0.00     0.164 HD
ENDBRANCH  27  31
ENDBRANCH   1  27
BRANCH  16  36
HETATM   36  N6  UNL     1      -1.268  -2.098  -3.127  1.00  0.00    -0.345 N 
ATOM     37  H62 UNL     1      -2.208  -2.256  -2.764  1.00  0.00     0.176 HD
ATOM     38  H61 UNL     1      -1.061  -2.598  -3.992  1.00  0.00     0.176 HD
ENDBRANCH  16  36
TORSDOF 8
