REMARK  8 active torsions:
REMARK  status: ('A' for Active; 'I' for Inactive)
REMARK    1  A    between atoms: N1_1  and  C1_4 
REMARK    2  A    between atoms: C2_5  and  C3_6 
REMARK    3  A    between atoms: C4_7  and  C5_8 
REMARK    4  A    between atoms: C6_9  and  C7_10 
REMARK    5  A    between atoms: C7_10  and  C8_13 
REMARK       I    between atoms: C8_13  and  N2_15 
REMARK    6  A    between atoms: N2_15  and  C9_17 
REMARK    7  A    between atoms: C9_17  and  C10_18 
REMARK    8  A    between atoms: C10_18  and  C11_19 
ROOT
HETATM    1  C8  UNL     1       0.474   0.909  -1.623  1.00  0.00     0.260 C 
HETATM    2  O1  UNL     1      -0.120   2.011  -1.563  1.00  0.00    -0.270 OA
HETATM    3  N2  UNL     1      -0.034  -0.183  -0.890  1.00  0.00    -0.358 N 
ATOM      4  H2  UNL     1       0.472  -1.066  -0.958  1.00  0.00     0.162 HD
ENDROOT
BRANCH   1   5
HETATM    5  C7  UNL     1       1.683   0.743  -2.443  1.00  0.00     0.219 C 
HETATM    6 BR1  UNL     1       1.459  -0.651  -3.785  1.00  0.00    -0.048 Br
HETATM    7 BR2  UNL     1       2.114   2.373  -3.392  1.00  0.00    -0.048 Br
BRANCH   5   8
HETATM    8  C6  UNL     1       2.794   0.337  -1.553  1.00  0.00    -0.049 C 
HETATM    9  C5  UNL     1       3.689   0.012  -0.811  1.00  0.00    -0.011 C 
BRANCH   9  10
HETATM   10  C4  UNL     1       4.729  -0.368   0.082  1.00  0.00    -0.001 C 
HETATM   11  C3  UNL     1       5.600  -0.689   0.858  1.00  0.00     0.001 C 
BRANCH  11  12
HETATM   12  C2  UNL     1       6.608  -1.053   1.783  1.00  0.00     0.009 C 
HETATM   13  C1  UNL     1       7.455  -1.364   2.585  1.00  0.00     0.017 C 
BRANCH  13  14
HETATM   14  N1  UNL     1       8.425  -1.734   3.533  1.00  0.00    -0.359 N 
ATOM     15  H12 UNL     1       7.414  -1.750   3.402  1.00  0.00     0.166 HD
ATOM     16  H11 UNL     1       9.141  -1.997   4.211  1.00  0.00     0.166 HD
ENDBRANCH  13  14
ENDBRANCH  11  12
ENDBRANCH   9  10
ENDBRANCH   5   8
ENDBRANCH   1   5
BRANCH   3  17
HETATM   17  C9  UNL     1      -1.207  -0.159  -0.052  1.00  0.00     0.128 C 
BRANCH  17  18
HETATM   18  C10 UNL     1      -2.442   0.190  -0.823  1.00  0.00     0.078 C 
BRANCH  18  19
HETATM   19  C11 UNL     1      -3.651   0.211   0.038  1.00  0.00     0.030 A 
HETATM   20  C12 UNL     1      -4.906   0.504  -0.433  1.00  0.00     0.118 A 
HETATM   21  N3  UNL     1      -5.777   0.438   0.596  1.00  0.00    -0.317 N 
HETATM   22  C13 UNL     1      -5.087   0.109   1.699  1.00  0.00     0.324 A 
ATOM     23  H3  UNL     1      -6.781   0.608   0.544  1.00  0.00     0.170 HD
HETATM   24  O2  UNL     1      -5.500  -0.062   2.886  1.00  0.00    -0.247 OA
HETATM   25  N4  UNL     1      -3.789  -0.028   1.348  1.00  0.00    -0.311 N 
ATOM     26  H4  UNL     1      -3.031  -0.276   1.984  1.00  0.00     0.170 HD
ENDBRANCH  18  19
ENDBRANCH  17  18
ENDBRANCH   3  17
TORSDOF 8
