REMARK  3 active torsions:
REMARK  status: ('A' for Active; 'I' for Inactive)
REMARK    1  A    between atoms: C5_11  and  C6_12 
REMARK    2  A    between atoms: C7_17  and  N6_18 
REMARK    3  A    between atoms: C8_23  and  N8_24 
ROOT
HETATM    1  C1  UNL     1      -4.841   0.591  -0.610  1.00  0.00     0.074 C 
HETATM    2  C2  UNL     1      -3.419   0.816  -0.877  1.00  0.00     0.067 A 
HETATM    3  N1  UNL     1      -3.060   1.632  -1.882  1.00  0.00    -0.298 N 
ATOM      4  H1  UNL     1      -3.787   2.080  -2.440  1.00  0.00     0.187 HD
HETATM    5  N2  UNL     1      -1.809   1.868  -2.164  1.00  0.00    -0.251 N 
ATOM      6  H2  UNL     1      -1.589   2.495  -2.938  1.00  0.00     0.191 HD
HETATM    7  C3  UNL     1      -0.775   1.300  -1.454  1.00  0.00     0.347 A 
HETATM    8  O1  UNL     1       0.355   1.601  -1.825  1.00  0.00    -0.245 OA
HETATM    9  N3  UNL     1      -1.075   0.486  -0.448  1.00  0.00    -0.241 N 
HETATM   10  C4  UNL     1      -0.293  -0.247   0.437  1.00  0.00     0.111 A 
HETATM   11  C5  UNL     1       1.030  -0.469   0.689  1.00  0.00     0.085 A 
HETATM   12  S1  UNL     1       0.952  -1.607   2.013  1.00  0.00    -0.008 SA
HETATM   13  N9  UNL     1      -0.675  -1.731   2.172  1.00  0.00    -0.310 N 
ATOM     14  H9  UNL     1      -1.199  -2.299   2.838  1.00  0.00     0.176 HD
HETATM   15  C9  UNL     1      -1.158  -0.917   1.228  1.00  0.00     0.144 A 
HETATM   16  N10 UNL     1      -2.439  -0.627   0.877  1.00  0.00    -0.319 N 
HETATM   17  C10 UNL     1      -3.656  -1.129   1.473  1.00  0.00     0.159 C 
HETATM   18  C11 UNL     1      -2.392   0.234  -0.151  1.00  0.00     0.144 A 
ENDROOT
BRANCH  11  19
HETATM   19  C6  UNL     1       2.314  -0.043   0.163  1.00  0.00     0.113 A 
HETATM   20  N4  UNL     1       2.669   1.071  -0.389  1.00  0.00    -0.281 N 
HETATM   21  N5  UNL     1       3.873   1.396  -0.738  1.00  0.00    -0.132 N 
ATOM     22  H4  UNL     1       1.934   1.756  -0.566  1.00  0.00     0.187 HD
HETATM   23  C7  UNL     1       4.932   0.573  -0.554  1.00  0.00     0.692 A 
ATOM     24  H5  UNL     1       4.029   2.307  -1.168  1.00  0.00     0.205 HD
HETATM   25  N7  UNL     1       4.629  -0.603   0.017  1.00  0.00    -0.174 N 
HETATM   26  C8  UNL     1       3.392  -0.940   0.376  1.00  0.00     0.144 A 
ATOM     27  H7  UNL     1       5.382  -1.270   0.184  1.00  0.00     0.186 HD
BRANCH  23  28
HETATM   28  N6  UNL     1       6.127   0.898  -0.901  1.00  0.00    -0.233 N 
ATOM     29  H62 UNL     1       6.357   1.792  -1.335  1.00  0.00     0.174 HD
ATOM     30  H61 UNL     1       6.925   0.278  -0.762  1.00  0.00     0.174 HD
ENDBRANCH  23  28
BRANCH  26  31
HETATM   31  N8  UNL     1       3.166  -2.112   0.924  1.00  0.00    -0.383 N 
ATOM     32  H82 UNL     1       2.218  -2.370   1.199  1.00  0.00     0.157 HD
ATOM     33  H81 UNL     1       3.941  -2.757   1.077  1.00  0.00     0.157 HD
ENDBRANCH  26  31
ENDBRANCH  11  19
TORSDOF 3
