REMARK  6 active torsions:
REMARK  status: ('A' for Active; 'I' for Inactive)
REMARK    1  A    between atoms: C2_2  and  C5_5 
REMARK    2  A    between atoms: C5_5  and  N1_6 
REMARK    3  A    between atoms: C5_5  and  C13_24 
REMARK       I    between atoms: C6_8  and  N3_10 
REMARK    4  A    between atoms: N3_10  and  C7_12 
REMARK    5  A    between atoms: C7_12  and  N4_14 
REMARK    6  A    between atoms: N4_14  and  C8_16 
ROOT
HETATM    1  N1  UNL     1      -1.203  -0.009   0.012  1.00  0.00    -0.349 N 
ATOM      2  H1  UNL     1      -1.139   0.998  -0.135  1.00  0.00     0.163 HD
HETATM    3  C6  UNL     1      -0.118  -0.649  -0.093  1.00  0.00     0.191 C 
HETATM    4  N2  UNL     1       0.024  -2.053   0.072  1.00  0.00    -0.063 NA
HETATM    5  N3  UNL     1       1.067   0.080  -0.400  1.00  0.00    -0.307 N 
ATOM      6  H3  UNL     1       1.305   0.908   0.146  1.00  0.00     0.171 HD
ENDROOT
BRANCH   5   7
HETATM    7  C7  UNL     1       1.928  -0.336  -1.467  1.00  0.00     0.178 C 
HETATM    8  S1  UNL     1       1.523  -1.664  -2.326  1.00  0.00    -0.040 SA
BRANCH   7   9
HETATM    9  N4  UNL     1       3.092   0.420  -1.734  1.00  0.00    -0.332 N 
ATOM     10  H4  UNL     1       3.082   1.056  -2.531  1.00  0.00     0.168 HD
BRANCH   9  11
HETATM   11  C8  UNL     1       4.165   0.349  -1.024  1.00  0.00     0.054 A 
HETATM   12  C9  UNL     1       4.238  -0.492   0.063  1.00  0.00     0.048 A 
HETATM   13  C10 UNL     1       5.396  -0.568   0.828  1.00  0.00     0.090 A 
HETATM   14  N5  UNL     1       6.457   0.174   0.519  1.00  0.00    -0.374 N 
HETATM   15  C11 UNL     1       6.411   1.005  -0.540  1.00  0.00     0.109 A 
ATOM     16  H5  UNL     1       7.304   0.113   1.084  1.00  0.00     0.164 HD
HETATM   17  C12 UNL     1       5.266   1.113  -1.336  1.00  0.00     0.053 A 
HETATM   18 BR1  UNL     1       5.233   2.289  -2.817  1.00  0.00    -0.047 Br
ENDBRANCH   9  11
ENDBRANCH   7   9
ENDBRANCH   5   7
BRANCH   1  19
HETATM   19  C5  UNL     1      -2.497  -0.508   0.308  1.00  0.00     0.192 C 
BRANCH  19  20
HETATM   20  C2  UNL     1      -3.526   0.585   0.085  1.00  0.00    -0.021 C 
HETATM   21  C1  UNL     1      -3.506   1.061  -1.352  1.00  0.00     0.017 C 
HETATM   22  C3  UNL     1      -3.164   1.769   0.952  1.00  0.00     0.017 C 
HETATM   23  C4  UNL     1      -4.916   0.164   0.416  1.00  0.00     0.017 C 
ENDBRANCH  19  20
BRANCH  19  24
HETATM   24  C13 UNL     1      -2.628  -1.143   1.624  1.00  0.00     0.197 C 
HETATM   25  O1  UNL     1      -1.658  -1.241   2.441  1.00  0.00    -0.646 OA
HETATM   26  O2  UNL     1      -3.828  -1.684   2.068  1.00  0.00    -0.646 OA
ENDBRANCH  19  24
ENDBRANCH   1  19
TORSDOF 6
