REMARK  4 active torsions:
REMARK  status: ('A' for Active; 'I' for Inactive)
REMARK    1  A    between atoms: O1_2  and  C2_3 
REMARK    2  A    between atoms: C2_3  and  C3_4 
REMARK    3  A    between atoms: C13_20  and  C14_21 
REMARK       I    between atoms: C14_21  and  N3_23 
REMARK    4  A    between atoms: N3_23  and  C15_25 
ROOT
HETATM    1  C3  UNL     1      -2.510   0.048  -0.022  1.00  0.00     0.153 C 
HETATM    2  C4  UNL     1      -1.492  -0.103  -1.071  1.00  0.00     0.079 C 
HETATM    3  C5  UNL     1      -0.116   0.312  -0.947  1.00  0.00     0.259 C 
HETATM    4  C6  UNL     1       0.663   0.101   0.272  1.00  0.00     0.262 C 
HETATM    5  N1  UNL     1      -0.025  -0.638   1.255  1.00  0.00    -0.060 N 
ATOM      6  H11 UNL     1       0.625  -1.175   1.829  1.00  0.00     0.278 HD
ATOM      7  H12 UNL     1      -0.549  -1.406   0.834  1.00  0.00     0.278 HD
HETATM    8  C7  UNL     1      -0.866   0.166   2.061  1.00  0.00     0.221 C 
HETATM    9  C8  UNL     1      -2.207  -0.531   2.166  1.00  0.00     0.218 C 
HETATM   10  C9  UNL     1      -3.246   0.598   2.067  1.00  0.00     0.043 C 
HETATM   11  C10 UNL     1      -2.545   1.235   0.850  1.00  0.00     0.032 C 
HETATM   12  C11 UNL     1      -1.221   1.516   1.556  1.00  0.00     0.021 C 
HETATM   13  C12 UNL     1      -1.433   2.413   2.786  1.00  0.00     0.012 C 
HETATM   14  N2  UNL     1      -2.458  -1.136   0.857  1.00  0.00    -0.057 N 
ATOM     15  H21 UNL     1      -1.789  -1.853   0.577  1.00  0.00     0.278 HD
ATOM     16  H22 UNL     1      -3.275  -1.744   0.812  1.00  0.00     0.278 HD
HETATM   17  C13 UNL     1       1.711  -0.652  -0.542  1.00  0.00     0.347 C 
HETATM   18  N6  UNL     1       0.807  -0.619  -1.623  1.00  0.00     0.107 N 
HETATM   19  C18 UNL     1       1.197  -0.218  -2.921  1.00  0.00     0.311 C 
ENDROOT
BRANCH  17  20
HETATM   20  C14 UNL     1       2.980   0.092  -0.750  1.00  0.00     0.259 C 
HETATM   21  O2  UNL     1       3.286   0.731  -1.768  1.00  0.00    -0.271 OA
HETATM   22  N3  UNL     1       3.990   0.114   0.287  1.00  0.00    -0.310 N 
ATOM     23  H3  UNL     1       3.767   0.449   1.224  1.00  0.00     0.170 HD
BRANCH  22  24
HETATM   24  C15 UNL     1       5.189  -0.303  -0.001  1.00  0.00     0.125 A 
HETATM   25  C16 UNL     1       6.227  -0.327   0.907  1.00  0.00     0.093 A 
HETATM   26  C17 UNL     1       7.336  -0.830   0.235  1.00  0.00     0.121 A 
HETATM   27 CL1  UNL     1       8.941  -1.085   0.890  1.00  0.00    -0.063 Cl
HETATM   28  N4  UNL     1       6.954  -1.091  -1.024  1.00  0.00    -0.288 N 
HETATM   29  N5  UNL     1       5.672  -0.774  -1.159  1.00  0.00    -0.284 N 
ATOM     30  H4  UNL     1       7.551  -1.471  -1.758  1.00  0.00     0.188 HD
ATOM     31  H5  UNL     1       5.133  -0.874  -2.019  1.00  0.00     0.188 HD
ENDBRANCH  22  24
ENDBRANCH  17  20
BRANCH   1  32
HETATM   32  C2  UNL     1      -3.857  -0.027  -0.729  1.00  0.00     0.206 C 
BRANCH  32  33
HETATM   33  O1  UNL     1      -3.930  -1.227  -1.478  1.00  0.00    -0.393 OA
HETATM   34  C1  UNL     1      -5.175  -1.238  -2.096  1.00  0.00     0.201 C 
ENDBRANCH  32  33
ENDBRANCH   1  32
TORSDOF 4
