REMARK  9 active torsions:
REMARK  status: ('A' for Active; 'I' for Inactive)
REMARK    1  A    between atoms: O1_2  and  C2_3 
REMARK    2  A    between atoms: C2_3  and  C4_5 
REMARK    3  A    between atoms: C4_5  and  C5_6 
REMARK    4  A    between atoms: C4_5  and  C14_23 
REMARK    5  A    between atoms: C5_6  and  O2_7 
REMARK    6  A    between atoms: C5_6  and  N1_9 
REMARK    7  A    between atoms: N1_9  and  C6_11 
REMARK    8  A    between atoms: C6_11  and  C8_13 
REMARK       I    between atoms: C8_13  and  N2_15 
REMARK    9  A    between atoms: C12_19  and  C13_20 
ROOT
HETATM    1  N1  UNL     1      -0.311   0.464   0.727  1.00  0.00    -0.384 N 
ATOM      2  H1  UNL     1      -0.837   0.451   1.601  1.00  0.00     0.156 HD
ENDROOT
BRANCH   1   3
HETATM    3  C5  UNL     1      -0.961   0.407  -0.536  1.00  0.00     0.221 C 
BRANCH   3   4
HETATM    4  C4  UNL     1      -2.476   0.691  -0.317  1.00  0.00     0.067 C 
BRANCH   4   5
HETATM    5  C2  UNL     1      -3.213   0.371  -1.568  1.00  0.00     0.125 C 
HETATM    6  C3  UNL     1      -4.723   0.605  -1.478  1.00  0.00     0.040 C 
BRANCH   5   7
HETATM    7  O1  UNL     1      -2.752   1.104  -2.682  1.00  0.00    -0.391 OA
HETATM    8  C1  UNL     1      -2.433   0.272  -3.749  1.00  0.00     0.202 C 
ENDBRANCH   5   7
ENDBRANCH   4   5
BRANCH   4   9
HETATM    9  C14 UNL     1      -2.949  -0.119   0.834  1.00  0.00     0.000 A 
HETATM   10  C15 UNL     1      -4.348  -0.006   1.315  1.00  0.00     0.010 A 
HETATM   11  C16 UNL     1      -3.154   0.389   2.199  1.00  0.00    -0.014 A 
HETATM   12  C17 UNL     1      -2.953  -0.508   3.377  1.00  0.00     0.010 C 
ENDBRANCH   4   9
ENDBRANCH   3   4
BRANCH   3  13
HETATM   13  O2  UNL     1      -0.451   1.177  -1.542  1.00  0.00    -0.377 OA
ATOM     14  H2  UNL     1       0.473   1.004  -1.676  1.00  0.00     0.212 HD
ENDBRANCH   3  13
ENDBRANCH   1   3
BRANCH   1  15
HETATM   15  C6  UNL     1       1.131   0.541   0.711  1.00  0.00     0.167 C 
HETATM   16  C7  UNL     1       1.646   1.778   0.057  1.00  0.00     0.042 C 
BRANCH  15  17
HETATM   17  C8  UNL     1       1.779  -0.702   0.305  1.00  0.00     0.242 C 
HETATM   18  O3  UNL     1       1.033  -1.699   0.030  1.00  0.00    -0.271 OA
HETATM   19  N2  UNL     1       3.179  -0.916   0.186  1.00  0.00    -0.336 N 
HETATM   20  C9  UNL     1       3.708  -2.249  -0.209  1.00  0.00     0.127 C 
HETATM   21  C12 UNL     1       4.308  -0.072   0.352  1.00  0.00     0.188 C 
HETATM   22  C10 UNL     1       4.835  -1.836  -1.152  1.00  0.00     0.022 C 
HETATM   23  C11 UNL     1       5.463  -0.733  -0.346  1.00  0.00     0.038 C 
BRANCH  21  24
HETATM   24  C13 UNL     1       4.647   0.272   1.754  1.00  0.00     0.196 C 
HETATM   25  O4  UNL     1       5.594   1.046   1.966  1.00  0.00    -0.646 OA
HETATM   26  O5  UNL     1       3.924  -0.257   2.788  1.00  0.00    -0.646 OA
ENDBRANCH  21  24
ENDBRANCH  15  17
ENDBRANCH   1  15
TORSDOF 9
