REMARK  2 active torsions:
REMARK  status: ('A' for Active; 'I' for Inactive)
REMARK    1  A    between atoms: C4_5  and  O1_6 
REMARK    2  A    between atoms: C15_19  and  O2_20 
ROOT
HETATM    1  N1  UNL     1      -5.063  -1.082  -2.642  1.00  0.00    -0.195 NA
HETATM    2  C1  UNL     1      -4.086  -0.783  -2.100  1.00  0.00     0.085 C 
HETATM    3  C2  UNL     1      -2.837  -0.401  -1.386  1.00  0.00     0.195 C 
HETATM    4  C3  UNL     1      -2.789   1.069  -1.095  1.00  0.00     0.112 C 
HETATM    5  C4  UNL     1      -2.444   1.427   0.319  1.00  0.00     0.275 C 
HETATM    6  C5  UNL     1      -3.177   0.578   1.328  1.00  0.00     0.116 C 
HETATM    7  C6  UNL     1      -3.352  -0.850   0.924  1.00  0.00     0.064 C 
HETATM    8  N2  UNL     1      -2.735  -1.237  -0.263  1.00  0.00    -0.374 N 
HETATM    9  C7  UNL     1      -1.753  -2.241  -0.258  1.00  0.00     0.155 C 
HETATM   10  C8  UNL     1      -0.605  -1.908   0.708  1.00  0.00     0.144 C 
HETATM   11  C9  UNL     1       0.731  -2.265   0.104  1.00  0.00     0.034 C 
HETATM   12  C10 UNL     1       1.803  -2.540   1.084  1.00  0.00     0.002 C 
HETATM   13  C11 UNL     1       2.890  -1.522   1.233  1.00  0.00     0.000 C 
HETATM   14  C12 UNL     1       3.706  -1.244   0.043  1.00  0.00     0.000 C 
HETATM   15  C13 UNL     1       3.490  -0.000  -0.714  1.00  0.00     0.002 C 
HETATM   16  C14 UNL     1       3.267   1.260   0.016  1.00  0.00     0.032 C 
HETATM   17  C15 UNL     1       2.302   2.177  -0.750  1.00  0.00     0.122 C 
HETATM   18  C16 UNL     1       1.139   2.624   0.130  1.00  0.00     0.096 C 
HETATM   19  C17 UNL     1      -0.145   1.991  -0.332  1.00  0.00     0.375 C 
HETATM   20  O3  UNL     1       0.041   0.604  -0.557  1.00  0.00    -0.300 OA
HETATM   21  C18 UNL     1      -0.270   0.426   0.777  1.00  0.00     0.518 C 
HETATM   22  O4  UNL     1      -0.817  -0.698   1.173  1.00  0.00    -0.330 OA
HETATM   23  N3  UNL     1      -1.093   1.605   0.651  1.00  0.00     0.207 N 
ENDROOT
BRANCH   5  24
HETATM   24  O1  UNL     1      -3.003   2.730   0.502  1.00  0.00    -0.362 OA
ATOM     25  H1  UNL     1      -2.784   2.957   1.398  1.00  0.00     0.212 HD
ENDBRANCH   5  24
BRANCH  17  26
HETATM   26  O2  UNL     1       2.964   3.240  -1.341  1.00  0.00    -0.395 OA
ATOM     27  H2  UNL     1       2.367   3.807  -1.815  1.00  0.00     0.210 HD
ENDBRANCH  17  26
TORSDOF 2
