REMARK  3 active torsions:
REMARK  status: ('A' for Active; 'I' for Inactive)
REMARK       I    between atoms: C1_2  and  N3_19 
REMARK       I    between atoms: N2_3  and  C2_5 
REMARK    1  A    between atoms: C2_5  and  C3_7 
REMARK    2  A    between atoms: C7_11  and  C8_12 
REMARK    3  A    between atoms: N3_19  and  C14_21 
ROOT
HETATM    1  C3  UNL     1       0.768   0.637   0.846  1.00  0.00     0.093 C 
HETATM    2  C4  UNL     1       0.176   1.779   1.647  1.00  0.00     0.042 C 
HETATM    3  C5  UNL     1       1.400   2.375   2.276  1.00  0.00    -0.029 C 
HETATM    4  C6  UNL     1       2.471   2.049   1.562  1.00  0.00    -0.021 C 
HETATM    5  C7  UNL     1       2.077   1.212   0.395  1.00  0.00     0.054 C 
ENDROOT
BRANCH   1   6
HETATM    6  C2  UNL     1      -0.153   0.331  -0.259  1.00  0.00     0.229 C 
HETATM    7  N2  UNL     1      -1.476  -0.067   0.054  1.00  0.00    -0.301 N 
HETATM    8  C1  UNL     1      -2.518   0.347  -0.542  1.00  0.00     0.191 C 
ATOM      9  H2  UNL     1      -1.601  -0.735   0.814  1.00  0.00     0.171 HD
HETATM   10  N1  UNL     1      -2.418   1.265  -1.593  1.00  0.00    -0.063 NA
HETATM   11  N3  UNL     1      -3.796  -0.121  -0.142  1.00  0.00    -0.360 N 
ATOM     12  H3  UNL     1      -4.416   0.484   0.398  1.00  0.00     0.162 HD
HETATM   13  O1  UNL     1       0.215   0.417  -1.464  1.00  0.00    -0.273 OA
BRANCH  11  14
HETATM   14  C14 UNL     1      -4.222  -1.466  -0.503  1.00  0.00     0.084 A 
HETATM   15  C15 UNL     1      -5.551  -1.954  -0.088  1.00  0.00     0.027 A 
HETATM   16  C16 UNL     1      -5.261  -1.615  -1.546  1.00  0.00     0.027 A 
ENDBRANCH  11  14
ENDBRANCH   1   6
BRANCH   5  17
HETATM   17  C8  UNL     1       3.107   0.200   0.122  1.00  0.00    -0.049 A 
HETATM   18  C9  UNL     1       3.753   0.164  -1.098  1.00  0.00     0.011 A 
HETATM   19  C10 UNL     1       4.731  -0.785  -1.374  1.00  0.00     0.043 A 
HETATM   20  C11 UNL     1       5.074  -1.719  -0.419  1.00  0.00     0.116 A 
HETATM   21  F1  UNL     1       6.017  -2.667  -0.631  1.00  0.00    -0.206 F 
HETATM   22  C12 UNL     1       4.420  -1.669   0.792  1.00  0.00     0.043 A 
HETATM   23  C13 UNL     1       3.456  -0.727   1.054  1.00  0.00     0.011 A 
ENDBRANCH   5  17
TORSDOF 3
