REMARK  4 active torsions:
REMARK  status: ('A' for Active; 'I' for Inactive)
REMARK    1  A    between atoms: C2_2  and  C3_3 
REMARK    2  A    between atoms: C2_2  and  N1_11 
REMARK    3  A    between atoms: C3_3  and  C4_4 
REMARK       I    between atoms: C10_13  and  N3_15 
REMARK    4  A    between atoms: N3_15  and  C11_17 
ROOT
HETATM    1  N1  UNL     1       0.084  -1.436   0.236  1.00  0.00    -0.360 N 
ATOM      2  H1  UNL     1      -0.187  -2.064   0.993  1.00  0.00     0.162 HD
HETATM    3  C10 UNL     1      -0.841  -0.965  -0.546  1.00  0.00     0.184 C 
HETATM    4  N2  UNL     1      -0.402  -0.088  -1.592  1.00  0.00    -0.064 NA
HETATM    5  N3  UNL     1      -2.208  -1.287  -0.392  1.00  0.00    -0.360 N 
ATOM      6  H3  UNL     1      -2.475  -2.151   0.080  1.00  0.00     0.162 HD
ENDROOT
BRANCH   1   7
HETATM    7  C2  UNL     1       1.483  -1.105   0.076  1.00  0.00     0.084 C 
HETATM    8  C1  UNL     1       2.372  -2.244   0.580  1.00  0.00     0.032 C 
BRANCH   7   9
HETATM    9  C3  UNL     1       1.819   0.116   0.878  1.00  0.00     0.063 C 
BRANCH   9  10
HETATM   10  C4  UNL     1       3.214   0.547   0.768  1.00  0.00    -0.056 A 
HETATM   11  C5  UNL     1       4.148   0.062   1.653  1.00  0.00     0.010 A 
HETATM   12  C6  UNL     1       5.487   0.460   1.565  1.00  0.00     0.043 A 
HETATM   13  C7  UNL     1       5.912   1.342   0.599  1.00  0.00     0.116 A 
HETATM   14  F1  UNL     1       7.197   1.745   0.489  1.00  0.00    -0.206 F 
HETATM   15  C8  UNL     1       4.982   1.837  -0.297  1.00  0.00     0.043 A 
HETATM   16  C9  UNL     1       3.673   1.432  -0.191  1.00  0.00     0.010 A 
ENDBRANCH   9  10
ENDBRANCH   7   9
ENDBRANCH   1   7
BRANCH   5  17
HETATM   17  C11 UNL     1      -3.213  -0.417  -0.890  1.00  0.00     0.088 C 
HETATM   18  C12 UNL     1      -4.629  -0.963  -0.613  1.00  0.00     0.030 C 
HETATM   19  C13 UNL     1      -5.218   0.246   0.050  1.00  0.00    -0.012 C 
HETATM   20  C14 UNL     1      -4.139   0.597   1.060  1.00  0.00     0.011 C 
HETATM   21  C16 UNL     1      -4.653   1.420  -0.761  1.00  0.00     0.011 C 
HETATM   22  C15 UNL     1      -3.321   0.896  -0.204  1.00  0.00     0.009 C 
ENDBRANCH   5  17
TORSDOF 4
