REMARK  7 active torsions:
REMARK  status: ('A' for Active; 'I' for Inactive)
REMARK       I    between atoms: N1_2  and  C2_4 
REMARK    1  A    between atoms: C2_4  and  O2_6 
REMARK    2  A    between atoms: O2_6  and  N2_7 
REMARK    3  A    between atoms: C3_9  and  C4_10 
REMARK    4  A    between atoms: C7_16  and  S1_17 
REMARK    5  A    between atoms: S1_17  and  C8_18 
REMARK    6  A    between atoms: C9_21  and  N6_22 
REMARK    7  A    between atoms: C15_33  and  N9_34 
ROOT
HETATM    1  C8  UNL     1      -0.205  -2.094   0.905  1.00  0.00     0.117 A 
HETATM    2  N5  UNL     1      -0.359  -0.793   0.520  1.00  0.00    -0.184 N 
ATOM      3  H5  UNL     1       0.449  -0.266   0.187  1.00  0.00     0.185 HD
HETATM    4  C9  UNL     1      -1.567  -0.198   0.575  1.00  0.00     0.682 A 
HETATM    5  N8  UNL     1      -2.625  -0.909   1.016  1.00  0.00    -0.175 N 
ATOM      6  H8  UNL     1      -3.539  -0.459   1.055  1.00  0.00     0.186 HD
HETATM    7  C15 UNL     1      -2.515  -2.187   1.404  1.00  0.00     0.138 A 
HETATM    8  C16 UNL     1      -1.271  -2.832   1.359  1.00  0.00     0.123 A 
HETATM    9  C17 UNL     1      -1.142  -4.185   1.812  1.00  0.00     0.106 C 
HETATM   10  N10 UNL     1      -1.050  -5.288   2.191  1.00  0.00    -0.191 NA
ENDROOT
BRANCH   1  11
HETATM   11  S1  UNL     1       1.407  -2.904   0.874  1.00  0.00    -0.050 SA
BRANCH  11  12
HETATM   12  C7  UNL     1       1.901  -3.272  -0.792  1.00  0.00     0.107 A 
HETATM   13  C4  UNL     1       2.703  -2.433  -1.555  1.00  0.00     0.085 A 
HETATM   14  N3  UNL     1       2.806  -3.028  -2.787  1.00  0.00    -0.349 N 
HETATM   15  C5  UNL     1       2.114  -4.165  -2.785  1.00  0.00     0.183 A 
ATOM     16  H3  UNL     1       3.330  -2.657  -3.580  1.00  0.00     0.167 HD
HETATM   17  N4  UNL     1       1.553  -4.315  -1.543  1.00  0.00    -0.340 N 
HETATM   18  C6  UNL     1       0.736  -5.455  -1.155  1.00  0.00     0.158 C 
BRANCH  13  19
HETATM   19  C3  UNL     1       3.389  -1.221  -1.165  1.00  0.00     0.147 C 
HETATM   20  N2  UNL     1       3.388  -0.724  -0.008  1.00  0.00    -0.265 N 
ATOM     21  H2  UNL     1       2.858  -1.217   0.711  1.00  0.00     0.194 HD
BRANCH  20  22
HETATM   22  O2  UNL     1       4.034   0.415   0.365  1.00  0.00    -0.181 OA
BRANCH  22  23
HETATM   23  C2  UNL     1       3.543   1.693   0.417  1.00  0.00     0.382 C 
HETATM   24  N1  UNL     1       4.293   2.829   0.826  1.00  0.00    -0.340 N 
HETATM   25  C1  UNL     1       3.728   4.159   0.866  1.00  0.00     0.151 C 
ATOM     26  H1  UNL     1       5.267   2.701   1.102  1.00  0.00     0.164 HD
HETATM   27  O1  UNL     1       2.349   1.874   0.081  1.00  0.00    -0.236 OA
ENDBRANCH  22  23
ENDBRANCH  20  22
ENDBRANCH  13  19
ENDBRANCH  11  12
ENDBRANCH   1  11
BRANCH   7  28
HETATM   28  N9  UNL     1      -3.521  -2.870   1.825  1.00  0.00    -0.384 N 
ATOM     29  H92 UNL     1      -4.426  -2.401   1.858  1.00  0.00     0.157 HD
ATOM     30  H91 UNL     1      -3.437  -3.843   2.120  1.00  0.00     0.157 HD
ENDBRANCH   7  28
BRANCH   4  31
HETATM   31  N6  UNL     1      -1.696   1.156   0.181  1.00  0.00    -0.216 N 
HETATM   32  C10 UNL     1      -1.457   1.460  -1.212  1.00  0.00     0.143 C 
HETATM   33  C11 UNL     1      -1.563   2.951  -1.456  1.00  0.00     0.048 C 
HETATM   34  C12 UNL     1      -3.006   3.383  -1.279  1.00  0.00     0.234 C 
HETATM   35  N7  UNL     1      -3.128   3.909   0.088  1.00  0.00    -0.074 N 
HETATM   36  C13 UNL     1      -3.396   2.745   0.937  1.00  0.00     0.252 C 
ATOM     37  H72 UNL     1      -2.322   4.458   0.389  1.00  0.00     0.277 HD
ATOM     38  H71 UNL     1      -3.822   4.651   0.180  1.00  0.00     0.277 HD
HETATM   39  C14 UNL     1      -2.066   2.075   1.226  1.00  0.00     0.168 C 
ENDBRANCH   4  31
TORSDOF 7
