REMARK  9 active torsions:
REMARK  status: ('A' for Active; 'I' for Inactive)
REMARK    1  A    between atoms: O1_2  and  C2_3 
REMARK    2  A    between atoms: N1_7  and  N2_8 
REMARK    3  A    between atoms: C7_13  and  O2_14 
REMARK    4  A    between atoms: C8_16  and  C9_17 
REMARK    5  A    between atoms: N4_19  and  C11_21 
REMARK    6  A    between atoms: C11_21  and  C13_23 
REMARK    7  A    between atoms: C14_29  and  N7_30 
REMARK    8  A    between atoms: C15_33  and  N8_34 
REMARK    9  A    between atoms: N8_34  and  O4_35 
ROOT
HETATM    1  N2  UNL     1      -1.487  -0.150  -0.900  1.00  0.00    -0.200 N 
HETATM    2  C6  UNL     1      -1.305  -1.423  -1.259  1.00  0.00     0.202 A 
HETATM    3  S1  UNL     1      -2.425  -2.188  -2.175  1.00  0.00    -0.038 SA
HETATM    4  N3  UNL     1      -0.124  -2.103  -1.070  1.00  0.00    -0.311 N 
ATOM      5  H3  UNL     1      -0.022  -3.078  -1.353  1.00  0.00     0.170 HD
HETATM    6  C7  UNL     1       0.874  -1.441  -0.506  1.00  0.00     0.159 A 
HETATM    7  C8  UNL     1       0.829  -0.122  -0.099  1.00  0.00     0.100 A 
HETATM    8  C15 UNL     1      -0.431   0.528  -0.324  1.00  0.00     0.251 A 
ENDROOT
BRANCH   7   9
HETATM    9  C9  UNL     1       2.030   0.580   0.244  1.00  0.00     0.025 C 
HETATM   10  C10 UNL     1       2.055   1.707   1.179  1.00  0.00     0.069 C 
HETATM   11  N4  UNL     1       3.198   0.057  -0.085  1.00  0.00    -0.361 N 
ATOM     12  H4  UNL     1       3.149  -0.848  -0.552  1.00  0.00     0.165 HD
BRANCH  11  13
HETATM   13  C11 UNL     1       4.468   0.544   0.105  1.00  0.00     0.038 C 
HETATM   14  C12 UNL     1       4.991   1.538   1.024  1.00  0.00     0.070 C 
BRANCH  13  15
HETATM   15  C13 UNL     1       5.528  -0.232  -0.553  1.00  0.00     0.124 A 
HETATM   16  N5  UNL     1       6.437   0.292  -1.463  1.00  0.00    -0.236 N 
HETATM   17  O3  UNL     1       7.101  -0.691  -2.034  1.00  0.00    -0.155 OA
ATOM     18  H5  UNL     1       6.570   1.284  -1.659  1.00  0.00     0.197 HD
HETATM   19  N6  UNL     1       6.708  -1.825  -1.570  1.00  0.00    -0.224 N 
HETATM   20  C14 UNL     1       5.759  -1.587  -0.674  1.00  0.00     0.152 A 
ATOM     21  H6  UNL     1       7.062  -2.742  -1.842  1.00  0.00     0.198 HD
BRANCH  20  22
HETATM   22  N7  UNL     1       5.214  -2.457   0.086  1.00  0.00    -0.382 N 
ATOM     23  H72 UNL     1       4.484  -2.274   0.775  1.00  0.00     0.157 HD
ATOM     24  H71 UNL     1       5.385  -3.459  -0.003  1.00  0.00     0.157 HD
ENDBRANCH  20  22
ENDBRANCH  13  15
ENDBRANCH  11  13
ENDBRANCH   7   9
BRANCH   6  25
HETATM   25  O2  UNL     1       2.073  -2.121  -0.305  1.00  0.00    -0.345 OA
ATOM     26  H2  UNL     1       2.789  -1.646   0.100  1.00  0.00     0.219 HD
ENDBRANCH   6  25
BRANCH   8  27
HETATM   27  N8  UNL     1      -0.506   1.742  -0.273  1.00  0.00    -0.262 NA
BRANCH  27  28
HETATM   28  O4  UNL     1      -0.251   2.974  -0.058  1.00  0.00    -0.217 OA
ATOM     29  H4  UNL     1      -0.310   3.921  -0.018  1.00  0.00     0.261 HD
ENDBRANCH  27  28
ENDBRANCH   8  27
BRANCH   1  30
HETATM   30  N1  UNL     1      -2.757   0.423  -0.957  1.00  0.00    -0.314 N 
HETATM   31  C5  UNL     1      -2.961   1.689  -0.205  1.00  0.00     0.143 C 
HETATM   32  C4  UNL     1      -4.454   1.916   0.102  1.00  0.00     0.024 C 
HETATM   33  C3  UNL     1      -5.181   0.703   0.472  1.00  0.00     0.035 C 
HETATM   34  C2  UNL     1      -5.000  -0.446  -0.502  1.00  0.00     0.140 C 
HETATM   35  C16 UNL     1      -3.967   0.061  -1.547  1.00  0.00     0.175 C 
BRANCH  34  36
HETATM   36  O1  UNL     1      -4.602  -1.500   0.237  1.00  0.00    -0.389 OA
HETATM   37  C1  UNL     1      -5.360  -2.638   0.238  1.00  0.00     0.202 C 
ENDBRANCH  34  36
ENDBRANCH   1  30
TORSDOF 9
