REMARK  6 active torsions:
REMARK  status: ('A' for Active; 'I' for Inactive)
REMARK    1  A    between atoms: C2_2  and  C4_4 
REMARK    2  A    between atoms: C4_4  and  S1_5 
REMARK    3  A    between atoms: C4_4  and  C15_22 
REMARK    4  A    between atoms: S1_5  and  C5_6 
REMARK    5  A    between atoms: N4_16  and  C10_17 
REMARK       I    between atoms: C15_22  and  N5_24 
REMARK    6  A    between atoms: N5_24  and  C16_26 
ROOT
HETATM    1  C5  UNL     1      -1.892   0.582  -0.933  1.00  0.00     0.151 A 
HETATM    2  N1  UNL     1      -1.887   1.946  -0.833  1.00  0.00    -0.319 N 
ATOM      3  H1  UNL     1      -1.156   2.558  -1.196  1.00  0.00     0.169 HD
HETATM    4  C6  UNL     1      -2.980   2.356  -0.190  1.00  0.00     0.155 A 
HETATM    5  C7  UNL     1      -3.712   1.256   0.135  1.00  0.00     0.156 A 
HETATM    6  N2  UNL     1      -4.832   1.667   0.792  1.00  0.00    -0.335 N 
ATOM      7  H2  UNL     1      -5.577   1.078   1.163  1.00  0.00     0.168 HD
HETATM    8  C8  UNL     1      -4.754   3.016   0.852  1.00  0.00     0.185 A 
HETATM    9  N3  UNL     1      -3.636   3.442   0.259  1.00  0.00    -0.331 N 
HETATM   10  C9  UNL     1      -3.212   4.816   0.131  1.00  0.00     0.158 C 
HETATM   11  N4  UNL     1      -3.038   0.185  -0.325  1.00  0.00    -0.305 N 
ENDROOT
BRANCH   1  12
HETATM   12  S1  UNL     1      -0.711  -0.443  -1.756  1.00  0.00    -0.079 SA
BRANCH  12  13
HETATM   13  C4  UNL     1       0.779  -0.806  -0.913  1.00  0.00     0.150 C 
BRANCH  13  14
HETATM   14  C2  UNL     1       0.777  -1.528   0.374  1.00  0.00     0.001 C 
HETATM   15  C1  UNL     1       0.095  -0.855   1.510  1.00  0.00     0.011 C 
HETATM   16  C3  UNL     1       0.222  -2.935   0.143  1.00  0.00     0.011 C 
ENDBRANCH  13  14
BRANCH  13  17
HETATM   17  C15 UNL     1       1.698   0.397  -0.826  1.00  0.00     0.232 C 
HETATM   18  O1  UNL     1       1.221   1.520  -1.027  1.00  0.00    -0.272 OA
HETATM   19  N5  UNL     1       3.041   0.168  -0.521  1.00  0.00    -0.355 N 
ATOM     20  H5  UNL     1       3.338  -0.796  -0.370  1.00  0.00     0.162 HD
BRANCH  19  21
HETATM   21  C16 UNL     1       4.042   1.214  -0.405  1.00  0.00     0.084 C 
HETATM   22  C17 UNL     1       5.112   1.062  -1.451  1.00  0.00     0.025 C 
HETATM   23  C18 UNL     1       6.178   0.079  -1.079  1.00  0.00     0.002 C 
HETATM   24  C19 UNL     1       6.682   0.243   0.326  1.00  0.00     0.000 C 
HETATM   25  C20 UNL     1       5.531   0.139   1.296  1.00  0.00     0.002 C 
HETATM   26  C21 UNL     1       4.573   1.258   0.995  1.00  0.00     0.025 C 
ENDBRANCH  19  21
ENDBRANCH  13  17
ENDBRANCH  12  13
ENDBRANCH   1  12
BRANCH  11  27
HETATM   27  C10 UNL     1      -3.466  -1.182  -0.249  1.00  0.00     0.093 C 
HETATM   28  C11 UNL     1      -4.864  -1.355  -0.845  1.00  0.00     0.026 C 
HETATM   29  C12 UNL     1      -5.280  -2.711  -0.318  1.00  0.00     0.002 C 
HETATM   30  C13 UNL     1      -4.366  -3.027   0.848  1.00  0.00     0.002 C 
HETATM   31  C14 UNL     1      -3.730  -1.658   1.155  1.00  0.00     0.026 C 
ENDBRANCH  11  27
TORSDOF 6
