REMARK  3 active torsions:
REMARK  status: ('A' for Active; 'I' for Inactive)
REMARK    1  A    between atoms: C2_2  and  O2_4 
REMARK    2  A    between atoms: O2_4  and  C3_5 
REMARK    3  A    between atoms: C10_15  and  C11_16 
ROOT
HETATM    1  C3  UNL     1      -0.983   1.636   0.481  1.00  0.00     0.135 C 
HETATM    2  C4  UNL     1       0.127   2.165   1.357  1.00  0.00     0.035 C 
HETATM    3  C5  UNL     1       1.502   1.692   0.859  1.00  0.00     0.036 C 
HETATM    4  C6  UNL     1       1.368   0.238   0.629  1.00  0.00     0.191 C 
HETATM    5  N1  UNL     1       0.529  -0.300   1.713  1.00  0.00    -0.063 N 
ATOM      6  H11 UNL     1      -0.086   0.383   2.155  1.00  0.00     0.278 HD
ATOM      7  H12 UNL     1       1.037  -0.546   2.563  1.00  0.00     0.278 HD
HETATM    8  C7  UNL     1      -0.168  -1.426   1.063  1.00  0.00     0.224 C 
HETATM    9  C8  UNL     1       0.694  -2.119   0.072  1.00  0.00     0.037 C 
HETATM   10  C9  UNL     1       2.182  -1.992   0.381  1.00  0.00     0.009 C 
HETATM   11  C10 UNL     1       2.598  -0.580   0.678  1.00  0.00     0.019 C 
HETATM   12  C14 UNL     1      -1.445  -0.841   0.535  1.00  0.00     0.110 C 
HETATM   13  C15 UNL     1      -1.616  -0.889  -0.912  1.00  0.00     0.011 C 
HETATM   14  C16 UNL     1      -2.849  -1.337  -1.184  1.00  0.00     0.003 C 
HETATM   15  C17 UNL     1      -3.515  -1.593   0.102  1.00  0.00     0.141 C 
HETATM   16  C18 UNL     1      -4.245  -2.936   0.105  1.00  0.00     0.044 C 
HETATM   17  O3  UNL     1      -2.482  -1.690   0.997  1.00  0.00    -0.365 OA
HETATM   18  C19 UNL     1      -1.759   0.514   1.133  1.00  0.00     0.077 C 
ENDROOT
BRANCH   1  19
HETATM   19  O2  UNL     1      -1.918   2.707   0.340  1.00  0.00    -0.316 OA
BRANCH  19  20
HETATM   20  C2  UNL     1      -2.271   3.261  -0.860  1.00  0.00     0.255 C 
HETATM   21  C1  UNL     1      -3.262   4.387  -0.930  1.00  0.00     0.126 C 
HETATM   22  O1  UNL     1      -1.741   2.801  -1.903  1.00  0.00    -0.266 OA
ENDBRANCH  19  20
ENDBRANCH   1  19
BRANCH  11  23
HETATM   23  C11 UNL     1       3.721  -0.090  -0.185  1.00  0.00    -0.017 C 
HETATM   24  C12 UNL     1       4.893  -1.036  -0.016  1.00  0.00     0.010 C 
HETATM   25  C13 UNL     1       3.351   0.145  -1.607  1.00  0.00     0.010 C 
ENDBRANCH  11  23
TORSDOF 3
