REMARK  3 active torsions:
REMARK  status: ('A' for Active; 'I' for Inactive)
REMARK    1  A    between atoms: C4_4  and  C5_5 
REMARK    2  A    between atoms: C5_5  and  N1_6 
REMARK    3  A    between atoms: C8_10  and  N2_11 
ROOT
HETATM    1  N1  UNL     1      -0.782  -0.784   1.071  1.00  0.00    -0.328 N 
HETATM    2  C6  UNL     1      -1.928  -0.572   0.498  1.00  0.00     0.027 A 
HETATM    3  C7  UNL     1      -2.986  -0.184   1.276  1.00  0.00     0.009 A 
HETATM    4  S1  UNL     1      -2.273  -0.140   2.830  1.00  0.00    -0.057 SA
HETATM    5  C8  UNL     1      -0.695  -0.612   2.390  1.00  0.00     0.145 A 
HETATM    6  C9  UNL     1      -4.349   0.084   0.701  1.00  0.00     0.048 C 
HETATM    7  C10 UNL     1      -4.207   0.920  -0.544  1.00  0.00     0.006 C 
HETATM    8  C11 UNL     1      -3.068   0.514  -1.410  1.00  0.00     0.006 C 
HETATM    9  C12 UNL     1      -2.305  -0.690  -0.967  1.00  0.00     0.058 C 
ENDROOT
BRANCH   1  10
HETATM   10  C5  UNL     1       0.443  -1.209   0.352  1.00  0.00     0.163 C 
BRANCH  10  11
HETATM   11  C4  UNL     1       1.237  -0.009  -0.125  1.00  0.00     0.144 C 
HETATM   12  C3  UNL     1       2.452  -0.521  -0.838  1.00  0.00     0.065 C 
HETATM   13  C2  UNL     1       3.593   0.462  -0.845  1.00  0.00     0.122 C 
HETATM   14  C1  UNL     1       4.828  -0.277  -1.327  1.00  0.00     0.040 C 
HETATM   15  O2  UNL     1       3.778   0.872   0.489  1.00  0.00    -0.362 OA
HETATM   16  C13 UNL     1       2.623   1.582   0.831  1.00  0.00     0.338 C 
HETATM   17  O1  UNL     1       1.509   0.796   0.943  1.00  0.00    -0.360 OA
ENDBRANCH  10  11
ENDBRANCH   1  10
BRANCH   5  18
HETATM   18  N2  UNL     1       0.300  -0.751   3.214  1.00  0.00    -0.379 N 
ATOM     19  H22 UNL     1       1.244  -1.033   2.951  1.00  0.00     0.158 HD
ATOM     20  H21 UNL     1       0.367  -0.619   4.223  1.00  0.00     0.158 HD
ENDBRANCH   5  18
TORSDOF 3
