REMARK  15 active torsions:
REMARK  status: ('A' for Active; 'I' for Inactive)
REMARK    1  A    between atoms: O1_2  and  C2_3 
REMARK    2  A    between atoms: C2_3  and  C3_5 
REMARK    3  A    between atoms: N1_8  and  C6_9 
REMARK       I    between atoms: N2_12  and  C9_13 
REMARK    4  A    between atoms: C9_13  and  C10_15 
REMARK    5  A    between atoms: C10_15  and  C11_16 
REMARK    6  A    between atoms: C11_16  and  C12_17 
REMARK    7  A    between atoms: C12_17  and  C13_18 
REMARK    8  A    between atoms: C13_18  and  N3_19 
REMARK       I    between atoms: N6_24  and  C15_26 
REMARK    9  A    between atoms: C15_26  and  C16_28 
REMARK   10  A    between atoms: C16_28  and  C17_29 
REMARK   11  A    between atoms: C17_29  and  N7_30 
REMARK   12  A    between atoms: C17_29  and  C18_34 
REMARK   13  A    between atoms: C18_34  and  C19_35 
REMARK   14  A    between atoms: C19_35  and  C20_36 
REMARK   15  A    between atoms: C20_36  and  N8_37 
ROOT
HETATM    1  C10 UNL     1      -0.480   1.718   1.100  1.00  0.00     0.080 C 
HETATM    2  N6  UNL     1      -0.865   0.965   0.140  1.00  0.00    -0.326 N 
ATOM      3  H6  UNL     1      -0.198   0.246  -0.143  1.00  0.00     0.168 HD
HETATM    4  C15 UNL     1      -2.062   0.981  -0.578  1.00  0.00     0.224 C 
HETATM    5  O4  UNL     1      -2.334   1.911  -1.364  1.00  0.00    -0.273 OA
ENDROOT
BRANCH   1   6
HETATM    6  C9  UNL     1       0.818   1.553   1.742  1.00  0.00     0.266 C 
HETATM    7  N2  UNL     1       1.786   0.592   1.408  1.00  0.00    -0.343 N 
HETATM    8  C8  UNL     1       1.494  -0.324   0.294  1.00  0.00     0.129 C 
HETATM    9  C25 UNL     1       3.060   0.382   2.040  1.00  0.00     0.085 C 
HETATM   10  C7  UNL     1       2.758  -1.163   0.047  1.00  0.00     0.055 C 
HETATM   11  C6  UNL     1       3.895  -0.221  -0.192  1.00  0.00     0.226 C 
HETATM   12  C27 UNL     1       4.194   0.597   1.018  1.00  0.00     0.060 C 
HETATM   13  C26 UNL     1       3.281   1.248   3.241  1.00  0.00     0.032 C 
HETATM   14  O3  UNL     1       1.058   2.360   2.677  1.00  0.00    -0.266 OA
BRANCH  11  15
HETATM   15  N1  UNL     1       5.048  -0.923  -0.710  1.00  0.00     0.093 N 
HETATM   16  C5  UNL     1       6.151  -0.032  -0.885  1.00  0.00     0.273 C 
HETATM   17  C4  UNL     1       7.137  -0.718  -1.830  1.00  0.00     0.045 C 
HETATM   18  C3  UNL     1       7.403  -2.128  -1.429  1.00  0.00     0.089 C 
HETATM   19  C29 UNL     1       6.801  -2.536  -0.117  1.00  0.00     0.045 C 
HETATM   20  C28 UNL     1       5.430  -2.015   0.127  1.00  0.00     0.273 C 
BRANCH  18  21
HETATM   21  C2  UNL     1       8.877  -2.313  -1.306  1.00  0.00     0.262 C 
HETATM   22  O2  UNL     1       9.657  -1.357  -1.535  1.00  0.00    -0.265 OA
BRANCH  21  23
HETATM   23  O1  UNL     1       9.438  -3.527  -0.939  1.00  0.00    -0.326 OA
HETATM   24  C1  UNL     1      10.845  -3.611  -0.847  1.00  0.00     0.213 C 
ENDBRANCH  21  23
ENDBRANCH  18  21
ENDBRANCH  11  15
ENDBRANCH   1   6
BRANCH   1  25
HETATM   25  C11 UNL     1      -1.415   2.786   1.554  1.00  0.00     0.064 C 
BRANCH  25  26
HETATM   26  C12 UNL     1      -0.871   4.175   1.469  1.00  0.00     0.026 C 
BRANCH  26  27
HETATM   27  C13 UNL     1      -0.459   4.608   0.094  1.00  0.00     0.122 C 
BRANCH  27  28
HETATM   28  N3  UNL     1       0.059   5.937   0.047  1.00  0.00    -0.367 N 
HETATM   29  C14 UNL     1      -0.492   6.833  -0.678  1.00  0.00     0.196 C 
HETATM   30  N4  UNL     1      -1.630   6.524  -1.452  1.00  0.00    -0.067 NA
HETATM   31  N5  UNL     1       0.038   8.139  -0.706  1.00  0.00    -0.067 NA
ATOM     32  H3  UNL     1       0.882   6.175   0.601  1.00  0.00     0.161 HD
ENDBRANCH  27  28
ENDBRANCH  26  27
ENDBRANCH  25  26
ENDBRANCH   1  25
BRANCH   4  33
HETATM   33  C16 UNL     1      -3.061  -0.117  -0.432  1.00  0.00     0.135 C 
BRANCH  33  34
HETATM   34  C17 UNL     1      -4.235   0.284   0.447  1.00  0.00     0.192 C 
BRANCH  34  35
HETATM   35  N7  UNL     1      -4.950   1.404  -0.066  1.00  0.00    -0.075 N 
ATOM     36  H73 UNL     1      -4.326   2.195  -0.225  1.00  0.00     0.274 HD
ATOM     37  H72 UNL     1      -5.252   1.236  -1.026  1.00  0.00     0.274 HD
ATOM     38  H71 UNL     1      -5.738   1.673   0.524  1.00  0.00     0.274 HD
ENDBRANCH  34  35
BRANCH  34  39
HETATM   39  C18 UNL     1      -5.071  -0.898   0.831  1.00  0.00     0.035 C 
BRANCH  39  40
HETATM   40  C19 UNL     1      -5.652  -1.617  -0.365  1.00  0.00     0.032 C 
BRANCH  40  41
HETATM   41  C20 UNL     1      -6.460  -2.784   0.156  1.00  0.00     0.272 C 
BRANCH  41  42
HETATM   42  N8  UNL     1      -7.073  -3.565  -0.889  1.00  0.00     0.092 N 
HETATM   43  C21 UNL     1      -7.794  -4.647  -0.240  1.00  0.00     0.298 C 
HETATM   44  C22 UNL     1      -9.247  -4.351  -0.056  1.00  0.00     0.198 C 
HETATM   45  O5  UNL     1      -9.482  -3.007   0.220  1.00  0.00    -0.388 OA
HETATM   46  C23 UNL     1      -9.109  -2.200  -0.860  1.00  0.00     0.198 C 
HETATM   47  C24 UNL     1      -8.010  -2.799  -1.689  1.00  0.00     0.298 C 
ENDBRANCH  41  42
ENDBRANCH  40  41
ENDBRANCH  39  40
ENDBRANCH  34  39
ENDBRANCH  33  34
ENDBRANCH   4  33
TORSDOF 15
