REMARK  4 active torsions:
REMARK  status: ('A' for Active; 'I' for Inactive)
REMARK    1  A    between atoms: C3_5  and  N2_6 
REMARK    2  A    between atoms: N5_11  and  O1_12 
REMARK    3  A    between atoms: O1_12  and  N6_13 
REMARK    4  A    between atoms: C5_19  and  S1_20 
ROOT
HETATM    1  C1  UNL     1      -3.702  -1.350  -1.138  1.00  0.00     0.093 C 
HETATM    2  C2  UNL     1      -3.375  -0.385  -0.058  1.00  0.00     0.138 A 
HETATM    3  N1  UNL     1      -4.261   0.192   0.773  1.00  0.00    -0.175 N 
ATOM      4  H1  UNL     1      -5.269   0.038   0.763  1.00  0.00     0.185 HD
HETATM    5  C3  UNL     1      -3.603   1.007   1.621  1.00  0.00     0.706 A 
HETATM    6  N3  UNL     1      -2.320   0.924   1.303  1.00  0.00    -0.033 N 
HETATM    7  N4  UNL     1      -2.173   0.087   0.292  1.00  0.00    -0.126 N 
HETATM    8  N5  UNL     1      -0.974  -0.292  -0.360  1.00  0.00    -0.093 N 
HETATM    9  C4  UNL     1       0.359  -0.238   0.069  1.00  0.00     0.182 A 
HETATM   10  N7  UNL     1       1.371  -0.633  -0.726  1.00  0.00    -0.314 N 
ATOM     11  H7  UNL     1       1.276  -0.994  -1.675  1.00  0.00     0.170 HD
HETATM   12  C5  UNL     1       2.533  -0.471  -0.057  1.00  0.00     0.204 A 
HETATM   13  N8  UNL     1       2.229   0.019   1.135  1.00  0.00    -0.332 N 
ATOM     14  H8  UNL     1       2.907   0.245   1.863  1.00  0.00     0.168 HD
HETATM   15  C7  UNL     1       0.893   0.177   1.250  1.00  0.00     0.071 A 
HETATM   16  C8  UNL     1       0.293   0.705   2.477  1.00  0.00     0.161 C 
HETATM   17  S2  UNL     1      -1.080   1.844   2.175  1.00  0.00    -0.004 SA
ENDROOT
BRANCH   8  18
HETATM   18  O1  UNL     1      -1.200  -0.781  -1.600  1.00  0.00    -0.137 OA
BRANCH  18  19
HETATM   19  N6  UNL     1      -0.871   0.206  -2.469  1.00  0.00    -0.284 N 
ATOM     20  H62 UNL     1      -0.522   1.132  -2.220  1.00  0.00     0.186 HD
ATOM     21  H61 UNL     1      -1.042  -0.163  -3.405  1.00  0.00     0.186 HD
ENDBRANCH  18  19
ENDBRANCH   8  18
BRANCH   5  22
HETATM   22  N2  UNL     1      -4.206   1.703   2.543  1.00  0.00    -0.232 N 
ATOM     23  H22 UNL     1      -5.194   1.767   2.788  1.00  0.00     0.174 HD
ATOM     24  H21 UNL     1      -3.708   2.320   3.185  1.00  0.00     0.174 HD
ENDBRANCH   5  22
BRANCH  12  25
HETATM   25  S1  UNL     1       4.129  -0.849  -0.681  1.00  0.00     0.203 S 
HETATM   26  C6  UNL     1       5.106   0.642  -0.685  1.00  0.00     0.170 C 
HETATM   27  O2  UNL     1       4.773  -1.871   0.219  1.00  0.00    -0.220 OA
HETATM   28  O3  UNL     1       4.008  -1.382  -2.080  1.00  0.00    -0.220 OA
ENDBRANCH  12  25
TORSDOF 4
