REMARK  5 active torsions:
REMARK  status: ('A' for Active; 'I' for Inactive)
REMARK    1  A    between atoms: C2_2  and  C3_4 
REMARK    2  A    between atoms: C6_7  and  N1_8 
REMARK       I    between atoms: N1_8  and  C7_10 
REMARK       I    between atoms: C7_10  and  N2_12 
REMARK    3  A    between atoms: N2_12  and  C8_14 
REMARK    4  A    between atoms: C9_19  and  C10_20 
REMARK    5  A    between atoms: N7_31  and  C18_32 
ROOT
HETATM    1  C8  UNL     1      -1.026  -0.064   0.407  1.00  0.00     0.154 A 
HETATM    2  N3  UNL     1      -0.928   1.244   0.123  1.00  0.00    -0.283 N 
ATOM      3  H3  UNL     1      -0.059   1.778   0.157  1.00  0.00     0.188 HD
HETATM    4  N4  UNL     1      -2.099   1.749  -0.205  1.00  0.00    -0.296 N 
ATOM      5  H4  UNL     1      -2.283   2.719  -0.462  1.00  0.00     0.187 HD
HETATM    6  C9  UNL     1      -2.999   0.773  -0.142  1.00  0.00     0.093 A 
HETATM    7  C18 UNL     1      -2.372  -0.378   0.237  1.00  0.00     0.114 A 
ENDROOT
BRANCH   1   8
HETATM    8  N2  UNL     1      -0.116  -0.909   0.766  1.00  0.00    -0.291 N 
HETATM    9  C7  UNL     1       1.235  -0.357   0.882  1.00  0.00     0.326 C 
HETATM   10  N1  UNL     1       2.214  -0.884   0.029  1.00  0.00    -0.309 N 
HETATM   11  O2  UNL     1       1.399   0.541   1.737  1.00  0.00    -0.247 OA
ATOM     12  H1  UNL     1       1.909  -1.616  -0.612  1.00  0.00     0.170 HD
ATOM     13  H2  UNL     1      -0.324  -1.890   0.955  1.00  0.00     0.172 HD
BRANCH  10  14
HETATM   14  C6  UNL     1       3.569  -0.518  -0.043  1.00  0.00     0.036 A 
HETATM   15  C5  UNL     1       4.145   0.433   0.730  1.00  0.00     0.030 A 
HETATM   16  C4  UNL     1       5.501   0.750   0.608  1.00  0.00     0.017 A 
HETATM   17  C3  UNL     1       6.308   0.119  -0.294  1.00  0.00     0.009 A 
HETATM   18  C20 UNL     1       5.708  -0.849  -1.077  1.00  0.00     0.017 A 
HETATM   19  C19 UNL     1       4.380  -1.168  -0.966  1.00  0.00     0.030 A 
BRANCH  17  20
HETATM   20  C2  UNL     1       7.717   0.450  -0.420  1.00  0.00     0.155 C 
HETATM   21  C1  UNL     1       8.288   1.500   0.456  1.00  0.00     0.096 C 
HETATM   22  O1  UNL     1       8.425  -0.147  -1.255  1.00  0.00    -0.293 OA
ENDBRANCH  17  20
ENDBRANCH  10  14
ENDBRANCH   1   8
BRANCH   7  23
HETATM   23  N7  UNL     1      -3.058  -1.519   0.376  1.00  0.00    -0.315 N 
HETATM   24  C14 UNL     1      -4.381  -1.564   0.148  1.00  0.00     0.068 A 
HETATM   25  C13 UNL     1      -5.075  -0.435  -0.238  1.00  0.00     0.089 A 
HETATM   26  C15 UNL     1      -4.832  -2.869   0.367  1.00  0.00     0.034 A 
HETATM   27  C10 UNL     1      -4.376   0.743  -0.384  1.00  0.00     0.042 A 
HETATM   28  N6  UNL     1      -6.344  -0.147  -0.534  1.00  0.00    -0.296 N 
HETATM   29  C11 UNL     1      -5.271   1.725  -0.772  1.00  0.00     0.126 A 
HETATM   30  N5  UNL     1      -6.480   1.131  -0.853  1.00  0.00    -0.306 N 
HETATM   31  C12 UNL     1      -7.706   1.810  -1.231  1.00  0.00     0.177 C 
ATOM     32  H6  UNL     1      -7.108  -0.822  -0.517  1.00  0.00     0.187 HD
HETATM   33  C16 UNL     1      -3.696  -3.582   0.737  1.00  0.00     0.020 A 
HETATM   34  C17 UNL     1      -2.608  -2.744   0.740  1.00  0.00     0.098 A 
ENDBRANCH   7  23
TORSDOF 5
