REMARK  11 active torsions:
REMARK  status: ('A' for Active; 'I' for Inactive)
REMARK    1  A    between atoms: C2_2  and  C3_3 
REMARK    2  A    between atoms: C3_3  and  C4_4 
REMARK    3  A    between atoms: C4_4  and  S1_5 
REMARK    4  A    between atoms: S1_5  and  C5_6 
REMARK    5  A    between atoms: C6_9  and  N2_10 
REMARK    6  A    between atoms: C7_15  and  N4_16 
REMARK    7  A    between atoms: N4_16  and  C8_17 
REMARK    8  A    between atoms: N4_16  and  C10_19 
REMARK    9  A    between atoms: C10_19  and  C11_20 
REMARK   10  A    between atoms: C10_19  and  C13_22 
REMARK   11  A    between atoms: C15_24  and  N5_25 
ROOT
HETATM    1  C5  UNL     1       1.603  -1.254  -0.961  1.00  0.00     0.123 A 
HETATM    2  N1  UNL     1       1.811  -0.552  -2.079  1.00  0.00    -0.183 N 
ATOM      3  H1  UNL     1       2.703  -0.624  -2.569  1.00  0.00     0.185 HD
HETATM    4  C6  UNL     1       0.850   0.243  -2.553  1.00  0.00     0.678 A 
HETATM    5  N3  UNL     1      -0.315   0.333  -1.911  1.00  0.00    -0.174 N 
ATOM      6  H3  UNL     1      -1.030   0.949  -2.299  1.00  0.00     0.186 HD
HETATM    7  C7  UNL     1      -0.606  -0.344  -0.775  1.00  0.00     0.159 A 
HETATM    8  C15 UNL     1       0.376  -1.159  -0.283  1.00  0.00     0.181 A 
ENDROOT
BRANCH   7   9
HETATM    9  N4  UNL     1      -1.910  -0.189  -0.160  1.00  0.00    -0.338 N 
BRANCH   9  10
HETATM   10  C8  UNL     1      -2.901  -1.125  -0.619  1.00  0.00     0.126 C 
HETATM   11  C9  UNL     1      -2.392  -2.070  -1.690  1.00  0.00     0.027 C 
ENDBRANCH   9  10
BRANCH   9  12
HETATM   12  C10 UNL     1      -2.154   0.843   0.788  1.00  0.00    -0.010 C 
BRANCH  12  13
HETATM   13  C11 UNL     1      -2.819   0.485   2.072  1.00  0.00     0.048 C 
HETATM   14  C12 UNL     1      -4.177  -0.104   2.020  1.00  0.00     0.011 C 
ENDBRANCH  12  13
BRANCH  12  15
HETATM   15  C13 UNL     1      -2.574   2.170   0.207  1.00  0.00     0.048 C 
HETATM   16  C14 UNL     1      -3.806   2.199  -0.596  1.00  0.00     0.011 C 
ENDBRANCH  12  15
ENDBRANCH   9  12
ENDBRANCH   7   9
BRANCH   8  17
HETATM   17  N5  UNL     1       0.247  -1.922   0.898  1.00  0.00    -0.109 N 
HETATM   18  O1  UNL     1       0.036  -3.145   0.927  1.00  0.00    -0.532 OA
HETATM   19  O2  UNL     1       0.365  -1.285   2.106  1.00  0.00    -0.532 OA
ENDBRANCH   8  17
BRANCH   4  20
HETATM   20  N2  UNL     1       0.981   0.951  -3.624  1.00  0.00    -0.234 N 
ATOM     21  H22 UNL     1       1.872   0.882  -4.115  1.00  0.00     0.174 HD
ATOM     22  H21 UNL     1       0.246   1.559  -3.986  1.00  0.00     0.174 HD
ENDBRANCH   4  20
BRANCH   1  23
HETATM   23  S1  UNL     1       2.908  -2.304  -0.358  1.00  0.00    -0.109 SA
BRANCH  23  24
HETATM   24  C4  UNL     1       4.021  -1.382   0.770  1.00  0.00     0.081 C 
BRANCH  24  25
HETATM   25  C3  UNL     1       4.775  -0.320   0.009  1.00  0.00     0.010 C 
BRANCH  25  26
HETATM   26  C2  UNL     1       5.710   0.488   0.857  1.00  0.00    -0.004 C 
HETATM   27  C1  UNL     1       4.984   1.231   1.963  1.00  0.00     0.005 C 
ENDBRANCH  25  26
ENDBRANCH  24  25
ENDBRANCH  23  24
ENDBRANCH   1  23
TORSDOF 11
