REMARK  3 active torsions:
REMARK  status: ('A' for Active; 'I' for Inactive)
REMARK    1  A    between atoms: C3_4  and  C4_5 
REMARK       I    between atoms: C4_5  and  N2_7 
REMARK    2  A    between atoms: N2_7  and  N3_9 
REMARK    3  A    between atoms: N5_15  and  N6_17 
ROOT
HETATM    1  C1  UNL     1      -2.529  -2.074  -0.266  1.00  0.00     0.175 C 
HETATM    2  N1  UNL     1      -1.412  -1.142  -0.142  1.00  0.00    -0.194 N 
HETATM    3  C2  UNL     1      -0.120  -1.478  -0.001  1.00  0.00     0.144 A 
HETATM    4  C3  UNL     1       0.670  -0.358   0.087  1.00  0.00     0.134 A 
HETATM    5  N4  UNL     1      -0.199   0.690  -0.006  1.00  0.00    -0.183 N 
ATOM      6  H4  UNL     1       0.056   1.677   0.024  1.00  0.00     0.184 HD
HETATM    7  C5  UNL     1      -1.460   0.203  -0.145  1.00  0.00     0.698 A 
HETATM    8  N5  UNL     1      -2.564   0.862  -0.265  1.00  0.00    -0.138 N 
ATOM      9  H5  UNL     1      -3.446   0.359  -0.362  1.00  0.00     0.205 HD
ENDROOT
BRANCH   4  10
HETATM   10  C4  UNL     1       2.117  -0.270   0.246  1.00  0.00     0.288 C 
HETATM   11  O1  UNL     1       2.771  -1.341   0.316  1.00  0.00    -0.264 OA
HETATM   12  N2  UNL     1       2.814   0.952   0.324  1.00  0.00    -0.271 N 
ATOM     13  H2  UNL     1       2.282   1.821   0.267  1.00  0.00     0.189 HD
BRANCH  12  14
HETATM   14  N3  UNL     1       4.201   1.027   0.476  1.00  0.00    -0.342 N 
ATOM     15  H32 UNL     1       4.717   0.149   0.531  1.00  0.00     0.176 HD
ATOM     16  H31 UNL     1       4.706   1.912   0.532  1.00  0.00     0.176 HD
ENDBRANCH  12  14
ENDBRANCH   4  10
BRANCH   8  17
HETATM   17  N6  UNL     1      -2.560   2.256  -0.263  1.00  0.00    -0.331 N 
ATOM     18  H62 UNL     1      -1.670   2.744  -0.165  1.00  0.00     0.177 HD
ATOM     19  H61 UNL     1      -3.432   2.777  -0.358  1.00  0.00     0.177 HD
ENDBRANCH   8  17
TORSDOF 3
