REMARK  6 active torsions:
REMARK  status: ('A' for Active; 'I' for Inactive)
REMARK    1  A    between atoms: C2_2  and  C3_3 
REMARK    2  A    between atoms: C3_3  and  C6_6 
REMARK    3  A    between atoms: C7_7  and  C8_8 
REMARK    4  A    between atoms: C9_9  and  C10_10 
REMARK    5  A    between atoms: C14_14  and  C15_15 
REMARK    6  A    between atoms: C23_27  and  C24_28 
ROOT
HETATM    1  C10 UNL     1       0.555  -0.761  -0.881  1.00  0.00     0.031 C 
HETATM    2  C11 UNL     1       0.947  -1.973  -1.293  1.00  0.00    -0.000 C 
HETATM    3  C12 UNL     1       2.315  -2.465  -1.380  1.00  0.00     0.071 C 
HETATM    4  C13 UNL     1       3.228  -1.744  -0.463  1.00  0.00    -0.000 C 
HETATM    5  C14 UNL     1       4.353  -2.303  -0.063  1.00  0.00     0.060 C 
HETATM    6  C19 UNL     1       2.842  -0.402  -0.054  1.00  0.00     0.192 C 
HETATM    7  O1  UNL     1       3.699   0.312   0.467  1.00  0.00    -0.287 OA
HETATM    8  C20 UNL     1       1.462   0.150  -0.241  1.00  0.00     0.060 C 
HETATM    9  C21 UNL     1       1.218   1.408   0.033  1.00  0.00     0.051 A 
HETATM   10  C22 UNL     1       0.063   2.237  -0.214  1.00  0.00     0.054 A 
HETATM   11  C23 UNL     1       0.186   3.470   0.345  1.00  0.00     0.110 A 
HETATM   12  C25 UNL     1       1.453   3.547   1.009  1.00  0.00     0.263 A 
HETATM   13  O4  UNL     1       1.916   4.522   1.632  1.00  0.00    -0.267 OA
HETATM   14  N3  UNL     1       2.076   2.264   0.806  1.00  0.00    -0.322 N 
ATOM     15  H3  UNL     1       2.995   2.000   1.160  1.00  0.00     0.169 HD
ENDROOT
BRANCH   1  16
HETATM   16  C9  UNL     1      -0.875  -0.500  -0.894  1.00  0.00    -0.052 C 
HETATM   17  C8  UNL     1      -2.090  -0.334  -0.886  1.00  0.00    -0.009 C 
BRANCH  17  18
HETATM   18  C7  UNL     1      -3.491  -0.158  -0.856  1.00  0.00    -0.014 C 
HETATM   19  C6  UNL     1      -4.693  -0.012  -0.810  1.00  0.00    -0.083 C 
BRANCH  19  20
HETATM   20  C3  UNL     1      -6.127   0.162  -0.729  1.00  0.00     0.017 C 
HETATM   21  C4  UNL     1      -6.642   1.290  -1.569  1.00  0.00     0.029 C 
HETATM   22  C5  UNL     1      -6.898  -1.088  -1.041  1.00  0.00     0.029 C 
BRANCH  20  23
HETATM   23  C2  UNL     1      -6.444   0.514   0.730  1.00  0.00     0.017 C 
HETATM   24  C1  UNL     1      -5.924  -0.623   1.569  1.00  0.00     0.006 C 
ENDBRANCH  20  23
ENDBRANCH  19  20
ENDBRANCH  17  18
ENDBRANCH   1  16
BRANCH   5  25
HETATM   25  C15 UNL     1       5.394  -1.865   0.798  1.00  0.00     0.107 A 
HETATM   26  N1  UNL     1       5.369  -1.394   2.049  1.00  0.00    -0.351 N 
HETATM   27  C16 UNL     1       6.616  -1.098   2.429  1.00  0.00     0.107 A 
ATOM     28  H1  UNL     1       4.533  -1.279   2.622  1.00  0.00     0.166 HD
HETATM   29  C17 UNL     1       7.455  -1.392   1.388  1.00  0.00     0.109 A 
HETATM   30  N2  UNL     1       6.701  -1.859   0.397  1.00  0.00    -0.346 N 
HETATM   31  C18 UNL     1       7.206  -2.297  -0.915  1.00  0.00     0.157 C 
ENDBRANCH   5  25
BRANCH  11  32
HETATM   32  C24 UNL     1      -0.810   4.536   0.273  1.00  0.00     0.215 C 
HETATM   33  O2  UNL     1      -1.884   4.368  -0.335  1.00  0.00    -0.644 OA
HETATM   34  O3  UNL     1      -0.571   5.747   0.882  1.00  0.00    -0.644 OA
ENDBRANCH  11  32
TORSDOF 6
