REMARK  2 active torsions:
REMARK  status: ('A' for Active; 'I' for Inactive)
REMARK    1  A    between atoms: C9_10  and  C10_11 
REMARK       I    between atoms: C10_11  and  N2_13 
REMARK       I    between atoms: N2_13  and  C11_15 
REMARK       I    between atoms: C11_15  and  N4_26 
REMARK    2  A    between atoms: N3_16  and  C12_18 
REMARK       I    between atoms: N5_29  and  C22_30 
ROOT
HETATM    1  C10 UNL     1      -1.561  -0.650  -0.465  1.00  0.00     0.268 C 
HETATM    2  O1  UNL     1      -1.199  -1.700  -1.121  1.00  0.00    -0.270 OA
HETATM    3  N2  UNL     1      -0.552   0.016   0.214  1.00  0.00    -0.158 N 
ATOM      4  H2  UNL     1      -0.831   0.847   0.735  1.00  0.00     0.187 HD
HETATM    5  C11 UNL     1       0.812  -0.323   0.267  1.00  0.00     0.679 C 
HETATM    6  N3  UNL     1       1.606   0.344   0.901  1.00  0.00    -0.216 N 
ATOM      7  H3  UNL     1       2.487  -0.147   0.747  1.00  0.00     0.178 HD
HETATM    8  N4  UNL     1       1.323  -1.489  -0.429  1.00  0.00    -0.215 N 
HETATM    9  C20 UNL     1       1.326  -2.789   0.199  1.00  0.00     0.161 C 
HETATM   10  C21 UNL     1       2.765  -3.323   0.176  1.00  0.00     0.146 C 
HETATM   11  N5  UNL     1       3.187  -3.342  -1.222  1.00  0.00    -0.353 N 
HETATM   12  C22 UNL     1       4.291  -4.175  -1.582  1.00  0.00     0.184 C 
HETATM   13  N6  UNL     1       4.442  -4.503  -2.816  1.00  0.00    -0.374 N 
ATOM     14  H61 UNL     1       5.230  -5.098  -3.073  1.00  0.00     0.158 HD
ATOM     15  H62 UNL     1       3.805  -4.189  -3.548  1.00  0.00     0.158 HD
HETATM   16  N7  UNL     1       5.174  -4.611  -0.566  1.00  0.00    -0.064 NA
HETATM   17  C23 UNL     1       2.543  -2.578  -2.241  1.00  0.00     0.146 C 
HETATM   18  C24 UNL     1       1.893  -1.324  -1.730  1.00  0.00     0.161 C 
ENDROOT
BRANCH   6  19
HETATM   19  C12 UNL     1       1.977   1.384   1.704  1.00  0.00     0.052 C 
HETATM   20  C13 UNL     1       2.877   2.459   1.043  1.00  0.00     0.036 C 
HETATM   21  C14 UNL     1       2.429   3.705   1.716  1.00  0.00    -0.011 C 
HETATM   22  C15 UNL     1       2.779   3.589   3.182  1.00  0.00     0.010 C 
HETATM   23  C19 UNL     1       0.911   3.478   1.781  1.00  0.00     0.012 C 
HETATM   24  C16 UNL     1       2.017   2.337   3.564  1.00  0.00    -0.005 C 
HETATM   25  C17 UNL     1       2.635   1.053   3.052  1.00  0.00     0.037 C 
HETATM   26  C18 UNL     1       0.956   2.158   2.506  1.00  0.00     0.019 C 
ENDBRANCH   6  19
BRANCH   1  27
HETATM   27  C9  UNL     1      -3.019  -0.285  -0.522  1.00  0.00     0.289 C 
HETATM   28  C2  UNL     1      -3.449  -0.125  -1.935  1.00  0.00    -0.009 C 
HETATM   29  C1  UNL     1      -2.294  -0.148  -2.923  1.00  0.00     0.017 C 
HETATM   30  C3  UNL     1      -4.342  -1.289  -2.413  1.00  0.00     0.017 C 
HETATM   31  C4  UNL     1      -4.152   1.190  -2.086  1.00  0.00     0.019 C 
HETATM   32  C5  UNL     1      -4.333   1.967  -0.834  1.00  0.00     0.038 C 
HETATM   33  C6  UNL     1      -3.022   2.047  -0.025  1.00  0.00     0.244 C 
HETATM   34  C8  UNL     1      -4.722   1.175   0.351  1.00  0.00     0.244 C 
HETATM   35  N1  UNL     1      -3.337   0.710   0.403  1.00  0.00    -0.057 N 
HETATM   36  C7  UNL     1      -3.095   0.385   1.803  1.00  0.00     0.273 C 
ENDBRANCH   1  27
TORSDOF 2
