REMARK  5 active torsions:
REMARK  status: ('A' for Active; 'I' for Inactive)
REMARK       I    between atoms: C2_2  and  N1_4 
REMARK    1  A    between atoms: N1_4  and  C3_6 
REMARK    2  A    between atoms: C3_6  and  C5_8 
REMARK    3  A    between atoms: C5_8  and  C6_9 
REMARK    4  A    between atoms: C6_9  and  C7_10 
REMARK    5  A    between atoms: C13_19  and  C14_20 
ROOT
HETATM    1  C7  UNL     1       2.839  -0.073   0.912  1.00  0.00     0.089 A 
HETATM    2  C8  UNL     1       2.357   1.050   1.542  1.00  0.00     0.040 A 
HETATM    3  C9  UNL     1       0.989   1.206   1.601  1.00  0.00     0.021 A 
HETATM    4  C10 UNL     1       0.147   0.248   1.037  1.00  0.00     0.043 A 
HETATM    5  C11 UNL     1      -1.190   0.561   1.186  1.00  0.00     0.211 C 
HETATM    6  O2  UNL     1      -1.456   1.400   2.075  1.00  0.00    -0.285 OA
HETATM    7  C12 UNL     1      -2.245   0.045   0.460  1.00  0.00     0.095 A 
HETATM    8  N2  UNL     1      -3.469   0.603   0.452  1.00  0.00    -0.350 N 
ATOM      9  H2  UNL     1      -3.707   1.444   0.978  1.00  0.00     0.166 HD
HETATM   10  C13 UNL     1      -4.342  -0.058  -0.317  1.00  0.00     0.062 A 
HETATM   11  C19 UNL     1      -3.613  -1.123  -0.841  1.00  0.00     0.046 A 
HETATM   12  C20 UNL     1      -2.329  -1.059  -0.364  1.00  0.00     0.003 A 
HETATM   13  C21 UNL     1      -1.312  -1.941  -0.659  1.00  0.00    -0.047 C 
HETATM   14  C22 UNL     1      -1.642  -3.036  -1.570  1.00  0.00     0.049 C 
HETATM   15  C23 UNL     1      -0.022  -1.910  -0.195  1.00  0.00     0.038 C 
HETATM   16  C24 UNL     1       0.686  -0.868   0.413  1.00  0.00     0.049 A 
HETATM   17  N5  UNL     1       2.016  -1.009   0.361  1.00  0.00    -0.344 N 
HETATM   18  C25 UNL     1       2.551  -2.185  -0.300  1.00  0.00     0.157 C 
ENDROOT
BRANCH   1  19
HETATM   19  C6  UNL     1       4.264  -0.266   0.832  1.00  0.00    -0.046 C 
BRANCH  19  20
HETATM   20  C5  UNL     1       5.474  -0.409   0.766  1.00  0.00    -0.074 C 
BRANCH  20  21
HETATM   21  C3  UNL     1       6.930  -0.567   0.666  1.00  0.00     0.160 C 
HETATM   22  C4  UNL     1       7.293  -1.708  -0.257  1.00  0.00     0.046 C 
BRANCH  21  23
HETATM   23  N1  UNL     1       7.451   0.699   0.165  1.00  0.00    -0.347 N 
HETATM   24  C2  UNL     1       8.383   1.463   0.906  1.00  0.00     0.214 C 
HETATM   25  C1  UNL     1       8.884   2.736   0.362  1.00  0.00     0.117 C 
HETATM   26  O1  UNL     1       8.764   1.033   2.019  1.00  0.00    -0.274 OA
ATOM     27  H1  UNL     1       7.136   1.042  -0.742  1.00  0.00     0.163 HD
ENDBRANCH  21  23
ENDBRANCH  20  21
ENDBRANCH  19  20
ENDBRANCH   1  19
BRANCH  10  28
HETATM   28  C14 UNL     1      -5.746   0.230  -0.580  1.00  0.00     0.082 A 
HETATM   29  N3  UNL     1      -6.510  -0.550  -1.400  1.00  0.00    -0.349 N 
HETATM   30  C15 UNL     1      -7.751  -0.042  -1.449  1.00  0.00     0.183 A 
ATOM     31  H3  UNL     1      -6.190  -1.383  -1.894  1.00  0.00     0.167 HD
HETATM   32  N4  UNL     1      -7.818   1.054  -0.681  1.00  0.00    -0.349 N 
HETATM   33  C16 UNL     1      -8.980   1.884  -0.472  1.00  0.00     0.156 C 
HETATM   34  C17 UNL     1      -6.581   1.212  -0.151  1.00  0.00     0.037 A 
HETATM   35  C18 UNL     1      -6.213   2.311   0.765  1.00  0.00     0.071 C 
ENDBRANCH  10  28
TORSDOF 5
