REMARK  2 active torsions:
REMARK  status: ('A' for Active; 'I' for Inactive)
REMARK    1  A    between atoms: C2_2  and  N1_3 
REMARK    2  A    between atoms: C7_8  and  N2_9 
REMARK       I    between atoms: N2_9  and  C8_11 
REMARK       I    between atoms: C8_11  and  N3_13 
REMARK       I    between atoms: N6_21  and  C12_23 
REMARK       I    between atoms: C12_23  and  N7_25 
ROOT
HETATM    1  N2  UNL     1      -3.380   1.142  -0.210  1.00  0.00    -0.329 N 
ATOM      2  H2  UNL     1      -3.440   0.364  -0.867  1.00  0.00     0.165 HD
HETATM    3  C8  UNL     1      -2.096   1.579   0.192  1.00  0.00     0.319 C 
HETATM    4  O1  UNL     1      -2.007   2.533   0.997  1.00  0.00    -0.247 OA
HETATM    5  N3  UNL     1      -0.913   0.970  -0.290  1.00  0.00    -0.324 N 
HETATM    6  C9  UNL     1      -0.785  -0.141  -1.221  1.00  0.00     0.187 C 
HETATM    7  C10 UNL     1       0.446  -0.831  -0.785  1.00  0.00     0.055 A 
HETATM    8  N4  UNL     1       1.127  -1.985  -0.848  1.00  0.00    -0.301 N 
ATOM      9  H4  UNL     1       0.846  -2.831  -1.343  1.00  0.00     0.186 HD
HETATM   10  N5  UNL     1       2.229  -1.814  -0.147  1.00  0.00    -0.285 N 
ATOM     11  H5  UNL     1       2.942  -2.533  -0.020  1.00  0.00     0.188 HD
HETATM   12  C11 UNL     1       2.303  -0.585   0.380  1.00  0.00     0.134 A 
HETATM   13  N6  UNL     1       3.228  -0.068   1.115  1.00  0.00    -0.293 N 
ATOM     14  H6  UNL     1       3.152   0.893   1.450  1.00  0.00     0.172 HD
HETATM   15  C12 UNL     1       4.355  -0.866   1.448  1.00  0.00     0.324 C 
HETATM   16  O2  UNL     1       4.274  -1.610   2.446  1.00  0.00    -0.247 OA
HETATM   17  N7  UNL     1       5.546  -0.843   0.694  1.00  0.00    -0.334 N 
HETATM   18  C13 UNL     1       6.670  -1.662   1.056  1.00  0.00     0.128 C 
HETATM   19  C14 UNL     1       7.910  -1.151   0.339  1.00  0.00     0.024 C 
HETATM   20  C15 UNL     1       8.002   0.360   0.423  1.00  0.00    -0.015 C 
HETATM   21  C16 UNL     1       9.247   0.755  -0.365  1.00  0.00     0.010 C 
HETATM   22  C17 UNL     1       6.777   1.015  -0.146  1.00  0.00     0.024 C 
HETATM   23  C18 UNL     1       5.698   0.007  -0.484  1.00  0.00     0.128 C 
HETATM   24  C19 UNL     1       1.166   0.052  -0.023  1.00  0.00     0.031 A 
HETATM   25  C20 UNL     1       0.436   1.356   0.071  1.00  0.00     0.172 C 
ENDROOT
BRANCH   1  26
HETATM   26  C7  UNL     1      -4.613   1.737   0.258  1.00  0.00     0.188 C 
HETATM   27  C6  UNL     1      -5.349   2.358  -0.974  1.00  0.00     0.115 C 
HETATM   28  C5  UNL     1      -6.524   1.611  -1.029  1.00  0.00    -0.179 C 
HETATM   29  C4  UNL     1      -7.734   0.925  -1.177  1.00  0.00     0.100 C 
HETATM   30  C3  UNL     1      -7.700  -0.071   0.024  1.00  0.00     0.137 C 
HETATM   31  N1  UNL     1      -6.490  -0.115   0.758  1.00  0.00    -0.350 N 
HETATM   32  C21 UNL     1      -5.361   0.724   0.986  1.00  0.00     0.243 C 
HETATM   33  O3  UNL     1      -4.865   0.543   2.147  1.00  0.00    -0.271 OA
BRANCH  31  34
HETATM   34  C2  UNL     1      -6.374  -1.389   1.489  1.00  0.00     0.121 C 
HETATM   35  C1  UNL     1      -5.686  -2.443   0.692  1.00  0.00     0.026 C 
ENDBRANCH  31  34
ENDBRANCH   1  26
TORSDOF 2
