REMARK  3 active torsions:
REMARK  status: ('A' for Active; 'I' for Inactive)
REMARK    1  A    between atoms: C2_2  and  C5_5 
REMARK    2  A    between atoms: C6_7  and  C7_8 
REMARK    3  A    between atoms: N1_12  and  O1_13 
ROOT
HETATM    1  C5  UNL     1       0.017  -0.040  -0.021  1.00  0.00     0.088 A 
HETATM    2  S1  UNL     1       1.186  -1.034   0.720  1.00  0.00    -0.071 SA
HETATM    3  C6  UNL     1       2.562  -0.400  -0.066  1.00  0.00     0.066 A 
HETATM    4  C8  UNL     1       2.017   0.547  -0.885  1.00  0.00     0.143 A 
HETATM    5  N1  UNL     1       0.721   0.719  -0.845  1.00  0.00    -0.231 N 
ENDROOT
BRANCH   1   6
HETATM    6  C2  UNL     1      -1.495  -0.055   0.150  1.00  0.00     0.001 C 
HETATM    7  C1  UNL     1      -1.912  -1.257   0.956  1.00  0.00     0.021 C 
HETATM    8  C3  UNL     1      -1.772   1.173   1.053  1.00  0.00     0.021 C 
HETATM    9  C4  UNL     1      -2.262   0.096  -1.099  1.00  0.00     0.021 C 
ENDBRANCH   1   6
BRANCH   5  10
HETATM   10  O1  UNL     1       0.063   1.735  -1.626  1.00  0.00    -0.283 OA
ATOM     11  H1  UNL     1       0.568   2.280  -2.218  1.00  0.00     0.245 HD
ENDBRANCH   5  10
BRANCH   3  12
HETATM   12  C7  UNL     1       4.022  -0.720   0.082  1.00  0.00     0.395 C 
HETATM   13  F1  UNL     1       4.720   0.481   0.020  1.00  0.00    -0.208 F 
HETATM   14  F2  UNL     1       4.256  -1.392   1.236  1.00  0.00    -0.208 F 
ENDBRANCH   3  12
TORSDOF 3
