REMARK  5 active torsions:
REMARK  status: ('A' for Active; 'I' for Inactive)
REMARK    1  A    between atoms: C2_2  and  C3_3 
REMARK    2  A    between atoms: C4_5  and  C5_6 
REMARK    3  A    between atoms: C5_6  and  N1_7 
REMARK    4  A    between atoms: N1_7  and  N2_8 
REMARK    5  A    between atoms: N1_7  and  C6_11 
ROOT
HETATM    1  N1  UNL     1      -1.846  -0.354  -0.164  1.00  0.00    -0.292 N 
ENDROOT
BRANCH   1   2
HETATM    2  C5  UNL     1      -0.896  -0.511   0.881  1.00  0.00     0.184 C 
BRANCH   2   3
HETATM    3  C4  UNL     1       0.377   0.264   0.680  1.00  0.00     0.174 A 
HETATM    4  C3  UNL     1       1.647  -0.333   0.467  1.00  0.00     0.174 A 
HETATM    5  O1  UNL     1       1.231  -0.042   1.885  1.00  0.00    -0.369 OA
BRANCH   4   6
HETATM    6  C2  UNL     1       2.828   0.485   0.179  1.00  0.00    -0.003 C 
HETATM    7  C1  UNL     1       4.017  -0.056  -0.074  1.00  0.00     0.009 C 
ENDBRANCH   4   6
ENDBRANCH   2   3
ENDBRANCH   1   2
BRANCH   1   8
HETATM    8  N2  UNL     1      -2.127  -1.448  -0.987  1.00  0.00    -0.342 N 
ATOM      9  H22 UNL     1      -1.631  -2.318  -0.795  1.00  0.00     0.177 HD
ATOM     10  H21 UNL     1      -2.809  -1.335  -1.737  1.00  0.00     0.177 HD
ENDBRANCH   1   8
BRANCH   1  11
HETATM   11  C6  UNL     1      -2.540   0.864  -0.432  1.00  0.00     0.192 C 
HETATM   12  N3  UNL     1      -2.924   1.647   0.506  1.00  0.00    -0.394 N 
ATOM     13  H32 UNL     1      -2.720   1.377   1.468  1.00  0.00     0.156 HD
ATOM     14  H31 UNL     1      -3.420   2.517   0.314  1.00  0.00     0.156 HD
ENDBRANCH   1  11
TORSDOF 5
