REMARK  3 active torsions:
REMARK  status: ('A' for Active; 'I' for Inactive)
REMARK    1  A    between atoms: C1_2  and  C2_4 
REMARK    2  A    between atoms: C5_7  and  N2_8 
REMARK    3  A    between atoms: C6_12  and  N3_13 
ROOT
HETATM    1  C2  UNL     1       0.773  -0.096   0.117  1.00  0.00     0.107 C 
HETATM    2  C3  UNL     1       0.368   1.282  -0.430  1.00  0.00     0.018 C 
HETATM    3  C4  UNL     1      -1.023   1.399   0.195  1.00  0.00     0.036 C 
HETATM    4  C5  UNL     1      -1.532  -0.026   0.323  1.00  0.00     0.214 C 
HETATM    5  C6  UNL     1      -0.415  -0.903  -0.268  1.00  0.00     0.226 C 
ENDROOT
BRANCH   4   6
HETATM    6  N2  UNL     1      -2.772  -0.203  -0.364  1.00  0.00    -0.073 N 
ATOM      7  H23 UNL     1      -3.471   0.472  -0.053  1.00  0.00     0.274 HD
ATOM      8  H22 UNL     1      -2.701   0.082  -1.341  1.00  0.00     0.274 HD
ATOM      9  H21 UNL     1      -3.114  -1.160  -0.278  1.00  0.00     0.274 HD
ENDBRANCH   4   6
BRANCH   5  10
HETATM   10  N3  UNL     1      -0.458  -2.223   0.252  1.00  0.00    -0.072 N 
ATOM     11  H33 UNL     1       0.396  -2.722   0.005  1.00  0.00     0.274 HD
ATOM     12  H32 UNL     1      -0.368  -2.200   1.268  1.00  0.00     0.274 HD
ATOM     13  H31 UNL     1      -1.273  -2.777  -0.012  1.00  0.00     0.274 HD
ENDBRANCH   5  10
BRANCH   1  14
HETATM   14  C1  UNL     1       2.032  -0.476  -0.506  1.00  0.00     0.237 C 
HETATM   15  N1  UNL     1       3.160   0.369  -0.308  1.00  0.00    -0.062 NA
HETATM   16  O1  UNL     1       2.210  -1.500  -1.214  1.00  0.00    -0.276 OA
ENDBRANCH   1  14
TORSDOF 3
