REMARK  6 active torsions:
REMARK  status: ('A' for Active; 'I' for Inactive)
REMARK    1  A    between atoms: C2_2  and  C3_3 
REMARK    2  A    between atoms: C3_3  and  N1_4 
REMARK    3  A    between atoms: C3_3  and  C4_8 
REMARK    4  A    between atoms: C4_8  and  N2_9 
REMARK    5  A    between atoms: N2_9  and  N3_10 
REMARK    6  A    between atoms: N3_10  and  C5_12 
ROOT
HETATM    1  C4  UNL     1      -0.813   0.734  -0.454  1.00  0.00     0.167 C 
ENDROOT
BRANCH   1   2
HETATM    2  C3  UNL     1      -1.715   0.510   0.735  1.00  0.00     0.199 C 
BRANCH   2   3
HETATM    3  C2  UNL     1      -2.437  -0.784   0.777  1.00  0.00     0.029 C 
HETATM    4  C1  UNL     1      -3.402  -1.027  -0.333  1.00  0.00     0.007 C 
ENDBRANCH   2   3
BRANCH   2   5
HETATM    5  N1  UNL     1      -2.675   1.600   0.793  1.00  0.00    -0.074 N 
ATOM      6  H13 UNL     1      -3.384   1.529   0.063  1.00  0.00     0.274 HD
ATOM      7  H12 UNL     1      -3.292   1.528   1.602  1.00  0.00     0.274 HD
ATOM      8  H11 UNL     1      -2.178   2.490   0.764  1.00  0.00     0.274 HD
ENDBRANCH   2   5
ENDBRANCH   1   2
BRANCH   1   9
HETATM    9  N2  UNL     1       0.186  -0.321  -0.524  1.00  0.00    -0.138 NA
BRANCH   9  10
HETATM   10  N3  UNL     1       1.183  -0.153   0.370  1.00  0.00    -0.293 N 
ATOM     11  H3  UNL     1       0.925  -0.221   1.355  1.00  0.00     0.183 HD
BRANCH  10  12
HETATM   12  C5  UNL     1       2.550   0.108   0.093  1.00  0.00     0.090 A 
HETATM   13  N4  UNL     1       3.351   0.982  -0.351  1.00  0.00    -0.379 N 
HETATM   14  C6  UNL     1       4.584   0.289  -0.229  1.00  0.00     0.128 A 
ATOM     15  H4  UNL     1       3.163   1.922  -0.699  1.00  0.00     0.160 HD
HETATM   16  C7  UNL     1       3.758  -0.786   0.342  1.00  0.00     0.097 A 
ENDBRANCH  10  12
ENDBRANCH   9  10
ENDBRANCH   1   9
TORSDOF 6
