REMARK  6 active torsions:
REMARK  status: ('A' for Active; 'I' for Inactive)
REMARK       I    between atoms: C1_2  and  N1_3 
REMARK    1  A    between atoms: C1_2  and  C5_8 
REMARK    2  A    between atoms: N1_3  and  C2_5 
REMARK    3  A    between atoms: N2_11  and  S1_12 
REMARK    4  A    between atoms: S1_12  and  N3_15 
REMARK    5  A    between atoms: N4_18  and  C10_19 
REMARK    6  A    between atoms: C10_19  and  C11_20 
ROOT
HETATM    1  S1  UNL     1      -1.182  -0.103  -0.543  1.00  0.00     0.300 S 
HETATM    2  O2  UNL     1      -1.655  -1.524  -0.630  1.00  0.00    -0.188 OA
HETATM    3  O3  UNL     1      -0.900   0.326  -1.970  1.00  0.00    -0.188 OA
ENDROOT
BRANCH   1   4
HETATM    4  N2  UNL     1      -2.342   0.905   0.171  1.00  0.00    -0.298 N 
HETATM    5  C7  UNL     1      -2.665   0.512   1.489  1.00  0.00     0.137 C 
HETATM    6  C6  UNL     1      -3.966  -0.261   1.593  1.00  0.00     0.034 C 
HETATM    7  C5  UNL     1      -5.078   0.392   0.844  1.00  0.00     0.081 C 
HETATM    8  C21 UNL     1      -4.671   0.655  -0.593  1.00  0.00     0.034 C 
HETATM    9  C20 UNL     1      -3.371   1.399  -0.659  1.00  0.00     0.137 C 
BRANCH   7  10
HETATM   10  C1  UNL     1      -6.263  -0.488   0.791  1.00  0.00     0.222 C 
HETATM   11  O1  UNL     1      -6.213  -1.600   1.357  1.00  0.00    -0.273 OA
HETATM   12  N1  UNL     1      -7.415  -0.032   0.095  1.00  0.00    -0.356 N 
ATOM     13  H1  UNL     1      -7.387   0.888  -0.345  1.00  0.00     0.162 HD
BRANCH  12  14
HETATM   14  C2  UNL     1      -8.631  -0.820  -0.016  1.00  0.00     0.084 A 
HETATM   15  C3  UNL     1      -9.566  -0.632  -1.151  1.00  0.00     0.027 A 
HETATM   16  C4  UNL     1      -9.939  -0.099   0.183  1.00  0.00     0.027 A 
ENDBRANCH  12  14
ENDBRANCH   7  10
ENDBRANCH   1   4
BRANCH   1  17
HETATM   17  N3  UNL     1       0.276  -0.034   0.339  1.00  0.00    -0.190 NA
HETATM   18  C8  UNL     1       0.836   1.302   0.352  1.00  0.00     0.139 C 
HETATM   19  C9  UNL     1       1.676   1.598  -0.825  1.00  0.00     0.288 C 
HETATM   20  N4  UNL     1       2.710   0.545  -1.082  1.00  0.00     0.091 N 
HETATM   21  C18 UNL     1       2.000  -0.704  -1.209  1.00  0.00     0.288 C 
HETATM   22  C19 UNL     1       1.242  -1.035   0.028  1.00  0.00     0.139 C 
BRANCH  20  23
HETATM   23  C10 UNL     1       3.728   0.658  -0.128  1.00  0.00     0.277 C 
BRANCH  23  24
HETATM   24  C11 UNL     1       5.117   0.169  -0.382  1.00  0.00     0.014 C 
HETATM   25  C12 UNL     1       5.198  -1.274  -0.672  1.00  0.00     0.006 C 
HETATM   26  C13 UNL     1       6.581  -1.856  -0.821  1.00  0.00     0.000 C 
HETATM   27  C14 UNL     1       7.569  -1.461   0.201  1.00  0.00     0.000 C 
HETATM   28  C15 UNL     1       8.139  -0.105  -0.229  1.00  0.00     0.000 C 
HETATM   29  C16 UNL     1       7.367   0.964   0.464  1.00  0.00     0.000 C 
HETATM   30  C17 UNL     1       5.969   0.601   0.816  1.00  0.00     0.006 C 
ENDBRANCH  23  24
ENDBRANCH  20  23
ENDBRANCH   1  17
TORSDOF 6
