REMARK  10 active torsions:
REMARK  status: ('A' for Active; 'I' for Inactive)
REMARK    1  A    between atoms: C2_2  and  C3_4 
REMARK    2  A    between atoms: C3_4  and  C4_5 
REMARK    3  A    between atoms: C4_5  and  C5_6 
REMARK    4  A    between atoms: C6_7  and  C8_9 
REMARK    5  A    between atoms: C8_9  and  C9_10 
REMARK    6  A    between atoms: C11_15  and  C12_16 
REMARK    7  A    between atoms: C12_16  and  O3_17 
REMARK    8  A    between atoms: C12_16  and  O4_19 
REMARK    9  A    between atoms: O4_19  and  C13_20 
REMARK   10  A    between atoms: C18_28  and  O8_29 
ROOT
HETATM    1  C9  UNL     1       0.319  -1.236  -1.035  1.00  0.00     0.021 C 
HETATM    2  N1  UNL     1       0.001  -0.746  -2.210  1.00  0.00    -0.274 N 
ATOM      3  H1  UNL     1       0.781  -0.751  -2.867  1.00  0.00     0.193 HD
HETATM    4  O2  UNL     1      -1.123  -0.241  -2.736  1.00  0.00    -0.280 OA
HETATM    5  C10 UNL     1      -2.366   0.317  -2.424  1.00  0.00     0.210 C 
HETATM    6  C11 UNL     1      -2.365   1.215  -1.228  1.00  0.00     0.070 C 
HETATM    7  C15 UNL     1      -1.761   0.666   0.007  1.00  0.00     0.045 C 
HETATM    8  C16 UNL     1      -1.844  -0.834   0.010  1.00  0.00     0.142 C 
HETATM    9  O6  UNL     1      -2.634  -1.321   1.092  1.00  0.00    -0.313 OA
HETATM   10  C17 UNL     1      -2.920  -2.701   1.004  1.00  0.00     0.288 C 
HETATM   11  O7  UNL     1      -3.865  -3.241   1.607  1.00  0.00    -0.262 OA
HETATM   12  C18 UNL     1      -1.959  -3.437   0.106  1.00  0.00     0.222 C 
HETATM   13  C19 UNL     1      -0.581  -2.903   0.473  1.00  0.00     0.032 C 
HETATM   14  C20 UNL     1      -0.444  -3.110   1.982  1.00  0.00     0.014 C 
HETATM   15  C21 UNL     1      -0.444  -1.420   0.197  1.00  0.00     0.070 C 
ENDROOT
BRANCH   1  16
HETATM   16  C8  UNL     1       1.730  -1.622  -1.104  1.00  0.00     0.088 C 
BRANCH  16  17
HETATM   17  C6  UNL     1       2.697  -0.695  -0.378  1.00  0.00    -0.082 C 
HETATM   18  C5  UNL     1       3.550  -0.070  -1.159  1.00  0.00    -0.024 C 
HETATM   19  C7  UNL     1       2.639  -0.576   1.084  1.00  0.00     0.043 C 
BRANCH  18  20
HETATM   20  C4  UNL     1       4.632   0.862  -0.953  1.00  0.00     0.035 C 
BRANCH  20  21
HETATM   21  C3  UNL     1       4.994   1.181   0.448  1.00  0.00     0.081 C 
BRANCH  21  22
HETATM   22  C2  UNL     1       6.091   2.242   0.368  1.00  0.00     0.123 C 
HETATM   23  C1  UNL     1       5.747   3.631   0.677  1.00  0.00     0.091 C 
HETATM   24  O1  UNL     1       7.210   1.946   0.060  1.00  0.00    -0.298 OA
ENDBRANCH  21  22
ENDBRANCH  20  21
ENDBRANCH  18  20
ENDBRANCH  16  17
ENDBRANCH   1  16
BRANCH  12  25
HETATM   25  O8  UNL     1      -1.996  -4.781   0.362  1.00  0.00    -0.385 OA
ATOM     26  H8  UNL     1      -1.390  -5.245  -0.204  1.00  0.00     0.210 HD
ENDBRANCH  12  25
BRANCH   6  27
HETATM   27  C12 UNL     1      -3.792   1.648  -0.924  1.00  0.00     0.272 C 
BRANCH  27  28
HETATM   28  O3  UNL     1      -4.347   2.339  -2.002  1.00  0.00    -0.370 OA
ATOM     29  H3  UNL     1      -5.238   2.609  -1.812  1.00  0.00     0.212 HD
ENDBRANCH  27  28
BRANCH  27  30
HETATM   30  O4  UNL     1      -3.831   2.527   0.184  1.00  0.00    -0.290 OA
BRANCH  30  31
HETATM   31  C13 UNL     1      -4.629   2.284   1.280  1.00  0.00     0.257 C 
HETATM   32  C14 UNL     1      -4.715   3.164   2.476  1.00  0.00     0.126 C 
HETATM   33  O5  UNL     1      -5.357   1.233   1.297  1.00  0.00    -0.266 OA
ENDBRANCH  30  31
ENDBRANCH  27  30
ENDBRANCH   6  27
TORSDOF 10
