REMARK  7 active torsions:
REMARK  status: ('A' for Active; 'I' for Inactive)
REMARK    1  A    between atoms: N1_6  and  C5_7 
REMARK    2  A    between atoms: C8_10  and  C9_11 
REMARK    3  A    between atoms: N2_12  and  N3_14 
REMARK    4  A    between atoms: N3_14  and  C10_16 
REMARK    5  A    between atoms: C13_19  and  N4_20 
REMARK    6  A    between atoms: C15_24  and  N5_25 
REMARK    7  A    between atoms: C16_28  and  N6_29 
ROOT
HETATM    1  C9  UNL     1      -1.088   0.072   0.837  1.00  0.00     0.121 C 
HETATM    2  N2  UNL     1      -1.717  -0.533   1.726  1.00  0.00    -0.311 N 
ATOM      3  H2  UNL     1      -1.194  -1.191   2.304  1.00  0.00     0.186 HD
ENDROOT
BRANCH   1   4
HETATM    4  C8  UNL     1       0.305  -0.007   0.479  1.00  0.00     0.014 A 
HETATM    5  C7  UNL     1       0.775   0.920  -0.476  1.00  0.00     0.017 A 
HETATM    6  C6  UNL     1       2.108   0.980  -0.810  1.00  0.00     0.031 A 
HETATM    7  C5  UNL     1       3.006   0.136  -0.218  1.00  0.00     0.039 A 
HETATM    8  C17 UNL     1       2.558  -0.756   0.696  1.00  0.00     0.066 A 
HETATM    9  C16 UNL     1       1.208  -0.850   1.064  1.00  0.00     0.116 A 
BRANCH   7  10
HETATM   10  N1  UNL     1       4.405   0.210  -0.562  1.00  0.00    -0.318 N 
HETATM   11  C1  UNL     1       4.915   0.778  -1.759  1.00  0.00     0.224 C 
HETATM   12  O1  UNL     1       4.363   0.993  -2.865  1.00  0.00    -0.273 OA
HETATM   13  C2  UNL     1       6.333   1.098  -1.449  1.00  0.00     0.105 C 
HETATM   14  C3  UNL     1       6.725  -0.076  -0.582  1.00  0.00     0.029 C 
HETATM   15  C4  UNL     1       5.488  -0.277   0.264  1.00  0.00     0.133 C 
ENDBRANCH   7  10
BRANCH   9  16
HETATM   16  N6  UNL     1       0.912  -1.847   2.026  1.00  0.00    -0.115 N 
HETATM   17  O6  UNL     1      -0.061  -2.572   2.058  1.00  0.00    -0.532 OA
HETATM   18  O7  UNL     1       1.879  -2.076   3.013  1.00  0.00    -0.532 OA
ENDBRANCH   9  16
ENDBRANCH   1   4
BRANCH   2  19
HETATM   19  N3  UNL     1      -3.057  -0.387   1.993  1.00  0.00    -0.299 N 
ATOM     20  H3  UNL     1      -3.406  -0.627   2.921  1.00  0.00     0.187 HD
BRANCH  19  21
HETATM   21  C10 UNL     1      -3.958   0.082   1.027  1.00  0.00     0.081 A 
HETATM   22  C11 UNL     1      -4.145   1.448   0.799  1.00  0.00     0.036 A 
HETATM   23  C12 UNL     1      -5.053   1.851  -0.166  1.00  0.00     0.038 A 
HETATM   24  C13 UNL     1      -5.787   0.950  -0.917  1.00  0.00     0.105 A 
HETATM   25  C14 UNL     1      -5.572  -0.384  -0.659  1.00  0.00     0.074 A 
HETATM   26  C15 UNL     1      -4.687  -0.839   0.282  1.00  0.00     0.133 A 
BRANCH  24  27
HETATM   27  N4  UNL     1      -6.724   1.378  -1.903  1.00  0.00    -0.116 N 
HETATM   28  O2  UNL     1      -7.356   0.510  -2.527  1.00  0.00    -0.532 OA
HETATM   29  O3  UNL     1      -6.965   2.690  -2.194  1.00  0.00    -0.532 OA
ENDBRANCH  24  27
BRANCH  26  30
HETATM   30  N5  UNL     1      -4.514  -2.245   0.515  1.00  0.00    -0.113 N 
HETATM   31  O4  UNL     1      -4.753  -3.034  -0.435  1.00  0.00    -0.532 OA
HETATM   32  O5  UNL     1      -4.102  -2.702   1.735  1.00  0.00    -0.532 OA
ENDBRANCH  26  30
ENDBRANCH  19  21
ENDBRANCH   2  19
TORSDOF 7
