REMARK  8 active torsions:
REMARK  status: ('A' for Active; 'I' for Inactive)
REMARK    1  A    between atoms: N1_1  and  C1_4 
REMARK    2  A    between atoms: C2_8  and  N3_9 
REMARK    3  A    between atoms: N3_9  and  N4_11 
REMARK    4  A    between atoms: C3_13  and  C4_14 
REMARK    5  A    between atoms: C8_19  and  N5_20 
REMARK    6  A    between atoms: N6_24  and  C10_25 
REMARK    7  A    between atoms: C13_28  and  O3_29 
REMARK    8  A    between atoms: O3_29  and  C14_30 
ROOT
HETATM    1  C1  UNL     1      -1.528  -2.963  -0.310  1.00  0.00     0.691 A 
HETATM    2  N2  UNL     1      -0.394  -3.665  -0.469  1.00  0.00    -0.157 N 
ATOM      3  H2  UNL     1      -0.284  -4.664  -0.642  1.00  0.00     0.193 HD
HETATM    4  S1  UNL     1       0.815  -2.475  -0.310  1.00  0.00     0.041 SA
HETATM    5  C2  UNL     1      -0.222  -1.132  -0.046  1.00  0.00     0.203 A 
HETATM    6  N6  UNL     1      -1.435  -1.689  -0.098  1.00  0.00    -0.121 N 
ENDROOT
BRANCH   5   7
HETATM    7  N3  UNL     1       0.137   0.104   0.151  1.00  0.00    -0.278 N 
ATOM      8  H3  UNL     1      -0.559   0.834   0.300  1.00  0.00     0.189 HD
BRANCH   7   9
HETATM    9  N4  UNL     1       1.484   0.399   0.153  1.00  0.00    -0.309 N 
HETATM   10  C3  UNL     1       2.319  -0.203   0.924  1.00  0.00     0.118 C 
ATOM     11  H4  UNL     1       1.830   1.120  -0.479  1.00  0.00     0.186 HD
BRANCH  10  12
HETATM   12  C4  UNL     1       3.730   0.162   0.873  1.00  0.00    -0.015 A 
HETATM   13  C5  UNL     1       4.661  -0.457   1.681  1.00  0.00     0.036 A 
HETATM   14  C6  UNL     1       6.001  -0.149   1.670  1.00  0.00     0.037 A 
HETATM   15 CL1  UNL     1       7.177  -0.941   2.701  1.00  0.00    -0.084 Cl
HETATM   16  C7  UNL     1       6.410   0.833   0.796  1.00  0.00     0.059 A 
HETATM   17  C8  UNL     1       5.511   1.472  -0.024  1.00  0.00     0.105 A 
HETATM   18  C9  UNL     1       4.180   1.135   0.016  1.00  0.00     0.049 A 
BRANCH  17  19
HETATM   19  N5  UNL     1       5.919   2.486  -0.929  1.00  0.00    -0.116 N 
HETATM   20  O1  UNL     1       5.130   3.066  -1.669  1.00  0.00    -0.532 OA
HETATM   21  O2  UNL     1       7.257   2.822  -0.969  1.00  0.00    -0.532 OA
ENDBRANCH  17  19
ENDBRANCH  10  12
ENDBRANCH   7   9
ENDBRANCH   5   7
BRANCH   6  22
HETATM   22  C10 UNL     1      -2.578  -0.819   0.090  1.00  0.00     0.081 A 
HETATM   23  C11 UNL     1      -3.036  -0.168  -1.036  1.00  0.00     0.035 A 
HETATM   24  C12 UNL     1      -4.132   0.699  -0.983  1.00  0.00     0.039 A 
HETATM   25  C13 UNL     1      -4.739   0.878   0.236  1.00  0.00     0.076 A 
HETATM   26  C15 UNL     1      -4.261   0.208   1.369  1.00  0.00     0.063 A 
HETATM   27  C16 UNL     1      -3.182  -0.641   1.302  1.00  0.00     0.064 A 
HETATM   28 CL2  UNL     1      -2.574  -1.479   2.691  1.00  0.00    -0.082 Cl
BRANCH  25  29
HETATM   29  O3  UNL     1      -5.819   1.719   0.338  1.00  0.00    -0.290 OA
BRANCH  29  30
HETATM   30  C14 UNL     1      -6.360   2.431  -0.745  1.00  0.00     0.505 C 
HETATM   31  F1  UNL     1      -6.866   1.642  -1.749  1.00  0.00    -0.184 F 
HETATM   32  F2  UNL     1      -5.434   3.345  -1.265  1.00  0.00    -0.184 F 
ENDBRANCH  29  30
ENDBRANCH  25  29
ENDBRANCH   6  22
BRANCH   1  33
HETATM   33  N1  UNL     1      -2.642  -3.633  -0.385  1.00  0.00    -0.233 N 
ATOM     34  H12 UNL     1      -2.715  -4.637  -0.552  1.00  0.00     0.174 HD
ATOM     35  H11 UNL     1      -3.503  -3.100  -0.264  1.00  0.00     0.174 HD
ENDBRANCH   1  33
TORSDOF 8
