REMARK  7 active torsions:
REMARK  status: ('A' for Active; 'I' for Inactive)
REMARK    1  A    between atoms: C2_2  and  N1_5 
REMARK    2  A    between atoms: C4_9  and  C5_10 
REMARK       I    between atoms: C5_10  and  N3_12 
REMARK    3  A    between atoms: N3_12  and  N4_14 
REMARK    4  A    between atoms: C6_16  and  C7_17 
REMARK    5  A    between atoms: C9_19  and  N5_20 
REMARK    6  A    between atoms: C12_27  and  N6_28 
REMARK    7  A    between atoms: C13_31  and  O6_32 
ROOT
HETATM    1  N4  UNL     1      -0.895   0.862   0.064  1.00  0.00    -0.308 N 
ATOM      2  H4  UNL     1      -1.250   1.740   0.444  1.00  0.00     0.186 HD
HETATM    3  C6  UNL     1      -1.687  -0.074  -0.288  1.00  0.00     0.121 C 
ENDROOT
BRANCH   1   4
HETATM    4  N3  UNL     1       0.499   0.638  -0.092  1.00  0.00    -0.266 N 
HETATM    5  C5  UNL     1       1.027  -0.503   0.518  1.00  0.00     0.275 C 
HETATM    6  O1  UNL     1       0.285  -1.312   1.189  1.00  0.00    -0.266 OA
ATOM      7  H3  UNL     1       1.087   1.280  -0.624  1.00  0.00     0.190 HD
BRANCH   5   8
HETATM    8  C4  UNL     1       2.434  -0.840   0.431  1.00  0.00     0.102 A 
HETATM    9  C3  UNL     1       3.056  -1.954   1.003  1.00  0.00     0.129 A 
HETATM   10  N2  UNL     1       4.339  -1.865   0.673  1.00  0.00    -0.304 N 
HETATM   11  N1  UNL     1       4.576  -0.804  -0.048  1.00  0.00    -0.231 N 
ATOM     12  H2  UNL     1       5.051  -2.542   0.949  1.00  0.00     0.186 HD
HETATM   13  C13 UNL     1       3.404  -0.140  -0.218  1.00  0.00     0.177 A 
BRANCH  11  14
HETATM   14  C2  UNL     1       5.835  -0.369  -0.591  1.00  0.00     0.204 C 
HETATM   15  C1  UNL     1       6.568   0.500   0.405  1.00  0.00     0.077 C 
HETATM   16 CL1  UNL     1       6.855  -1.743  -1.126  1.00  0.00    -0.076 Cl
HETATM   17 CL2  UNL     1       5.581   0.652  -2.051  1.00  0.00    -0.076 Cl
ENDBRANCH  11  14
BRANCH  13  18
HETATM   18  O6  UNL     1       3.287   1.062  -0.953  1.00  0.00    -0.344 OA
ATOM     19  H6  UNL     1       2.467   1.527  -1.072  1.00  0.00     0.219 HD
ENDBRANCH  13  18
ENDBRANCH   5   8
ENDBRANCH   1   4
BRANCH   3  20
HETATM   20  C7  UNL     1      -3.144   0.098  -0.150  1.00  0.00     0.018 A 
HETATM   21  C8  UNL     1      -3.641   1.279   0.358  1.00  0.00     0.053 A 
HETATM   22  C9  UNL     1      -5.022   1.458   0.492  1.00  0.00     0.127 A 
HETATM   23  C10 UNL     1      -5.909   0.471   0.125  1.00  0.00     0.091 A 
HETATM   24 CL3  UNL     1      -7.622   0.759   0.319  1.00  0.00    -0.080 Cl
HETATM   25  C11 UNL     1      -5.397  -0.701  -0.379  1.00  0.00     0.092 A 
HETATM   26 CL4  UNL     1      -6.485  -1.982  -0.858  1.00  0.00    -0.080 Cl
HETATM   27  C12 UNL     1      -4.020  -0.903  -0.523  1.00  0.00     0.138 A 
BRANCH  22  28
HETATM   28  N5  UNL     1      -5.515   2.671   1.012  1.00  0.00    -0.114 N 
HETATM   29  O2  UNL     1      -6.604   3.109   0.635  1.00  0.00    -0.532 OA
HETATM   30  O3  UNL     1      -4.785   3.358   1.931  1.00  0.00    -0.532 OA
ENDBRANCH  22  28
BRANCH  27  31
HETATM   31  N6  UNL     1      -3.487  -2.106  -1.041  1.00  0.00    -0.113 N 
HETATM   32  O4  UNL     1      -3.015  -2.117  -2.184  1.00  0.00    -0.532 OA
HETATM   33  O5  UNL     1      -3.484  -3.255  -0.300  1.00  0.00    -0.532 OA
ENDBRANCH  27  31
ENDBRANCH   3  20
TORSDOF 7
