REMARK  6 active torsions:
REMARK  status: ('A' for Active; 'I' for Inactive)
REMARK    1  A    between atoms: N1_1  and  C1_4 
REMARK    2  A    between atoms: C4_10  and  N3_11 
REMARK    3  A    between atoms: N3_11  and  C5_13 
REMARK    4  A    between atoms: C5_13  and  C6_14 
REMARK    5  A    between atoms: C6_14  and  C7_15 
REMARK    6  A    between atoms: C7_15  and  N4_16 
ROOT
HETATM    1  C1  UNL     1       5.086  -0.436  -0.303  1.00  0.00     0.677 A 
HETATM    2  N2  UNL     1       5.437   0.738  -0.864  1.00  0.00    -0.201 N 
ATOM      3  H2  UNL     1       6.352   0.843  -1.302  1.00  0.00     0.183 HD
HETATM    4  C2  UNL     1       4.570   1.779  -0.845  1.00  0.00     0.129 A 
HETATM    5  C3  UNL     1       3.340   1.609  -0.247  1.00  0.00     0.071 A 
HETATM    6 BR1  UNL     1       2.125   3.076  -0.222  1.00  0.00    -0.046 Br
HETATM    7  C4  UNL     1       2.965   0.393   0.338  1.00  0.00     0.135 A 
HETATM    8  N5  UNL     1       3.880  -0.589   0.277  1.00  0.00    -0.176 N 
ATOM      9  H5  UNL     1       3.650  -1.493   0.689  1.00  0.00     0.186 HD
ENDROOT
BRANCH   7  10
HETATM   10  N3  UNL     1       1.818   0.258   0.886  1.00  0.00    -0.375 N 
ATOM     11  H3  UNL     1       1.215   1.080   0.863  1.00  0.00     0.161 HD
BRANCH  10  12
HETATM   12  C5  UNL     1       1.277  -0.890   1.522  1.00  0.00     0.123 C 
BRANCH  12  13
HETATM   13  C6  UNL     1      -0.039  -1.300   0.850  1.00  0.00     0.050 C 
BRANCH  13  14
HETATM   14  C7  UNL     1      -0.971  -0.127   1.004  1.00  0.00     0.274 C 
BRANCH  14  15
HETATM   15  N4  UNL     1      -2.268  -0.359   0.422  1.00  0.00     0.088 N 
HETATM   16  C8  UNL     1      -2.207  -0.437  -1.016  1.00  0.00     0.272 C 
HETATM   17  C9  UNL     1      -3.610  -0.769  -1.519  1.00  0.00     0.030 C 
HETATM   18  C10 UNL     1      -4.465   0.424  -1.253  1.00  0.00     0.003 C 
HETATM   19  C11 UNL     1      -4.457   0.748   0.197  1.00  0.00     0.030 C 
HETATM   20  C12 UNL     1      -3.149   0.675   0.895  1.00  0.00     0.272 C 
ENDBRANCH  14  15
ENDBRANCH  13  14
ENDBRANCH  12  13
ENDBRANCH  10  12
ENDBRANCH   7  10
BRANCH   1  21
HETATM   21  N1  UNL     1       5.895  -1.438  -0.311  1.00  0.00    -0.234 N 
ATOM     22  H12 UNL     1       6.808  -1.322  -0.750  1.00  0.00     0.174 HD
ATOM     23  H11 UNL     1       5.629  -2.327   0.114  1.00  0.00     0.174 HD
ENDBRANCH   1  21
TORSDOF 6
