REMARK  6 active torsions:
REMARK  status: ('A' for Active; 'I' for Inactive)
REMARK    1  A    between atoms: C2_2  and  C3_3 
REMARK    2  A    between atoms: C3_3  and  C4_4 
REMARK    3  A    between atoms: C4_4  and  N1_5 
REMARK    4  A    between atoms: N1_5  and  C5_7 
REMARK    5  A    between atoms: C5_7  and  N2_9 
REMARK    6  A    between atoms: N2_9  and  C6_11 
ROOT
HETATM    1  C6  UNL     1      -1.187  -0.244   0.082  1.00  0.00     0.290 C 
HETATM    2  C7  UNL     1      -1.940   0.326   1.249  1.00  0.00     0.090 C 
HETATM    3  C8  UNL     1      -3.410   0.320   0.914  1.00  0.00     0.229 C 
HETATM    4  C9  UNL     1      -3.795  -1.119   0.608  1.00  0.00     0.040 C 
HETATM    5  C10 UNL     1      -3.682  -1.190  -0.887  1.00  0.00     0.067 C 
HETATM    6  C11 UNL     1      -3.111   0.139  -1.305  1.00  0.00     0.422 C 
HETATM    7  N3  UNL     1      -1.683   0.168  -1.194  1.00  0.00    -0.022 N 
ATOM      8  H31 UNL     1      -1.256  -0.383  -1.938  1.00  0.00     0.282 HD
ATOM      9  H32 UNL     1      -1.325   1.092  -1.435  1.00  0.00     0.282 HD
HETATM   10  N4  UNL     1      -3.642   1.060  -0.299  1.00  0.00     0.120 N 
HETATM   11  C12 UNL     1      -5.032   1.331  -0.505  1.00  0.00     0.313 C 
ENDROOT
BRANCH   1  12
HETATM   12  N2  UNL     1       0.215   0.041   0.179  1.00  0.00    -0.340 N 
ATOM     13  H2  UNL     1       0.576   0.570   0.973  1.00  0.00     0.164 HD
BRANCH  12  14
HETATM   14  C5  UNL     1       1.103  -0.417  -0.837  1.00  0.00     0.169 C 
HETATM   15  S1  UNL     1       0.522  -1.268  -2.113  1.00  0.00    -0.041 SA
BRANCH  14  16
HETATM   16  N1  UNL     1       2.495  -0.163  -0.790  1.00  0.00    -0.367 N 
ATOM     17  H1  UNL     1       3.113  -0.501  -1.528  1.00  0.00     0.161 HD
BRANCH  16  18
HETATM   18  C4  UNL     1       3.020   0.589   0.333  1.00  0.00     0.122 C 
BRANCH  18  19
HETATM   19  C3  UNL     1       4.501   0.783   0.255  1.00  0.00     0.019 C 
BRANCH  19  20
HETATM   20  C2  UNL     1       5.150  -0.590   0.240  1.00  0.00    -0.003 C 
HETATM   21  C1  UNL     1       6.649  -0.354   0.160  1.00  0.00     0.005 C 
ENDBRANCH  19  20
ENDBRANCH  18  19
ENDBRANCH  16  18
ENDBRANCH  14  16
ENDBRANCH  12  14
ENDBRANCH   1  12
TORSDOF 6
