REMARK  3 active torsions:
REMARK  status: ('A' for Active; 'I' for Inactive)
REMARK    1  A    between atoms: C2_2  and  O1_5 
REMARK    2  A    between atoms: O1_5  and  C5_6 
REMARK       I    between atoms: C5_6  and  N1_8 
REMARK    3  A    between atoms: N1_8  and  N2_10 
ROOT
HETATM    1  C5  UNL     1      -0.809  -0.241   0.139  1.00  0.00     0.380 C 
HETATM    2  O2  UNL     1      -0.875   0.973  -0.163  1.00  0.00    -0.237 OA
HETATM    3  N1  UNL     1       0.415  -0.798   0.522  1.00  0.00    -0.240 N 
ATOM      4  H1  UNL     1       0.410  -1.791   0.755  1.00  0.00     0.193 HD
ENDROOT
BRANCH   3   5
HETATM    5  N2  UNL     1       1.617  -0.156   0.618  1.00  0.00    -0.282 N 
HETATM    6  C6  UNL     1       1.904   0.850  -0.297  1.00  0.00     0.091 C 
HETATM    7  C7  UNL     1       3.300   1.137  -0.655  1.00  0.00     0.084 C 
HETATM    8  C8  UNL     1       4.348   0.276  -0.022  1.00  0.00     0.179 C 
HETATM    9  F1  UNL     1       5.548   0.971   0.045  1.00  0.00    -0.249 F 
HETATM   10  C9  UNL     1       3.886  -0.075   1.372  1.00  0.00     0.084 C 
HETATM   11  C10 UNL     1       2.641  -0.919   1.192  1.00  0.00     0.091 C 
ENDBRANCH   3   5
BRANCH   1  12
HETATM   12  O1  UNL     1      -1.993  -0.946   0.062  1.00  0.00    -0.293 OA
BRANCH  12  13
HETATM   13  C2  UNL     1      -3.165  -0.334  -0.324  1.00  0.00     0.061 C 
HETATM   14  C1  UNL     1      -3.613   0.807   0.546  1.00  0.00     0.046 C 
HETATM   15  C3  UNL     1      -3.018   0.182  -1.738  1.00  0.00     0.046 C 
HETATM   16  C4  UNL     1      -4.299  -1.361  -0.316  1.00  0.00     0.046 C 
ENDBRANCH  12  13
ENDBRANCH   1  12
TORSDOF 3
