REMARK  5 active torsions:
REMARK  status: ('A' for Active; 'I' for Inactive)
REMARK    1  A    between atoms: N1_1  and  C1_5 
REMARK    2  A    between atoms: C1_5  and  C2_6 
REMARK    3  A    between atoms: C2_6  and  N2_7 
REMARK    4  A    between atoms: N2_7  and  C3_9 
REMARK    5  A    between atoms: C6_15  and  N4_16 
ROOT
HETATM    1  C3  UNL     1      -0.786  -0.277  -0.554  1.00  0.00     0.310 C 
HETATM    2  N3  UNL     1      -1.503   0.851  -1.097  1.00  0.00    -0.052 N 
ATOM      3  H31 UNL     1      -2.237   0.619  -1.766  1.00  0.00     0.279 HD
ATOM      4  H32 UNL     1      -0.971   1.435  -1.742  1.00  0.00     0.279 HD
HETATM    5  C4  UNL     1      -1.954   1.515   0.113  1.00  0.00     0.237 C 
HETATM    6  C5  UNL     1      -2.649   0.366   0.820  1.00  0.00     0.064 C 
HETATM    7  C6  UNL     1      -1.632  -0.772   0.569  1.00  0.00     0.234 C 
ENDROOT
BRANCH   1   8
HETATM    8  N2  UNL     1       0.550   0.062  -0.260  1.00  0.00    -0.392 N 
ATOM      9  H2  UNL     1       0.853   1.036  -0.266  1.00  0.00     0.155 HD
BRANCH   8  10
HETATM   10  C2  UNL     1       1.468  -0.984   0.046  1.00  0.00     0.143 C 
BRANCH  10  11
HETATM   11  C1  UNL     1       2.737  -0.315   0.581  1.00  0.00     0.248 C 
BRANCH  11  12
HETATM   12  N1  UNL     1       3.298   0.631  -0.333  1.00  0.00    -0.078 N 
ATOM     13  H13 UNL     1       3.469   0.202  -1.242  1.00  0.00     0.274 HD
ATOM     14  H12 UNL     1       2.606   1.329  -0.605  1.00  0.00     0.274 HD
ATOM     15  H11 UNL     1       4.143   1.077   0.023  1.00  0.00     0.274 HD
ENDBRANCH  11  12
ENDBRANCH  10  11
ENDBRANCH   8  10
ENDBRANCH   1   8
BRANCH   7  16
HETATM   16  N4  UNL     1      -0.972  -1.027   1.804  1.00  0.00    -0.071 N 
ATOM     17  H43 UNL     1      -0.197  -1.672   1.650  1.00  0.00     0.274 HD
ATOM     18  H42 UNL     1      -0.466  -0.192   2.100  1.00  0.00     0.274 HD
ATOM     19  H41 UNL     1      -1.551  -1.366   2.572  1.00  0.00     0.274 HD
ENDBRANCH   7  16
TORSDOF 5
