REMARK  3 active torsions:
REMARK  status: ('A' for Active; 'I' for Inactive)
REMARK    1  A    between atoms: O1_2  and  C2_3 
REMARK    2  A    between atoms: C2_3  and  O2_4 
REMARK    3  A    between atoms: C2_3  and  C3_6 
ROOT
HETATM    1  C3  UNL     1       1.002  -0.004   0.210  1.00  0.00     0.006 C 
HETATM    2  C4  UNL     1       0.380   1.141   0.544  1.00  0.00    -0.001 C 
HETATM    3  C5  UNL     1      -1.079   1.056   0.240  1.00  0.00     0.030 C 
HETATM    4  C6  UNL     1      -1.804   2.341   0.260  1.00  0.00     0.045 C 
HETATM    5  C7  UNL     1      -2.886   2.045  -0.791  1.00  0.00     0.172 C 
HETATM    6  O3  UNL     1      -2.442   0.980  -1.545  1.00  0.00    -0.360 OA
HETATM    7  C8  UNL     1      -1.132   0.737  -1.266  1.00  0.00     0.273 C 
HETATM    8  O4  UNL     1      -0.680  -0.540  -1.427  1.00  0.00    -0.345 OA
HETATM    9  C9  UNL     1       0.073  -1.033  -0.364  1.00  0.00     0.091 C 
HETATM   10  C10 UNL     1       0.764  -2.298  -0.721  1.00  0.00     0.052 C 
HETATM   11  C11 UNL     1      -0.929  -1.332   0.760  1.00  0.00     0.022 C 
HETATM   12  C12 UNL     1      -1.796  -2.473   0.283  1.00  0.00     0.013 C 
HETATM   13  C13 UNL     1      -1.749  -0.072   0.940  1.00  0.00     0.026 C 
ENDROOT
BRANCH   1  14
HETATM   14  C2  UNL     1       2.440  -0.199   0.400  1.00  0.00     0.289 C 
BRANCH  14  15
HETATM   15  O1  UNL     1       2.965   0.967   0.954  1.00  0.00    -0.362 OA
HETATM   16  C1  UNL     1       3.978   1.501   0.140  1.00  0.00     0.205 C 
ENDBRANCH  14  15
BRANCH  14  17
HETATM   17  O2  UNL     1       2.607  -1.262   1.306  1.00  0.00    -0.367 OA
ATOM     18  H2  UNL     1       2.249  -2.057   0.928  1.00  0.00     0.213 HD
ENDBRANCH  14  17
ENDBRANCH   1  14
TORSDOF 3
