REMARK  2 active torsions:
REMARK  status: ('A' for Active; 'I' for Inactive)
REMARK    1  A    between atoms: O1_2  and  C2_3 
REMARK    2  A    between atoms: C6_8  and  N1_9 
ROOT
HETATM    1  N1  UNL     1       1.008  -0.104   0.038  1.00  0.00    -0.329 N 
HETATM    2  C7  UNL     1       1.847  -0.719  -0.815  1.00  0.00     0.128 A 
HETATM    3  C8  UNL     1       3.127  -0.217  -0.723  1.00  0.00     0.078 A 
HETATM    4  N2  UNL     1       4.393  -0.281  -1.175  1.00  0.00    -0.297 N 
ATOM      5  H2  UNL     1       4.739  -0.916  -1.895  1.00  0.00     0.187 HD
HETATM    6  N3  UNL     1       5.107   0.613  -0.531  1.00  0.00    -0.289 N 
ATOM      7  H3  UNL     1       6.103   0.779  -0.677  1.00  0.00     0.188 HD
HETATM    8  C9  UNL     1       4.337   1.278   0.349  1.00  0.00     0.129 A 
HETATM    9  S1  UNL     1       4.767   2.483   1.381  1.00  0.00    -0.058 SA
HETATM   10  C10 UNL     1       3.054   0.777   0.259  1.00  0.00     0.049 A 
HETATM   11  C11 UNL     1       1.750   0.807   0.690  1.00  0.00     0.113 A 
ENDROOT
BRANCH   1  12
HETATM   12  C6  UNL     1      -0.398  -0.372   0.211  1.00  0.00     0.043 A 
HETATM   13  C5  UNL     1      -0.838  -1.496   0.882  1.00  0.00     0.072 A 
HETATM   14  C4  UNL     1      -2.164  -1.786   1.069  1.00  0.00     0.121 A 
HETATM   15  C3  UNL     1      -3.083  -0.888   0.546  1.00  0.00     0.079 A 
HETATM   16  F1  UNL     1      -2.605  -2.892   1.729  1.00  0.00    -0.206 F 
HETATM   17  C2  UNL     1      -2.703   0.254  -0.135  1.00  0.00     0.073 A 
HETATM   18  C12 UNL     1      -1.337   0.495  -0.292  1.00  0.00     0.066 A 
BRANCH  17  19
HETATM   19  O1  UNL     1      -3.663   1.099  -0.626  1.00  0.00    -0.356 OA
HETATM   20  C1  UNL     1      -5.034   0.820  -0.446  1.00  0.00     0.210 C 
ENDBRANCH  17  19
ENDBRANCH   1  12
TORSDOF 2
