REMARK  4 active torsions:
REMARK  status: ('A' for Active; 'I' for Inactive)
REMARK    1  A    between atoms: C2_2  and  N1_4 
REMARK    2  A    between atoms: N1_4  and  O1_6 
REMARK    3  A    between atoms: O1_6  and  C4_7 
REMARK    4  A    between atoms: C4_7  and  C6_9 
ROOT
HETATM    1  O1  UNL     1       0.069   0.565   0.824  1.00  0.00    -0.279 OA
ENDROOT
BRANCH   1   2
HETATM    2  N1  UNL     1      -0.753  -0.439   0.906  1.00  0.00    -0.298 N 
ATOM      3  H1  UNL     1      -0.410  -1.399   0.865  1.00  0.00     0.188 HD
BRANCH   2   4
HETATM    4  C2  UNL     1      -2.133  -0.170   1.053  1.00  0.00     0.097 C 
HETATM    5  C1  UNL     1      -2.595   0.634  -0.150  1.00  0.00     0.034 C 
HETATM    6  C3  UNL     1      -2.920  -1.463   1.040  1.00  0.00     0.034 C 
ENDBRANCH   2   4
ENDBRANCH   1   2
BRANCH   1   7
HETATM    7  C4  UNL     1       0.914   0.443  -0.260  1.00  0.00     0.151 C 
HETATM    8  C5  UNL     1       0.670   1.553  -1.289  1.00  0.00     0.042 C 
BRANCH   7   9
HETATM    9  C6  UNL     1       2.363   0.508   0.103  1.00  0.00     0.017 A 
HETATM   10  C7  UNL     1       2.995  -0.450   1.022  1.00  0.00     0.007 A 
HETATM   11  C8  UNL     1       3.199  -0.630  -0.484  1.00  0.00     0.007 A 
ENDBRANCH   7   9
ENDBRANCH   1   7
TORSDOF 4
