REMARK  5 active torsions:
REMARK  status: ('A' for Active; 'I' for Inactive)
REMARK    1  A    between atoms: C2_2  and  O1_3 
REMARK    2  A    between atoms: O1_3  and  C3_4 
REMARK    3  A    between atoms: C3_4  and  C4_6 
REMARK    4  A    between atoms: C7_10  and  O3_11 
REMARK    5  A    between atoms: C12_17  and  C13_18 
ROOT
HETATM    1  C4  UNL     1       0.445  -0.140   1.273  1.00  0.00     0.092 A 
HETATM    2  S1  UNL     1      -0.650   0.703   2.268  1.00  0.00    -0.083 SA
HETATM    3  C5  UNL     1      -1.864   1.039   1.126  1.00  0.00     0.019 A 
HETATM    4  C6  UNL     1      -3.096   1.708   1.198  1.00  0.00     0.056 A 
HETATM    5  C7  UNL     1      -3.887   1.827   0.079  1.00  0.00     0.072 A 
HETATM    6  C8  UNL     1      -3.423   1.272  -1.087  1.00  0.00    -0.028 A 
HETATM    7  C9  UNL     1      -4.290   1.404  -2.309  1.00  0.00     0.051 C 
HETATM    8  C10 UNL     1      -2.227   0.628  -1.135  1.00  0.00     0.023 A 
HETATM    9  C11 UNL     1      -1.383   0.480  -0.020  1.00  0.00    -0.006 A 
HETATM   10  C12 UNL     1      -0.177  -0.139   0.044  1.00  0.00     0.013 A 
ENDROOT
BRANCH  10  11
HETATM   11  C13 UNL     1       0.478  -0.798  -1.133  1.00  0.00     0.021 A 
HETATM   12  C14 UNL     1       1.302  -0.029  -1.903  1.00  0.00    -0.045 A 
HETATM   13  C15 UNL     1       1.543   1.386  -1.598  1.00  0.00     0.049 C 
HETATM   14  C16 UNL     1       1.923  -0.623  -3.007  1.00  0.00     0.050 A 
HETATM   15  C17 UNL     1       1.704  -1.957  -3.307  1.00  0.00     0.119 A 
HETATM   16  F1  UNL     1       2.310  -2.548  -4.388  1.00  0.00    -0.206 F 
HETATM   17  C18 UNL     1       0.871  -2.726  -2.524  1.00  0.00     0.085 A 
HETATM   18  C19 UNL     1       0.268  -2.119  -1.439  1.00  0.00     0.131 A 
HETATM   19  F2  UNL     1      -0.550  -2.861  -0.665  1.00  0.00    -0.205 F 
ENDBRANCH  10  11
BRANCH   1  20
HETATM   20  C3  UNL     1       1.739  -0.731   1.616  1.00  0.00     0.301 C 
HETATM   21  O2  UNL     1       2.407  -1.315   0.747  1.00  0.00    -0.259 OA
BRANCH  20  22
HETATM   22  O1  UNL     1       2.201  -0.634   2.898  1.00  0.00    -0.317 OA
BRANCH  22  23
HETATM   23  C2  UNL     1       3.414  -1.153   3.351  1.00  0.00     0.174 C 
HETATM   24  C1  UNL     1       3.584  -0.853   4.813  1.00  0.00     0.034 C 
ENDBRANCH  22  23
ENDBRANCH  20  22
ENDBRANCH   1  20
BRANCH   5  25
HETATM   25  O3  UNL     1      -5.099   2.487   0.155  1.00  0.00    -0.360 OA
ATOM     26  H3  UNL     1      -5.645   2.569  -0.618  1.00  0.00     0.217 HD
ENDBRANCH   5  25
TORSDOF 5
