REMARK  1 active torsions:
REMARK  status: ('A' for Active; 'I' for Inactive)
REMARK    1  A    between atoms: C4_4  and  C5_5 
ROOT
HETATM    1  C5  UNL     1       1.278  -0.191   0.404  1.00  0.00     0.077 C 
HETATM    2  N1  UNL     1       2.172  -0.424   1.305  1.00  0.00    -0.378 N 
ATOM      3  H1  UNL     1       1.958  -0.665   2.273  1.00  0.00     0.160 HD
HETATM    4  C6  UNL     1       3.502  -0.304   0.783  1.00  0.00     0.140 C 
HETATM    5  C7  UNL     1       3.300   0.492  -0.495  1.00  0.00     0.140 C 
HETATM    6  N2  UNL     1       1.919   0.112  -0.826  1.00  0.00    -0.378 N 
ATOM      7  H2  UNL     1       1.503   0.074  -1.757  1.00  0.00     0.160 HD
ENDROOT
BRANCH   1   8
HETATM    8  C4  UNL     1      -0.188  -0.248   0.681  1.00  0.00     0.053 C 
HETATM    9  C3  UNL     1      -0.776   1.116   0.388  1.00  0.00     0.012 C 
HETATM   10  C2  UNL     1      -2.262   1.140   0.567  1.00  0.00     0.001 C 
HETATM   11  C1  UNL     1      -2.943   0.079  -0.275  1.00  0.00     0.000 C 
HETATM   12  C9  UNL     1      -2.338  -1.251   0.127  1.00  0.00     0.001 C 
HETATM   13  C8  UNL     1      -0.877  -1.216  -0.288  1.00  0.00     0.012 C 
ENDBRANCH   1   8
TORSDOF 1
