REMARK  6 active torsions:
REMARK  status: ('A' for Active; 'I' for Inactive)
REMARK    1  A    between atoms: O1_2  and  C2_3 
REMARK    2  A    between atoms: C3_4  and  O2_5 
REMARK    3  A    between atoms: C4_7  and  O3_8 
REMARK    4  A    between atoms: C7_12  and  C8_13 
REMARK    5  A    between atoms: C11_16  and  O4_18 
REMARK    6  A    between atoms: C19_26  and  O5_27 
ROOT
HETATM    1  C2  UNL     1       2.354   1.237   0.535  1.00  0.00     0.115 A 
HETATM    2  C3  UNL     1       1.508   2.189   0.972  1.00  0.00     0.134 A 
HETATM    3  C4  UNL     1       0.185   1.930   1.011  1.00  0.00     0.109 A 
HETATM    4  C5  UNL     1      -0.318   0.694   0.605  1.00  0.00     0.003 A 
HETATM    5  C6  UNL     1       0.558  -0.255   0.164  1.00  0.00    -0.000 A 
HETATM    6  C7  UNL     1       1.957  -0.047   0.100  1.00  0.00     0.015 A 
HETATM    7  C11 UNL     1       0.124  -1.568  -0.297  1.00  0.00     0.086 C 
HETATM    8  C12 UNL     1       0.251  -1.561  -1.825  1.00  0.00     0.051 C 
HETATM    9  C13 UNL     1      -1.356  -1.838  -0.081  1.00  0.00     0.078 C 
HETATM   10  C14 UNL     1      -2.185  -0.634  -0.096  1.00  0.00    -0.059 C 
HETATM   11  C15 UNL     1      -3.274  -0.657  -0.850  1.00  0.00    -0.080 C 
HETATM   12  C16 UNL     1      -3.725  -1.783  -1.676  1.00  0.00     0.043 C 
HETATM   13  C17 UNL     1      -4.203   0.541  -0.870  1.00  0.00     0.036 C 
HETATM   14  C18 UNL     1      -4.103   1.217   0.471  1.00  0.00     0.037 C 
HETATM   15  C19 UNL     1      -2.636   1.664   0.558  1.00  0.00     0.135 C 
HETATM   16  C20 UNL     1      -1.770   0.510   0.708  1.00  0.00     0.036 C 
HETATM   17  C21 UNL     1      -1.968   0.021   2.183  1.00  0.00     0.028 C 
ENDROOT
BRANCH   6  18
HETATM   18  C8  UNL     1       3.021  -0.842  -0.325  1.00  0.00    -0.058 C 
HETATM   19  C9  UNL     1       3.336  -2.169  -0.674  1.00  0.00     0.019 C 
HETATM   20  C10 UNL     1       3.784  -0.010  -1.413  1.00  0.00     0.048 C 
ENDBRANCH   6  18
BRANCH   1  21
HETATM   21  O1  UNL     1       3.718   1.622   0.543  1.00  0.00    -0.352 OA
HETATM   22  C1  UNL     1       4.552   1.458   1.673  1.00  0.00     0.210 C 
ENDBRANCH   1  21
BRANCH   2  23
HETATM   23  O2  UNL     1       1.958   3.462   1.395  1.00  0.00    -0.356 OA
ATOM     24  H2  UNL     1       1.361   4.134   1.703  1.00  0.00     0.218 HD
ENDBRANCH   2  23
BRANCH   7  25
HETATM   25  O4  UNL     1       0.617  -2.670   0.336  1.00  0.00    -0.385 OA
ATOM     26  H4  UNL     1       0.334  -3.526   0.036  1.00  0.00     0.211 HD
ENDBRANCH   7  25
BRANCH   3  27
HETATM   27  O3  UNL     1      -0.640   2.914   1.460  1.00  0.00    -0.357 OA
ATOM     28  H3  UNL     1      -1.572   2.732   1.487  1.00  0.00     0.217 HD
ENDBRANCH   3  27
BRANCH  15  29
HETATM   29  O5  UNL     1      -2.491   2.388  -0.642  1.00  0.00    -0.394 OA
ATOM     30  H5  UNL     1      -1.584   2.664  -0.588  1.00  0.00     0.210 HD
ENDBRANCH  15  29
TORSDOF 6
