REMARK  4 active torsions:
REMARK  status: ('A' for Active; 'I' for Inactive)
REMARK       I    between atoms: C1_4  and  N2_5 
REMARK       I    between atoms: C1_4  and  N5_18 
REMARK    1  A    between atoms: N3_7  and  C2_9 
REMARK    2  A    between atoms: C6_13  and  N4_14 
REMARK    3  A    between atoms: N5_18  and  C8_20 
REMARK    4  A    between atoms: C12_25  and  C13_26 
ROOT
HETATM    1  N1  UNL     1       1.025   1.128   2.082  1.00  0.00    -0.233 N 
ATOM      2  H11 UNL     1       1.933   1.552   2.274  1.00  0.00     0.174 HD
ATOM      3  H12 UNL     1       0.462   0.775   2.856  1.00  0.00     0.174 HD
HETATM    4  C1  UNL     1       0.596   1.040   0.887  1.00  0.00     0.691 C 
HETATM    5  N2  UNL     1      -0.657   0.455   0.622  1.00  0.00    -0.132 N 
ATOM      6  H2  UNL     1      -0.721  -0.507   0.289  1.00  0.00     0.205 HD
HETATM    7  N3  UNL     1      -1.692   1.137   0.803  1.00  0.00    -0.287 N 
ATOM      8  H3  UNL     1      -1.562   2.092   1.137  1.00  0.00     0.187 HD
HETATM    9  N5  UNL     1       1.375   1.529  -0.185  1.00  0.00    -0.191 N 
ATOM     10  H5  UNL     1       1.063   2.363  -0.682  1.00  0.00     0.184 HD
ENDROOT
BRANCH   9  11
HETATM   11  C8  UNL     1       2.593   0.889  -0.597  1.00  0.00     0.050 A 
HETATM   12  C9  UNL     1       3.307   1.414  -1.648  1.00  0.00     0.033 A 
HETATM   13  C10 UNL     1       4.501   0.836  -2.095  1.00  0.00     0.045 A 
HETATM   14  C11 UNL     1       4.967  -0.294  -1.456  1.00  0.00     0.131 A 
HETATM   15  F1  UNL     1       6.111  -0.921  -1.818  1.00  0.00    -0.205 F 
HETATM   16  C12 UNL     1       4.240  -0.808  -0.404  1.00  0.00     0.088 A 
HETATM   17  C14 UNL     1       3.063  -0.239   0.038  1.00  0.00     0.049 A 
BRANCH  16  18
HETATM   18  C13 UNL     1       4.744  -2.025   0.284  1.00  0.00     0.420 C 
HETATM   19  F2  UNL     1       4.800  -3.021  -0.700  1.00  0.00    -0.166 F 
HETATM   20  F3  UNL     1       3.854  -2.482   1.229  1.00  0.00    -0.166 F 
HETATM   21  F4  UNL     1       6.011  -1.864   0.772  1.00  0.00    -0.166 F 
ENDBRANCH  16  18
ENDBRANCH   9  11
BRANCH   7  22
HETATM   22  C2  UNL     1      -3.015   0.714   0.590  1.00  0.00     0.051 A 
HETATM   23  C3  UNL     1      -4.020   1.671   0.576  1.00  0.00     0.031 A 
HETATM   24  C4  UNL     1      -5.347   1.356   0.376  1.00  0.00     0.005 A 
HETATM   25  C5  UNL     1      -5.666   0.015   0.182  1.00  0.00     0.036 A 
HETATM   26  C6  UNL     1      -4.697  -0.961   0.189  1.00  0.00     0.105 A 
HETATM   27  C7  UNL     1      -3.381  -0.614   0.392  1.00  0.00     0.067 A 
BRANCH  26  28
HETATM   28  N4  UNL     1      -5.017  -2.325  -0.007  1.00  0.00    -0.116 N 
HETATM   29  O1  UNL     1      -4.134  -3.199   0.002  1.00  0.00    -0.532 OA
HETATM   30  O2  UNL     1      -6.316  -2.683  -0.209  1.00  0.00    -0.532 OA
ENDBRANCH  26  28
ENDBRANCH   7  22
TORSDOF 4
