REMARK  11 active torsions:
REMARK  status: ('A' for Active; 'I' for Inactive)
REMARK    1  A    between atoms: C2_2  and  O1_3 
REMARK    2  A    between atoms: O1_3  and  C3_4 
REMARK    3  A    between atoms: C3_4  and  C4_5 
REMARK    4  A    between atoms: C4_5  and  C5_6 
REMARK    5  A    between atoms: C5_6  and  C6_7 
REMARK    6  A    between atoms: C6_7  and  C7_8 
REMARK    7  A    between atoms: C6_7  and  O2_10 
REMARK    8  A    between atoms: O2_10  and  C9_11 
REMARK    9  A    between atoms: C9_11  and  C11_13 
REMARK   10  A    between atoms: C11_13  and  C12_14 
REMARK   11  A    between atoms: C12_14  and  C13_15 
ROOT
HETATM    1  C6  UNL     1       0.401   0.826  -0.293  1.00  0.00     0.121 C 
ENDROOT
BRANCH   1   2
HETATM    2  C5  UNL     1       1.417   1.375   0.696  1.00  0.00     0.034 C 
BRANCH   2   3
HETATM    3  C4  UNL     1       2.713   0.586   0.693  1.00  0.00     0.029 C 
BRANCH   3   4
HETATM    4  C3  UNL     1       2.504  -0.842   1.053  1.00  0.00     0.167 C 
BRANCH   4   5
HETATM    5  O1  UNL     1       3.635  -1.612   1.097  1.00  0.00    -0.391 OA
BRANCH   5   6
HETATM    6  C2  UNL     1       4.261  -1.659  -0.130  1.00  0.00     0.163 C 
HETATM    7  C1  UNL     1       5.490  -2.569  -0.085  1.00  0.00     0.033 C 
ENDBRANCH   5   6
ENDBRANCH   4   5
ENDBRANCH   3   4
ENDBRANCH   2   3
ENDBRANCH   1   2
BRANCH   1   8
HETATM    8  C7  UNL     1       0.943   0.863  -1.702  1.00  0.00     0.027 C 
HETATM    9  C8  UNL     1      -0.018   0.324  -2.732  1.00  0.00     0.007 C 
ENDBRANCH   1   8
BRANCH   1  10
HETATM   10  O2  UNL     1      -0.669   1.702  -0.237  1.00  0.00    -0.381 OA
BRANCH  10  11
HETATM   11  C9  UNL     1      -1.829   1.222   0.298  1.00  0.00     0.118 C 
HETATM   12  C10 UNL     1      -2.177   1.857   1.632  1.00  0.00     0.039 C 
BRANCH  11  13
HETATM   13  C11 UNL     1      -3.015   1.294  -0.576  1.00  0.00     0.036 C 
BRANCH  13  14
HETATM   14  C12 UNL     1      -4.284   0.771   0.015  1.00  0.00     0.041 C 
BRANCH  14  15
HETATM   15  C13 UNL     1      -4.225  -0.642   0.402  1.00  0.00    -0.058 A 
HETATM   16  C14 UNL     1      -3.629  -1.861   0.548  1.00  0.00     0.007 A 
HETATM   17  C15 UNL     1      -4.941  -1.800   0.985  1.00  0.00     0.007 A 
ENDBRANCH  14  15
ENDBRANCH  13  14
ENDBRANCH  11  13
ENDBRANCH  10  11
ENDBRANCH   1  10
TORSDOF 11
