REMARK  16 active torsions:
REMARK  status: ('A' for Active; 'I' for Inactive)
REMARK    1  A    between atoms: N1_5  and  C5_7 
REMARK    2  A    between atoms: C5_7  and  C6_8 
REMARK    3  A    between atoms: C6_8  and  C7_9 
REMARK    4  A    between atoms: C7_9  and  C8_10 
REMARK    5  A    between atoms: C8_10  and  N2_11 
REMARK       I    between atoms: C9_13  and  N4_15 
REMARK    6  A    between atoms: N4_15  and  C10_17 
REMARK    7  A    between atoms: C10_17  and  C11_18 
REMARK    8  A    between atoms: C11_18  and  N5_19 
REMARK    9  A    between atoms: C12_25  and  N7_26 
REMARK   10  A    between atoms: N7_26  and  C13_28 
REMARK   11  A    between atoms: C13_28  and  C14_29 
REMARK   12  A    between atoms: C14_29  and  N8_30 
REMARK       I    between atoms: N8_30  and  C15_32 
REMARK   13  A    between atoms: C15_32  and  C16_34 
REMARK   14  A    between atoms: C16_34  and  C17_35 
REMARK   15  A    between atoms: C17_35  and  C18_36 
REMARK   16  A    between atoms: C18_36  and  N9_37 
ROOT
HETATM    1  C1  UNL     1      -1.005  -2.295   2.544  1.00  0.00     0.069 C 
HETATM    2  C2  UNL     1      -0.014  -1.907   1.491  1.00  0.00     0.026 A 
HETATM    3  C3  UNL     1      -0.429  -1.296   0.314  1.00  0.00     0.073 A 
HETATM    4  C4  UNL     1       0.420  -0.908  -0.695  1.00  0.00     0.118 A 
HETATM    5  N1  UNL     1       0.065  -0.343  -1.795  1.00  0.00    -0.376 N 
ATOM      6  H1  UNL     1       0.751  -0.082  -2.503  1.00  0.00     0.161 HD
HETATM    7  N6  UNL     1       1.748  -1.165  -0.473  1.00  0.00    -0.177 N 
ATOM      8  H6  UNL     1       2.435  -0.904  -1.180  1.00  0.00     0.186 HD
HETATM    9  C12 UNL     1       2.160  -1.757   0.664  1.00  0.00     0.683 A 
HETATM   10  N10 UNL     1       1.311  -2.125   1.632  1.00  0.00    -0.196 N 
ATOM     11  H10 UNL     1       1.666  -2.571   2.478  1.00  0.00     0.184 HD
ENDROOT
BRANCH   5  12
HETATM   12  C5  UNL     1      -1.373  -0.089  -1.990  1.00  0.00     0.121 C 
BRANCH  12  13
HETATM   13  C6  UNL     1      -2.044  -1.281  -2.580  1.00  0.00     0.021 C 
BRANCH  13  14
HETATM   14  C7  UNL     1      -3.484  -1.194  -2.884  1.00  0.00     0.021 C 
BRANCH  14  15
HETATM   15  C8  UNL     1      -4.392  -0.940  -1.742  1.00  0.00     0.122 C 
BRANCH  15  16
HETATM   16  N2  UNL     1      -4.187   0.307  -1.099  1.00  0.00    -0.365 N 
HETATM   17  C9  UNL     1      -5.074   1.233  -1.045  1.00  0.00     0.184 C 
HETATM   18  N3  UNL     1      -4.743   2.444  -0.366  1.00  0.00    -0.064 NA
HETATM   19  N4  UNL     1      -6.367   1.083  -1.638  1.00  0.00    -0.363 N 
ATOM     20  H4  UNL     1      -6.517   1.303  -2.622  1.00  0.00     0.162 HD
ATOM     21  H2  UNL     1      -3.285   0.478  -0.655  1.00  0.00     0.162 HD
BRANCH  19  22
HETATM   22  C10 UNL     1      -7.459   0.611  -0.810  1.00  0.00     0.149 C 
BRANCH  22  23
HETATM   23  C11 UNL     1      -7.836   1.626   0.229  1.00  0.00     0.249 C 
BRANCH  23  24
HETATM   24  N5  UNL     1      -8.247   2.840  -0.448  1.00  0.00    -0.078 N 
ATOM     25  H53 UNL     1      -7.540   3.186  -1.097  1.00  0.00     0.274 HD
ATOM     26  H52 UNL     1      -8.991   2.678  -1.127  1.00  0.00     0.274 HD
ATOM     27  H51 UNL     1      -8.503   3.530   0.258  1.00  0.00     0.274 HD
ENDBRANCH  23  24
ENDBRANCH  22  23
ENDBRANCH  19  22
ENDBRANCH  15  16
ENDBRANCH  14  15
ENDBRANCH  13  14
ENDBRANCH  12  13
ENDBRANCH   5  12
BRANCH   9  28
HETATM   28  N7  UNL     1       3.430  -1.940   0.767  1.00  0.00    -0.200 N 
ATOM     29  H7  UNL     1       3.986  -1.616  -0.025  1.00  0.00     0.183 HD
BRANCH  28  30
HETATM   30  C13 UNL     1       4.158  -2.524   1.818  1.00  0.00     0.123 C 
BRANCH  30  31
HETATM   31  C14 UNL     1       5.000  -1.586   2.618  1.00  0.00     0.108 C 
BRANCH  31  32
HETATM   32  N8  UNL     1       6.045  -0.941   1.932  1.00  0.00    -0.336 N 
HETATM   33  C15 UNL     1       6.006  -0.017   0.894  1.00  0.00     0.221 C 
HETATM   34  O1  UNL     1       4.956   0.411   0.395  1.00  0.00    -0.273 OA
ATOM     35  H8  UNL     1       6.982  -1.192   2.247  1.00  0.00     0.168 HD
BRANCH  33  36
HETATM   36  C16 UNL     1       7.271   0.521   0.311  1.00  0.00     0.105 C 
BRANCH  36  37
HETATM   37  C17 UNL     1       7.107   1.576  -0.708  1.00  0.00     0.036 C 
BRANCH  37  38
HETATM   38  C18 UNL     1       6.446   2.837  -0.286  1.00  0.00     0.230 C 
BRANCH  38  39
HETATM   39  N9  UNL     1       7.138   3.520   0.792  1.00  0.00    -0.079 N 
ATOM     40  H93 UNL     1       7.270   2.897   1.589  1.00  0.00     0.274 HD
ATOM     41  H92 UNL     1       8.113   3.688   0.546  1.00  0.00     0.274 HD
ATOM     42  H91 UNL     1       6.684   4.386   1.082  1.00  0.00     0.274 HD
ENDBRANCH  38  39
ENDBRANCH  37  38
ENDBRANCH  36  37
ENDBRANCH  33  36
ENDBRANCH  31  32
ENDBRANCH  30  31
ENDBRANCH  28  30
ENDBRANCH   9  28
TORSDOF 16
