REMARK  21 active torsions:
REMARK  status: ('A' for Active; 'I' for Inactive)
REMARK    1  A    between atoms: C2_2  and  C3_3 
REMARK    2  A    between atoms: C3_3  and  C4_4 
REMARK    3  A    between atoms: C4_4  and  C5_5 
REMARK    4  A    between atoms: C5_5  and  C6_6 
REMARK    5  A    between atoms: C6_6  and  C7_7 
REMARK    6  A    between atoms: C7_7  and  C8_8 
REMARK    7  A    between atoms: C8_8  and  C9_9 
REMARK    8  A    between atoms: C9_9  and  C10_10 
REMARK    9  A    between atoms: C10_10  and  C11_11 
REMARK   10  A    between atoms: C11_11  and  C12_12 
REMARK   11  A    between atoms: C12_12  and  S1_13 
REMARK   12  A    between atoms: S1_13  and  N1_16 
REMARK   13  A    between atoms: N1_16  and  C13_18 
REMARK   14  A    between atoms: C13_18  and  C14_19 
REMARK   15  A    between atoms: C16_21  and  N2_22 
REMARK       I    between atoms: N2_22  and  C17_23 
REMARK   16  A    between atoms: C17_23  and  C18_25 
REMARK   17  A    between atoms: C19_26  and  N3_27 
REMARK       I    between atoms: N3_27  and  C20_29 
REMARK   18  A    between atoms: C20_29  and  O5_31 
REMARK   19  A    between atoms: O5_31  and  C21_32 
REMARK   20  A    between atoms: C27_44  and  O8_45 
REMARK   21  A    between atoms: C28_47  and  O9_48 
ROOT
HETATM    1  C14 UNL     1      -1.207  -1.495   0.883  1.00  0.00     0.072 C 
HETATM    2  C15 UNL     1      -2.173  -0.248   0.563  1.00  0.00     0.137 C 
HETATM    3  C16 UNL     1      -3.325  -0.925  -0.197  1.00  0.00     0.106 C 
HETATM    4  C27 UNL     1      -2.673  -1.933  -1.116  1.00  0.00     0.233 C 
HETATM    5  C28 UNL     1      -2.397  -3.046  -0.197  1.00  0.00     0.298 C 
HETATM    6  O10 UNL     1      -1.640  -2.624   0.900  1.00  0.00    -0.320 OA
ENDROOT
BRANCH   3   7
HETATM    7  N2  UNL     1      -4.394  -1.098   0.387  1.00  0.00    -0.372 NA
HETATM    8  C17 UNL     1      -5.761  -1.333   1.169  1.00  0.00     0.335 C 
HETATM    9  O3  UNL     1      -5.800  -1.667   2.044  1.00  0.00    -0.251 OA
BRANCH   8  10
HETATM   10  C18 UNL     1      -6.512  -0.714  -0.089  1.00  0.00     0.158 A 
HETATM   11  C19 UNL     1      -6.757   0.612  -0.088  1.00  0.00     0.136 A 
HETATM   12  N4  UNL     1      -7.176   1.149  -1.169  1.00  0.00    -0.293 N 
HETATM   13  C25 UNL     1      -7.438   0.435  -2.288  1.00  0.00     0.328 A 
ATOM     14  H4  UNL     1      -7.319   2.159  -1.189  1.00  0.00     0.172 HD
HETATM   15  O6  UNL     1      -7.869   1.021  -3.359  1.00  0.00    -0.247 OA
HETATM   16  N5  UNL     1      -7.252  -0.895  -2.296  1.00  0.00    -0.274 N 
HETATM   17  C26 UNL     1      -6.792  -1.491  -1.232  1.00  0.00     0.270 A 
ATOM     18  H5  UNL     1      -7.470  -1.437  -3.132  1.00  0.00     0.173 HD
HETATM   19  O7  UNL     1      -6.588  -2.767  -1.098  1.00  0.00    -0.267 OA
BRANCH  11  20
HETATM   20  N3  UNL     1      -6.549   1.179   1.275  1.00  0.00    -0.287 N 
HETATM   21  C20 UNL     1      -7.762   2.001   1.500  1.00  0.00     0.367 C 
HETATM   22  O4  UNL     1      -7.892   2.628   2.526  1.00  0.00    -0.238 OA
ATOM     23  H3  UNL     1      -5.759   1.035   1.904  1.00  0.00     0.172 HD
BRANCH  21  24
HETATM   24  O5  UNL     1      -8.745   1.893   0.525  1.00  0.00    -0.294 OA
BRANCH  24  25
HETATM   25  C21 UNL     1     -10.099   2.193   0.612  1.00  0.00     0.061 C 
HETATM   26  C22 UNL     1     -10.593   0.992   1.533  1.00  0.00     0.046 C 
HETATM   27  C23 UNL     1     -10.678   3.410   1.133  1.00  0.00     0.046 C 
HETATM   28  C24 UNL     1     -10.684   1.907  -0.752  1.00  0.00     0.046 C 
ENDBRANCH  24  25
ENDBRANCH  21  24
ENDBRANCH  11  20
ENDBRANCH   8  10
ENDBRANCH   3   7
BRANCH   4  29
HETATM   29  O8  UNL     1      -3.552  -2.262  -2.136  1.00  0.00    -0.384 OA
ATOM     30  H8  UNL     1      -3.142  -2.895  -2.713  1.00  0.00     0.210 HD
ENDBRANCH   4  29
BRANCH   1  31
HETATM   31  C13 UNL     1       0.095  -0.851   0.541  1.00  0.00     0.132 C 
BRANCH  31  32
HETATM   32  N1  UNL     1       1.126  -1.320   1.368  1.00  0.00    -0.293 N 
ATOM     33  H1  UNL     1       1.161  -2.172   1.928  1.00  0.00     0.177 HD
BRANCH  32  34
HETATM   34  S1  UNL     1       2.291  -0.116   1.199  1.00  0.00     0.230 S 
HETATM   35  O1  UNL     1       3.292  -0.137   2.348  1.00  0.00    -0.206 OA
HETATM   36  O2  UNL     1       1.341   1.166   1.617  1.00  0.00    -0.206 OA
BRANCH  34  37
HETATM   37  C12 UNL     1       2.864   0.285  -0.355  1.00  0.00     0.163 C 
BRANCH  37  38
HETATM   38  C11 UNL     1       4.387   0.488  -0.106  1.00  0.00     0.017 C 
BRANCH  38  39
HETATM   39  C10 UNL     1       5.000   0.622  -1.443  1.00  0.00     0.001 C 
BRANCH  39  40
HETATM   40  C9  UNL     1       6.458   0.513  -1.377  1.00  0.00     0.000 C 
BRANCH  40  41
HETATM   41  C8  UNL     1       7.091  -0.757  -0.898  1.00  0.00     0.000 C 
BRANCH  41  42
HETATM   42  C7  UNL     1       7.115  -1.130   0.507  1.00  0.00     0.000 C 
BRANCH  42  43
HETATM   43  C6  UNL     1       8.453  -1.796   0.931  1.00  0.00     0.000 C 
BRANCH  43  44
HETATM   44  C5  UNL     1       9.524  -0.885   1.314  1.00  0.00     0.000 C 
BRANCH  44  45
HETATM   45  C4  UNL     1      10.612  -0.428   0.483  1.00  0.00     0.000 C 
BRANCH  45  46
HETATM   46  C3  UNL     1      10.326   0.314  -0.765  1.00  0.00    -0.000 C 
BRANCH  46  47
HETATM   47  C2  UNL     1      11.428   1.347  -1.013  1.00  0.00    -0.005 C 
HETATM   48  C1  UNL     1      11.117   2.534  -0.077  1.00  0.00     0.005 C 
ENDBRANCH  46  47
ENDBRANCH  45  46
ENDBRANCH  44  45
ENDBRANCH  43  44
ENDBRANCH  42  43
ENDBRANCH  41  42
ENDBRANCH  40  41
ENDBRANCH  39  40
ENDBRANCH  38  39
ENDBRANCH  37  38
ENDBRANCH  34  37
ENDBRANCH  32  34
ENDBRANCH  31  32
ENDBRANCH   1  31
BRANCH   5  49
HETATM   49  O9  UNL     1      -1.684  -4.108  -0.795  1.00  0.00    -0.368 OA
ATOM     50  H9  UNL     1      -1.506  -4.828  -0.201  1.00  0.00     0.212 HD
ENDBRANCH   5  49
TORSDOF 21
