REMARK  19 active torsions:
REMARK  status: ('A' for Active; 'I' for Inactive)
REMARK    1  A    between atoms: C2_2  and  C3_3 
REMARK    2  A    between atoms: C3_3  and  C4_4 
REMARK    3  A    between atoms: C4_4  and  C5_5 
REMARK    4  A    between atoms: C5_5  and  N1_6 
REMARK    5  A    between atoms: N1_6  and  C6_8 
REMARK    6  A    between atoms: C6_8  and  C7_9 
REMARK    7  A    between atoms: C7_9  and  C8_10 
REMARK    8  A    between atoms: C8_10  and  C9_11 
REMARK    9  A    between atoms: C10_12  and  C11_13 
REMARK   10  A    between atoms: C10_12  and  N3_16 
REMARK   11  A    between atoms: C13_18  and  N4_19 
REMARK       I    between atoms: N4_19  and  C14_21 
REMARK   12  A    between atoms: C14_21  and  C15_23 
REMARK   13  A    between atoms: C15_23  and  C17_25 
REMARK   14  A    between atoms: C17_25  and  C18_26 
REMARK   15  A    between atoms: C18_26  and  C19_27 
REMARK   16  A    between atoms: C19_27  and  C20_28 
REMARK   17  A    between atoms: C27_40  and  O5_41 
REMARK   18  A    between atoms: C28_43  and  O6_44 
REMARK   19  A    between atoms: C29_46  and  O7_47 
ROOT
HETATM    1  N3  UNL     1      -0.136  -0.482  -0.606  1.00  0.00    -0.311 N 
HETATM    2  C12 UNL     1      -1.544  -0.482  -1.023  1.00  0.00     0.157 C 
HETATM    3  C13 UNL     1      -2.468   0.194  -0.049  1.00  0.00     0.102 C 
HETATM    4  C21 UNL     1      -3.451  -0.807   0.521  1.00  0.00     0.027 C 
HETATM    5  C22 UNL     1      -4.119  -1.664  -0.496  1.00  0.00     0.004 C 
HETATM    6  C23 UNL     1      -5.380  -2.249   0.159  1.00  0.00     0.020 C 
HETATM    7  C24 UNL     1      -4.953  -3.519   0.886  1.00  0.00     0.125 C 
HETATM    8  N5  UNL     1      -5.661  -4.633   0.299  1.00  0.00    -0.337 N 
ATOM      9  H5  UNL     1      -6.528  -4.448  -0.205  1.00  0.00     0.164 HD
HETATM   10  C25 UNL     1      -5.199  -5.986   0.393  1.00  0.00     0.360 C 
HETATM   11  O3  UNL     1      -6.089  -6.898   0.524  1.00  0.00    -0.239 OA
HETATM   12  O4  UNL     1      -3.862  -6.319   0.349  1.00  0.00    -0.301 OA
HETATM   13  C26 UNL     1      -2.940  -5.900  -0.636  1.00  0.00     0.215 C 
HETATM   14  C27 UNL     1      -1.543  -5.754  -0.039  1.00  0.00     0.173 C 
HETATM   15  C28 UNL     1      -0.603  -5.088  -1.002  1.00  0.00     0.178 C 
HETATM   16  C29 UNL     1       0.408  -4.189  -0.289  1.00  0.00     0.162 C 
HETATM   17  C30 UNL     1      -0.268  -2.918   0.233  1.00  0.00     0.105 C 
HETATM   18  C31 UNL     1      -0.149  -2.922   1.743  1.00  0.00     0.022 C 
HETATM   19  C32 UNL     1       0.429  -1.710  -0.258  1.00  0.00     0.231 C 
HETATM   20  O8  UNL     1       1.667  -1.869  -0.349  1.00  0.00    -0.273 OA
ENDROOT
BRANCH   1  21
HETATM   21  C10 UNL     1       0.497   0.814  -0.632  1.00  0.00     0.102 C 
HETATM   22  C9  UNL     1       0.994   1.376   0.605  1.00  0.00     0.031 C 
BRANCH  22  23
HETATM   23  C8  UNL     1       2.204   0.911   1.296  1.00  0.00    -0.023 C 
BRANCH  23  24
HETATM   24  C7  UNL     1       3.541   1.037   0.713  1.00  0.00     0.046 C 
BRANCH  24  25
HETATM   25  C6  UNL     1       4.072   2.436   0.527  1.00  0.00     0.117 C 
BRANCH  25  26
HETATM   26  N1  UNL     1       5.376   2.366  -0.087  1.00  0.00    -0.421 N 
ATOM     27  H1  UNL     1       5.552   2.691  -1.038  1.00  0.00     0.153 HD
BRANCH  26  28
HETATM   28  C5  UNL     1       6.403   1.808   0.735  1.00  0.00     0.113 C 
BRANCH  28  29
HETATM   29  C4  UNL     1       7.682   1.825  -0.088  1.00  0.00     0.019 C 
BRANCH  29  30
HETATM   30  C3  UNL     1       8.855   1.271   0.648  1.00  0.00     0.001 C 
BRANCH  30  31
HETATM   31  C2  UNL     1       8.644  -0.149   1.059  1.00  0.00    -0.004 C 
HETATM   32  C1  UNL     1       9.897  -0.609   1.783  1.00  0.00     0.005 C 
ENDBRANCH  30  31
ENDBRANCH  29  30
ENDBRANCH  28  29
ENDBRANCH  26  28
ENDBRANCH  25  26
ENDBRANCH  24  25
ENDBRANCH  23  24
ENDBRANCH  22  23
BRANCH  21  33
HETATM   33  C11 UNL     1       1.409   0.934  -1.783  1.00  0.00     0.281 C 
HETATM   34  N2  UNL     1       1.896  -0.119  -2.596  1.00  0.00    -0.056 NA
HETATM   35  O1  UNL     1       1.858   2.080  -2.161  1.00  0.00    -0.269 OA
ENDBRANCH  21  33
ENDBRANCH   1  21
BRANCH   3  36
HETATM   36  N4  UNL     1      -3.148   1.338  -0.613  1.00  0.00    -0.355 N 
HETATM   37  C14 UNL     1      -3.166   2.646  -0.100  1.00  0.00     0.221 C 
HETATM   38  O2  UNL     1      -2.556   2.913   0.944  1.00  0.00    -0.273 OA
ATOM     39  H4  UNL     1      -3.670   1.179  -1.475  1.00  0.00     0.162 HD
BRANCH  37  40
HETATM   40  C15 UNL     1      -3.914   3.688  -0.812  1.00  0.00     0.074 C 
HETATM   41  C16 UNL     1      -3.327   3.848  -2.212  1.00  0.00     0.020 C 
BRANCH  40  42
HETATM   42  C17 UNL     1      -4.156   4.966  -0.135  1.00  0.00     0.013 C 
BRANCH  42  43
HETATM   43  C18 UNL     1      -3.006   5.794   0.288  1.00  0.00     0.003 C 
BRANCH  43  44
HETATM   44  C19 UNL     1      -3.434   7.094   0.958  1.00  0.00     0.031 C 
BRANCH  44  45
HETATM   45  C20 UNL     1      -4.267   7.950   0.037  1.00  0.00     0.222 C 
HETATM   46  F1  UNL     1      -4.592   9.098   0.747  1.00  0.00    -0.255 F 
ENDBRANCH  44  45
ENDBRANCH  43  44
ENDBRANCH  42  43
ENDBRANCH  40  42
ENDBRANCH  37  40
ENDBRANCH   3  36
BRANCH  16  47
HETATM   47  O7  UNL     1       0.973  -4.932   0.729  1.00  0.00    -0.392 OA
ATOM     48  H7  UNL     1       1.601  -4.374   1.172  1.00  0.00     0.210 HD
ENDBRANCH  16  47
BRANCH  15  49
HETATM   49  O6  UNL     1      -1.355  -4.314  -1.881  1.00  0.00    -0.390 OA
ATOM     50  H6  UNL     1      -0.760  -3.893  -2.490  1.00  0.00     0.210 HD
ENDBRANCH  15  49
BRANCH  14  51
HETATM   51  O5  UNL     1      -1.000  -7.019   0.242  1.00  0.00    -0.391 OA
ATOM     52  H5  UNL     1      -0.130  -6.928   0.614  1.00  0.00     0.210 HD
ENDBRANCH  14  51
TORSDOF 19
