REMARK  9 active torsions:
REMARK  status: ('A' for Active; 'I' for Inactive)
REMARK    1  A    between atoms: C6_6  and  C7_7 
REMARK    2  A    between atoms: C7_7  and  C8_8 
REMARK    3  A    between atoms: C8_8  and  N1_9 
REMARK    4  A    between atoms: C8_8  and  C9_13 
REMARK       I    between atoms: C9_13  and  N2_15 
REMARK    5  A    between atoms: N2_15  and  C10_17 
REMARK    6  A    between atoms: C10_17  and  C11_18 
REMARK    7  A    between atoms: C11_18  and  C12_19 
REMARK    8  A    between atoms: C12_19  and  N3_20 
REMARK    9  A    between atoms: N4_23  and  C15_24 
ROOT
HETATM    1  C9  UNL     1      -2.112   0.839  -1.407  1.00  0.00     0.248 C 
HETATM    2  O1  UNL     1      -1.912   1.533  -2.459  1.00  0.00    -0.271 OA
HETATM    3  N2  UNL     1      -1.070   0.142  -0.761  1.00  0.00    -0.359 N 
ATOM      4  H2  UNL     1      -1.247  -0.411   0.077  1.00  0.00     0.162 HD
ENDROOT
BRANCH   3   5
HETATM    5  C10 UNL     1       0.243   0.236  -1.319  1.00  0.00     0.124 C 
BRANCH   5   6
HETATM    6  C11 UNL     1       1.247  -0.605  -0.533  1.00  0.00     0.050 C 
BRANCH   6   7
HETATM    7  C12 UNL     1       2.628  -0.432  -1.178  1.00  0.00     0.274 C 
BRANCH   7   8
HETATM    8  N3  UNL     1       2.950   0.983  -1.078  1.00  0.00     0.094 N 
HETATM    9  C13 UNL     1       4.109   1.304  -1.912  1.00  0.00     0.292 C 
HETATM   10  C14 UNL     1       5.384   1.418  -1.120  1.00  0.00     0.152 C 
HETATM   11  N4  UNL     1       5.345   0.352  -0.146  1.00  0.00    -0.385 N 
HETATM   12  C21 UNL     1       4.405   0.559   0.884  1.00  0.00     0.088 C 
HETATM   13  C22 UNL     1       3.234   1.351   0.306  1.00  0.00     0.316 C 
BRANCH  11  14
HETATM   14  C15 UNL     1       6.548  -0.319   0.082  1.00  0.00     0.083 C 
HETATM   15  C16 UNL     1       6.540  -1.516   0.967  1.00  0.00     0.025 C 
HETATM   16  C17 UNL     1       7.574  -1.444   2.069  1.00  0.00     0.002 C 
HETATM   17  C18 UNL     1       8.962  -1.162   1.581  1.00  0.00     0.000 C 
HETATM   18  C19 UNL     1       8.945  -0.344   0.307  1.00  0.00     0.002 C 
HETATM   19  C20 UNL     1       7.733   0.591   0.456  1.00  0.00     0.025 C 
ENDBRANCH  11  14
ENDBRANCH   7   8
ENDBRANCH   6   7
ENDBRANCH   5   6
ENDBRANCH   3   5
BRANCH   1  20
HETATM   20  C8  UNL     1      -3.534   0.813  -0.904  1.00  0.00     0.275 C 
BRANCH  20  21
HETATM   21  C7  UNL     1      -3.936  -0.595  -0.719  1.00  0.00     0.047 C 
BRANCH  21  22
HETATM   22  C6  UNL     1      -5.303  -0.909  -0.252  1.00  0.00    -0.012 C 
HETATM   23  C5  UNL     1      -6.449  -0.529  -1.108  1.00  0.00     0.005 C 
HETATM   24  C4  UNL     1      -7.416   0.424  -0.439  1.00  0.00     0.009 C 
HETATM   25  C2  UNL     1      -7.926  -0.162   0.863  1.00  0.00    -0.048 C 
HETATM   26  C1  UNL     1      -9.061  -1.144   0.606  1.00  0.00     0.015 C 
HETATM   27  C3  UNL     1      -8.481   0.967   1.693  1.00  0.00     0.015 C 
HETATM   28  C24 UNL     1      -6.856  -0.861   1.633  1.00  0.00     0.009 C 
HETATM   29  C23 UNL     1      -5.512  -0.342   1.187  1.00  0.00     0.005 C 
ENDBRANCH  21  22
ENDBRANCH  20  21
BRANCH  20  30
HETATM   30  N1  UNL     1      -4.345   1.498  -1.856  1.00  0.00    -0.066 N 
ATOM     31  H13 UNL     1      -4.360   1.002  -2.747  1.00  0.00     0.275 HD
ATOM     32  H12 UNL     1      -5.333   1.429  -1.611  1.00  0.00     0.275 HD
ATOM     33  H11 UNL     1      -4.067   2.471  -1.984  1.00  0.00     0.275 HD
ENDBRANCH  20  30
ENDBRANCH   1  20
TORSDOF 9
