REMARK  9 active torsions:
REMARK  status: ('A' for Active; 'I' for Inactive)
REMARK    1  A    between atoms: C4_4  and  C5_5 
REMARK    2  A    between atoms: C5_5  and  C6_6 
REMARK    3  A    between atoms: C6_6  and  C7_7 
REMARK    4  A    between atoms: C8_8  and  C9_9 
REMARK    5  A    between atoms: C10_10  and  C11_11 
REMARK    6  A    between atoms: C14_16  and  C15_17 
REMARK    7  A    between atoms: C17_19  and  C18_20 
REMARK    8  A    between atoms: C19_23  and  C20_24 
REMARK    9  A    between atoms: C21_25  and  C22_26 
ROOT
HETATM    1  C1  UNL     1       3.499   4.373  -0.135  1.00  0.00     0.037 C 
HETATM    2  C2  UNL     1       3.074   3.249   0.400  1.00  0.00    -0.004 C 
HETATM    3  C3  UNL     1       1.651   2.848   0.341  1.00  0.00     0.062 C 
HETATM    4  C4  UNL     1       1.464   1.387   0.357  1.00  0.00     0.018 C 
HETATM    5  C17 UNL     1       2.464   0.543   1.065  1.00  0.00     0.118 C 
HETATM    6  C19 UNL     1       3.897   0.945   0.963  1.00  0.00     0.119 C 
HETATM    7  N1  UNL     1       4.012   2.417   1.041  1.00  0.00    -0.385 N 
ATOM      8  H1  UNL     1       4.780   2.835   1.566  1.00  0.00     0.160 HD
ENDROOT
BRANCH   4   9
HETATM    9  C5  UNL     1       1.169   0.860  -1.027  1.00  0.00     0.090 C 
BRANCH   9  10
HETATM   10  C6  UNL     1       0.064   0.519  -1.388  1.00  0.00    -0.155 C 
BRANCH  10  11
HETATM   11  C7  UNL     1      -1.249   0.114  -1.818  1.00  0.00     0.050 C 
HETATM   12  C8  UNL     1      -2.299   0.248  -0.970  1.00  0.00     0.007 C 
BRANCH  12  13
HETATM   13  C9  UNL     1      -3.646  -0.146  -1.364  1.00  0.00    -0.003 C 
HETATM   14  C10 UNL     1      -4.686  -0.023  -0.595  1.00  0.00    -0.019 C 
BRANCH  14  15
HETATM   15  C11 UNL     1      -6.038  -0.406  -0.965  1.00  0.00     0.046 C 
HETATM   16  C12 UNL     1      -6.044  -1.229  -2.232  1.00  0.00     0.188 C 
HETATM   17  O1  UNL     1      -5.524  -2.490  -1.795  1.00  0.00    -0.320 OA
HETATM   18  C13 UNL     1      -6.037  -2.729  -0.528  1.00  0.00     0.263 C 
HETATM   19  O2  UNL     1      -6.014  -3.820   0.065  1.00  0.00    -0.265 OA
HETATM   20  C14 UNL     1      -6.608  -1.472  -0.016  1.00  0.00     0.095 C 
BRANCH  20  21
HETATM   21  C15 UNL     1      -6.282  -1.233   1.411  1.00  0.00     0.011 C 
HETATM   22  C16 UNL     1      -6.825   0.090   1.896  1.00  0.00     0.006 C 
ENDBRANCH  20  21
ENDBRANCH  14  15
ENDBRANCH  12  13
ENDBRANCH  10  11
ENDBRANCH   9  10
ENDBRANCH   4   9
BRANCH   5  23
HETATM   23  C18 UNL     1       2.143  -0.859   0.841  1.00  0.00     0.179 C 
HETATM   24  O3  UNL     1       2.837  -1.682   0.192  1.00  0.00    -0.648 OA
HETATM   25  O4  UNL     1       0.969  -1.373   1.377  1.00  0.00    -0.648 OA
ENDBRANCH   5  23
BRANCH   6  26
HETATM   26  C20 UNL     1       4.613   0.598  -0.269  1.00  0.00    -0.001 C 
HETATM   27  C21 UNL     1       5.620  -0.209  -0.444  1.00  0.00    -0.002 C 
BRANCH  27  28
HETATM   28  C22 UNL     1       6.329  -0.997   0.528  1.00  0.00    -0.005 C 
HETATM   29  C23 UNL     1       7.328  -1.768   0.146  1.00  0.00    -0.031 C 
HETATM   30  C24 UNL     1       8.118  -2.614   1.062  1.00  0.00     0.036 C 
ENDBRANCH  27  28
ENDBRANCH   6  26
TORSDOF 9
