REMARK  6 active torsions:
REMARK  status: ('A' for Active; 'I' for Inactive)
REMARK    1  A    between atoms: C2_2  and  N1_3 
REMARK    2  A    between atoms: C6_9  and  N3_10 
REMARK    3  A    between atoms: N4_13  and  C9_14 
REMARK    4  A    between atoms: C9_14  and  C10_15 
REMARK    5  A    between atoms: C11_16  and  C12_17 
REMARK    6  A    between atoms: C20_27  and  N6_28 
ROOT
HETATM    1  N1  UNL     1      -6.853  -0.841  -0.725  1.00  0.00     0.092 N 
HETATM    2  C3  UNL     1      -5.784  -1.687  -1.115  1.00  0.00     0.279 C 
HETATM    3  C4  UNL     1      -4.543  -1.008  -1.608  1.00  0.00     0.088 C 
HETATM    4  C5  UNL     1      -4.138   0.116  -0.724  1.00  0.00     0.040 A 
HETATM    5  N2  UNL     1      -2.855   0.442  -0.513  1.00  0.00    -0.195 N 
ATOM      6  H2  UNL     1      -2.129  -0.107  -0.974  1.00  0.00     0.184 HD
HETATM    7  C6  UNL     1      -2.477   1.483   0.297  1.00  0.00     0.682 A 
HETATM    8  N5  UNL     1      -3.469   2.178   0.878  1.00  0.00    -0.176 N 
ATOM      9  H5  UNL     1      -3.233   2.962   1.486  1.00  0.00     0.186 HD
HETATM   10  C20 UNL     1      -4.782   1.867   0.680  1.00  0.00     0.124 A 
HETATM   11  C21 UNL     1      -5.143   0.819  -0.131  1.00  0.00     0.037 A 
HETATM   12  C22 UNL     1      -6.550   0.485  -0.323  1.00  0.00     0.317 C 
ENDROOT
BRANCH   7  13
HETATM   13  N3  UNL     1      -1.099   1.722   0.498  1.00  0.00    -0.214 N 
HETATM   14  C7  UNL     1      -0.532   1.240   1.783  1.00  0.00     0.171 C 
HETATM   15  C8  UNL     1       0.495   0.218   1.317  1.00  0.00     0.293 C 
HETATM   16  N4  UNL     1       1.607   0.940   0.716  1.00  0.00     0.095 N 
HETATM   17  C18 UNL     1       1.218   2.217   0.199  1.00  0.00     0.293 C 
HETATM   18  C19 UNL     1      -0.158   2.332  -0.377  1.00  0.00     0.171 C 
BRANCH  16  19
HETATM   19  C9  UNL     1       2.295   0.096  -0.248  1.00  0.00     0.299 C 
BRANCH  19  20
HETATM   20  C10 UNL     1       3.622   0.712  -0.578  1.00  0.00    -0.001 C 
HETATM   21  C11 UNL     1       4.689  -0.046  -0.311  1.00  0.00    -0.024 C 
BRANCH  21  22
HETATM   22  C12 UNL     1       6.058   0.426  -0.579  1.00  0.00     0.008 C 
HETATM   23  C13 UNL     1       6.758  -0.471  -1.591  1.00  0.00     0.008 C 
HETATM   24  C14 UNL     1       7.049  -1.816  -1.006  1.00  0.00     0.001 C 
HETATM   25  C15 UNL     1       7.877  -1.726   0.240  1.00  0.00     0.000 C 
HETATM   26  C16 UNL     1       8.122  -0.272   0.613  1.00  0.00     0.001 C 
HETATM   27  C17 UNL     1       6.791   0.419   0.757  1.00  0.00     0.008 C 
ENDBRANCH  21  22
ENDBRANCH  19  20
ENDBRANCH  16  19
ENDBRANCH   7  13
BRANCH  10  28
HETATM   28  N6  UNL     1      -5.736   2.549   1.249  1.00  0.00    -0.385 N 
ATOM     29  H62 UNL     1      -5.468   3.327   1.851  1.00  0.00     0.157 HD
ATOM     30  H61 UNL     1      -6.718   2.316   1.101  1.00  0.00     0.157 HD
ENDBRANCH  10  28
BRANCH   1  31
HETATM   31  C2  UNL     1      -7.513  -1.505   0.410  1.00  0.00     0.268 C 
HETATM   32  C1  UNL     1      -8.201  -2.763  -0.036  1.00  0.00     0.037 C 
ENDBRANCH   1  31
TORSDOF 6
