REMARK  6 active torsions:
REMARK  status: ('A' for Active; 'I' for Inactive)
REMARK    1  A    between atoms: N1_2  and  C3_4 
REMARK    2  A    between atoms: C3_4  and  C4_5 
REMARK    3  A    between atoms: C4_5  and  C5_6 
REMARK    4  A    between atoms: C5_6  and  C6_7 
REMARK    5  A    between atoms: C6_7  and  C7_8 
REMARK    6  A    between atoms: C24_25  and  O1_26 
ROOT
HETATM    1  C7  UNL     1       2.036   2.050  -0.396  1.00  0.00    -0.005 C 
HETATM    2  C8  UNL     1       2.590   2.570  -1.693  1.00  0.00     0.006 C 
HETATM    3  C9  UNL     1       1.642   2.077  -2.741  1.00  0.00     0.006 C 
HETATM    4  C10 UNL     1       0.317   1.823  -2.031  1.00  0.00    -0.000 A 
HETATM    5  C11 UNL     1      -0.200   2.880  -1.142  1.00  0.00    -0.000 A 
HETATM    6  C12 UNL     1      -1.589   2.958  -0.662  1.00  0.00     0.006 C 
HETATM    7  C13 UNL     1      -2.497   1.848  -1.052  1.00  0.00     0.008 C 
HETATM    8  C14 UNL     1      -2.470   0.815   0.058  1.00  0.00     0.025 C 
HETATM    9  C15 UNL     1      -3.725   0.037   0.005  1.00  0.00     0.001 C 
HETATM   10  C16 UNL     1      -4.065  -0.531  -1.341  1.00  0.00     0.006 C 
HETATM   11  C17 UNL     1      -5.447  -1.131  -1.318  1.00  0.00     0.000 C 
HETATM   12  C18 UNL     1      -6.048  -1.198   0.051  1.00  0.00     0.001 C 
HETATM   13  C19 UNL     1      -5.014  -1.879   0.954  1.00  0.00     0.009 C 
HETATM   14  C20 UNL     1      -3.776  -1.045   1.078  1.00  0.00    -0.040 C 
HETATM   15  C21 UNL     1      -3.765  -0.431   2.458  1.00  0.00     0.015 C 
HETATM   16  C22 UNL     1      -2.547  -1.900   0.858  1.00  0.00     0.012 C 
HETATM   17  C23 UNL     1      -1.311  -1.083   1.040  1.00  0.00     0.039 C 
HETATM   18  C24 UNL     1      -1.207   0.037  -0.008  1.00  0.00     0.062 C 
HETATM   19  C25 UNL     1      -0.067   0.896   0.385  1.00  0.00     0.048 C 
HETATM   20  C26 UNL     1       0.589   1.713  -0.629  1.00  0.00    -0.026 A 
ENDROOT
BRANCH   1  21
HETATM   21  C6  UNL     1       2.877   0.930   0.106  1.00  0.00     0.005 C 
BRANCH  21  22
HETATM   22  C5  UNL     1       2.950  -0.238  -0.844  1.00  0.00     0.002 C 
BRANCH  22  23
HETATM   23  C4  UNL     1       3.811  -1.348  -0.290  1.00  0.00     0.030 C 
BRANCH  23  24
HETATM   24  C3  UNL     1       5.228  -0.898  -0.036  1.00  0.00     0.271 C 
BRANCH  24  25
HETATM   25  N1  UNL     1       6.056  -1.947   0.489  1.00  0.00     0.080 N 
HETATM   26  C1  UNL     1       7.391  -1.399   0.692  1.00  0.00     0.309 C 
HETATM   27  C2  UNL     1       5.605  -2.456   1.752  1.00  0.00     0.309 C 
ENDBRANCH  24  25
ENDBRANCH  23  24
ENDBRANCH  22  23
ENDBRANCH  21  22
ENDBRANCH   1  21
BRANCH  18  28
HETATM   28  O1  UNL     1      -1.036  -0.616  -1.224  1.00  0.00    -0.389 OA
ATOM     29  H1  UNL     1      -0.228  -1.114  -1.266  1.00  0.00     0.210 HD
ENDBRANCH  18  28
TORSDOF 6
