REMARK  8 active torsions:
REMARK  status: ('A' for Active; 'I' for Inactive)
REMARK    1  A    between atoms: C4_4  and  C5_5 
REMARK    2  A    between atoms: C5_5  and  C6_6 
REMARK    3  A    between atoms: C15_17  and  C16_18 
REMARK    4  A    between atoms: C16_18  and  C18_20 
REMARK    5  A    between atoms: C18_20  and  C19_21 
REMARK    6  A    between atoms: C19_21  and  C20_22 
REMARK    7  A    between atoms: C22_24  and  C23_25 
REMARK    8  A    between atoms: C23_25  and  C24_26 
ROOT
HETATM    1  C1  UNL     1      -0.997  -0.828  -3.414  1.00  0.00     0.036 C 
HETATM    2  C2  UNL     1      -1.874  -0.708  -2.249  1.00  0.00    -0.025 C 
HETATM    3  C3  UNL     1      -1.697   0.002  -1.130  1.00  0.00    -0.037 C 
HETATM    4  C4  UNL     1      -2.630   0.083   0.044  1.00  0.00     0.110 C 
HETATM    5  C10 UNL     1      -3.469   1.310  -0.029  1.00  0.00     0.148 C 
HETATM    6  O1  UNL     1      -4.060   1.547   1.000  1.00  0.00    -0.296 OA
HETATM    7  C11 UNL     1      -3.714   2.291  -1.115  1.00  0.00     0.091 C 
HETATM    8  C12 UNL     1      -2.381   2.728  -1.744  1.00  0.00     0.060 C 
HETATM    9  C13 UNL     1      -2.391   4.205  -2.015  1.00  0.00     0.018 C 
HETATM   10  C14 UNL     1      -1.346   2.393  -0.740  1.00  0.00     0.151 C 
HETATM   11  O2  UNL     1      -0.822   3.250  -0.095  1.00  0.00    -0.296 OA
HETATM   12  C15 UNL     1      -0.864   0.960  -0.442  1.00  0.00     0.111 C 
HETATM   13  C27 UNL     1      -1.386   0.533   0.848  1.00  0.00     0.168 C 
HETATM   14  O3  UNL     1      -1.055   0.516   1.999  1.00  0.00    -0.295 OA
ENDROOT
BRANCH  12  15
HETATM   15  C16 UNL     1       0.637   1.033  -0.548  1.00  0.00     0.010 C 
HETATM   16  C17 UNL     1       1.017   1.396  -1.968  1.00  0.00     0.012 C 
BRANCH  15  17
HETATM   17  C18 UNL     1       1.282  -0.229  -0.103  1.00  0.00     0.010 C 
BRANCH  17  18
HETATM   18  C19 UNL     1       2.761  -0.239  -0.147  1.00  0.00     0.034 C 
BRANCH  18  19
HETATM   19  C20 UNL     1       3.515   0.636   0.755  1.00  0.00    -0.087 C 
HETATM   20  C21 UNL     1       3.451   2.113   0.687  1.00  0.00     0.043 C 
HETATM   21  C22 UNL     1       4.353   0.145   1.695  1.00  0.00    -0.024 C 
BRANCH  21  22
HETATM   22  C23 UNL     1       4.629  -1.263   1.955  1.00  0.00     0.031 C 
BRANCH  22  23
HETATM   23  C24 UNL     1       6.091  -1.621   1.710  1.00  0.00    -0.019 C 
HETATM   24  C25 UNL     1       6.246  -3.092   2.013  1.00  0.00     0.010 C 
HETATM   25  C26 UNL     1       7.020  -0.845   2.613  1.00  0.00     0.010 C 
ENDBRANCH  22  23
ENDBRANCH  21  22
ENDBRANCH  18  19
ENDBRANCH  17  18
ENDBRANCH  15  17
ENDBRANCH  12  15
BRANCH   4  26
HETATM   26  C5  UNL     1      -3.225  -1.093   0.679  1.00  0.00     0.057 C 
BRANCH  26  27
HETATM   27  C6  UNL     1      -4.057  -1.964  -0.131  1.00  0.00    -0.023 C 
HETATM   28  C7  UNL     1      -5.363  -2.135   0.008  1.00  0.00    -0.091 C 
HETATM   29  C8  UNL     1      -6.097  -3.058  -0.890  1.00  0.00     0.042 C 
HETATM   30  C9  UNL     1      -6.135  -1.437   1.052  1.00  0.00     0.042 C 
ENDBRANCH  26  27
ENDBRANCH   4  26
TORSDOF 8
