REMARK  6 active torsions:
REMARK  status: ('A' for Active; 'I' for Inactive)
REMARK    1  A    between atoms: C2_2  and  C3_3 
REMARK    2  A    between atoms: C3_3  and  N1_4 
REMARK       I    between atoms: N2_6  and  C5_8 
REMARK    3  A    between atoms: N4_10  and  C6_12 
REMARK    4  A    between atoms: C6_12  and  C7_13 
REMARK    5  A    between atoms: C7_13  and  N5_14 
REMARK    6  A    between atoms: N5_14  and  N6_16 
ROOT
HETATM    1  N1  UNL     1      -2.470   0.075  -0.148  1.00  0.00    -0.333 N 
HETATM    2  C4  UNL     1      -1.022   0.086  -0.163  1.00  0.00     0.177 C 
HETATM    3  N2  UNL     1      -0.298   1.106  -0.529  1.00  0.00    -0.312 N 
ATOM      4  H2  UNL     1      -0.802   1.943  -0.821  1.00  0.00     0.170 HD
HETATM    5  C5  UNL     1       1.090   1.172  -0.563  1.00  0.00     0.189 C 
HETATM    6  N3  UNL     1       1.705   1.155  -1.869  1.00  0.00    -0.063 NA
HETATM    7  N4  UNL     1       1.788   1.247   0.495  1.00  0.00    -0.363 N 
ATOM      8  H4  UNL     1       1.269   1.255   1.373  1.00  0.00     0.162 HD
HETATM    9  C9  UNL     1      -0.559  -1.209   0.293  1.00  0.00     0.287 C 
HETATM   10  O1  UNL     1       0.644  -1.586   0.416  1.00  0.00    -0.264 OA
HETATM   11  N7  UNL     1      -1.738  -1.948   0.565  1.00  0.00    -0.328 N 
ATOM     12  H7  UNL     1      -1.789  -2.961   0.674  1.00  0.00     0.165 HD
HETATM   13  C10 UNL     1      -2.863  -1.032   0.663  1.00  0.00     0.103 C 
HETATM   14  C11 UNL     1      -4.146  -1.711   0.252  1.00  0.00     0.063 C 
HETATM   15  C12 UNL     1      -2.980  -0.543   2.091  1.00  0.00     0.063 C 
ENDROOT
BRANCH   1  16
HETATM   16  C3  UNL     1      -3.245   1.079  -0.877  1.00  0.00     0.153 C 
BRANCH  16  17
HETATM   17  C2  UNL     1      -4.688   0.973  -0.718  1.00  0.00    -0.017 C 
HETATM   18  C1  UNL     1      -5.530   0.772  -1.719  1.00  0.00     0.008 C 
ENDBRANCH  16  17
ENDBRANCH   1  16
BRANCH   7  19
HETATM   19  C6  UNL     1       3.204   1.321   0.607  1.00  0.00     0.138 C 
BRANCH  19  20
HETATM   20  C7  UNL     1       3.876   0.044   0.233  1.00  0.00     0.132 C 
BRANCH  20  21
HETATM   21  N5  UNL     1       5.317   0.118   0.348  1.00  0.00    -0.241 NA
HETATM   22  C8  UNL     1       5.856  -1.185  -0.048  1.00  0.00     0.135 C 
BRANCH  21  23
HETATM   23  N6  UNL     1       5.814   1.065  -0.560  1.00  0.00    -0.364 NA
ATOM     24  H62 UNL     1       5.439   1.972  -0.284  1.00  0.00     0.171 HD
ATOM     25  H61 UNL     1       6.829   1.117  -0.479  1.00  0.00     0.171 HD
ENDBRANCH  21  23
ENDBRANCH  20  21
ENDBRANCH  19  20
ENDBRANCH   7  19
TORSDOF 6
