REMARK  18 active torsions:
REMARK  status: ('A' for Active; 'I' for Inactive)
REMARK    1  A    between atoms: C2_2  and  C3_3 
REMARK    2  A    between atoms: C3_3  and  C4_4 
REMARK    3  A    between atoms: C4_4  and  N1_5 
REMARK    4  A    between atoms: C4_4  and  C19_28 
REMARK    5  A    between atoms: N1_5  and  C5_7 
REMARK    6  A    between atoms: C5_7  and  O1_8 
REMARK    7  A    between atoms: C5_7  and  C6_10 
REMARK    8  A    between atoms: N2_15  and  C11_16 
REMARK    9  A    between atoms: C11_16  and  O2_18 
REMARK   10  A    between atoms: C11_16  and  C13_20 
REMARK   11  A    between atoms: C13_20  and  C14_22 
REMARK   12  A    between atoms: C14_22  and  C15_24 
REMARK   13  A    between atoms: C19_28  and  C20_30 
REMARK       I    between atoms: C20_30  and  N3_32 
REMARK   14  A    between atoms: N3_32  and  C21_33 
REMARK   15  A    between atoms: C21_33  and  C22_34 
REMARK   16  A    between atoms: C22_34  and  N4_35 
REMARK   17  A    between atoms: N5_38  and  C25_39 
REMARK   18  A    between atoms: C25_39  and  C26_40 
ROOT
HETATM    1  C4  UNL     1      -1.238  -1.981   0.285  1.00  0.00     0.068 C 
ENDROOT
BRANCH   1   2
HETATM    2  C3  UNL     1      -1.495  -3.176   1.123  1.00  0.00     0.061 C 
BRANCH   2   3
HETATM    3  C2  UNL     1      -2.005  -4.428   0.514  1.00  0.00     0.002 C 
HETATM    4  C1  UNL     1      -3.314  -4.319  -0.155  1.00  0.00     0.005 C 
ENDBRANCH   2   3
ENDBRANCH   1   2
BRANCH   1   5
HETATM    5  N1  UNL     1      -2.289  -1.279  -0.361  1.00  0.00    -0.339 N 
ATOM      6  H1  UNL     1      -2.529  -1.521  -1.322  1.00  0.00     0.167 HD
BRANCH   5   7
HETATM    7  C5  UNL     1      -3.028  -0.232   0.305  1.00  0.00     0.139 C 
BRANCH   7   8
HETATM    8  O1  UNL     1      -2.591  -0.025   1.536  1.00  0.00    -0.348 OA
ATOM      9  H1  UNL     1      -3.077   0.664   1.974  1.00  0.00     0.219 HD
ENDBRANCH   7   8
BRANCH   7  10
HETATM   10  C6  UNL     1      -4.095   0.605  -0.075  1.00  0.00     0.161 C 
HETATM   11  C7  UNL     1      -3.428   1.824  -0.814  1.00  0.00     0.034 C 
HETATM   12  C8  UNL     1      -4.363   2.995  -0.761  1.00  0.00     0.007 C 
HETATM   13  C9  UNL     1      -5.607   2.640  -1.532  1.00  0.00     0.044 C 
HETATM   14  C10 UNL     1      -5.669   1.165  -1.846  1.00  0.00     0.062 C 
HETATM   15  N2  UNL     1      -5.254   0.325  -0.797  1.00  0.00    -0.344 N 
BRANCH  15  16
HETATM   16  C11 UNL     1      -6.290  -0.408  -0.116  1.00  0.00     0.200 C 
HETATM   17  C12 UNL     1      -6.047  -1.873  -0.068  1.00  0.00     0.080 C 
BRANCH  16  18
HETATM   18  O2  UNL     1      -6.103  -0.027   1.306  1.00  0.00    -0.364 OA
ATOM     19  H2  UNL     1      -6.786  -0.510   1.755  1.00  0.00     0.213 HD
ENDBRANCH  16  18
BRANCH  16  20
HETATM   20  C13 UNL     1      -7.669  -0.044  -0.367  1.00  0.00     0.250 C 
HETATM   21  O3  UNL     1      -8.321  -0.475  -1.371  1.00  0.00    -0.284 OA
BRANCH  20  22
HETATM   22  C14 UNL     1      -8.417   0.850   0.514  1.00  0.00     0.207 C 
HETATM   23  O4  UNL     1      -7.795   1.387   1.484  1.00  0.00    -0.288 OA
BRANCH  22  24
HETATM   24  C15 UNL     1      -9.840   1.206   0.407  1.00  0.00     0.018 C 
HETATM   25  C16 UNL     1     -10.196   1.831  -0.906  1.00  0.00     0.023 C 
HETATM   26  C17 UNL     1     -10.651  -0.040   0.673  1.00  0.00     0.023 C 
HETATM   27  C18 UNL     1     -10.184   2.287   1.454  1.00  0.00     0.023 C 
ENDBRANCH  22  24
ENDBRANCH  20  22
ENDBRANCH  16  20
ENDBRANCH  15  16
ENDBRANCH   7  10
ENDBRANCH   5   7
ENDBRANCH   1   5
BRANCH   1  28
HETATM   28  C19 UNL     1       0.082  -1.386   0.466  1.00  0.00     0.276 C 
HETATM   29  O5  UNL     1       0.638  -0.818  -0.493  1.00  0.00    -0.279 OA
BRANCH  28  30
HETATM   30  C20 UNL     1       0.862  -1.409   1.734  1.00  0.00     0.367 C 
HETATM   31  O6  UNL     1       0.118  -1.508   2.749  1.00  0.00    -0.247 OA
HETATM   32  N3  UNL     1       2.243  -1.349   1.821  1.00  0.00    -0.379 NA
BRANCH  32  33
HETATM   33  C21 UNL     1       3.590  -1.291   1.909  1.00  0.00     0.189 C 
BRANCH  33  34
HETATM   34  C22 UNL     1       4.445  -1.212   0.665  1.00  0.00     0.331 C 
BRANCH  34  35
HETATM   35  N4  UNL     1       4.257  -0.031  -0.123  1.00  0.00     0.097 N 
HETATM   36  C23 UNL     1       5.030  -0.214  -1.330  1.00  0.00     0.303 C 
HETATM   37  C24 UNL     1       6.524  -0.179  -1.160  1.00  0.00     0.302 C 
HETATM   38  N5  UNL     1       6.940   0.896  -0.262  1.00  0.00     0.092 N 
HETATM   39  C32 UNL     1       5.812   1.822  -0.243  1.00  0.00     0.302 C 
HETATM   40  C33 UNL     1       4.725   1.160   0.549  1.00  0.00     0.303 C 
BRANCH  38  41
HETATM   41  C25 UNL     1       8.137   1.509  -0.802  1.00  0.00     0.277 C 
BRANCH  41  42
HETATM   42  C26 UNL     1       9.338   0.607  -0.782  1.00  0.00     0.014 C 
HETATM   43  C27 UNL     1       9.675   0.181   0.639  1.00  0.00     0.006 C 
HETATM   44  C28 UNL     1      11.069  -0.355   0.721  1.00  0.00     0.000 C 
HETATM   45  C29 UNL     1      12.113   0.642   0.289  1.00  0.00     0.000 C 
HETATM   46  C30 UNL     1      11.413   1.833  -0.312  1.00  0.00     0.000 C 
HETATM   47  C31 UNL     1      10.526   1.300  -1.420  1.00  0.00     0.006 C 
ENDBRANCH  41  42
ENDBRANCH  38  41
ENDBRANCH  34  35
ENDBRANCH  33  34
ENDBRANCH  32  33
ENDBRANCH  28  30
ENDBRANCH   1  28
TORSDOF 18
