REMARK  10 active torsions:
REMARK  status: ('A' for Active; 'I' for Inactive)
REMARK    1  A    between atoms: C2_2  and  C4_4 
REMARK    2  A    between atoms: C5_5  and  O1_6 
REMARK    3  A    between atoms: O1_6  and  C6_7 
REMARK    4  A    between atoms: C8_10  and  O3_11 
REMARK    5  A    between atoms: O3_11  and  C9_12 
REMARK    6  A    between atoms: C9_12  and  C10_14 
REMARK    7  A    between atoms: C10_14  and  C11_15 
REMARK    8  A    between atoms: C16_22  and  C17_23 
REMARK    9  A    between atoms: C17_23  and  C18_24 
REMARK   10  A    between atoms: C19_26  and  O8_27 
ROOT
HETATM    1  C4  UNL     1      -0.913  -0.502  -0.199  1.00  0.00     0.022 A 
HETATM    2  C5  UNL     1       0.488  -0.411  -0.094  1.00  0.00     0.124 A 
HETATM    3  C8  UNL     1       1.086   0.823  -0.029  1.00  0.00     0.116 A 
HETATM    4  C13 UNL     1       0.325   1.969  -0.065  1.00  0.00     0.078 A 
HETATM    5  C14 UNL     1      -1.048   1.865  -0.168  1.00  0.00     0.096 A 
HETATM    6  O5  UNL     1      -1.798   2.937  -0.205  1.00  0.00    -0.274 OA
HETATM    7  C15 UNL     1      -3.099   2.933  -0.301  1.00  0.00     0.297 A 
HETATM    8  O6  UNL     1      -3.747   4.015  -0.330  1.00  0.00    -0.259 OA
HETATM    9  C16 UNL     1      -3.815   1.748  -0.374  1.00  0.00     0.058 A 
HETATM   10  C19 UNL     1      -3.072   0.576  -0.340  1.00  0.00     0.092 A 
HETATM   11  C20 UNL     1      -1.687   0.624  -0.237  1.00  0.00     0.045 A 
ENDROOT
BRANCH   3  12
HETATM   12  O3  UNL     1       2.487   0.944   0.077  1.00  0.00    -0.276 OA
BRANCH  12  13
HETATM   13  C9  UNL     1       3.250   1.028  -1.079  1.00  0.00     0.264 C 
HETATM   14  O4  UNL     1       2.637   0.989  -2.172  1.00  0.00    -0.265 OA
BRANCH  13  15
HETATM   15  C10 UNL     1       4.749   1.160  -1.048  1.00  0.00     0.111 C 
BRANCH  15  16
HETATM   16  C11 UNL     1       5.263   1.189   0.360  1.00  0.00     0.005 C 
HETATM   17  C12 UNL     1       4.916  -0.057   1.117  1.00  0.00     0.005 C 
ENDBRANCH  15  16
ENDBRANCH  13  15
ENDBRANCH  12  13
ENDBRANCH   3  12
BRANCH   2  18
HETATM   18  O1  UNL     1       1.231  -1.577  -0.059  1.00  0.00    -0.275 OA
BRANCH  18  19
HETATM   19  C6  UNL     1       1.662  -2.199   1.097  1.00  0.00     0.260 C 
HETATM   20  C7  UNL     1       2.460  -3.455   1.108  1.00  0.00     0.126 C 
HETATM   21  O2  UNL     1       1.364  -1.677   2.199  1.00  0.00    -0.265 OA
ENDBRANCH  18  19
ENDBRANCH   2  18
BRANCH   1  22
HETATM   22  C2  UNL     1      -1.527  -1.818  -0.272  1.00  0.00    -0.057 C 
HETATM   23  C1  UNL     1      -1.870  -2.535   0.789  1.00  0.00     0.019 C 
HETATM   24  C3  UNL     1      -1.725  -2.379  -1.658  1.00  0.00     0.048 C 
ENDBRANCH   1  22
BRANCH  10  25
HETATM   25  O8  UNL     1      -3.750  -0.601  -0.408  1.00  0.00    -0.359 OA
ATOM     26  H8  UNL     1      -3.241  -1.403  -0.385  1.00  0.00     0.217 HD
ENDBRANCH  10  25
BRANCH   9  27
HETATM   27  C17 UNL     1      -5.297   1.798  -0.482  1.00  0.00     0.117 C 
BRANCH  27  28
HETATM   28  C18 UNL     1      -5.896   2.106   0.853  1.00  0.00     0.236 C 
HETATM   29  O7  UNL     1      -5.189   2.276   1.827  1.00  0.00    -0.307 OA
ENDBRANCH  27  28
ENDBRANCH   9  27
TORSDOF 10
