REMARK  13 active torsions:
REMARK  status: ('A' for Active; 'I' for Inactive)
REMARK    1  A    between atoms: C2_2  and  C3_4 
REMARK    2  A    between atoms: C5_7  and  N1_8 
REMARK       I    between atoms: N1_8  and  C6_10 
REMARK    3  A    between atoms: C6_10  and  C7_12 
REMARK    4  A    between atoms: C7_12  and  C10_15 
REMARK    5  A    between atoms: C10_15  and  C11_17 
REMARK    6  A    between atoms: C11_17  and  O4_18 
REMARK    7  A    between atoms: C11_17  and  N2_20 
REMARK    8  A    between atoms: C13_24  and  C14_25 
REMARK    9  A    between atoms: C14_25  and  O5_26 
REMARK   10  A    between atoms: C14_25  and  C15_28 
REMARK   11  A    between atoms: C15_28  and  C16_29 
REMARK   12  A    between atoms: C16_29  and  O6_32 
REMARK   13  A    between atoms: C20_38  and  C21_39 
ROOT
HETATM    1  C11 UNL     1       0.072  -0.031  -0.840  1.00  0.00     0.291 C 
ENDROOT
BRANCH   1   2
HETATM    2  C10 UNL     1       1.507  -0.041  -0.507  1.00  0.00     0.192 C 
HETATM    3  O3  UNL     1       2.269  -0.481  -1.380  1.00  0.00    -0.292 OA
BRANCH   2   4
HETATM    4  C7  UNL     1       1.996   0.452   0.804  1.00  0.00     0.099 C 
HETATM    5  C8  UNL     1       1.386  -0.264   1.984  1.00  0.00     0.033 C 
HETATM    6  C9  UNL     1       1.618   1.913   0.940  1.00  0.00     0.033 C 
BRANCH   4   7
HETATM    7  C6  UNL     1       3.498   0.312   0.809  1.00  0.00     0.238 C 
HETATM    8  N1  UNL     1       4.285   0.883  -0.189  1.00  0.00    -0.319 N 
ATOM      9  H1  UNL     1       3.768   1.425  -0.881  1.00  0.00     0.169 HD
HETATM   10  O2  UNL     1       3.947  -0.341   1.764  1.00  0.00    -0.272 OA
BRANCH   8  11
HETATM   11  C5  UNL     1       5.676   0.834  -0.398  1.00  0.00     0.094 A 
HETATM   12  S1  UNL     1       6.496   2.271  -0.980  1.00  0.00    -0.082 SA
HETATM   13  C4  UNL     1       8.071   1.682  -1.039  1.00  0.00     0.068 A 
HETATM   14  C3  UNL     1       7.950   0.363  -0.609  1.00  0.00     0.036 A 
HETATM   15  C20 UNL     1       6.697  -0.056  -0.292  1.00  0.00     0.088 A 
BRANCH  14  16
HETATM   16  C2  UNL     1       9.227  -0.371  -0.440  1.00  0.00     0.157 C 
HETATM   17  C1  UNL     1      10.514   0.236  -0.984  1.00  0.00     0.097 C 
HETATM   18  O1  UNL     1       9.296  -1.459   0.122  1.00  0.00    -0.293 OA
ENDBRANCH  14  16
BRANCH  15  19
HETATM   19  C21 UNL     1       6.391  -1.513  -0.187  1.00  0.00     0.213 C 
HETATM   20  O7  UNL     1       5.162  -1.863  -0.290  1.00  0.00    -0.644 OA
HETATM   21  O8  UNL     1       7.263  -2.538   0.009  1.00  0.00    -0.644 OA
ENDBRANCH  15  19
ENDBRANCH   8  11
ENDBRANCH   4   7
ENDBRANCH   2   4
ENDBRANCH   1   2
BRANCH   1  22
HETATM   22  O4  UNL     1      -0.183  -0.516  -2.121  1.00  0.00    -0.370 OA
ATOM     23  H4  UNL     1      -1.108  -0.510  -2.336  1.00  0.00     0.212 HD
ENDBRANCH   1  22
BRANCH   1  24
HETATM   24  N2  UNL     1      -0.632  -0.801   0.165  1.00  0.00    -0.337 N 
HETATM   25  C12 UNL     1      -1.943  -0.885   0.125  1.00  0.00     0.165 A 
HETATM   26  S2  UNL     1      -3.065  -0.205  -0.974  1.00  0.00    -0.035 SA
HETATM   27  N4  UNL     1      -2.748  -1.544   0.962  1.00  0.00    -0.275 N 
HETATM   28  C13 UNL     1      -4.497  -0.834  -0.256  1.00  0.00     0.098 A 
HETATM   29  N3  UNL     1      -3.999  -1.506   0.757  1.00  0.00    -0.291 N 
ATOM     30  H3  UNL     1      -4.627  -2.004   1.387  1.00  0.00     0.187 HD
HETATM   31  C19 UNL     1      -2.161  -2.296   2.099  1.00  0.00     0.180 C 
ATOM     32  H2  UNL     1      -0.111  -1.277   0.902  1.00  0.00     0.164 HD
BRANCH  28  33
HETATM   33  C14 UNL     1      -5.934  -0.655  -0.685  1.00  0.00     0.179 C 
BRANCH  33  34
HETATM   34  O5  UNL     1      -6.601  -1.877  -0.642  1.00  0.00    -0.389 OA
ATOM     35  H5  UNL     1      -7.505  -1.764  -0.912  1.00  0.00     0.210 HD
ENDBRANCH  33  34
BRANCH  33  36
HETATM   36  C15 UNL     1      -6.547   0.282   0.333  1.00  0.00     0.075 C 
BRANCH  36  37
HETATM   37  C16 UNL     1      -8.003   0.561   0.034  1.00  0.00     0.053 C 
HETATM   38  C17 UNL     1      -8.139   1.194  -1.320  1.00  0.00     0.045 C 
HETATM   39  C18 UNL     1      -8.498   1.519   1.103  1.00  0.00     0.045 C 
BRANCH  37  40
HETATM   40  O6  UNL     1      -8.748  -0.597   0.089  1.00  0.00    -0.391 OA
ATOM     41  H6  UNL     1      -9.663  -0.422  -0.099  1.00  0.00     0.210 HD
ENDBRANCH  37  40
ENDBRANCH  36  37
ENDBRANCH  33  36
ENDBRANCH  28  33
ENDBRANCH   1  24
TORSDOF 13
