REMARK  0 active torsions:
REMARK  status: ('A' for Active; 'I' for Inactive)
ROOT
HETATM    1  N1  UNL     1       1.460  -3.079  -0.289  1.00  0.00    -0.197 NA
HETATM    2  C1  UNL     1       1.419  -1.942  -0.128  1.00  0.00     0.066 C 
HETATM    3  C2  UNL     1       1.396  -0.542   0.067  1.00  0.00     0.132 C 
HETATM    4  C3  UNL     1       0.745   0.279  -1.043  1.00  0.00     0.039 C 
HETATM    5  C4  UNL     1       1.022   1.629  -0.337  1.00  0.00     0.279 C 
HETATM    6  N2  UNL     1       0.154   1.319   0.828  1.00  0.00     0.095 N 
HETATM    7  C5  UNL     1      -1.101   1.371   0.049  1.00  0.00     0.278 C 
HETATM    8  C6  UNL     1      -0.755   0.269  -0.975  1.00  0.00     0.021 C 
HETATM    9  C7  UNL     1      -1.320  -0.974  -0.299  1.00  0.00     0.009 C 
HETATM   10  C8  UNL     1      -0.756  -0.974   1.089  1.00  0.00     0.037 C 
HETATM   11  C9  UNL     1       0.473  -0.065   1.188  1.00  0.00     0.241 C 
ENDROOT
TORSDOF 0
