REMARK  0 active torsions:
REMARK  status: ('A' for Active; 'I' for Inactive)
ROOT
HETATM    1  C1  UNL     1      -1.633   1.240  -0.470  1.00  0.00     0.118 C 
HETATM    2  C2  UNL     1      -1.589   0.219   0.587  1.00  0.00     0.073 C 
HETATM    3  N1  UNL     1      -0.588  -0.764   0.527  1.00  0.00    -0.373 N 
HETATM    4  C3  UNL     1      -0.267  -1.335  -0.714  1.00  0.00     0.064 C 
HETATM    5  C4  UNL     1       1.078  -0.842  -1.202  1.00  0.00     0.060 C 
HETATM    6  C5  UNL     1       1.284   0.579  -0.687  1.00  0.00     0.054 C 
HETATM    7  C6  UNL     1       1.344   0.610   0.831  1.00  0.00     0.036 C 
HETATM    8  C7  UNL     1       0.501  -0.512   1.414  1.00  0.00     0.128 C 
HETATM    9  S1  UNL     1      -0.094   1.557  -1.316  1.00  0.00    -0.159 SA
ENDROOT
TORSDOF 0
