REMARK  2 active torsions:
REMARK  status: ('A' for Active; 'I' for Inactive)
REMARK    1  A    between atoms: N1_2  and  N2_4 
REMARK    2  A    between atoms: N3_6  and  C2_8 
ROOT
HETATM    1  C2  UNL     1       0.835  -0.053   0.093  1.00  0.00     0.194 C 
HETATM    2  C3  UNL     1       0.699  -1.567  -0.085  1.00  0.00     0.048 C 
HETATM    3  C4  UNL     1      -0.414  -2.120   0.774  1.00  0.00     0.004 C 
HETATM    4  C5  UNL     1      -1.766  -1.965   0.118  1.00  0.00     0.000 C 
HETATM    5  C6  UNL     1      -2.603  -0.900   0.808  1.00  0.00     0.000 C 
HETATM    6  C7  UNL     1      -3.154   0.071  -0.155  1.00  0.00     0.000 C 
HETATM    7  C8  UNL     1      -2.891   1.495   0.056  1.00  0.00     0.002 C 
HETATM    8  C9  UNL     1      -1.558   1.900   0.561  1.00  0.00     0.019 C 
HETATM    9  C10 UNL     1      -0.477   1.871  -0.525  1.00  0.00     0.115 C 
HETATM   10  N4  UNL     1      -0.028   0.575  -0.840  1.00  0.00    -0.400 N 
ATOM     11  H4  UNL     1      -0.311   0.108  -1.702  1.00  0.00     0.155 HD
ENDROOT
BRANCH   1  12
HETATM   12  N3  UNL     1       2.218   0.297  -0.087  1.00  0.00    -0.299 N 
HETATM   13  N2  UNL     1       3.082  -0.503  -0.563  1.00  0.00    -0.250 N 
ATOM     14  H2  UNL     1       2.770  -1.437  -0.828  1.00  0.00     0.207 HD
ATOM     15  H3  UNL     1       2.520   1.234   0.181  1.00  0.00     0.184 HD
BRANCH  13  16
HETATM   16  N1  UNL     1       4.411  -0.194  -0.745  1.00  0.00    -0.327 N 
HETATM   17  C1  UNL     1       5.156   0.669   0.152  1.00  0.00     0.169 C 
ATOM     18  H1  UNL     1       4.896  -0.591  -1.550  1.00  0.00     0.181 HD
ENDBRANCH  13  16
ENDBRANCH   1  12
TORSDOF 2
