REMARK  3 active torsions:
REMARK  status: ('A' for Active; 'I' for Inactive)
REMARK    1  A    between atoms: C3_3  and  O1_4 
REMARK    2  A    between atoms: C8_11  and  O3_12 
REMARK    3  A    between atoms: C8_11  and  C9_14 
ROOT
HETATM    1  C1  UNL     1       1.702  -1.923  -0.733  1.00  0.00     0.022 C 
HETATM    2  C2  UNL     1       0.798  -1.034  -0.340  1.00  0.00     0.000 C 
HETATM    3  C3  UNL     1      -0.425  -1.544   0.337  1.00  0.00     0.154 C 
HETATM    4  C4  UNL     1      -1.621  -0.887  -0.323  1.00  0.00     0.074 C 
HETATM    5  C5  UNL     1      -1.416   0.604  -0.319  1.00  0.00     0.060 C 
HETATM    6  C6  UNL     1      -1.733   1.111   1.069  1.00  0.00     0.045 C 
HETATM    7  C7  UNL     1      -2.531   1.180  -1.212  1.00  0.00     0.045 C 
HETATM    8  O2  UNL     1      -0.253   1.054  -0.842  1.00  0.00    -0.341 OA
HETATM    9  C8  UNL     1       0.914   0.414  -0.525  1.00  0.00     0.189 C 
ENDROOT
BRANCH   9  10
HETATM   10  O3  UNL     1       1.790   0.679  -1.607  1.00  0.00    -0.362 OA
ATOM     11  H3  UNL     1       1.865   1.618  -1.727  1.00  0.00     0.213 HD
ENDBRANCH   9  10
BRANCH   9  12
HETATM   12  C9  UNL     1       1.520   1.122   0.667  1.00  0.00     0.069 C 
HETATM   13  C10 UNL     1       2.914   0.646   0.996  1.00  0.00     0.011 C 
ENDBRANCH   9  12
BRANCH   3  14
HETATM   14  O1  UNL     1      -0.578  -2.919   0.179  1.00  0.00    -0.391 OA
ATOM     15  H1  UNL     1      -1.359  -3.245   0.611  1.00  0.00     0.210 HD
ENDBRANCH   3  14
TORSDOF 3
