REMARK  2 active torsions:
REMARK  status: ('A' for Active; 'I' for Inactive)
REMARK    1  A    between atoms: O1_2  and  C2_3 
REMARK    2  A    between atoms: C2_3  and  C3_5 
ROOT
HETATM    1  C3  UNL     1       0.674  -0.838   0.095  1.00  0.00     0.131 C 
HETATM    2  C4  UNL     1       0.129  -1.832  -0.877  1.00  0.00     0.020 C 
HETATM    3  C5  UNL     1      -1.138  -1.280  -1.501  1.00  0.00     0.002 C 
HETATM    4  C6  UNL     1      -2.057  -0.756  -0.414  1.00  0.00     0.015 C 
HETATM    5  C7  UNL     1      -1.478   0.487   0.238  1.00  0.00    -0.009 C 
HETATM    6  C8  UNL     1      -2.124   1.747  -0.290  1.00  0.00     0.021 C 
HETATM    7  C9  UNL     1      -1.681   0.467   1.737  1.00  0.00     0.021 C 
HETATM    8  C10 UNL     1      -0.015   0.470  -0.042  1.00  0.00     0.002 C 
HETATM    9  N1  UNL     1       0.605   1.538  -0.383  1.00  0.00    -0.404 N 
ATOM     10  H11 UNL     1       0.132   2.437  -0.477  1.00  0.00     0.155 HD
ATOM     11  H12 UNL     1       1.607   1.526  -0.575  1.00  0.00     0.155 HD
ENDROOT
BRANCH   1  12
HETATM   12  C2  UNL     1       2.126  -0.595  -0.063  1.00  0.00     0.268 C 
HETATM   13  O2  UNL     1       2.757  -1.207  -0.951  1.00  0.00    -0.264 OA
BRANCH  12  14
HETATM   14  O1  UNL     1       2.818   0.289   0.739  1.00  0.00    -0.326 OA
HETATM   15  C1  UNL     1       4.201   0.547   0.619  1.00  0.00     0.213 C 
ENDBRANCH  12  14
ENDBRANCH   1  12
TORSDOF 2
