REMARK  2 active torsions:
REMARK  status: ('A' for Active; 'I' for Inactive)
REMARK       I    between atoms: C2_2  and  N1_4 
REMARK    1  A    between atoms: N1_4  and  C3_6 
REMARK    2  A    between atoms: C8_15  and  C9_16 
REMARK       I    between atoms: C9_16  and  N2_18 
ROOT
HETATM    1  C3  UNL     1       0.574   0.131  -0.554  1.00  0.00     0.094 A 
HETATM    2  S1  UNL     1       0.368   0.774  -2.094  1.00  0.00    -0.063 SA
HETATM    3  C4  UNL     1      -1.330   0.900  -2.038  1.00  0.00     0.062 A 
HETATM    4  S2  UNL     1      -2.725   1.425  -2.912  1.00  0.00    -0.068 SA
HETATM    5  C5  UNL     1      -3.832   1.071  -1.710  1.00  0.00     0.098 A 
HETATM    6 CL1  UNL     1      -5.605   1.302  -1.752  1.00  0.00    -0.074 Cl
HETATM    7  C6  UNL     1      -3.108   0.554  -0.658  1.00  0.00     0.075 A 
HETATM    8 CL2  UNL     1      -4.142   0.276   0.799  1.00  0.00    -0.081 Cl
HETATM    9  C7  UNL     1      -1.743   0.439  -0.806  1.00  0.00     0.030 A 
HETATM   10  C8  UNL     1      -0.682   0.007   0.017  1.00  0.00     0.081 A 
ENDROOT
BRANCH   1  11
HETATM   11  N1  UNL     1       1.871  -0.226  -0.028  1.00  0.00    -0.321 N 
HETATM   12  C2  UNL     1       3.017   0.018  -0.814  1.00  0.00     0.218 C 
HETATM   13  C1  UNL     1       4.338  -0.336  -0.299  1.00  0.00     0.117 C 
HETATM   14  O1  UNL     1       2.903   0.533  -1.939  1.00  0.00    -0.274 OA
ATOM     15  H1  UNL     1       1.957  -0.648   0.897  1.00  0.00     0.169 HD
ENDBRANCH   1  11
BRANCH  10  16
HETATM   16  C9  UNL     1      -0.699  -0.463   1.404  1.00  0.00     0.269 C 
HETATM   17  O2  UNL     1       0.356  -0.299   2.142  1.00  0.00    -0.266 OA
HETATM   18  N2  UNL     1      -1.715  -1.116   2.085  1.00  0.00    -0.265 N 
HETATM   19 CL3  UNL     1      -1.492  -1.557   3.802  1.00  0.00     0.013 Cl
ATOM     20  H2  UNL     1      -2.587  -1.344   1.607  1.00  0.00     0.183 HD
ENDBRANCH  10  16
TORSDOF 2
