REMARK  18 active torsions:
REMARK  status: ('A' for Active; 'I' for Inactive)
REMARK    1  A    between atoms: O1_2  and  C2_3 
REMARK    2  A    between atoms: C6_12  and  C7_13 
REMARK    3  A    between atoms: C7_13  and  O2_14 
REMARK    4  A    between atoms: N3_17  and  O3_18 
REMARK    5  A    between atoms: O3_18  and  C8_19 
REMARK    6  A    between atoms: C8_19  and  O4_20 
REMARK    7  A    between atoms: C8_19  and  C9_22 
REMARK    8  A    between atoms: C9_22  and  O5_23 
REMARK    9  A    between atoms: C9_22  and  C16_43 
REMARK   10  A    between atoms: O5_23  and  N4_24 
REMARK   11  A    between atoms: N4_24  and  C10_25 
REMARK   12  A    between atoms: N4_24  and  C14_37 
REMARK   13  A    between atoms: C12_30  and  O7_31 
REMARK   14  A    between atoms: C13_33  and  O8_34 
REMARK   15  A    between atoms: C14_37  and  N6_39 
REMARK   16  A    between atoms: C16_43  and  O10_44 
REMARK   17  A    between atoms: C16_43  and  O11_46 
REMARK   18  A    between atoms: N7_49  and  O12_51 
ROOT
HETATM    1  C8  UNL     1       0.367   0.205  -1.279  1.00  0.00     0.316 C 
ENDROOT
BRANCH   1   2
HETATM    2  O3  UNL     1      -0.750   0.739  -0.701  1.00  0.00    -0.256 OA
BRANCH   2   3
HETATM    3  N3  UNL     1      -1.608  -0.174  -0.193  1.00  0.00    -0.109 NA
HETATM    4  C4  UNL     1      -3.000   0.141  -0.448  1.00  0.00     0.153 C 
HETATM    5  C3  UNL     1      -3.337   0.147  -1.883  1.00  0.00     0.106 C 
HETATM    6  C5  UNL     1      -3.353   1.447   0.130  1.00  0.00     0.061 C 
HETATM    7  C17 UNL     1      -3.783  -1.012   0.095  1.00  0.00     0.091 C 
HETATM    8  N1  UNL     1      -4.069  -1.058  -2.142  1.00  0.00    -0.347 N 
HETATM    9  N2  UNL     1      -3.080   1.007  -2.812  1.00  0.00    -0.387 N 
HETATM   10  C2  UNL     1      -4.783  -1.442  -0.919  1.00  0.00     0.273 C 
ATOM     11  H1  UNL     1      -4.090  -1.564  -3.028  1.00  0.00     0.163 HD
ATOM     12  H22 UNL     1      -3.313   1.011  -3.805  1.00  0.00     0.157 HD
ATOM     13  H21 UNL     1      -2.559   1.864  -2.628  1.00  0.00     0.157 HD
HETATM   14  C6  UNL     1      -2.563   1.761   1.333  1.00  0.00     0.092 C 
HETATM   15  S1  UNL     1      -1.620   0.220   1.567  1.00  0.00    -0.046 SA
HETATM   16  N7  UNL     1      -3.668  -1.589   1.231  1.00  0.00    -0.270 N 
ATOM     17  H7  UNL     1      -2.971  -1.265   1.901  1.00  0.00     0.193 HD
BRANCH  10  18
HETATM   18  O1  UNL     1      -5.916  -0.644  -0.752  1.00  0.00    -0.366 OA
HETATM   19  C1  UNL     1      -7.070  -1.391  -0.626  1.00  0.00     0.204 C 
ENDBRANCH  10  18
BRANCH  14  20
HETATM   20  C7  UNL     1      -3.276   2.228   2.525  1.00  0.00     0.180 C 
BRANCH  20  21
HETATM   21  O2  UNL     1      -4.210   1.395   3.065  1.00  0.00    -0.400 OA
ATOM     22  H2  UNL     1      -4.672   1.698   3.838  1.00  0.00     0.209 HD
ENDBRANCH  20  21
ENDBRANCH  14  20
BRANCH  16  23
HETATM   23  O12 UNL     1      -4.480  -2.638   1.542  1.00  0.00    -0.290 OA
ATOM     24  H12 UNL     1      -4.395  -3.066   2.386  1.00  0.00     0.244 HD
ENDBRANCH  16  23
ENDBRANCH   2   3
ENDBRANCH   1   2
BRANCH   1  25
HETATM   25  O4  UNL     1       0.444   0.692  -2.586  1.00  0.00    -0.367 OA
ATOM     26  H4  UNL     1       1.221   0.321  -2.988  1.00  0.00     0.212 HD
ENDBRANCH   1  25
BRANCH   1  27
HETATM   27  C9  UNL     1       1.667   0.640  -0.603  1.00  0.00     0.263 C 
BRANCH  27  28
HETATM   28  O5  UNL     1       2.701   0.030  -1.286  1.00  0.00    -0.257 OA
BRANCH  28  29
HETATM   29  N4  UNL     1       3.438  -0.808  -0.588  1.00  0.00    -0.189 N 
BRANCH  29  30
HETATM   30  C10 UNL     1       4.216  -0.355   0.504  1.00  0.00     0.258 A 
HETATM   31  N5  UNL     1       3.744  -0.303   1.763  1.00  0.00    -0.285 N 
HETATM   32  C11 UNL     1       4.453   0.120   2.815  1.00  0.00     0.286 A 
ATOM     33  H5  UNL     1       2.784  -0.606   1.925  1.00  0.00     0.172 HD
HETATM   34  O6  UNL     1       3.982   0.157   3.988  1.00  0.00    -0.265 OA
HETATM   35  C12 UNL     1       5.764   0.537   2.618  1.00  0.00     0.193 A 
HETATM   36  C13 UNL     1       6.222   0.475   1.323  1.00  0.00     0.226 A 
HETATM   37  O9  UNL     1       5.476   0.049   0.334  1.00  0.00    -0.251 OA
BRANCH  35  38
HETATM   38  O7  UNL     1       6.507   0.976   3.693  1.00  0.00    -0.352 OA
ATOM     39  H7  UNL     1       7.403   1.261   3.558  1.00  0.00     0.218 HD
ENDBRANCH  35  38
BRANCH  36  40
HETATM   40  O8  UNL     1       7.525   0.881   1.075  1.00  0.00    -0.338 OA
ATOM     41  H8  UNL     1       7.841   0.838   0.180  1.00  0.00     0.220 HD
ENDBRANCH  36  40
ENDBRANCH  29  30
BRANCH  29  42
HETATM   42  C14 UNL     1       3.466  -2.206  -0.927  1.00  0.00     0.310 C 
HETATM   43  C15 UNL     1       3.966  -2.433  -2.350  1.00  0.00     0.065 C 
BRANCH  42  44
HETATM   44  N6  UNL     1       4.234  -2.993   0.014  1.00  0.00    -0.056 N 
ATOM     45  H63 UNL     1       5.179  -2.622   0.116  1.00  0.00     0.276 HD
ATOM     46  H62 UNL     1       3.898  -2.854   0.967  1.00  0.00     0.276 HD
ATOM     47  H61 UNL     1       4.254  -3.984  -0.226  1.00  0.00     0.276 HD
ENDBRANCH  42  44
ENDBRANCH  29  42
ENDBRANCH  28  29
ENDBRANCH  27  28
BRANCH  27  48
HETATM   48  C16 UNL     1       1.863   2.139  -0.730  1.00  0.00     0.290 C 
BRANCH  48  49
HETATM   49  O10 UNL     1       1.846   2.553  -2.053  1.00  0.00    -0.369 OA
ATOM     50  H10 UNL     1       1.969   3.492  -2.133  1.00  0.00     0.212 HD
ENDBRANCH  48  49
BRANCH  48  51
HETATM   51  O11 UNL     1       0.895   2.833   0.029  1.00  0.00    -0.369 OA
ATOM     52  H11 UNL     1       1.018   3.772  -0.051  1.00  0.00     0.212 HD
ENDBRANCH  48  51
ENDBRANCH  27  48
ENDBRANCH   1  27
TORSDOF 18
