REMARK  14 active torsions:
REMARK  status: ('A' for Active; 'I' for Inactive)
REMARK    1  A    between atoms: N1_1  and  C1_4 
REMARK    2  A    between atoms: C3_11  and  C4_12 
REMARK    3  A    between atoms: C6_16  and  N6_17 
REMARK    4  A    between atoms: C7_22  and  N8_23 
REMARK    5  A    between atoms: C9_27  and  C10_28 
REMARK    6  A    between atoms: C10_28  and  S1_29 
REMARK    7  A    between atoms: S1_29  and  C11_30 
REMARK    8  A    between atoms: N10_34  and  C14_35 
REMARK    9  A    between atoms: C14_35  and  O2_36 
REMARK   10  A    between atoms: C14_35  and  C15_38 
REMARK   11  A    between atoms: C15_38  and  C16_39 
REMARK   12  A    between atoms: C16_39  and  O3_40 
REMARK   13  A    between atoms: C17_42  and  C18_43 
REMARK   14  A    between atoms: C18_43  and  O4_44 
ROOT
HETATM    1  C4  UNL     1       6.665   0.081   0.294  1.00  0.00     0.152 A 
HETATM    2  N5  UNL     1       5.987  -0.008   1.449  1.00  0.00    -0.320 N 
ATOM      3  H5  UNL     1       6.403   0.035   2.380  1.00  0.00     0.169 HD
HETATM    4  C5  UNL     1       4.656  -0.165   1.188  1.00  0.00     0.192 A 
HETATM    5  C6  UNL     1       3.540  -0.305   1.989  1.00  0.00     0.163 A 
HETATM    6  N7  UNL     1       2.342  -0.446   1.382  1.00  0.00    -0.170 N 
ATOM      7  H7  UNL     1       1.484  -0.554   1.923  1.00  0.00     0.186 HD
HETATM    8  C7  UNL     1       2.323  -0.439   0.042  1.00  0.00     0.722 A 
HETATM    9  N13 UNL     1       3.415  -0.302  -0.727  1.00  0.00    -0.107 N 
ATOM     10  H13 UNL     1       3.330  -0.305  -1.743  1.00  0.00     0.208 HD
HETATM   11  N14 UNL     1       4.595  -0.164  -0.163  1.00  0.00    -0.160 N 
HETATM   12  N15 UNL     1       5.790  -0.017  -0.696  1.00  0.00    -0.260 N 
ATOM     13  H15 UNL     1       6.004   0.016  -1.693  1.00  0.00     0.191 HD
ENDROOT
BRANCH   8  14
HETATM   14  N8  UNL     1       1.078  -0.582  -0.677  1.00  0.00    -0.079 N 
HETATM   15  C8  UNL     1       0.336  -1.706  -0.710  1.00  0.00     0.227 A 
HETATM   16  N9  UNL     1      -0.727  -1.428  -1.486  1.00  0.00    -0.338 N 
HETATM   17  C9  UNL     1      -0.670  -0.169  -1.935  1.00  0.00     0.107 A 
ATOM     18  H9  UNL     1      -1.475  -2.087  -1.703  1.00  0.00     0.168 HD
HETATM   19  N12 UNL     1       0.487   0.343  -1.404  1.00  0.00    -0.266 N 
ATOM     20  H12 UNL     1       0.834   1.291  -1.550  1.00  0.00     0.189 HD
BRANCH  17  21
HETATM   21  C10 UNL     1      -1.600   0.592  -2.826  1.00  0.00     0.153 C 
BRANCH  21  22
HETATM   22  S1  UNL     1      -2.806   1.499  -1.921  1.00  0.00    -0.128 SA
BRANCH  22  23
HETATM   23  C11 UNL     1      -4.096   0.627  -1.105  1.00  0.00     0.258 C 
HETATM   24  C12 UNL     1      -3.694  -0.279   0.035  1.00  0.00     0.147 C 
HETATM   25  C13 UNL     1      -4.967  -0.444   0.836  1.00  0.00     0.226 C 
HETATM   26  O1  UNL     1      -4.994  -0.708   2.044  1.00  0.00    -0.273 OA
HETATM   27  N10 UNL     1      -6.171  -0.275   0.101  1.00  0.00    -0.295 N 
HETATM   28  C17 UNL     1      -6.149  -0.535  -1.321  1.00  0.00     0.315 C 
HETATM   29  N11 UNL     1      -4.964  -0.127  -2.004  1.00  0.00    -0.038 N 
ATOM     30 2H11 UNL     1      -5.176   0.394  -2.855  1.00  0.00     0.281 HD
ATOM     31 1H11 UNL     1      -4.478  -0.917  -2.428  1.00  0.00     0.281 HD
BRANCH  27  32
HETATM   32  C14 UNL     1      -7.405   0.144   0.773  1.00  0.00     0.226 C 
BRANCH  32  33
HETATM   33  O2  UNL     1      -7.740  -0.856   1.682  1.00  0.00    -0.377 OA
ATOM     34  H2  UNL     1      -8.540  -0.585   2.117  1.00  0.00     0.212 HD
ENDBRANCH  32  33
BRANCH  32  35
HETATM   35  C15 UNL     1      -7.148   1.470   1.427  1.00  0.00     0.079 C 
BRANCH  35  36
HETATM   36  C16 UNL     1      -8.368   1.991   2.154  1.00  0.00     0.168 C 
BRANCH  36  37
HETATM   37  O3  UNL     1      -9.388   2.133   1.219  1.00  0.00    -0.401 OA
ATOM     38  H3  UNL     1     -10.154   2.460   1.676  1.00  0.00     0.209 HD
ENDBRANCH  36  37
ENDBRANCH  35  36
ENDBRANCH  32  35
ENDBRANCH  27  32
BRANCH  28  39
HETATM   39  C18 UNL     1      -6.382  -2.039  -1.515  1.00  0.00     0.218 C 
BRANCH  39  40
HETATM   40  O4  UNL     1      -7.616  -2.409  -0.980  1.00  0.00    -0.397 OA
ATOM     41  H4  UNL     1      -7.760  -3.340  -1.100  1.00  0.00     0.209 HD
ENDBRANCH  39  40
ENDBRANCH  28  39
ENDBRANCH  22  23
ENDBRANCH  21  22
ENDBRANCH  17  21
ENDBRANCH   8  14
BRANCH   5  42
HETATM   42  N6  UNL     1       3.643  -0.297   3.282  1.00  0.00    -0.382 N 
ATOM     43  H62 UNL     1       4.548  -0.190   3.740  1.00  0.00     0.157 HD
ATOM     44  H61 UNL     1       2.819  -0.400   3.874  1.00  0.00     0.157 HD
ENDBRANCH   5  42
BRANCH   1  45
HETATM   45  C3  UNL     1       8.131   0.251   0.215  1.00  0.00     0.108 A 
HETATM   46  N4  UNL     1       8.886   0.326   1.303  1.00  0.00    -0.326 N 
HETATM   47  C2  UNL     1      10.231   0.483   1.268  1.00  0.00     0.194 A 
ATOM     48  H4  UNL     1       8.430   0.262   2.213  1.00  0.00     0.169 HD
HETATM   49  N2  UNL     1      10.822   0.565   0.067  1.00  0.00    -0.315 N 
HETATM   50  N3  UNL     1      10.948   0.550   2.479  1.00  0.00    -0.063 NA
HETATM   51  C1  UNL     1      10.136   0.498  -1.074  1.00  0.00     0.128 A 
ATOM     52  H2  UNL     1      11.834   0.683   0.025  1.00  0.00     0.170 HD
HETATM   53  C19 UNL     1       8.759   0.338  -1.011  1.00  0.00     0.120 A 
HETATM   54  N16 UNL     1       8.007   0.266  -2.214  1.00  0.00    -0.096 NA
BRANCH  51  55
HETATM   55  N1  UNL     1      10.696   0.576  -2.245  1.00  0.00    -0.384 N 
ATOM     56  H12 UNL     1      11.708   0.694  -2.291  1.00  0.00     0.157 HD
ATOM     57  H11 UNL     1      10.171   0.525  -3.118  1.00  0.00     0.157 HD
ENDBRANCH  51  55
ENDBRANCH   1  45
TORSDOF 14
