REMARK  10 active torsions:
REMARK  status: ('A' for Active; 'I' for Inactive)
REMARK    1  A    between atoms: N1_2  and  N2_3 
REMARK    2  A    between atoms: N2_3  and  C2_5 
REMARK    3  A    between atoms: C4_7  and  N3_8 
REMARK    4  A    between atoms: N4_11  and  N5_12 
REMARK    5  A    between atoms: C5_15  and  N6_16 
REMARK    6  A    between atoms: N6_16  and  C6_18 
REMARK    7  A    between atoms: C6_18  and  C7_19 
REMARK    8  A    between atoms: C6_18  and  N12_35 
REMARK    9  A    between atoms: C7_19  and  N7_20 
REMARK   10  A    between atoms: C10_25  and  N9_26 
ROOT
HETATM    1  C6  UNL     1       0.617  -0.793  -0.264  1.00  0.00     0.242 C 
ENDROOT
BRANCH   1   2
HETATM    2  N6  UNL     1      -0.479  -1.390  -0.940  1.00  0.00    -0.200 N 
ATOM      3  H6  UNL     1      -0.301  -2.340  -1.267  1.00  0.00     0.180 HD
BRANCH   2   4
HETATM    4  C5  UNL     1      -1.628  -0.960  -1.208  1.00  0.00     0.704 A 
HETATM    5  N4  UNL     1      -2.452  -1.807  -1.882  1.00  0.00    -0.077 N 
HETATM    6  C4  UNL     1      -3.677  -1.426  -2.200  1.00  0.00     0.142 A 
HETATM    7  C3  UNL     1      -4.142  -0.159  -1.852  1.00  0.00     0.100 A 
HETATM    8  C2  UNL     1      -3.322   0.698  -1.175  1.00  0.00     0.136 A 
HETATM    9  N16 UNL     1      -2.081   0.253  -0.878  1.00  0.00    -0.174 N 
ATOM     10  H16 UNL     1      -1.454   0.879  -0.373  1.00  0.00     0.186 HD
BRANCH   5  11
HETATM   11  N5  UNL     1      -2.002  -3.093  -2.244  1.00  0.00    -0.322 N 
ATOM     12  H52 UNL     1      -2.620  -3.728  -2.749  1.00  0.00     0.178 HD
ATOM     13  H51 UNL     1      -1.057  -3.387  -1.999  1.00  0.00     0.178 HD
ENDBRANCH   5  11
BRANCH   6  14
HETATM   14  N3  UNL     1      -4.462  -2.237  -2.844  1.00  0.00    -0.383 N 
ATOM     15  H32 UNL     1      -5.407  -1.943  -3.089  1.00  0.00     0.157 HD
ATOM     16  H31 UNL     1      -4.122  -3.164  -3.099  1.00  0.00     0.157 HD
ENDBRANCH   6  14
BRANCH   8  17
HETATM   17  N2  UNL     1      -3.771   1.990  -0.809  1.00  0.00    -0.289 N 
ATOM     18  H2  UNL     1      -3.148   2.622  -0.306  1.00  0.00     0.184 HD
BRANCH  17  19
HETATM   19  N1  UNL     1      -5.058   2.399  -1.134  1.00  0.00    -0.144 NA
HETATM   20  C1  UNL     1      -5.416   3.510  -0.280  1.00  0.00     0.159 C 
ENDBRANCH  17  19
ENDBRANCH   8  17
ENDBRANCH   2   4
ENDBRANCH   1   2
BRANCH   1  21
HETATM   21  C7  UNL     1       1.828  -0.602  -1.158  1.00  0.00     0.179 C 
BRANCH  21  22
HETATM   22  N7  UNL     1       2.890   0.003  -0.411  1.00  0.00    -0.324 N 
HETATM   23  C8  UNL     1       3.846  -0.632   0.281  1.00  0.00     0.185 A 
HETATM   24  N8  UNL     1       4.678   0.246   0.857  1.00  0.00    -0.346 N 
HETATM   25  C9  UNL     1       4.272   1.478   0.545  1.00  0.00     0.122 A 
ATOM     26  H8  UNL     1       5.485   0.012   1.436  1.00  0.00     0.167 HD
HETATM   27  C10 UNL     1       4.774   2.719   0.879  1.00  0.00     0.131 A 
HETATM   28  C12 UNL     1       3.154   1.319  -0.248  1.00  0.00     0.140 A 
HETATM   29  N10 UNL     1       4.143   3.807   0.409  1.00  0.00    -0.337 N 
HETATM   30  C11 UNL     1       3.049   3.658  -0.367  1.00  0.00     0.183 A 
ATOM     31  H10 UNL     1       4.488   4.739   0.637  1.00  0.00     0.168 HD
HETATM   32  N11 UNL     1       2.556   2.438  -0.695  1.00  0.00    -0.336 N 
ATOM     33  H11 UNL     1       1.726   2.368  -1.284  1.00  0.00     0.168 HD
BRANCH  27  34
HETATM   34  N9  UNL     1       5.813   2.875   1.615  1.00  0.00    -0.383 N 
ATOM     35  H92 UNL     1       6.292   2.048   1.972  1.00  0.00     0.157 HD
ATOM     36  H91 UNL     1       6.184   3.792   1.862  1.00  0.00     0.157 HD
ENDBRANCH  27  34
ENDBRANCH  21  22
ENDBRANCH   1  21
BRANCH   1  37
HETATM   37  N12 UNL     1       0.911  -1.564   0.903  1.00  0.00    -0.166 N 
HETATM   38  C13 UNL     1       1.125  -1.046   2.118  1.00  0.00     0.157 A 
HETATM   39  C14 UNL     1       1.376  -2.072   2.997  1.00  0.00     0.148 A 
HETATM   40  N13 UNL     1       1.655  -1.970   4.386  1.00  0.00    -0.081 NA
HETATM   41  N14 UNL     1       1.314  -3.208   2.315  1.00  0.00    -0.178 N 
HETATM   42  C15 UNL     1       1.030  -2.896   1.038  1.00  0.00     0.681 A 
ATOM     43  H14 UNL     1       1.456  -4.146   2.690  1.00  0.00     0.185 HD
HETATM   44  N15 UNL     1       0.904  -3.797   0.120  1.00  0.00    -0.234 N 
ATOM     45 2H15 UNL     1       0.689  -3.560  -0.849  1.00  0.00     0.174 HD
ATOM     46 1H15 UNL     1       0.994  -4.808   0.222  1.00  0.00     0.174 HD
ENDBRANCH   1  37
TORSDOF 10
