REMARK  9 active torsions:
REMARK  status: ('A' for Active; 'I' for Inactive)
REMARK    1  A    between atoms: C8_9  and  N2_10 
REMARK    2  A    between atoms: N2_10  and  C9_12 
REMARK    3  A    between atoms: C10_15  and  N4_16 
REMARK    4  A    between atoms: N4_16  and  C11_18 
REMARK    5  A    between atoms: C11_18  and  O1_19 
REMARK    6  A    between atoms: C11_18  and  N5_21 
REMARK    7  A    between atoms: N5_21  and  C12_23 
REMARK    8  A    between atoms: C13_26  and  O2_27 
REMARK    9  A    between atoms: N10_35  and  N11_36 
ROOT
HETATM    1  N1  UNL     1      -3.738  -3.770   2.064  1.00  0.00    -0.191 NA
HETATM    2  C1  UNL     1      -4.069  -2.690   1.812  1.00  0.00     0.099 C 
HETATM    3  C2  UNL     1      -4.459  -1.340   1.490  1.00  0.00     0.045 A 
HETATM    4  C3  UNL     1      -5.670  -0.883   1.955  1.00  0.00     0.025 A 
HETATM    5  C4  UNL     1      -6.049   0.402   1.653  1.00  0.00     0.032 A 
HETATM    6  C5  UNL     1      -5.216   1.239   0.882  1.00  0.00     0.046 A 
HETATM    7  C6  UNL     1      -4.016   0.807   0.410  1.00  0.00     0.013 A 
HETATM    8  C7  UNL     1      -3.666  -0.506   0.740  1.00  0.00     0.036 A 
HETATM    9  C8  UNL     1      -3.106   1.627  -0.454  1.00  0.00     0.239 C 
HETATM   10  N12 UNL     1      -3.564   3.008  -0.511  1.00  0.00    -0.317 N 
ATOM     11  H12 UNL     1      -2.939   3.700  -0.926  1.00  0.00     0.166 HD
HETATM   12  C15 UNL     1      -4.808   3.452  -0.033  1.00  0.00     0.322 C 
HETATM   13  O3  UNL     1      -5.173   4.650  -0.240  1.00  0.00    -0.247 OA
HETATM   14  N13 UNL     1      -5.675   2.586   0.680  1.00  0.00    -0.308 N 
ATOM     15  H13 UNL     1      -6.579   2.903   1.032  1.00  0.00     0.170 HD
ENDROOT
BRANCH   9  16
HETATM   16  N2  UNL     1      -1.768   1.542   0.014  1.00  0.00    -0.198 N 
ATOM     17  H2  UNL     1      -1.592   2.181   0.789  1.00  0.00     0.180 HD
BRANCH  16  18
HETATM   18  C9  UNL     1      -0.635   0.802  -0.322  1.00  0.00     0.730 A 
HETATM   19  N3  UNL     1       0.484   0.916   0.490  1.00  0.00    -0.020 N 
HETATM   20  C10 UNL     1       1.629   0.295   0.264  1.00  0.00     0.710 A 
ATOM     21  H3  UNL     1       0.419   1.516   1.312  1.00  0.00     0.203 HD
HETATM   22  N8  UNL     1       1.678  -0.493  -0.836  1.00  0.00    -0.020 N 
HETATM   23  C14 UNL     1       0.636  -0.638  -1.649  1.00  0.00     0.726 A 
ATOM     24  H8  UNL     1       2.542  -0.992  -1.048  1.00  0.00     0.203 HD
HETATM   25  N9  UNL     1       0.691  -1.403  -2.712  1.00  0.00    -0.232 N 
HETATM   26  N10 UNL     1      -0.535   0.019  -1.388  1.00  0.00     0.084 N 
ATOM     27  H92 UNL     1       1.564  -1.893  -2.907  1.00  0.00     0.174 HD
ATOM     28  H91 UNL     1      -0.108  -1.514  -3.336  1.00  0.00     0.174 HD
BRANCH  20  29
HETATM   29  N4  UNL     1       2.758   0.434   1.112  1.00  0.00    -0.181 N 
ATOM     30  H4  UNL     1       2.706   1.035   1.934  1.00  0.00     0.182 HD
BRANCH  29  31
HETATM   31  C11 UNL     1       4.005  -0.289   0.807  1.00  0.00     0.339 C 
BRANCH  31  32
HETATM   32  O1  UNL     1       3.688  -1.650   0.828  1.00  0.00    -0.359 OA
ATOM     33  H1  UNL     1       4.492  -2.116   0.631  1.00  0.00     0.214 HD
ENDBRANCH  31  32
BRANCH  31  34
HETATM   34  N5  UNL     1       4.448   0.085  -0.481  1.00  0.00    -0.358 N 
ATOM     35  H5  UNL     1       3.854   0.667  -1.071  1.00  0.00     0.159 HD
BRANCH  34  36
HETATM   36  C12 UNL     1       5.698  -0.338  -0.955  1.00  0.00     0.237 C 
HETATM   37  N6  UNL     1       6.745  -0.395   0.076  1.00  0.00    -0.116 NA
HETATM   38  N7  UNL     1       6.569  -1.789   0.148  1.00  0.00    -0.111 NA
HETATM   39  C13 UNL     1       6.010  -1.773  -1.190  1.00  0.00     0.266 C 
BRANCH  39  40
HETATM   40  O2  UNL     1       4.966  -2.645  -1.435  1.00  0.00    -0.375 OA
ATOM     41  H2  UNL     1       5.165  -3.562  -1.585  1.00  0.00     0.211 HD
ENDBRANCH  39  40
ENDBRANCH  34  36
ENDBRANCH  31  34
ENDBRANCH  29  31
ENDBRANCH  20  29
BRANCH  26  42
HETATM   42  N11 UNL     1      -1.587  -0.178  -2.327  1.00  0.00    -0.309 N 
ATOM     43 2H11 UNL     1      -2.460   0.312  -2.132  1.00  0.00     0.178 HD
ATOM     44 1H11 UNL     1      -1.510  -0.780  -3.147  1.00  0.00     0.178 HD
ENDBRANCH  26  42
ENDBRANCH  16  18
ENDBRANCH   9  16
TORSDOF 9
