REMARK  14 active torsions:
REMARK  status: ('A' for Active; 'I' for Inactive)
REMARK    1  A    between atoms: C1_2  and  C2_4 
REMARK    2  A    between atoms: C2_4  and  O3_5 
REMARK    3  A    between atoms: C2_4  and  C3_7 
REMARK    4  A    between atoms: C3_7  and  O4_8 
REMARK    5  A    between atoms: C3_7  and  C4_10 
REMARK    6  A    between atoms: C4_10  and  O5_11 
REMARK    7  A    between atoms: C4_10  and  C5_13 
REMARK    8  A    between atoms: C7_17  and  O8_18 
REMARK    9  A    between atoms: C10_24  and  O11_25 
REMARK   10  A    between atoms: C11_27  and  O12_28 
REMARK   11  A    between atoms: C14_33  and  O14_34 
REMARK   12  A    between atoms: C14_33  and  C15_36 
REMARK   13  A    between atoms: C16_39  and  C17_40 
REMARK   14  A    between atoms: C17_40  and  O17_41 
ROOT
HETATM    1  C5  UNL     1       1.195  -0.253  -0.782  1.00  0.00     0.182 C 
HETATM    2  O6  UNL     1       1.623  -1.620  -1.125  1.00  0.00    -0.309 OA
HETATM    3  C6  UNL     1       1.017  -2.437  -0.135  1.00  0.00     0.303 C 
HETATM    4  O7  UNL     1       1.544  -3.512   0.242  1.00  0.00    -0.261 OA
HETATM    5  C7  UNL     1      -0.228  -1.775   0.275  1.00  0.00     0.230 C 
HETATM    6  C8  UNL     1      -1.450  -2.528  -0.071  1.00  0.00     0.243 C 
HETATM    7  O9  UNL     1      -1.310  -3.597  -0.654  1.00  0.00    -0.285 OA
HETATM    8  C9  UNL     1      -2.796  -2.071   0.240  1.00  0.00     0.230 C 
HETATM    9  O10 UNL     1      -3.710  -2.920   0.093  1.00  0.00    -0.286 OA
HETATM   10  C10 UNL     1      -3.190  -0.710   0.709  1.00  0.00     0.241 C 
HETATM   11  C11 UNL     1      -2.626   0.400  -0.095  1.00  0.00     0.185 C 
HETATM   12  C12 UNL     1      -1.151   0.514  -0.167  1.00  0.00     0.003 C 
HETATM   13  C13 UNL     1      -0.852   1.754   0.179  1.00  0.00     0.146 C 
HETATM   14  O13 UNL     1      -1.976   2.506   0.482  1.00  0.00    -0.314 OA
HETATM   15  C14 UNL     1      -3.078   1.680   0.617  1.00  0.00     0.297 C 
HETATM   16  C16 UNL     1      -0.215  -0.518  -0.578  1.00  0.00     0.087 C 
ENDROOT
BRANCH   1  17
HETATM   17  C4  UNL     1       2.165   0.184   0.212  1.00  0.00     0.180 C 
BRANCH  17  18
HETATM   18  C3  UNL     1       3.565  -0.054  -0.440  1.00  0.00     0.188 C 
BRANCH  18  19
HETATM   19  C2  UNL     1       4.650   0.349   0.498  1.00  0.00     0.250 C 
BRANCH  19  20
HETATM   20  C1  UNL     1       5.981   0.084  -0.104  1.00  0.00     0.205 C 
HETATM   21  O1  UNL     1       6.298  -1.087  -0.489  1.00  0.00    -0.646 OA
HETATM   22  O2  UNL     1       6.943   1.070  -0.283  1.00  0.00    -0.646 OA
ENDBRANCH  19  20
BRANCH  19  23
HETATM   23  O3  UNL     1       4.617   1.713   0.808  1.00  0.00    -0.382 OA
ATOM     24  H3  UNL     1       3.765   1.883   1.193  1.00  0.00     0.210 HD
ENDBRANCH  19  23
ENDBRANCH  18  19
BRANCH  18  25
HETATM   25  O4  UNL     1       3.696   0.649  -1.609  1.00  0.00    -0.390 OA
ATOM     26  H4  UNL     1       3.004   0.392  -2.207  1.00  0.00     0.210 HD
ENDBRANCH  18  25
ENDBRANCH  17  18
BRANCH  17  27
HETATM   27  O5  UNL     1       2.248  -0.602   1.356  1.00  0.00    -0.390 OA
ATOM     28  H5  UNL     1       1.397  -0.457   1.752  1.00  0.00     0.210 HD
ENDBRANCH  17  27
ENDBRANCH   1  17
BRANCH  16  29
HETATM   29  C17 UNL     1      -0.684  -1.025  -1.989  1.00  0.00     0.185 C 
BRANCH  29  30
HETATM   30  O17 UNL     1      -0.449  -0.036  -2.929  1.00  0.00    -0.400 OA
ATOM     31  H17 UNL     1      -0.733  -0.343  -3.782  1.00  0.00     0.209 HD
ENDBRANCH  29  30
ENDBRANCH  16  29
BRANCH   5  32
HETATM   32  O8  UNL     1      -0.326  -1.508   1.639  1.00  0.00    -0.371 OA
ATOM     33  H8  UNL     1      -1.131  -1.080   1.904  1.00  0.00     0.211 HD
ENDBRANCH   5  32
BRANCH  11  34
HETATM   34  O12 UNL     1      -3.202   0.464  -1.371  1.00  0.00    -0.376 OA
ATOM     35  H12 UNL     1      -2.840   1.175  -1.886  1.00  0.00     0.211 HD
ENDBRANCH  11  34
BRANCH  10  36
HETATM   36  O11 UNL     1      -4.593  -0.624   0.567  1.00  0.00    -0.384 OA
ATOM     37  H11 UNL     1      -4.844   0.242   0.866  1.00  0.00     0.210 HD
ENDBRANCH  10  36
BRANCH  15  38
HETATM   38  O14 UNL     1      -3.381   1.412   1.959  1.00  0.00    -0.354 OA
ATOM     39  H14 UNL     1      -3.661   2.205   2.400  1.00  0.00     0.213 HD
ENDBRANCH  15  38
BRANCH  15  40
HETATM   40  C15 UNL     1      -4.304   2.196  -0.013  1.00  0.00     0.243 C 
HETATM   41  O15 UNL     1      -4.269   2.546  -1.218  1.00  0.00    -0.644 OA
HETATM   42  O16 UNL     1      -5.510   2.316   0.669  1.00  0.00    -0.644 OA
ENDBRANCH  15  40
TORSDOF 14
