REMARK  12 active torsions:
REMARK  status: ('A' for Active; 'I' for Inactive)
REMARK    1  A    between atoms: N1_1  and  C1_4 
REMARK    2  A    between atoms: N3_8  and  C3_9 
REMARK    3  A    between atoms: C3_9  and  C4_10 
REMARK       I    between atoms: C4_10  and  N4_12 
REMARK    4  A    between atoms: N4_12  and  C5_14 
REMARK    5  A    between atoms: C5_14  and  C6_15 
REMARK    6  A    between atoms: N5_16  and  C7_18 
REMARK    7  A    between atoms: C12_31  and  N10_32 
REMARK    8  A    between atoms: N11_35  and  C13_36 
REMARK    9  A    between atoms: C14_38  and  C15_39 
REMARK   10  A    between atoms: C15_39  and  O4_40 
REMARK   11  A    between atoms: C16_42  and  O5_43 
REMARK   12  A    between atoms: C17_45  and  O6_46 
ROOT
HETATM    1  C7  UNL     1      -0.236   0.460   0.088  1.00  0.00     0.684 A 
HETATM    2  N6  UNL     1      -1.539   0.750  -0.284  1.00  0.00    -0.174 N 
ATOM      3  H6  UNL     1      -1.957   0.192  -1.029  1.00  0.00     0.186 HD
HETATM    4  C8  UNL     1      -2.275   1.701   0.262  1.00  0.00     0.161 A 
HETATM    5  C9  UNL     1      -1.732   2.459   1.260  1.00  0.00     0.119 A 
HETATM    6  C10 UNL     1      -0.459   2.203   1.651  1.00  0.00     0.151 A 
HETATM    7  N7  UNL     1       0.119   2.978   2.681  1.00  0.00    -0.081 NA
HETATM    8  N8  UNL     1       0.286   1.211   1.070  1.00  0.00    -0.177 N 
ATOM      9  H8  UNL     1       1.241   1.043   1.385  1.00  0.00     0.185 HD
HETATM   10  C11 UNL     1      -2.495   3.457   1.815  1.00  0.00     0.277 A 
HETATM   11  O2  UNL     1      -1.993   4.155   2.736  1.00  0.00    -0.267 OA
HETATM   12  N9  UNL     1      -3.747   3.680   1.383  1.00  0.00    -0.155 N 
ATOM     13  H9  UNL     1      -4.298   4.426   1.808  1.00  0.00     0.187 HD
HETATM   14  C12 UNL     1      -4.297   2.925   0.383  1.00  0.00     0.684 A 
HETATM   15  N11 UNL     1      -3.572   1.955  -0.162  1.00  0.00    -0.137 N 
ENDROOT
BRANCH   1  16
HETATM   16  N5  UNL     1       0.365  -0.459  -0.497  1.00  0.00    -0.204 N 
HETATM   17  C6  UNL     1       1.504  -1.188  -0.630  1.00  0.00     0.098 C 
ATOM     18  H5  UNL     1      -0.290  -0.832  -1.184  1.00  0.00     0.183 HD
BRANCH  17  19
HETATM   19  C5  UNL     1       2.632  -0.911   0.326  1.00  0.00     0.167 C 
BRANCH  19  20
HETATM   20  N4  UNL     1       3.798  -1.741   0.117  1.00  0.00    -0.355 N 
HETATM   21  C4  UNL     1       4.559  -1.732  -1.068  1.00  0.00     0.237 C 
HETATM   22  O1  UNL     1       4.311  -1.002  -2.058  1.00  0.00    -0.272 OA
ATOM     23  H4  UNL     1       4.085  -2.367   0.869  1.00  0.00     0.162 HD
BRANCH  21  24
HETATM   24  C3  UNL     1       5.748  -2.643  -1.178  1.00  0.00     0.253 C 
BRANCH  24  25
HETATM   25  N3  UNL     1       6.928  -2.066  -0.606  1.00  0.00    -0.264 N 
HETATM   26  C2  UNL     1       7.281  -2.236   0.692  1.00  0.00     0.218 A 
HETATM   27  N2  UNL     1       8.408  -1.582   0.918  1.00  0.00    -0.185 N 
HETATM   28  C1  UNL     1       8.803  -0.982  -0.219  1.00  0.00     0.691 A 
ATOM     29  H2  UNL     1       8.899  -1.539   1.811  1.00  0.00     0.185 HD
HETATM   30  N12 UNL     1       7.873  -1.297  -1.142  1.00  0.00    -0.129 N 
ATOM     31  H12 UNL     1       7.891  -0.989  -2.114  1.00  0.00     0.206 HD
BRANCH  28  32
HETATM   32  N1  UNL     1       9.867  -0.274  -0.302  1.00  0.00    -0.233 N 
ATOM     33  H12 UNL     1      10.571  -0.036   0.397  1.00  0.00     0.174 HD
ATOM     34  H11 UNL     1      10.167   0.181  -1.164  1.00  0.00     0.174 HD
ENDBRANCH  28  32
ENDBRANCH  24  25
ENDBRANCH  21  24
ENDBRANCH  19  20
ENDBRANCH  17  19
ENDBRANCH   1  16
BRANCH  15  35
HETATM   35  C13 UNL     1      -4.032   1.121  -1.194  1.00  0.00     0.279 C 
HETATM   36  O3  UNL     1      -3.317  -0.144  -1.083  1.00  0.00    -0.353 OA
HETATM   37  C14 UNL     1      -4.118  -0.949  -0.276  1.00  0.00     0.179 C 
HETATM   38  C16 UNL     1      -5.530  -0.492  -0.403  1.00  0.00     0.182 C 
HETATM   39  C17 UNL     1      -5.358   0.620  -1.429  1.00  0.00     0.199 C 
BRANCH  37  40
HETATM   40  C15 UNL     1      -4.039  -2.405  -0.693  1.00  0.00     0.198 C 
BRANCH  40  41
HETATM   41  O4  UNL     1      -2.712  -2.861  -0.590  1.00  0.00    -0.398 OA
ATOM     42  H4  UNL     1      -2.663  -3.773  -0.851  1.00  0.00     0.209 HD
ENDBRANCH  40  41
ENDBRANCH  37  40
BRANCH  38  43
HETATM   43  O5  UNL     1      -6.142  -0.103   0.754  1.00  0.00    -0.390 OA
ATOM     44  H5  UNL     1      -7.043   0.188   0.673  1.00  0.00     0.210 HD
ENDBRANCH  38  43
BRANCH  39  45
HETATM   45  O6  UNL     1      -6.488   1.323  -1.520  1.00  0.00    -0.388 OA
ATOM     46  H6  UNL     1      -7.365   0.992  -1.675  1.00  0.00     0.210 HD
ENDBRANCH  39  45
ENDBRANCH  15  35
BRANCH  14  47
HETATM   47  N10 UNL     1      -5.502   3.251   0.021  1.00  0.00    -0.234 N 
ATOM     48 2H10 UNL     1      -6.059   3.996   0.440  1.00  0.00     0.174 HD
ATOM     49 1H10 UNL     1      -5.912   2.688  -0.724  1.00  0.00     0.174 HD
ENDBRANCH  14  47
TORSDOF 12
