REMARK  5 active torsions:
REMARK  status: ('A' for Active; 'I' for Inactive)
REMARK    1  A    between atoms: N1_2  and  C2_3 
REMARK    2  A    between atoms: N2_4  and  O1_6 
REMARK    3  A    between atoms: C4_10  and  C5_11 
REMARK    4  A    between atoms: C5_11  and  C6_12 
REMARK    5  A    between atoms: C6_12  and  O2_13 
ROOT
HETATM    1  C1  UNL     1      -1.382   0.714  -1.076  1.00  0.00     0.281 C 
HETATM    2  N1  UNL     1      -1.243  -0.235   0.021  1.00  0.00    -0.026 N 
HETATM    3  C3  UNL     1      -1.239   0.394   1.286  1.00  0.00     0.318 C 
HETATM    4  S1  UNL     1       0.545   0.506   1.705  1.00  0.00    -0.134 SA
HETATM    5  C4  UNL     1       1.111  -0.619   0.374  1.00  0.00     0.077 C 
HETATM    6  C7  UNL     1      -0.146  -1.066  -0.210  1.00  0.00     0.260 C 
ENDROOT
BRANCH   2   7
HETATM    7  C2  UNL     1      -2.430  -1.057  -0.034  1.00  0.00     0.316 C 
HETATM    8  N2  UNL     1      -3.580  -0.498   0.097  1.00  0.00    -0.258 N 
ATOM      9  H2  UNL     1      -4.404  -1.098   0.054  1.00  0.00     0.194 HD
BRANCH   8  10
HETATM   10  O1  UNL     1      -3.782   0.842   0.290  1.00  0.00    -0.289 OA
ATOM     11  H1  UNL     1      -4.632   1.255   0.387  1.00  0.00     0.244 HD
ENDBRANCH   8  10
ENDBRANCH   2   7
BRANCH   5  12
HETATM   12  C5  UNL     1       2.062   0.118  -0.494  1.00  0.00     0.043 C 
BRANCH  12  13
HETATM   13  C6  UNL     1       3.238   0.560   0.389  1.00  0.00     0.165 C 
BRANCH  13  14
HETATM   14  O2  UNL     1       3.851  -0.579   0.945  1.00  0.00    -0.401 OA
ATOM     15  H2  UNL     1       4.579  -0.306   1.491  1.00  0.00     0.209 HD
ENDBRANCH  13  14
ENDBRANCH  12  13
ENDBRANCH   5  12
TORSDOF 5
