REMARK  5 active torsions:
REMARK  status: ('A' for Active; 'I' for Inactive)
REMARK    1  A    between atoms: C2_2  and  C4_5 
REMARK    2  A    between atoms: C6_12  and  C7_13 
REMARK    3  A    between atoms: C7_13  and  C8_14 
REMARK    4  A    between atoms: C8_14  and  C9_15 
REMARK       I    between atoms: C9_15  and  N3_17 
REMARK    5  A    between atoms: N4_20  and  C12_21 
ROOT
HETATM    1  C9  UNL     1      -0.407  -0.007  -1.171  1.00  0.00     0.220 C 
HETATM    2  O2  UNL     1      -0.831   0.450  -2.270  1.00  0.00    -0.273 OA
HETATM    3  N3  UNL     1       0.959   0.099  -0.802  1.00  0.00    -0.349 N 
HETATM    4  C10 UNL     1       1.861   0.761  -1.733  1.00  0.00     0.145 C 
HETATM    5  C11 UNL     1       3.082   1.306  -1.019  1.00  0.00     0.143 C 
HETATM    6  N4  UNL     1       3.719   0.245  -0.226  1.00  0.00    -0.378 N 
HETATM    7  C18 UNL     1       2.924  -0.895   0.132  1.00  0.00     0.143 C 
HETATM    8  C19 UNL     1       1.499  -0.404   0.424  1.00  0.00     0.145 C 
ENDROOT
BRANCH   1   9
HETATM    9  C8  UNL     1      -1.390  -0.681  -0.240  1.00  0.00     0.108 C 
BRANCH   9  10
HETATM   10  C7  UNL     1      -2.737  -0.700  -0.876  1.00  0.00     0.056 C 
BRANCH  10  11
HETATM   11  C6  UNL     1      -3.829  -1.300  -0.116  1.00  0.00     0.037 A 
HETATM   12  C4  UNL     1      -4.660  -0.678   0.775  1.00  0.00     0.060 A 
HETATM   13  N1  UNL     1      -5.466  -1.682   1.254  1.00  0.00    -0.299 N 
HETATM   14  N2  UNL     1      -5.154  -2.832   0.695  1.00  0.00    -0.266 N 
ATOM     15  H1  UNL     1      -6.204  -1.554   1.947  1.00  0.00     0.186 HD
HETATM   16  C5  UNL     1      -4.158  -2.662  -0.154  1.00  0.00     0.268 A 
ATOM     17  H2  UNL     1      -5.613  -3.722   0.889  1.00  0.00     0.190 HD
HETATM   18  O1  UNL     1      -3.561  -3.509  -0.894  1.00  0.00    -0.266 OA
BRANCH  12  19
HETATM   19  C2  UNL     1      -4.831   0.713   1.195  1.00  0.00     0.074 C 
HETATM   20  C1  UNL     1      -5.949   0.777   2.233  1.00  0.00     0.039 C 
HETATM   21  C3  UNL     1      -5.413   1.452  -0.024  1.00  0.00     0.039 C 
HETATM   22 CL1  UNL     1      -3.418   1.582   1.718  1.00  0.00    -0.113 Cl
ENDBRANCH  12  19
ENDBRANCH  10  11
ENDBRANCH   9  10
ENDBRANCH   1   9
BRANCH   6  23
HETATM   23  C12 UNL     1       5.074   0.451   0.116  1.00  0.00     0.033 A 
HETATM   24  C13 UNL     1       5.751   1.609  -0.150  1.00  0.00     0.053 A 
HETATM   25  C14 UNL     1       7.082   1.796   0.184  1.00  0.00     0.037 A 
HETATM   26 CL2  UNL     1       7.918   3.289  -0.171  1.00  0.00    -0.084 Cl
HETATM   27  C15 UNL     1       7.784   0.791   0.815  1.00  0.00     0.048 A 
HETATM   28  C16 UNL     1       7.118  -0.393   1.096  1.00  0.00     0.037 A 
HETATM   29 CL3  UNL     1       8.022  -1.646   1.892  1.00  0.00    -0.084 Cl
HETATM   30  C17 UNL     1       5.769  -0.554   0.745  1.00  0.00     0.053 A 
ENDBRANCH   6  23
TORSDOF 5
