REMARK  7 active torsions:
REMARK  status: ('A' for Active; 'I' for Inactive)
REMARK    1  A    between atoms: C4_4  and  S1_5 
REMARK    2  A    between atoms: S1_5  and  C5_6 
REMARK    3  A    between atoms: N1_12  and  C11_13 
REMARK    4  A    between atoms: C11_13  and  O1_14 
REMARK    5  A    between atoms: C11_13  and  C12_16 
REMARK    6  A    between atoms: C12_16  and  N2_18 
REMARK    7  A    between atoms: C15_21  and  N3_22 
ROOT
HETATM    1  C1  UNL     1      -2.461  -2.502  -1.854  1.00  0.00     0.012 C 
HETATM    2  C2  UNL     1      -2.319  -1.173  -1.234  1.00  0.00     0.013 C 
HETATM    3  C3  UNL     1      -3.449  -0.751  -0.265  1.00  0.00     0.035 C 
HETATM    4  C4  UNL     1      -3.007   0.574   0.320  1.00  0.00     0.159 C 
HETATM    5  N1  UNL     1      -1.560   0.266   0.501  1.00  0.00    -0.343 N 
HETATM    6  C22 UNL     1      -1.524  -1.113   0.083  1.00  0.00     0.100 C 
HETATM    7  C23 UNL     1      -2.768  -1.657   0.684  1.00  0.00    -0.013 A 
HETATM    8  C24 UNL     1      -3.107  -2.942   1.150  1.00  0.00     0.013 A 
HETATM    9  C25 UNL     1      -3.067  -1.743   2.118  1.00  0.00     0.013 A 
ENDROOT
BRANCH   5  10
HETATM   10  C11 UNL     1      -0.635   1.186   0.976  1.00  0.00     0.164 C 
BRANCH  10  11
HETATM   11  O1  UNL     1      -1.172   2.344   1.295  1.00  0.00    -0.347 OA
ATOM     12  H1  UNL     1      -0.539   2.974   1.620  1.00  0.00     0.219 HD
ENDBRANCH  10  11
BRANCH  10  13
HETATM   13  C12 UNL     1       0.792   1.148   1.199  1.00  0.00     0.392 C 
HETATM   14 CL1  UNL     1       1.136   1.515   2.933  1.00  0.00    -0.083 Cl
BRANCH  13  15
HETATM   15  N2  UNL     1       1.540   0.006   0.771  1.00  0.00     0.115 N 
HETATM   16  C13 UNL     1       2.641  -0.285   1.648  1.00  0.00     0.277 C 
HETATM   17  C14 UNL     1       3.541  -1.402   1.236  1.00  0.00     0.066 C 
HETATM   18  C15 UNL     1       4.096  -1.089  -0.126  1.00  0.00     0.226 C 
HETATM   19  C20 UNL     1       2.949  -0.906  -1.058  1.00  0.00     0.066 C 
HETATM   20  C21 UNL     1       1.908   0.052  -0.613  1.00  0.00     0.277 C 
BRANCH  18  21
HETATM   21  N3  UNL     1       5.018  -0.033  -0.035  1.00  0.00     0.093 N 
HETATM   22  C16 UNL     1       6.153  -0.407   0.766  1.00  0.00     0.273 C 
HETATM   23  C17 UNL     1       7.379  -0.150  -0.043  1.00  0.00     0.032 C 
HETATM   24  C18 UNL     1       6.948   0.728  -1.167  1.00  0.00     0.032 C 
HETATM   25  C19 UNL     1       5.470   0.549  -1.245  1.00  0.00     0.273 C 
ENDBRANCH  18  21
ENDBRANCH  13  15
ENDBRANCH  10  13
ENDBRANCH   5  10
BRANCH   4  26
HETATM   26  S1  UNL     1      -3.244   1.976  -0.756  1.00  0.00    -0.104 SA
BRANCH  26  27
HETATM   27  C5  UNL     1      -4.955   2.370  -0.941  1.00  0.00     0.002 A 
HETATM   28  C6  UNL     1      -5.339   3.385  -1.786  1.00  0.00     0.018 A 
HETATM   29  C7  UNL     1      -6.706   3.694  -1.875  1.00  0.00     0.001 A 
HETATM   30  C8  UNL     1      -7.618   2.981  -1.121  1.00  0.00     0.000 A 
HETATM   31  C9  UNL     1      -7.222   1.963  -0.275  1.00  0.00     0.001 A 
HETATM   32  C10 UNL     1      -5.883   1.656  -0.185  1.00  0.00     0.018 A 
ENDBRANCH  26  27
ENDBRANCH   4  26
TORSDOF 7
