REMARK  9 active torsions:
REMARK  status: ('A' for Active; 'I' for Inactive)
REMARK    1  A    between atoms: O1_2  and  C2_3 
REMARK    2  A    between atoms: C2_3  and  C3_5 
REMARK    3  A    between atoms: C5_7  and  C6_8 
REMARK    4  A    between atoms: C6_8  and  O4_10 
REMARK    5  A    between atoms: O4_10  and  C7_11 
REMARK    6  A    between atoms: C7_11  and  C8_12 
REMARK       I    between atoms: C8_12  and  N1_14 
REMARK    7  A    between atoms: N1_14  and  C9_16 
REMARK    8  A    between atoms: C9_16  and  C12_19 
REMARK    9  A    between atoms: C17_24  and  N2_25 
ROOT
HETATM    1  C6  UNL     1       1.651  -0.262  -0.785  1.00  0.00     0.293 C 
HETATM    2  O3  UNL     1       1.156   0.884  -0.859  1.00  0.00    -0.259 OA
ENDROOT
BRANCH   1   3
HETATM    3  C5  UNL     1       3.059  -0.439  -0.381  1.00  0.00     0.043 A 
HETATM    4  C4  UNL     1       3.816   0.673  -0.088  1.00  0.00     0.035 A 
HETATM    5  C3  UNL     1       5.133   0.565   0.293  1.00  0.00     0.042 A 
HETATM    6  C18 UNL     1       5.736  -0.674   0.392  1.00  0.00     0.053 A 
HETATM    7  C17 UNL     1       4.988  -1.796   0.102  1.00  0.00     0.104 A 
HETATM    8  C16 UNL     1       3.654  -1.658  -0.282  1.00  0.00     0.053 A 
BRANCH   5   9
HETATM    9  C2  UNL     1       5.880   1.770   0.589  1.00  0.00     0.293 C 
HETATM   10  O2  UNL     1       5.316   2.880   0.492  1.00  0.00    -0.259 OA
BRANCH   9  11
HETATM   11  O1  UNL     1       7.219   1.716   0.979  1.00  0.00    -0.323 OA
HETATM   12  C1  UNL     1       7.949   2.895   1.268  1.00  0.00     0.213 C 
ENDBRANCH   9  11
ENDBRANCH   5   9
BRANCH   7  13
HETATM   13  N2  UNL     1       5.579  -3.081   0.195  1.00  0.00    -0.116 N 
HETATM   14  O6  UNL     1       4.918  -4.105  -0.064  1.00  0.00    -0.532 OA
HETATM   15  O7  UNL     1       6.888  -3.213   0.573  1.00  0.00    -0.532 OA
ENDBRANCH   7  13
ENDBRANCH   1   3
BRANCH   1  16
HETATM   16  O4  UNL     1       0.879  -1.355  -1.081  1.00  0.00    -0.308 OA
BRANCH  16  17
HETATM   17  C7  UNL     1      -0.465  -1.323  -1.468  1.00  0.00     0.281 C 
BRANCH  17  18
HETATM   18  C8  UNL     1      -1.329  -0.762  -0.407  1.00  0.00     0.242 C 
HETATM   19  O5  UNL     1      -0.805  -0.439   0.685  1.00  0.00    -0.271 OA
HETATM   20  N1  UNL     1      -2.738  -0.596  -0.640  1.00  0.00    -0.350 N 
ATOM     21  H1  UNL     1      -3.155  -0.862  -1.532  1.00  0.00     0.163 HD
BRANCH  20  22
HETATM   22  C9  UNL     1      -3.544  -0.047   0.414  1.00  0.00     0.032 C 
HETATM   23  C10 UNL     1      -3.440  -0.949   1.614  1.00  0.00     0.039 C 
HETATM   24  C11 UNL     1      -3.010   1.351   0.727  1.00  0.00     0.039 C 
BRANCH  22  25
HETATM   25  C12 UNL     1      -4.972   0.100   0.021  1.00  0.00    -0.027 C 
HETATM   26  C13 UNL     1      -5.750   0.684   1.187  1.00  0.00     0.017 C 
HETATM   27  C14 UNL     1      -5.139   1.056  -1.145  1.00  0.00     0.017 C 
HETATM   28  C15 UNL     1      -5.633  -1.193  -0.358  1.00  0.00     0.017 C 
ENDBRANCH  22  25
ENDBRANCH  20  22
ENDBRANCH  17  18
ENDBRANCH  16  17
ENDBRANCH   1  16
TORSDOF 9
