REMARK  12 active torsions:
REMARK  status: ('A' for Active; 'I' for Inactive)
REMARK    1  A    between atoms: O1_2  and  C2_3 
REMARK    2  A    between atoms: C4_5  and  O2_6 
REMARK    3  A    between atoms: C5_8  and  C6_9 
REMARK    4  A    between atoms: C7_11  and  C8_12 
REMARK    5  A    between atoms: C9_13  and  C10_14 
REMARK    6  A    between atoms: C10_14  and  C11_15 
REMARK    7  A    between atoms: C17_24  and  C18_25 
REMARK    8  A    between atoms: C19_26  and  C20_27 
REMARK    9  A    between atoms: C22_29  and  O6_30 
REMARK   10  A    between atoms: C24_32  and  O7_33 
REMARK   11  A    between atoms: C26_35  and  O8_36 
REMARK   12  A    between atoms: C29_39  and  O9_40 
ROOT
HETATM    1  C11 UNL     1      -5.909   4.176  -1.386  1.00  0.00     0.127 C 
HETATM    2  C12 UNL     1      -6.076   4.607  -0.018  1.00  0.00     0.059 C 
HETATM    3  N1  UNL     1      -6.222   4.938   1.081  1.00  0.00    -0.197 NA
ENDROOT
BRANCH   1   4
HETATM    4  C10 UNL     1      -4.428   4.153  -1.785  1.00  0.00     0.041 C 
BRANCH   4   5
HETATM    5  C9  UNL     1      -3.670   3.226  -0.909  1.00  0.00    -0.026 C 
HETATM    6  C8  UNL     1      -3.025   2.183  -1.414  1.00  0.00     0.018 C 
BRANCH   6   7
HETATM    7  C7  UNL     1      -2.287   1.301  -0.456  1.00  0.00     0.176 C 
HETATM    8  O3  UNL     1      -2.365   0.019  -0.849  1.00  0.00    -0.354 OA
HETATM    9  C6  UNL     1      -1.190  -0.748  -0.364  1.00  0.00     0.170 C 
HETATM   10  C17 UNL     1      -0.438   0.280   0.338  1.00  0.00     0.056 C 
HETATM   11  C15 UNL     1      -0.805   1.563  -0.478  1.00  0.00     0.032 C 
HETATM   12  C14 UNL     1      -0.659   2.807   0.300  1.00  0.00     0.192 C 
HETATM   13  C16 UNL     1      -0.259   1.561  -1.838  1.00  0.00     0.022 C 
HETATM   14  O5  UNL     1      -1.620   2.671   1.297  1.00  0.00    -0.318 OA
HETATM   15  C13 UNL     1      -2.584   1.707   0.924  1.00  0.00     0.298 C 
HETATM   16  O4  UNL     1      -3.459   1.383   1.756  1.00  0.00    -0.261 OA
BRANCH   9  17
HETATM   17  C5  UNL     1      -1.868  -1.858   0.292  1.00  0.00     0.038 A 
HETATM   18  C4  UNL     1      -1.203  -2.943   0.801  1.00  0.00     0.080 A 
HETATM   19  C3  UNL     1      -1.829  -4.090   1.305  1.00  0.00     0.074 A 
HETATM   20  C2  UNL     1      -3.178  -4.179   1.310  1.00  0.00     0.073 A 
HETATM   21  C31 UNL     1      -3.892  -3.135   0.815  1.00  0.00     0.074 A 
HETATM   22  C29 UNL     1      -3.260  -1.992   0.310  1.00  0.00     0.082 A 
BRANCH  18  23
HETATM   23  O2  UNL     1       0.150  -2.978   0.854  1.00  0.00    -0.360 OA
ATOM     24  H2  UNL     1       0.575  -2.200   0.512  1.00  0.00     0.217 HD
ENDBRANCH  18  23
BRANCH  20  25
HETATM   25  O1  UNL     1      -3.849  -5.281   1.797  1.00  0.00    -0.356 OA
HETATM   26  C1  UNL     1      -3.290  -6.432   2.341  1.00  0.00     0.210 C 
ENDBRANCH  20  25
BRANCH  22  27
HETATM   27  O9  UNL     1      -4.135  -1.041  -0.170  1.00  0.00    -0.355 OA
HETATM   28  C30 UNL     1      -5.518  -1.148  -0.160  1.00  0.00     0.210 C 
ENDBRANCH  22  27
ENDBRANCH   9  17
BRANCH  10  29
HETATM   29  C18 UNL     1       1.030   0.339   0.312  1.00  0.00    -0.017 C 
HETATM   30  C19 UNL     1       1.931  -0.407  -0.203  1.00  0.00     0.008 C 
BRANCH  30  31
HETATM   31  C20 UNL     1       3.362  -0.138  -0.091  1.00  0.00    -0.031 A 
HETATM   32  C21 UNL     1       4.278  -1.057  -0.625  1.00  0.00     0.051 A 
HETATM   33  C22 UNL     1       5.637  -0.894  -0.582  1.00  0.00     0.105 A 
HETATM   34  C24 UNL     1       6.148   0.249   0.025  1.00  0.00     0.135 A 
HETATM   35  C26 UNL     1       5.268   1.169   0.558  1.00  0.00     0.105 A 
HETATM   36  C28 UNL     1       3.911   0.970   0.495  1.00  0.00     0.051 A 
BRANCH  33  37
HETATM   37  O6  UNL     1       6.545  -1.796  -1.106  1.00  0.00    -0.353 OA
HETATM   38  C23 UNL     1       6.150  -2.994  -1.746  1.00  0.00     0.210 C 
ENDBRANCH  33  37
BRANCH  34  39
HETATM   39  O7  UNL     1       7.502   0.424   0.075  1.00  0.00    -0.351 OA
HETATM   40  C25 UNL     1       8.360   0.036   1.117  1.00  0.00     0.210 C 
ENDBRANCH  34  39
BRANCH  35  41
HETATM   41  O8  UNL     1       5.801   2.309   1.162  1.00  0.00    -0.353 OA
HETATM   42  C27 UNL     1       5.031   3.321   1.738  1.00  0.00     0.210 C 
ENDBRANCH  35  41
ENDBRANCH  30  31
ENDBRANCH  10  29
ENDBRANCH   6   7
ENDBRANCH   4   5
ENDBRANCH   1   4
TORSDOF 12
