REMARK  13 active torsions:
REMARK  status: ('A' for Active; 'I' for Inactive)
REMARK    1  A    between atoms: O1_2  and  C2_3 
REMARK    2  A    between atoms: C2_3  and  O3_5 
REMARK    3  A    between atoms: O3_5  and  C3_6 
REMARK    4  A    between atoms: C4_8  and  O5_9 
REMARK    5  A    between atoms: O5_9  and  C5_10 
REMARK    6  A    between atoms: C6_11  and  O6_12 
REMARK    7  A    between atoms: O6_12  and  C7_13 
REMARK    8  A    between atoms: C9_16  and  O8_17 
REMARK    9  A    between atoms: C10_19  and  C11_20 
REMARK   10  A    between atoms: C11_20  and  O9_22 
REMARK   11  A    between atoms: C14_27  and  O12_28 
REMARK   12  A    between atoms: C15_30  and  O13_31 
REMARK   13  A    between atoms: C16_33  and  O14_34 
ROOT
HETATM    1  O5  UNL     1      -0.334  -1.686  -0.594  1.00  0.00    -0.309 OA
ENDROOT
BRANCH   1   2
HETATM    2  C4  UNL     1       0.986  -1.693  -0.090  1.00  0.00     0.301 C 
HETATM    3  O4  UNL     1       1.775  -0.942  -0.977  1.00  0.00    -0.325 OA
HETATM    4  C3  UNL     1       3.011  -0.644  -0.367  1.00  0.00     0.306 C 
HETATM    5  C16 UNL     1       3.582  -1.887   0.283  1.00  0.00     0.205 C 
HETATM    6  C15 UNL     1       2.968  -3.084  -0.445  1.00  0.00     0.185 C 
HETATM    7  C14 UNL     1       1.494  -3.117  -0.154  1.00  0.00     0.205 C 
BRANCH   4   8
HETATM    8  O3  UNL     1       2.742   0.340   0.608  1.00  0.00    -0.264 OA
BRANCH   8   9
HETATM    9  C2  UNL     1       3.345   1.576   0.488  1.00  0.00     0.408 C 
HETATM   10  O2  UNL     1       4.132   1.874  -0.458  1.00  0.00    -0.229 OA
BRANCH   9  11
HETATM   11  O1  UNL     1       3.080   2.542   1.446  1.00  0.00    -0.303 OA
HETATM   12  C1  UNL     1       3.652   3.838   1.406  1.00  0.00     0.215 C 
ENDBRANCH   9  11
ENDBRANCH   8   9
ENDBRANCH   4   8
BRANCH   5  13
HETATM   13  O14 UNL     1       3.291  -1.951   1.631  1.00  0.00    -0.388 OA
ATOM     14  H14 UNL     1       3.649  -2.731   2.039  1.00  0.00     0.210 HD
ENDBRANCH   5  13
BRANCH   6  15
HETATM   15  O13 UNL     1       3.626  -4.228  -0.040  1.00  0.00    -0.390 OA
ATOM     16  H13 UNL     1       4.558  -4.207  -0.224  1.00  0.00     0.210 HD
ENDBRANCH   6  15
BRANCH   7  17
HETATM   17  O12 UNL     1       0.869  -3.772  -1.229  1.00  0.00    -0.388 OA
ATOM     18  H12 UNL     1       1.188  -4.666  -1.269  1.00  0.00     0.210 HD
ENDBRANCH   7  17
ENDBRANCH   1   2
BRANCH   1  19
HETATM   19  C5  UNL     1      -1.062  -0.518  -0.782  1.00  0.00     0.179 C 
HETATM   20  C6  UNL     1      -1.866  -0.161   0.192  1.00  0.00     0.127 C 
HETATM   21  C9  UNL     1      -2.674   1.064   0.087  1.00  0.00     0.210 C 
HETATM   22  C10 UNL     1      -2.933   1.372  -1.349  1.00  0.00     0.195 C 
HETATM   23  O10 UNL     1      -1.727   1.438  -2.095  1.00  0.00    -0.305 OA
HETATM   24  C13 UNL     1      -0.937   0.276  -2.012  1.00  0.00     0.320 C 
HETATM   25  O11 UNL     1      -0.165  -0.071  -2.934  1.00  0.00    -0.257 OA
BRANCH  20  26
HETATM   26  O6  UNL     1      -2.001  -0.911   1.374  1.00  0.00    -0.278 OA
BRANCH  26  27
HETATM   27  C7  UNL     1      -2.933  -1.915   1.504  1.00  0.00     0.259 C 
HETATM   28  C8  UNL     1      -3.140  -2.742   2.696  1.00  0.00     0.126 C 
HETATM   29  O7  UNL     1      -3.666  -2.123   0.487  1.00  0.00    -0.265 OA
ENDBRANCH  26  27
ENDBRANCH  20  26
BRANCH  21  30
HETATM   30  O8  UNL     1      -2.108   2.137   0.776  1.00  0.00    -0.386 OA
ATOM     31  H8  UNL     1      -2.630   2.928   0.708  1.00  0.00     0.210 HD
ENDBRANCH  21  30
BRANCH  22  32
HETATM   32  C11 UNL     1      -3.766   2.621  -1.537  1.00  0.00     0.146 C 
HETATM   33  C12 UNL     1      -3.044   3.877  -1.179  1.00  0.00     0.042 C 
BRANCH  32  34
HETATM   34  O9  UNL     1      -4.922   2.484  -0.782  1.00  0.00    -0.393 OA
ATOM     35  H9  UNL     1      -5.445   3.268  -0.900  1.00  0.00     0.210 HD
ENDBRANCH  32  34
ENDBRANCH  22  32
ENDBRANCH   1  19
TORSDOF 13
