REMARK  4 active torsions:
REMARK  status: ('A' for Active; 'I' for Inactive)
REMARK    1  A    between atoms: C6_6  and  O1_7 
REMARK    2  A    between atoms: C12_14  and  O2_15 
REMARK    3  A    between atoms: C13_17  and  C14_18 
REMARK    4  A    between atoms: C14_18  and  O3_19 
ROOT
HETATM    1  C1  UNL     1      -3.623   0.174  -1.154  1.00  0.00     0.015 C 
HETATM    2  C2  UNL     1      -2.616   0.499  -0.363  1.00  0.00    -0.084 C 
HETATM    3  C3  UNL     1      -3.037   0.742   1.042  1.00  0.00     0.034 C 
HETATM    4  C4  UNL     1      -1.970   0.372   2.052  1.00  0.00     0.007 C 
HETATM    5  C5  UNL     1      -1.168  -0.761   1.558  1.00  0.00     0.039 C 
HETATM    6  C6  UNL     1      -0.093  -0.562   0.617  1.00  0.00     0.072 C 
HETATM    7  C7  UNL     1       0.576   0.776   0.501  1.00  0.00     0.030 C 
HETATM    8  C8  UNL     1      -0.483   1.588  -0.258  1.00  0.00     0.018 C 
HETATM    9  C9  UNL     1      -1.308   0.556  -1.022  1.00  0.00     0.028 C 
HETATM   10  C10 UNL     1      -0.487  -0.668  -0.863  1.00  0.00     0.021 C 
HETATM   11  C11 UNL     1      -1.053  -1.946  -1.256  1.00  0.00     0.022 C 
HETATM   12  C12 UNL     1       0.902  -0.430  -1.476  1.00  0.00     0.136 C 
HETATM   13  C13 UNL     1       1.615   0.515  -0.564  1.00  0.00     0.046 C 
ENDROOT
BRANCH  13  14
HETATM   14  C14 UNL     1       2.944   0.134  -0.100  1.00  0.00     0.174 C 
BRANCH  14  15
HETATM   15  O3  UNL     1       3.460   1.156   0.701  1.00  0.00    -0.395 OA
HETATM   16  C15 UNL     1       4.734   0.706   1.101  1.00  0.00     0.201 C 
ENDBRANCH  14  15
ENDBRANCH  13  14
BRANCH  12  17
HETATM   17  O2  UNL     1       0.663   0.097  -2.745  1.00  0.00    -0.394 OA
ATOM     18  H2  UNL     1       1.522   0.244  -3.124  1.00  0.00     0.210 HD
ENDBRANCH  12  17
BRANCH   6  19
HETATM   19  O1  UNL     1       0.837  -1.620   0.772  1.00  0.00    -0.389 OA
ATOM     20  H1  UNL     1       1.545  -1.489   0.152  1.00  0.00     0.210 HD
ENDBRANCH   6  19
TORSDOF 4
