REMARK  6 active torsions:
REMARK  status: ('A' for Active; 'I' for Inactive)
REMARK    1  A    between atoms: N1_6  and  C6_7 
REMARK    2  A    between atoms: C6_7  and  C7_8 
REMARK    3  A    between atoms: C7_8  and  O1_9 
REMARK    4  A    between atoms: N2_15  and  C12_16 
REMARK    5  A    between atoms: C12_16  and  C13_17 
REMARK    6  A    between atoms: C21_25  and  O2_26 
ROOT
HETATM    1  C1  UNL     1      -1.971   3.986   1.226  1.00  0.00     0.014 C 
HETATM    2  C2  UNL     1      -1.924   2.675   1.033  1.00  0.00    -0.086 C 
HETATM    3  C3  UNL     1      -0.692   1.945   1.368  1.00  0.00     0.041 C 
HETATM    4  C4  UNL     1      -0.646   0.534   0.986  1.00  0.00     0.039 C 
HETATM    5  C5  UNL     1      -2.000  -0.138   0.823  1.00  0.00     0.263 C 
HETATM    6  N1  UNL     1      -1.554  -1.396   0.264  1.00  0.00     0.109 N 
HETATM    7  C8  UNL     1      -0.789  -0.920  -0.858  1.00  0.00     0.170 C 
HETATM    8  C9  UNL     1       0.205  -1.884  -1.410  1.00  0.00     0.045 C 
HETATM    9  C10 UNL     1       1.583  -1.203  -1.343  1.00  0.00     0.039 C 
HETATM   10  C11 UNL     1       1.428  -0.455  -0.024  1.00  0.00     0.234 C 
HETATM   11  N2  UNL     1       2.324   0.651   0.046  1.00  0.00     0.094 N 
HETATM   12  C16 UNL     1       1.869   1.624  -0.896  1.00  0.00     0.274 C 
HETATM   13  C17 UNL     1       0.403   1.294  -1.173  1.00  0.00     0.045 C 
HETATM   14  C18 UNL     1       0.042   0.172  -0.265  1.00  0.00     0.034 C 
HETATM   15  C19 UNL     1      -1.742  -0.447  -1.920  1.00  0.00     0.045 C 
HETATM   16  C20 UNL     1      -2.690   0.604  -1.468  1.00  0.00     0.043 C 
HETATM   17  C21 UNL     1      -2.962   0.628   0.005  1.00  0.00     0.093 C 
HETATM   18  C22 UNL     1      -3.132   2.045   0.462  1.00  0.00     0.073 C 
ENDROOT
BRANCH   6  19
HETATM   19  C6  UNL     1      -2.647  -2.241  -0.019  1.00  0.00     0.300 C 
BRANCH  19  20
HETATM   20  C7  UNL     1      -2.303  -3.664  -0.411  1.00  0.00     0.194 C 
BRANCH  20  21
HETATM   21  O1  UNL     1      -1.616  -4.316   0.627  1.00  0.00    -0.399 OA
ATOM     22  H1  UNL     1      -1.400  -5.208   0.381  1.00  0.00     0.209 HD
ENDBRANCH  20  21
ENDBRANCH  19  20
ENDBRANCH   6  19
BRANCH  17  23
HETATM   23  O2  UNL     1      -4.242   0.059   0.201  1.00  0.00    -0.387 OA
ATOM     24  H2  UNL     1      -4.861   0.552  -0.325  1.00  0.00     0.210 HD
ENDBRANCH  17  23
BRANCH  11  25
HETATM   25  C12 UNL     1       3.710   0.356  -0.166  1.00  0.00     0.277 C 
BRANCH  25  26
HETATM   26  C13 UNL     1       4.383  -0.433   0.906  1.00  0.00     0.014 A 
HETATM   27  C14 UNL     1       5.835  -0.713   0.672  1.00  0.00     0.007 A 
HETATM   28  C15 UNL     1       5.397   0.267   1.744  1.00  0.00     0.007 A 
ENDBRANCH  25  26
ENDBRANCH  11  25
TORSDOF 6
