REMARK  3 active torsions:
REMARK  status: ('A' for Active; 'I' for Inactive)
REMARK    1  A    between atoms: C4_6  and  C5_7 
REMARK    2  A    between atoms: C5_7  and  N1_8 
REMARK    3  A    between atoms: N1_8  and  C6_10 
ROOT
HETATM    1  C6  UNL     1       1.087  -0.903  -0.183  1.00  0.00     0.109 C 
HETATM    2  C7  UNL     1       1.352  -2.315  -0.542  1.00  0.00     0.201 C 
HETATM    3  O1  UNL     1       0.370  -3.133   0.155  1.00  0.00    -0.349 OA
HETATM    4  C8  UNL     1      -0.977  -2.875  -0.205  1.00  0.00     0.076 A 
HETATM    5  C9  UNL     1      -1.733  -3.892  -0.616  1.00  0.00     0.039 A 
HETATM    6  C10 UNL     1      -3.100  -3.621  -0.988  1.00  0.00     0.022 A 
HETATM    7  C11 UNL     1      -3.452  -2.260  -0.817  1.00  0.00     0.017 A 
HETATM    8  S1  UNL     1      -4.994  -1.553  -1.198  1.00  0.00    -0.093 SA
HETATM    9  C12 UNL     1      -4.638   0.025  -0.824  1.00  0.00    -0.010 A 
HETATM   10  C13 UNL     1      -3.340   0.008  -0.393  1.00  0.00    -0.033 A 
HETATM   11  C14 UNL     1      -2.703  -1.227  -0.390  1.00  0.00    -0.003 A 
HETATM   12  C15 UNL     1      -1.367  -1.533  -0.066  1.00  0.00    -0.011 A 
HETATM   13  C16 UNL     1      -0.308  -0.579   0.304  1.00  0.00     0.069 C 
HETATM   14  C17 UNL     1      -2.887   1.383   0.088  1.00  0.00     0.040 C 
HETATM   15  C18 UNL     1      -4.047   1.826   1.042  1.00  0.00     0.005 C 
HETATM   16  C19 UNL     1      -5.176   2.317   0.128  1.00  0.00     0.005 C 
HETATM   17  C20 UNL     1      -5.431   1.323  -0.943  1.00  0.00     0.046 C 
ENDROOT
BRANCH   1  18
HETATM   18  N1  UNL     1       2.127  -0.257   0.493  1.00  0.00    -0.391 N 
ATOM     19  H1  UNL     1       2.096  -0.022   1.485  1.00  0.00     0.159 HD
BRANCH  18  20
HETATM   20  C5  UNL     1       3.245   0.041  -0.362  1.00  0.00     0.096 C 
BRANCH  20  21
HETATM   21  C4  UNL     1       4.358   0.723   0.267  1.00  0.00     0.002 A 
HETATM   22  C3  UNL     1       4.809   1.938  -0.259  1.00  0.00     0.047 A 
HETATM   23  C2  UNL     1       5.935   2.574   0.115  1.00  0.00     0.050 A 
HETATM   24 CL2  UNL     1       3.734   2.683  -1.441  1.00  0.00    -0.083 Cl
HETATM   25  C1  UNL     1       6.726   2.010   1.088  1.00  0.00     0.057 A 
HETATM   26 CL1  UNL     1       8.183   2.835   1.572  1.00  0.00    -0.082 Cl
HETATM   27  C22 UNL     1       6.348   0.810   1.659  1.00  0.00     0.056 A 
HETATM   28  C21 UNL     1       5.161   0.189   1.230  1.00  0.00     0.040 A 
HETATM   29 CL3  UNL     1       7.414   0.059   2.861  1.00  0.00    -0.083 Cl
ENDBRANCH  20  21
ENDBRANCH  18  20
ENDBRANCH   1  18
TORSDOF 3
