REMARK  14 active torsions:
REMARK  status: ('A' for Active; 'I' for Inactive)
REMARK    1  A    between atoms: O1_2  and  C2_3 
REMARK    2  A    between atoms: C2_3  and  O2_4 
REMARK    3  A    between atoms: C2_3  and  C3_6 
REMARK    4  A    between atoms: C4_7  and  O3_8 
REMARK    5  A    between atoms: C5_10  and  C6_11 
REMARK       I    between atoms: C6_11  and  N1_13 
REMARK    6  A    between atoms: N1_13  and  C7_15 
REMARK    7  A    between atoms: C8_16  and  O5_17 
REMARK    8  A    between atoms: C10_21  and  O6_22 
REMARK    9  A    between atoms: N3_24  and  N4_25 
REMARK       I    between atoms: N4_25  and  C12_27 
REMARK   10  A    between atoms: C12_27  and  C13_29 
REMARK   11  A    between atoms: C13_29  and  N5_30 
REMARK   12  A    between atoms: C15_36  and  O9_37 
REMARK   13  A    between atoms: C18_42  and  O10_43 
REMARK   14  A    between atoms: C21_47  and  O11_48 
ROOT
HETATM    1  C3  UNL     1      -3.603  -0.995  -0.165  1.00  0.00     0.070 A 
HETATM    2  C4  UNL     1      -2.183  -1.038  -0.030  1.00  0.00     0.100 A 
HETATM    3  C5  UNL     1      -1.450   0.056   0.438  1.00  0.00     0.100 A 
HETATM    4  C15 UNL     1      -2.124   1.213   0.779  1.00  0.00     0.097 A 
HETATM    5  C16 UNL     1      -3.518   1.258   0.647  1.00  0.00     0.033 A 
HETATM    6  C17 UNL     1      -4.141   2.455   1.007  1.00  0.00     0.060 A 
HETATM    7 BR1  UNL     1      -3.118   3.920   1.639  1.00  0.00    -0.047 Br
HETATM    8  C18 UNL     1      -5.524   2.609   0.915  1.00  0.00     0.111 A 
HETATM    9  C20 UNL     1      -6.212   1.532   0.458  1.00  0.00     0.102 A 
HETATM   10 CL1  UNL     1      -7.963   1.645   0.312  1.00  0.00    -0.078 Cl
HETATM   11  C21 UNL     1      -5.610   0.326   0.092  1.00  0.00     0.102 A 
HETATM   12  C22 UNL     1      -4.239   0.177   0.185  1.00  0.00     0.031 A 
ENDROOT
BRANCH   3  13
HETATM   13  C6  UNL     1      -0.015   0.028   0.581  1.00  0.00     0.262 C 
HETATM   14  O4  UNL     1       0.542   1.112   1.027  1.00  0.00    -0.267 OA
HETATM   15  N1  UNL     1       0.848  -1.038   0.293  1.00  0.00    -0.315 N 
ATOM     16  H1  UNL     1       0.479  -1.921  -0.061  1.00  0.00     0.169 HD
BRANCH  15  17
HETATM   17  C7  UNL     1       2.278  -0.869   0.506  1.00  0.00     0.157 A 
HETATM   18  C8  UNL     1       2.818  -1.187   1.715  1.00  0.00     0.178 A 
HETATM   19  N2  UNL     1       4.141  -1.011   1.852  1.00  0.00    -0.299 N 
HETATM   20  C10 UNL     1       4.926  -0.548   0.872  1.00  0.00     0.250 A 
ATOM     21  H2  UNL     1       4.570  -1.242   2.748  1.00  0.00     0.171 HD
HETATM   22  N3  UNL     1       4.421  -0.215  -0.364  1.00  0.00    -0.177 N 
HETATM   23  C14 UNL     1       3.106  -0.390  -0.499  1.00  0.00     0.301 A 
HETATM   24  O8  UNL     1       2.535  -0.125  -1.565  1.00  0.00    -0.263 OA
BRANCH  18  25
HETATM   25  O5  UNL     1       2.015  -1.669   2.739  1.00  0.00    -0.339 OA
HETATM   26  C9  UNL     1       2.654  -1.980   3.978  1.00  0.00     0.211 C 
ENDBRANCH  18  25
BRANCH  20  27
HETATM   27  O6  UNL     1       6.297  -0.405   1.133  1.00  0.00    -0.325 OA
HETATM   28  C11 UNL     1       6.819  -0.746   2.400  1.00  0.00     0.213 C 
ENDBRANCH  20  27
BRANCH  22  29
HETATM   29  N4  UNL     1       5.312   0.253  -1.304  1.00  0.00    -0.256 N 
HETATM   30  C12 UNL     1       5.196   0.678  -2.618  1.00  0.00     0.262 C 
HETATM   31  O7  UNL     1       4.138   0.723  -3.276  1.00  0.00    -0.270 OA
ATOM     32  H4  UNL     1       6.270   0.296  -0.956  1.00  0.00     0.191 HD
BRANCH  30  33
HETATM   33  C13 UNL     1       6.457   1.138  -3.351  1.00  0.00     0.333 C 
BRANCH  33  34
HETATM   34  N5  UNL     1       7.621   1.058  -2.536  1.00  0.00    -0.071 N 
ATOM     35  H53 UNL     1       7.495   1.573  -1.664  1.00  0.00     0.274 HD
ATOM     36  H52 UNL     1       7.739   0.119  -2.156  1.00  0.00     0.274 HD
ATOM     37  H51 UNL     1       8.462   1.365  -3.025  1.00  0.00     0.274 HD
ENDBRANCH  33  34
ENDBRANCH  30  33
ENDBRANCH  22  29
ENDBRANCH  15  17
ENDBRANCH   3  13
BRANCH   2  38
HETATM   38  O3  UNL     1      -1.550  -2.150  -0.358  1.00  0.00    -0.358 OA
ATOM     39  H3  UNL     1      -0.605  -2.179  -0.268  1.00  0.00     0.217 HD
ENDBRANCH   2  38
BRANCH   4  40
HETATM   40  O9  UNL     1      -1.530   2.348   1.247  1.00  0.00    -0.359 OA
ATOM     41  H9  UNL     1      -1.993   3.143   1.481  1.00  0.00     0.217 HD
ENDBRANCH   4  40
BRANCH   1  42
HETATM   42  C2  UNL     1      -4.253  -2.178  -0.656  1.00  0.00     0.192 C 
BRANCH  42  43
HETATM   43  O1  UNL     1      -5.506  -2.575  -0.931  1.00  0.00    -0.335 OA
HETATM   44  C1  UNL     1      -5.821  -3.892  -1.434  1.00  0.00     0.212 C 
ENDBRANCH  42  43
BRANCH  42  45
HETATM   45  O2  UNL     1      -3.431  -3.171  -0.922  1.00  0.00    -0.340 OA
ATOM     46  H2  UNL     1      -2.545  -2.890  -0.727  1.00  0.00     0.220 HD
ENDBRANCH  42  45
ENDBRANCH   1  42
BRANCH  11  47
HETATM   47  O11 UNL     1      -6.401  -0.689  -0.354  1.00  0.00    -0.358 OA
ATOM     48  H11 UNL     1      -5.992  -1.509  -0.603  1.00  0.00     0.217 HD
ENDBRANCH  11  47
BRANCH   8  49
HETATM   49  O10 UNL     1      -6.105   3.813   1.282  1.00  0.00    -0.353 OA
HETATM   50  C19 UNL     1      -6.247   4.796   0.264  1.00  0.00     0.210 C 
ENDBRANCH   8  49
TORSDOF 14
