REMARK  12 active torsions:
REMARK  status: ('A' for Active; 'I' for Inactive)
REMARK    1  A    between atoms: O1_2  and  C2_3 
REMARK    2  A    between atoms: C2_3  and  C3_5 
REMARK    3  A    between atoms: C3_5  and  C12_33 
REMARK    4  A    between atoms: N1_6  and  N2_8 
REMARK    5  A    between atoms: N2_8  and  C4_10 
REMARK    6  A    between atoms: C4_10  and  O3_11 
REMARK    7  A    between atoms: C4_10  and  C5_13 
REMARK    8  A    between atoms: C5_13  and  C6_14 
REMARK    9  A    between atoms: C8_18  and  N4_19 
REMARK       I    between atoms: N4_19  and  C9_21 
REMARK   10  A    between atoms: C9_21  and  C10_23 
REMARK   11  A    between atoms: C10_23  and  N5_25 
REMARK   12  A    between atoms: C16_39  and  N9_40 
ROOT
HETATM    1  N2  UNL     1      -0.769  -0.430  -1.857  1.00  0.00    -0.307 N 
ATOM      2  H2  UNL     1      -0.791  -0.507  -2.874  1.00  0.00     0.183 HD
ENDROOT
BRANCH   1   3
HETATM    3  N1  UNL     1      -1.964  -0.547  -1.191  1.00  0.00    -0.295 N 
HETATM    4  C3  UNL     1      -2.886   0.342  -1.080  1.00  0.00     0.150 C 
ATOM      5  H1  UNL     1      -2.140  -1.441  -0.732  1.00  0.00     0.187 HD
BRANCH   4   6
HETATM    6  C2  UNL     1      -2.690   1.631  -1.712  1.00  0.00     0.313 C 
HETATM    7  O2  UNL     1      -1.621   1.826  -2.345  1.00  0.00    -0.257 OA
BRANCH   6   8
HETATM    8  O1  UNL     1      -3.577   2.688  -1.688  1.00  0.00    -0.321 OA
HETATM    9  C1  UNL     1      -3.325   3.932  -2.332  1.00  0.00     0.213 C 
ENDBRANCH   6   8
ENDBRANCH   4   6
BRANCH   4  10
HETATM   10  C12 UNL     1      -4.074  -0.020  -0.315  1.00  0.00     0.069 A 
HETATM   11  C13 UNL     1      -5.198   0.729  -0.047  1.00  0.00     0.063 A 
HETATM   12  C14 UNL     1      -6.090  -0.007   0.722  1.00  0.00     0.062 A 
HETATM   13  C15 UNL     1      -5.473  -1.225   0.913  1.00  0.00     0.103 A 
HETATM   14  N11 UNL     1      -7.369   0.297   1.255  1.00  0.00    -0.372 N 
HETATM   15  N8  UNL     1      -4.275  -1.214   0.289  1.00  0.00    -0.349 N 
HETATM   16  C16 UNL     1      -6.198  -2.226   1.709  1.00  0.00     0.125 C 
ATOM     17  H8  UNL     1      -3.617  -1.993   0.275  1.00  0.00     0.166 HD
HETATM   18  N10 UNL     1      -7.466  -1.909   2.233  1.00  0.00    -0.359 N 
HETATM   19  C17 UNL     1      -8.210  -0.726   1.857  1.00  0.00     0.245 C 
ATOM     20  H10 UNL     1      -7.882  -2.546   2.913  1.00  0.00     0.162 HD
ATOM     21  H11 UNL     1      -7.708   1.258   1.215  1.00  0.00     0.161 HD
BRANCH  16  22
HETATM   22  N9  UNL     1      -5.603  -3.358   1.875  1.00  0.00    -0.384 N 
ATOM     23  H92 UNL     1      -4.685  -3.588   1.495  1.00  0.00     0.157 HD
ATOM     24  H91 UNL     1      -6.106  -4.053   2.427  1.00  0.00     0.157 HD
ENDBRANCH  16  22
ENDBRANCH   4  10
ENDBRANCH   1   3
BRANCH   1  25
HETATM   25  C4  UNL     1       0.516  -0.207  -1.237  1.00  0.00     0.240 C 
BRANCH  25  26
HETATM   26  O3  UNL     1       0.854  -1.226  -0.350  1.00  0.00    -0.375 OA
ATOM     27  H3  UNL     1       1.699  -1.079   0.058  1.00  0.00     0.212 HD
ENDBRANCH  25  26
BRANCH  25  28
HETATM   28  C5  UNL     1       1.602  -0.140  -2.274  1.00  0.00     0.132 C 
BRANCH  28  29
HETATM   29  C6  UNL     1       2.919   0.089  -1.630  1.00  0.00     0.100 A 
HETATM   30  N3  UNL     1       3.627  -1.003  -1.271  1.00  0.00    -0.351 N 
HETATM   31  C7  UNL     1       4.831  -0.818  -0.685  1.00  0.00     0.139 A 
ATOM     32  H3  UNL     1       3.264  -1.941  -1.437  1.00  0.00     0.166 HD
HETATM   33  C8  UNL     1       5.265   0.468  -0.489  1.00  0.00     0.138 A 
HETATM   34  N6  UNL     1       4.535   1.541  -0.859  1.00  0.00    -0.283 N 
HETATM   35  N7  UNL     1       3.361   1.325  -1.429  1.00  0.00    -0.287 N 
ATOM     36  H6  UNL     1       4.878   2.489  -0.704  1.00  0.00     0.188 HD
ATOM     37  H7  UNL     1       2.788   2.118  -1.718  1.00  0.00     0.188 HD
BRANCH  33  38
HETATM   38  N4  UNL     1       6.402   0.702   0.059  1.00  0.00    -0.309 N 
HETATM   39  C9  UNL     1       7.205  -0.392   0.460  1.00  0.00     0.253 C 
HETATM   40  O4  UNL     1       7.755  -1.093  -0.418  1.00  0.00    -0.271 OA
ATOM     41  H4  UNL     1       6.721   1.660   0.203  1.00  0.00     0.170 HD
BRANCH  39  42
HETATM   42  C10 UNL     1       7.405  -0.721   1.878  1.00  0.00     0.271 C 
HETATM   43  C11 UNL     1       7.947   0.448   2.671  1.00  0.00     0.050 C 
BRANCH  42  44
HETATM   44  N5  UNL     1       8.248  -1.884   1.996  1.00  0.00    -0.067 N 
ATOM     45  H53 UNL     1       7.884  -2.676   1.466  1.00  0.00     0.275 HD
ATOM     46  H52 UNL     1       9.132  -1.768   1.501  1.00  0.00     0.275 HD
ATOM     47  H51 UNL     1       8.387  -2.112   2.980  1.00  0.00     0.275 HD
ENDBRANCH  42  44
ENDBRANCH  39  42
ENDBRANCH  33  38
ENDBRANCH  28  29
ENDBRANCH  25  28
ENDBRANCH   1  25
TORSDOF 12
