REMARK  4 active torsions:
REMARK  status: ('A' for Active; 'I' for Inactive)
REMARK    1  A    between atoms: N1_2  and  C1_4 
REMARK    2  A    between atoms: C3_6  and  N2_7 
REMARK    3  A    between atoms: N2_7  and  C4_9 
REMARK    4  A    between atoms: C10_18  and  N4_19 
ROOT
HETATM    1  C1  UNL     1       3.357  -0.977   0.349  1.00  0.00     0.107 A 
HETATM    2  C2  UNL     1       2.077  -1.214   0.799  1.00  0.00     0.065 A 
HETATM    3  C3  UNL     1       1.041  -0.311   0.529  1.00  0.00     0.033 A 
HETATM    4  C9  UNL     1       1.312   0.822  -0.193  1.00  0.00     0.065 A 
HETATM    5  C10 UNL     1       2.607   1.088  -0.664  1.00  0.00     0.107 A 
HETATM    6  C11 UNL     1       3.599   0.171  -0.375  1.00  0.00     0.072 A 
ENDROOT
BRANCH   3   7
HETATM    7  N2  UNL     1      -0.267  -0.546   0.998  1.00  0.00    -0.385 N 
ATOM      8  H2  UNL     1      -0.436  -1.324   1.635  1.00  0.00     0.160 HD
BRANCH   7   9
HETATM    9  C4  UNL     1      -1.354   0.276   0.603  1.00  0.00     0.085 C 
HETATM   10  C5  UNL     1      -1.579   0.112  -0.885  1.00  0.00     0.052 C 
HETATM   11  C6  UNL     1      -2.817  -0.717  -1.076  1.00  0.00     0.234 C 
HETATM   12  N3  UNL     1      -4.016  -0.103  -0.580  1.00  0.00    -0.075 N 
HETATM   13  C7  UNL     1      -3.768   0.579   0.654  1.00  0.00     0.234 C 
ATOM     14  H32 UNL     1      -4.438   0.515  -1.274  1.00  0.00     0.277 HD
ATOM     15  H31 UNL     1      -4.776  -0.778  -0.491  1.00  0.00     0.277 HD
HETATM   16  C8  UNL     1      -2.626  -0.115   1.366  1.00  0.00     0.052 C 
ENDBRANCH   7   9
ENDBRANCH   3   7
BRANCH   1  17
HETATM   17  N1  UNL     1       4.404  -1.903   0.630  1.00  0.00    -0.116 N 
HETATM   18  O1  UNL     1       5.573  -1.730   0.244  1.00  0.00    -0.532 OA
HETATM   19  O2  UNL     1       4.131  -3.034   1.351  1.00  0.00    -0.532 OA
ENDBRANCH   1  17
BRANCH   5  20
HETATM   20  N4  UNL     1       2.855   2.270  -1.409  1.00  0.00    -0.116 N 
HETATM   21  O3  UNL     1       3.980   2.512  -1.824  1.00  0.00    -0.532 OA
HETATM   22  O4  UNL     1       1.836   3.145  -1.666  1.00  0.00    -0.532 OA
ENDBRANCH   5  20
TORSDOF 4
