REMARK  11 active torsions:
REMARK  status: ('A' for Active; 'I' for Inactive)
REMARK    1  A    between atoms: C2_2  and  C26_31 
REMARK    2  A    between atoms: C3_3  and  C4_4 
REMARK    3  A    between atoms: C4_4  and  C5_5 
REMARK    4  A    between atoms: C5_5  and  C7_7 
REMARK    5  A    between atoms: C11_12  and  O2_13 
REMARK    6  A    between atoms: C26_31  and  C27_32 
REMARK    7  A    between atoms: C27_32  and  C28_34 
REMARK    8  A    between atoms: C30_36  and  C31_37 
REMARK    9  A    between atoms: C32_38  and  C33_39 
REMARK   10  A    between atoms: C33_39  and  C34_40 
REMARK   11  A    between atoms: C34_40  and  C35_41 
ROOT
HETATM    1  C7  UNL     1      -1.507   0.358  -0.416  1.00  0.00     0.039 C 
HETATM    2  C8  UNL     1      -1.805  -0.122  -1.755  1.00  0.00     0.180 C 
HETATM    3  O1  UNL     1      -2.718  -1.063  -1.967  1.00  0.00    -0.360 OA
HETATM    4  C9  UNL     1      -2.649  -2.313  -1.618  1.00  0.00     0.263 C 
HETATM    5  C10 UNL     1      -1.840  -2.754  -0.446  1.00  0.00     0.096 C 
HETATM    6  C11 UNL     1      -2.374  -2.266   0.881  1.00  0.00     0.166 C 
HETATM    7  C12 UNL     1      -3.738  -1.637   0.798  1.00  0.00     0.168 C 
HETATM    8  F1  UNL     1      -4.335  -2.090   2.009  1.00  0.00    -0.236 F 
HETATM    9  C13 UNL     1      -4.500  -2.432  -0.195  1.00  0.00     0.099 C 
HETATM   10  C14 UNL     1      -4.827  -3.835   0.369  1.00  0.00     0.050 C 
HETATM   11  C15 UNL     1      -5.824  -1.807  -0.392  1.00  0.00     0.042 C 
HETATM   12  C16 UNL     1      -5.742  -0.381  -0.837  1.00  0.00     0.009 C 
HETATM   13  C17 UNL     1      -4.825   0.510  -0.074  1.00  0.00     0.005 C 
HETATM   14  C18 UNL     1      -5.587   1.678   0.516  1.00  0.00    -0.043 C 
HETATM   15  C19 UNL     1      -4.828   3.013   0.435  1.00  0.00     0.015 C 
HETATM   16  C20 UNL     1      -6.788   1.979  -0.408  1.00  0.00     0.015 C 
HETATM   17  C21 UNL     1      -6.196   1.467   1.847  1.00  0.00     0.009 C 
HETATM   18  C22 UNL     1      -5.555   0.310   2.559  1.00  0.00     0.002 C 
HETATM   19  C23 UNL     1      -4.137   0.283   2.218  1.00  0.00     0.013 C 
HETATM   20  C24 UNL     1      -3.792  -0.152   0.770  1.00  0.00     0.006 C 
HETATM   21  C25 UNL     1      -2.405   0.509   0.657  1.00  0.00     0.024 C 
HETATM   22  O3  UNL     1      -3.958  -2.729  -1.389  1.00  0.00    -0.347 OA
ENDROOT
BRANCH   1  23
HETATM   23  C5  UNL     1      -0.665   1.650  -0.602  1.00  0.00    -0.078 C 
HETATM   24  C6  UNL     1      -0.746   2.626   0.492  1.00  0.00     0.044 C 
BRANCH  23  25
HETATM   25  C4  UNL     1       0.558   1.391  -1.316  1.00  0.00     0.003 C 
BRANCH  25  26
HETATM   26  C3  UNL     1       1.801   1.388  -1.133  1.00  0.00     0.007 C 
HETATM   27  C2  UNL     1       2.753   1.634  -0.080  1.00  0.00    -0.063 C 
HETATM   28  C1  UNL     1       2.401   1.916   1.338  1.00  0.00     0.048 C 
BRANCH  27  29
HETATM   29  C26 UNL     1       4.053   1.537  -0.423  1.00  0.00     0.021 C 
BRANCH  29  30
HETATM   30  C27 UNL     1       5.216   1.680   0.445  1.00  0.00     0.222 C 
HETATM   31  F2  UNL     1       5.927   2.829   0.169  1.00  0.00    -0.240 F 
BRANCH  30  32
HETATM   32  C28 UNL     1       6.073   0.497   0.315  1.00  0.00    -0.047 C 
HETATM   33  C29 UNL     1       5.338  -0.812   0.672  1.00  0.00     0.046 C 
HETATM   34  C30 UNL     1       7.314   0.358  -0.031  1.00  0.00     0.005 C 
BRANCH  34  35
HETATM   35  C31 UNL     1       8.308   1.300  -0.412  1.00  0.00    -0.004 C 
HETATM   36  C32 UNL     1       9.558   1.136  -0.756  1.00  0.00    -0.026 C 
BRANCH  36  37
HETATM   37  C33 UNL     1      10.471   0.038  -0.909  1.00  0.00     0.037 C 
BRANCH  37  38
HETATM   38  C34 UNL     1      10.041  -1.352  -0.650  1.00  0.00     0.117 C 
BRANCH  38  39
HETATM   39  C35 UNL     1      11.215  -2.284  -0.895  1.00  0.00     0.172 C 
HETATM   40  O4  UNL     1      12.331  -1.835  -1.252  1.00  0.00    -0.648 OA
HETATM   41  O5  UNL     1      11.069  -3.645  -0.725  1.00  0.00    -0.648 OA
ENDBRANCH  38  39
ENDBRANCH  37  38
ENDBRANCH  36  37
ENDBRANCH  34  35
ENDBRANCH  30  32
ENDBRANCH  29  30
ENDBRANCH  27  29
ENDBRANCH  25  26
ENDBRANCH  23  25
ENDBRANCH   1  23
BRANCH   6  42
HETATM   42  O2  UNL     1      -2.428  -3.458   1.681  1.00  0.00    -0.392 OA
ATOM     43  H2  UNL     1      -2.764  -3.151   2.515  1.00  0.00     0.210 HD
ENDBRANCH   6  42
TORSDOF 11
