REMARK  6 active torsions:
REMARK  status: ('A' for Active; 'I' for Inactive)
REMARK    1  A    between atoms: C2_2  and  C3_3 
REMARK    2  A    between atoms: C6_10  and  C7_11 
REMARK    3  A    between atoms: C7_11  and  N3_12 
REMARK    4  A    between atoms: N4_17  and  C11_18 
REMARK    5  A    between atoms: C11_18  and  C12_19 
REMARK    6  A    between atoms: C12_19  and  C13_20 
ROOT
HETATM    1  N3  UNL     1      -0.598   0.787   0.623  1.00  0.00    -0.331 N 
HETATM    2  C8  UNL     1      -0.670  -0.039   1.802  1.00  0.00     0.137 C 
HETATM    3  C9  UNL     1       0.451   0.412   2.750  1.00  0.00     0.123 C 
HETATM    4  C10 UNL     1       1.738   0.197   2.080  1.00  0.00     0.229 C 
HETATM    5  O1  UNL     1       2.692  -0.324   2.701  1.00  0.00    -0.273 OA
HETATM    6  N4  UNL     1       1.878   0.588   0.723  1.00  0.00    -0.270 N 
HETATM    7  C16 UNL     1       0.695   0.884  -0.005  1.00  0.00     0.327 C 
HETATM    8  O2  UNL     1       0.711   1.241  -1.215  1.00  0.00    -0.247 OA
ENDROOT
BRANCH   1   9
HETATM    9  C7  UNL     1      -1.715   1.520   0.115  1.00  0.00     0.157 C 
BRANCH   9  10
HETATM   10  C6  UNL     1      -2.530   0.934  -0.958  1.00  0.00     0.131 C 
HETATM   11  C3  UNL     1      -3.244  -0.343  -0.773  1.00  0.00    -0.041 C 
HETATM   12  C4  UNL     1      -4.120  -0.342   0.439  1.00  0.00     0.093 C 
HETATM   13  N1  UNL     1      -4.724   0.895   0.702  1.00  0.00    -0.362 N 
HETATM   14  C5  UNL     1      -4.420   2.042  -0.042  1.00  0.00     0.176 C 
ATOM     15  H1  UNL     1      -5.405   0.962   1.458  1.00  0.00     0.165 HD
HETATM   16  N2  UNL     1      -3.617   1.919  -1.212  1.00  0.00    -0.376 N 
ATOM     17  H2  UNL     1      -3.763   2.425  -2.085  1.00  0.00     0.161 HD
BRANCH  11  18
HETATM   18  C2  UNL     1      -2.497  -1.601  -1.027  1.00  0.00     0.033 C 
HETATM   19  C1  UNL     1      -3.562  -2.702  -1.211  1.00  0.00     0.010 C 
ENDBRANCH  11  18
ENDBRANCH   9  10
ENDBRANCH   1   9
BRANCH   6  20
HETATM   20  C11 UNL     1       3.133   0.696   0.064  1.00  0.00     0.137 C 
BRANCH  20  21
HETATM   21  C12 UNL     1       3.589  -0.569  -0.610  1.00  0.00     0.024 C 
BRANCH  21  22
HETATM   22  C13 UNL     1       4.929  -0.335  -1.273  1.00  0.00    -0.021 C 
HETATM   23  C14 UNL     1       5.990   0.077  -0.272  1.00  0.00     0.009 C 
HETATM   24  C15 UNL     1       5.421  -1.582  -1.968  1.00  0.00     0.009 C 
ENDBRANCH  21  22
ENDBRANCH  20  21
ENDBRANCH   6  20
TORSDOF 6
