REMARK  7 active torsions:
REMARK  status: ('A' for Active; 'I' for Inactive)
REMARK    1  A    between atoms: C4_4  and  C5_5 
REMARK    2  A    between atoms: C5_5  and  C6_6 
REMARK    3  A    between atoms: C6_6  and  O1_7 
REMARK    4  A    between atoms: O1_7  and  C7_8 
REMARK    5  A    between atoms: C19_22  and  O2_23 
REMARK    6  A    between atoms: C20_25  and  N2_27 
REMARK    7  A    between atoms: C27_38  and  O3_40 
ROOT
HETATM    1  N2  UNL     1      -5.302   0.292  -0.992  1.00  0.00    -0.254 N 
HETATM    2  N3  UNL     1      -5.421  -0.590  -1.998  1.00  0.00    -0.239 N 
ATOM      3  H3  UNL     1      -5.018  -1.527  -1.978  1.00  0.00     0.208 HD
HETATM    4  N4  UNL     1      -6.101  -0.124  -2.996  1.00  0.00    -0.294 N 
ATOM      5  H4  UNL     1      -6.318  -0.614  -3.864  1.00  0.00     0.187 HD
HETATM    6  C22 UNL     1      -6.468   1.130  -2.671  1.00  0.00     0.151 A 
HETATM    7  C23 UNL     1      -5.958   1.380  -1.405  1.00  0.00     0.150 A 
HETATM    8  C24 UNL     1      -6.139   2.610  -0.706  1.00  0.00     0.120 C 
HETATM    9  N5  UNL     1      -6.265   3.610  -0.139  1.00  0.00    -0.190 NA
ENDROOT
BRANCH   1  10
HETATM   10  C20 UNL     1      -4.601   0.051   0.258  1.00  0.00     0.084 C 
HETATM   11  C19 UNL     1      -3.135   0.303   0.196  1.00  0.00     0.095 C 
HETATM   12  C18 UNL     1      -2.701   0.919  -1.097  1.00  0.00     0.042 C 
HETATM   13  C29 UNL     1      -2.235  -0.846   0.581  1.00  0.00     0.025 C 
HETATM   14  C17 UNL     1      -1.225   1.186  -1.227  1.00  0.00     0.011 C 
HETATM   15  C16 UNL     1      -0.395   0.015  -0.834  1.00  0.00     0.036 C 
HETATM   16  C15 UNL     1      -0.823  -0.372   0.598  1.00  0.00     0.011 C 
HETATM   17  C31 UNL     1       1.041   0.098  -0.868  1.00  0.00     0.134 C 
HETATM   18  C14 UNL     1      -0.347   0.683   1.458  1.00  0.00     0.033 C 
HETATM   19  C13 UNL     1       1.146   0.646   1.482  1.00  0.00    -0.020 C 
HETATM   20  C12 UNL     1       1.770   0.376   0.374  1.00  0.00    -0.040 C 
HETATM   21  C4  UNL     1       3.205   0.241  -0.055  1.00  0.00     0.020 C 
HETATM   22  C3  UNL     1       3.186   0.578  -1.532  1.00  0.00     0.017 C 
HETATM   23  C2  UNL     1       1.738   1.033  -1.809  1.00  0.00     0.027 C 
HETATM   24  C1  UNL     1       1.687   2.468  -1.427  1.00  0.00     0.014 C 
HETATM   25  F1  UNL     1       1.541  -1.173  -1.255  1.00  0.00    -0.237 F 
HETATM   26  C27 UNL     1      -2.684  -1.606   1.777  1.00  0.00     0.065 C 
HETATM   27  C30 UNL     1      -2.205  -1.933  -0.517  1.00  0.00     0.022 C 
HETATM   28  C26 UNL     1      -4.093  -2.071   1.586  1.00  0.00     0.041 C 
HETATM   29  C28 UNL     1      -2.489  -1.038   3.127  1.00  0.00     0.047 C 
HETATM   30  C25 UNL     1      -4.928  -1.417   0.581  1.00  0.00     0.039 C 
HETATM   31  C21 UNL     1      -5.294   0.787   1.421  1.00  0.00     0.044 C 
BRANCH  11  32
HETATM   32  O2  UNL     1      -2.895   1.295   1.182  1.00  0.00    -0.386 OA
ATOM     33  H2  UNL     1      -3.171   0.904   2.003  1.00  0.00     0.210 HD
ENDBRANCH  11  32
BRANCH  21  34
HETATM   34  C5  UNL     1       4.118   1.114   0.738  1.00  0.00     0.036 C 
BRANCH  34  35
HETATM   35  C6  UNL     1       5.526   0.959   0.217  1.00  0.00     0.176 C 
BRANCH  35  36
HETATM   36  O1  UNL     1       5.927  -0.381   0.340  1.00  0.00    -0.350 OA
BRANCH  36  37
HETATM   37  C7  UNL     1       7.184  -0.785  -0.070  1.00  0.00     0.084 A 
HETATM   38  C8  UNL     1       7.605  -2.081   0.037  1.00  0.00     0.039 A 
HETATM   39  C9  UNL     1       8.876  -2.429  -0.390  1.00  0.00     0.020 A 
HETATM   40  C10 UNL     1       9.692  -1.463  -0.914  1.00  0.00     0.088 A 
HETATM   41  N1  UNL     1       9.277  -0.210  -1.014  1.00  0.00    -0.373 N 
HETATM   42  C11 UNL     1       8.050   0.143  -0.605  1.00  0.00     0.124 A 
ATOM     43  H1  UNL     1       9.899   0.496  -1.407  1.00  0.00     0.164 HD
ENDBRANCH  36  37
ENDBRANCH  35  36
ENDBRANCH  34  35
ENDBRANCH  21  34
BRANCH  26  44
HETATM   44  O3  UNL     1      -1.870  -2.781   1.784  1.00  0.00    -0.389 OA
ATOM     45  H3  UNL     1      -0.975  -2.486   1.905  1.00  0.00     0.210 HD
ENDBRANCH  26  44
ENDBRANCH   1  10
TORSDOF 7
