REMARK  10 active torsions:
REMARK  status: ('A' for Active; 'I' for Inactive)
REMARK    1  A    between atoms: O1_2  and  C2_3 
REMARK    2  A    between atoms: C4_5  and  C5_6 
REMARK    3  A    between atoms: N1_7  and  N2_9 
REMARK       I    between atoms: N2_9  and  C6_11 
REMARK    4  A    between atoms: C6_11  and  C7_13 
REMARK    5  A    between atoms: C10_16  and  N3_17 
REMARK    6  A    between atoms: C15_24  and  O5_25 
REMARK    7  A    between atoms: O5_25  and  C16_26 
REMARK    8  A    between atoms: C16_26  and  C17_27 
REMARK    9  A    between atoms: C19_29  and  N4_30 
REMARK   10  A    between atoms: C21_34  and  N5_35 
ROOT
HETATM    1  C2  UNL     1       0.322  -1.555  -0.044  1.00  0.00     0.102 A 
HETATM    2  C3  UNL     1      -0.608  -1.011   0.809  1.00  0.00     0.052 A 
HETATM    3  C4  UNL     1      -0.256  -0.603   2.059  1.00  0.00    -0.017 A 
HETATM    4  C13 UNL     1       1.097  -0.768   2.421  1.00  0.00     0.016 A 
HETATM    5  C14 UNL     1       2.003  -1.315   1.548  1.00  0.00     0.040 A 
HETATM    6  C15 UNL     1       1.650  -1.729   0.283  1.00  0.00     0.102 A 
ENDROOT
BRANCH   3   7
HETATM    7  C5  UNL     1      -1.158  -0.020   3.025  1.00  0.00     0.118 C 
HETATM    8  N1  UNL     1      -2.362   0.222   2.945  1.00  0.00    -0.308 N 
ATOM      9  H1  UNL     1      -2.750   0.640   3.791  1.00  0.00     0.186 HD
BRANCH   8  10
HETATM   10  N2  UNL     1      -3.272   0.046   1.966  1.00  0.00    -0.266 N 
HETATM   11  C6  UNL     1      -3.816   1.143   1.233  1.00  0.00     0.270 C 
HETATM   12  O2  UNL     1      -3.443   2.334   1.499  1.00  0.00    -0.266 OA
ATOM     13  H2  UNL     1      -3.581  -0.900   1.742  1.00  0.00     0.190 HD
BRANCH  11  14
HETATM   14  C7  UNL     1      -4.788   0.970   0.186  1.00  0.00     0.033 A 
HETATM   15  C8  UNL     1      -5.144  -0.279  -0.251  1.00  0.00     0.019 A 
HETATM   16  C9  UNL     1      -6.085  -0.421  -1.260  1.00  0.00     0.037 A 
HETATM   17  C10 UNL     1      -6.663   0.678  -1.825  1.00  0.00     0.102 A 
HETATM   18  C11 UNL     1      -6.316   1.960  -1.396  1.00  0.00     0.037 A 
HETATM   19  C12 UNL     1      -5.388   2.066  -0.402  1.00  0.00     0.019 A 
BRANCH  17  20
HETATM   20  N3  UNL     1      -7.625   0.543  -2.856  1.00  0.00    -0.116 N 
HETATM   21  O3  UNL     1      -7.937  -0.594  -3.241  1.00  0.00    -0.532 OA
HETATM   22  O4  UNL     1      -8.186   1.660  -3.402  1.00  0.00    -0.532 OA
ENDBRANCH  17  20
ENDBRANCH  11  14
ENDBRANCH   8  10
ENDBRANCH   3   7
BRANCH   1  23
HETATM   23  O1  UNL     1      -0.073  -1.956  -1.299  1.00  0.00    -0.353 OA
HETATM   24  C1  UNL     1      -1.408  -1.806  -1.692  1.00  0.00     0.210 C 
ENDBRANCH   1  23
BRANCH   6  25
HETATM   25  O5  UNL     1       2.497  -2.277  -0.633  1.00  0.00    -0.344 OA
BRANCH  25  26
HETATM   26  C16 UNL     1       3.853  -2.534  -0.536  1.00  0.00     0.214 C 
BRANCH  26  27
HETATM   27  C17 UNL     1       4.596  -1.270  -0.321  1.00  0.00    -0.029 A 
HETATM   28  C18 UNL     1       5.841  -1.259   0.267  1.00  0.00     0.045 A 
HETATM   29  C19 UNL     1       6.537  -0.089   0.458  1.00  0.00     0.105 A 
HETATM   30  C20 UNL     1       6.004   1.128   0.062  1.00  0.00     0.072 A 
HETATM   31  C21 UNL     1       4.760   1.133  -0.528  1.00  0.00     0.105 A 
HETATM   32  C22 UNL     1       4.078  -0.057  -0.710  1.00  0.00     0.045 A 
BRANCH  29  33
HETATM   33  N4  UNL     1       7.807  -0.124   1.063  1.00  0.00    -0.116 N 
HETATM   34  O6  UNL     1       8.288  -1.220   1.421  1.00  0.00    -0.532 OA
HETATM   35  O7  UNL     1       8.519   1.042   1.262  1.00  0.00    -0.532 OA
ENDBRANCH  29  33
BRANCH  31  36
HETATM   36  N5  UNL     1       4.202   2.383  -0.941  1.00  0.00    -0.116 N 
HETATM   37  O8  UNL     1       3.077   2.388  -1.474  1.00  0.00    -0.532 OA
HETATM   38  O9  UNL     1       4.846   3.568  -0.776  1.00  0.00    -0.532 OA
ENDBRANCH  31  36
ENDBRANCH  26  27
ENDBRANCH  25  26
ENDBRANCH   6  25
TORSDOF 10
