REMARK  3 active torsions:
REMARK  status: ('A' for Active; 'I' for Inactive)
REMARK    1  A    between atoms: O1_1  and  C1_3 
REMARK    2  A    between atoms: C1_3  and  C2_4 
REMARK    3  A    between atoms: C2_4  and  C3_5 
ROOT
HETATM    1  C3  UNL     1       0.663   0.162  -0.295  1.00  0.00     0.064 C 
HETATM    2  C4  UNL     1      -0.145   1.153  -1.144  1.00  0.00     0.043 C 
HETATM    3  C5  UNL     1      -1.570   1.063  -0.672  1.00  0.00    -0.009 C 
HETATM    4  C6  UNL     1      -2.148  -0.315  -0.897  1.00  0.00     0.009 C 
HETATM    5  C7  UNL     1      -1.260  -1.341  -0.240  1.00  0.00    -0.009 C 
HETATM    6  C8  UNL     1      -1.344  -1.094   1.263  1.00  0.00     0.036 C 
HETATM    7  C9  UNL     1      -0.792   0.293   1.503  1.00  0.00     0.123 C 
HETATM    8  C10 UNL     1      -1.622   1.351   0.800  1.00  0.00     0.036 C 
HETATM    9  O2  UNL     1       0.501   0.402   1.051  1.00  0.00    -0.375 OA
HETATM   10  C11 UNL     1       0.178  -1.206  -0.687  1.00  0.00     0.043 C 
ENDROOT
BRANCH   1  11
HETATM   11  C2  UNL     1       2.102   0.399  -0.648  1.00  0.00     0.064 C 
BRANCH  11  12
HETATM   12  C1  UNL     1       3.057  -0.498   0.099  1.00  0.00     0.167 C 
BRANCH  12  13
HETATM   13  O1  UNL     1       2.963  -0.322   1.476  1.00  0.00    -0.401 OA
ATOM     14  H1  UNL     1       3.565  -0.887   1.947  1.00  0.00     0.209 HD
ENDBRANCH  12  13
ENDBRANCH  11  12
ENDBRANCH   1  11
TORSDOF 3
