REMARK  4 active torsions:
REMARK  status: ('A' for Active; 'I' for Inactive)
REMARK    1  A    between atoms: C2_2  and  O1_3 
REMARK    2  A    between atoms: O1_3  and  C3_4 
REMARK    3  A    between atoms: C3_4  and  C4_5 
REMARK    4  A    between atoms: C4_5  and  O2_6 
ROOT
HETATM    1  C4  UNL     1       0.605   0.261  -0.292  1.00  0.00     0.151 C 
HETATM    2  C5  UNL     1      -0.119  -0.630  -1.266  1.00  0.00     0.196 C 
HETATM    3  O3  UNL     1       0.417  -1.711  -0.524  1.00  0.00    -0.351 OA
HETATM    4  C6  UNL     1       0.222  -0.873   0.602  1.00  0.00     0.182 C 
HETATM    5 BR1  UNL     1       1.202  -1.228   2.141  1.00  0.00    -0.048 Br
HETATM    6  C7  UNL     1      -1.293  -0.854   0.683  1.00  0.00     0.205 C 
HETATM    7  O4  UNL     1      -1.804   0.305   1.199  1.00  0.00    -0.344 OA
HETATM    8  C8  UNL     1      -2.898   0.548   0.336  1.00  0.00     0.158 C 
HETATM    9  C9  UNL     1      -3.538   1.876   0.600  1.00  0.00     0.078 C 
HETATM   10  C10 UNL     1      -3.933  -0.518   0.438  1.00  0.00     0.078 C 
HETATM   11  O5  UNL     1      -2.216   0.525  -0.904  1.00  0.00    -0.345 OA
HETATM   12  C11 UNL     1      -1.556  -0.673  -0.827  1.00  0.00     0.190 C 
ENDROOT
BRANCH   1  13
HETATM   13  C3  UNL     1       2.065   0.372  -0.524  1.00  0.00     0.212 C 
BRANCH  13  14
HETATM   14  O1  UNL     1       2.688  -0.838  -0.784  1.00  0.00    -0.388 OA
BRANCH  14  15
HETATM   15  C2  UNL     1       4.053  -0.685  -0.995  1.00  0.00     0.163 C 
HETATM   16  C1  UNL     1       4.783  -0.095   0.164  1.00  0.00     0.033 C 
ENDBRANCH  14  15
ENDBRANCH  13  14
ENDBRANCH   1  13
BRANCH   1  17
HETATM   17  O2  UNL     1       0.033   1.488  -0.038  1.00  0.00    -0.381 OA
ATOM     18  H2  UNL     1      -0.903   1.417   0.111  1.00  0.00     0.211 HD
ENDBRANCH   1  17
TORSDOF 4
