REMARK  9 active torsions:
REMARK  status: ('A' for Active; 'I' for Inactive)
REMARK    1  A    between atoms: C2_2  and  C4_4 
REMARK    2  A    between atoms: C4_4  and  N1_5 
REMARK    3  A    between atoms: N1_5  and  C5_6 
REMARK    4  A    between atoms: C5_6  and  C6_7 
REMARK    5  A    between atoms: C6_7  and  C7_8 
REMARK    6  A    between atoms: C7_8  and  C8_9 
REMARK    7  A    between atoms: C8_9  and  N2_10 
REMARK    8  A    between atoms: C14_18  and  O1_19 
REMARK    9  A    between atoms: C15_21  and  O2_22 
ROOT
HETATM    1  N1  UNL     1      -2.050   0.160  -0.006  1.00  0.00    -0.036 N 
HETATM    2  C13 UNL     1      -2.345  -0.385   1.292  1.00  0.00     0.276 C 
HETATM    3  C14 UNL     1      -1.750   0.814   2.009  1.00  0.00     0.201 C 
HETATM    4  C15 UNL     1      -1.794   1.443   0.653  1.00  0.00     0.354 C 
ENDROOT
BRANCH   1   5
HETATM    5  C4  UNL     1      -3.099   0.243  -0.953  1.00  0.00     0.244 C 
BRANCH   5   6
HETATM    6  C2  UNL     1      -4.382  -0.449  -0.602  1.00  0.00     0.003 C 
HETATM    7  C1  UNL     1      -5.330  -0.197  -1.787  1.00  0.00     0.011 C 
HETATM    8  C3  UNL     1      -4.225  -1.950  -0.531  1.00  0.00     0.011 C 
ENDBRANCH   5   6
ENDBRANCH   1   5
BRANCH   1   9
HETATM    9  C5  UNL     1      -0.871  -0.394  -0.623  1.00  0.00     0.241 C 
BRANCH   9  10
HETATM   10  C6  UNL     1       0.316  -0.489   0.273  1.00  0.00     0.030 C 
BRANCH  10  11
HETATM   11  C7  UNL     1       1.418  -1.099  -0.597  1.00  0.00     0.032 C 
BRANCH  11  12
HETATM   12  C8  UNL     1       2.703  -1.279   0.134  1.00  0.00     0.272 C 
BRANCH  12  13
HETATM   13  N2  UNL     1       3.286  -0.099   0.653  1.00  0.00     0.091 N 
HETATM   14  C9  UNL     1       3.760   0.774  -0.402  1.00  0.00     0.291 C 
HETATM   15  C10 UNL     1       4.931   0.211  -1.159  1.00  0.00     0.144 C 
HETATM   16  N3  UNL     1       5.996  -0.267  -0.340  1.00  0.00    -0.418 N 
HETATM   17  C11 UNL     1       5.603  -0.913   0.873  1.00  0.00     0.144 C 
ATOM     18  H3  UNL     1       6.975  -0.155  -0.603  1.00  0.00     0.153 HD
HETATM   19  C12 UNL     1       4.390  -0.353   1.524  1.00  0.00     0.291 C 
ENDBRANCH  12  13
ENDBRANCH  11  12
ENDBRANCH  10  11
ENDBRANCH   9  10
ENDBRANCH   1   9
BRANCH   4  20
HETATM   20  O2  UNL     1      -2.779   2.395   0.483  1.00  0.00    -0.367 OA
ATOM     21  H2  UNL     1      -2.613   3.227   0.910  1.00  0.00     0.212 HD
ENDBRANCH   4  20
BRANCH   3  22
HETATM   22  O1  UNL     1      -2.619   1.422   2.915  1.00  0.00    -0.389 OA
ATOM     23  H1  UNL     1      -2.247   2.172   3.364  1.00  0.00     0.210 HD
ENDBRANCH   3  22
TORSDOF 9
