REMARK  8 active torsions:
REMARK  status: ('A' for Active; 'I' for Inactive)
REMARK    1  A    between atoms: C2_2  and  C3_3 
REMARK    2  A    between atoms: C2_2  and  N2_14 
REMARK    3  A    between atoms: C3_3  and  N1_4 
REMARK    4  A    between atoms: N1_4  and  C5_7 
REMARK    5  A    between atoms: C7_9  and  C8_10 
REMARK    6  A    between atoms: N2_14  and  C10_16 
REMARK    7  A    between atoms: C10_16  and  C11_17 
REMARK    8  A    between atoms: C11_17  and  N3_18 
ROOT
HETATM    1  C3  UNL     1       0.909   0.850  -0.584  1.00  0.00     0.336 C 
ENDROOT
BRANCH   1   2
HETATM    2  C2  UNL     1      -0.367   0.210  -0.154  1.00  0.00     0.110 C 
HETATM    3  C1  UNL     1      -0.137  -0.784   0.947  1.00  0.00     0.034 C 
BRANCH   2   4
HETATM    4  N2  UNL     1      -1.445   1.075   0.117  1.00  0.00    -0.394 N 
ATOM      5  H2  UNL     1      -1.256   2.048   0.359  1.00  0.00     0.159 HD
BRANCH   4   6
HETATM    6  C10 UNL     1      -2.769   0.627   0.061  1.00  0.00     0.086 C 
BRANCH   6   7
HETATM    7  C11 UNL     1      -3.200  -0.366   1.062  1.00  0.00     0.316 C 
BRANCH   7   8
HETATM    8  N3  UNL     1      -4.597  -0.757   0.961  1.00  0.00     0.093 N 
HETATM    9  C12 UNL     1      -5.538   0.268   1.327  1.00  0.00     0.274 C 
HETATM   10  C13 UNL     1      -6.039   0.363  -0.078  1.00  0.00     0.060 C 
HETATM   11  C14 UNL     1      -5.185  -0.867  -0.318  1.00  0.00     0.274 C 
ENDBRANCH   7   8
ENDBRANCH   6   7
ENDBRANCH   4   6
ENDBRANCH   2   4
ENDBRANCH   1   2
BRANCH   1  12
HETATM   12  N1  UNL     1       1.874  -0.099  -1.138  1.00  0.00     0.016 N 
HETATM   13  C4  UNL     1       1.692   0.083  -2.610  1.00  0.00     0.357 C 
HETATM   14  O1  UNL     1       1.443  -1.335  -0.939  1.00  0.00    -0.064 OA
BRANCH  12  15
HETATM   15  C5  UNL     1       3.215   0.188  -0.879  1.00  0.00     0.256 C 
HETATM   16  C6  UNL     1       3.633   0.696   0.489  1.00  0.00     0.057 C 
HETATM   17  C7  UNL     1       4.992   0.044   0.171  1.00  0.00     0.092 C 
HETATM   18  C9  UNL     1       4.193  -0.934  -0.681  1.00  0.00     0.057 C 
BRANCH  17  19
HETATM   19  C8  UNL     1       5.637  -0.543   1.364  1.00  0.00     0.177 C 
HETATM   20  O2  UNL     1       6.780  -0.150   1.697  1.00  0.00    -0.648 OA
HETATM   21  O3  UNL     1       5.003  -1.501   2.104  1.00  0.00    -0.648 OA
ENDBRANCH  17  19
ENDBRANCH  12  15
ENDBRANCH   1  12
TORSDOF 8
