REMARK  7 active torsions:
REMARK  status: ('A' for Active; 'I' for Inactive)
REMARK    1  A    between atoms: S1_2  and  C2_3 
REMARK    2  A    between atoms: N1_5  and  C4_7 
REMARK    3  A    between atoms: N2_9  and  C6_10 
REMARK    4  A    between atoms: C9_13  and  O1_14 
REMARK    5  A    between atoms: C10_16  and  C11_17 
REMARK    6  A    between atoms: C11_17  and  C12_18 
REMARK       I    between atoms: C12_18  and  N3_20 
REMARK    7  A    between atoms: C15_23  and  C16_24 
ROOT
HETATM    1  C4  UNL     1      -3.055   0.330   0.167  1.00  0.00     0.059 A 
HETATM    2  C5  UNL     1      -4.194  -0.418  -0.047  1.00  0.00     0.123 A 
HETATM    3  N2  UNL     1      -3.860  -1.730   0.105  1.00  0.00    -0.331 N 
HETATM    4  C9  UNL     1      -2.553  -1.808   0.404  1.00  0.00     0.151 A 
HETATM    5  C10 UNL     1      -2.013  -0.524   0.452  1.00  0.00     0.030 A 
ENDROOT
BRANCH   5   6
HETATM    6  C11 UNL     1      -0.587  -0.195   0.752  1.00  0.00     0.148 C 
BRANCH   6   7
HETATM    7  C12 UNL     1       0.167   0.162  -0.459  1.00  0.00     0.224 C 
HETATM    8  O2  UNL     1      -0.406   0.159  -1.566  1.00  0.00    -0.273 OA
HETATM    9  N3  UNL     1       1.535   0.502  -0.331  1.00  0.00    -0.352 N 
HETATM   10  C13 UNL     1       2.230   0.520   0.941  1.00  0.00     0.126 C 
HETATM   11  C20 UNL     1       2.385   0.865  -1.457  1.00  0.00     0.126 C 
HETATM   12  C14 UNL     1       3.474  -0.285   0.975  1.00  0.00     0.025 C 
HETATM   13  C15 UNL     1       4.273  -0.354  -0.287  1.00  0.00    -0.008 C 
HETATM   14  C19 UNL     1       3.452  -0.200  -1.508  1.00  0.00     0.025 C 
BRANCH  13  15
HETATM   15  C16 UNL     1       5.540   0.455  -0.242  1.00  0.00    -0.019 C 
HETATM   16  C17 UNL     1       5.306   1.936  -0.010  1.00  0.00     0.010 C 
HETATM   17  C18 UNL     1       6.460   0.294  -1.386  1.00  0.00     0.010 C 
ENDBRANCH  13  15
ENDBRANCH   6   7
ENDBRANCH   5   6
BRANCH   1  18
HETATM   18  N1  UNL     1      -2.940   1.735   0.113  1.00  0.00    -0.353 N 
HETATM   19  C2  UNL     1      -3.019   2.491   1.148  1.00  0.00     0.042 C 
HETATM   20  C3  UNL     1      -3.242   1.936   2.505  1.00  0.00     0.076 C 
ATOM     21  H1  UNL     1      -2.786   2.173  -0.795  1.00  0.00     0.166 HD
BRANCH  19  22
HETATM   22  S1  UNL     1      -2.857   4.251   0.951  1.00  0.00    -0.121 SA
HETATM   23  C1  UNL     1      -2.594   4.635  -0.786  1.00  0.00     0.097 C 
ENDBRANCH  19  22
ENDBRANCH   1  18
BRANCH   4  24
HETATM   24  O1  UNL     1      -1.859  -2.987   0.629  1.00  0.00    -0.345 OA
ATOM     25  H1  UNL     1      -0.934  -3.042   0.840  1.00  0.00     0.219 HD
ENDBRANCH   4  24
BRANCH   3  26
HETATM   26  C6  UNL     1      -4.751  -2.856  -0.030  1.00  0.00     0.083 C 
HETATM   27  C7  UNL     1      -4.854  -3.545   1.327  1.00  0.00     0.032 C 
HETATM   28  C8  UNL     1      -4.339  -3.820  -1.104  1.00  0.00     0.032 C 
ENDBRANCH   3  26
TORSDOF 7
