REMARK  6 active torsions:
REMARK  status: ('A' for Active; 'I' for Inactive)
REMARK    1  A    between atoms: O1_2  and  C2_3 
REMARK    2  A    between atoms: C2_3  and  C3_4 
REMARK    3  A    between atoms: C3_4  and  O3_6 
REMARK    4  A    between atoms: O3_6  and  C4_7 
REMARK    5  A    between atoms: C5_8  and  O4_9 
REMARK    6  A    between atoms: C7_17  and  N3_18 
ROOT
HETATM    1  C4  UNL     1       0.803   0.261   0.022  1.00  0.00     0.173 A 
HETATM    2  C5  UNL     1       1.122  -0.166   1.292  1.00  0.00     0.182 A 
HETATM    3  N1  UNL     1       2.389  -0.217   1.751  1.00  0.00    -0.287 N 
ATOM      4  H1  UNL     1       2.603  -0.536   2.696  1.00  0.00     0.172 HD
HETATM    5  C6  UNL     1       3.360   0.175   0.899  1.00  0.00     0.327 A 
HETATM    6  O5  UNL     1       4.559   0.140   1.298  1.00  0.00    -0.247 OA
HETATM    7  N2  UNL     1       3.111   0.600  -0.348  1.00  0.00    -0.292 N 
ATOM      8  H2  UNL     1       3.884   0.885  -0.950  1.00  0.00     0.172 HD
HETATM    9  C7  UNL     1       1.832   0.654  -0.817  1.00  0.00     0.141 A 
ENDROOT
BRANCH   1  10
HETATM   10  O3  UNL     1      -0.523   0.283  -0.373  1.00  0.00    -0.269 OA
BRANCH  10  11
HETATM   11  C3  UNL     1      -1.180  -0.749  -0.971  1.00  0.00     0.288 C 
HETATM   12  O2  UNL     1      -0.491  -1.806  -1.169  1.00  0.00    -0.262 OA
BRANCH  11  13
HETATM   13  C2  UNL     1      -2.583  -0.657  -1.365  1.00  0.00     0.278 C 
BRANCH  13  14
HETATM   14  O1  UNL     1      -3.271   0.467  -1.033  1.00  0.00    -0.386 OA
HETATM   15  C1  UNL     1      -3.430   0.659   0.316  1.00  0.00     0.202 C 
ENDBRANCH  13  14
ENDBRANCH  11  13
ENDBRANCH  10  11
ENDBRANCH   1  10
BRANCH   2  16
HETATM   16  O4  UNL     1       0.082  -0.557   2.121  1.00  0.00    -0.344 OA
ATOM     17  H4  UNL     1       0.302  -0.852   2.997  1.00  0.00     0.219 HD
ENDBRANCH   2  16
BRANCH   9  18
HETATM   18  N3  UNL     1       1.569   1.053  -1.996  1.00  0.00    -0.383 N 
ATOM     19  H32 UNL     1       0.612   1.093  -2.347  1.00  0.00     0.157 HD
ATOM     20  H31 UNL     1       2.327   1.343  -2.614  1.00  0.00     0.157 HD
ENDBRANCH   9  18
TORSDOF 6
