REMARK  4 active torsions:
REMARK  status: ('A' for Active; 'I' for Inactive)
REMARK    1  A    between atoms: O1_3  and  N2_4 
REMARK       I    between atoms: N2_4  and  C2_6 
REMARK       I    between atoms: C2_6  and  N3_8 
REMARK    2  A    between atoms: N3_8  and  N4_10 
REMARK    3  A    between atoms: C3_12  and  C4_13 
REMARK    4  A    between atoms: C5_19  and  N7_20 
ROOT
HETATM    1  N1  UNL     1       6.414   1.404   0.444  1.00  0.00    -0.162 NA
HETATM    2  C1  UNL     1       5.585   0.772  -0.055  1.00  0.00     0.253 C 
HETATM    3  O1  UNL     1       4.580   0.027  -0.642  1.00  0.00    -0.155 OA
ENDROOT
BRANCH   3   4
HETATM    4  N2  UNL     1       3.531  -0.314   0.183  1.00  0.00    -0.198 N 
HETATM    5  C2  UNL     1       2.182  -0.006  -0.134  1.00  0.00     0.359 C 
HETATM    6  O2  UNL     1       1.886   0.591  -1.183  1.00  0.00    -0.243 OA
HETATM    7  N3  UNL     1       1.145  -0.384   0.758  1.00  0.00    -0.250 N 
ATOM      8  H3  UNL     1       1.397  -0.874   1.616  1.00  0.00     0.192 HD
ATOM      9  H2  UNL     1       3.731  -0.806   1.054  1.00  0.00     0.200 HD
BRANCH   7  10
HETATM   10  N4  UNL     1      -0.201  -0.117   0.517  1.00  0.00    -0.306 N 
HETATM   11  C3  UNL     1      -1.117  -1.024   0.564  1.00  0.00     0.142 C 
ATOM     12  H4  UNL     1      -0.475   0.840   0.293  1.00  0.00     0.186 HD
BRANCH  11  13
HETATM   13  C4  UNL     1      -2.516  -0.723   0.309  1.00  0.00     0.118 A 
HETATM   14  N5  UNL     1      -3.532  -1.572   0.331  1.00  0.00    -0.237 N 
HETATM   15  O3  UNL     1      -4.617  -0.924   0.054  1.00  0.00    -0.155 OA
ATOM     16  H5  UNL     1      -3.470  -2.570   0.533  1.00  0.00     0.197 HD
HETATM   17  N6  UNL     1      -4.350   0.328  -0.152  1.00  0.00    -0.224 N 
HETATM   18  C5  UNL     1      -3.029   0.518  -0.004  1.00  0.00     0.151 A 
ATOM     19  H6  UNL     1      -5.031   1.050  -0.388  1.00  0.00     0.198 HD
BRANCH  18  20
HETATM   20  N7  UNL     1      -2.386   1.617  -0.126  1.00  0.00    -0.382 N 
ATOM     21  H72 UNL     1      -1.383   1.761  -0.014  1.00  0.00     0.157 HD
ATOM     22  H71 UNL     1      -2.765   2.535  -0.358  1.00  0.00     0.157 HD
ENDBRANCH  18  20
ENDBRANCH  11  13
ENDBRANCH   7  10
ENDBRANCH   3   4
TORSDOF 4
