REMARK  12 active torsions:
REMARK  status: ('A' for Active; 'I' for Inactive)
REMARK    1  A    between atoms: C2_2  and  O1_4 
REMARK    2  A    between atoms: C2_2  and  C4_6 
REMARK    3  A    between atoms: C4_6  and  O3_8 
REMARK    4  A    between atoms: O3_8  and  C5_9 
REMARK    5  A    between atoms: C5_9  and  C6_11 
REMARK    6  A    between atoms: C10_17  and  C11_18 
REMARK    7  A    between atoms: C11_18  and  O5_19 
REMARK    8  A    between atoms: O5_19  and  C12_20 
REMARK       I    between atoms: C12_20  and  N2_22 
REMARK    9  A    between atoms: N2_22  and  C13_24 
REMARK   10  A    between atoms: C13_24  and  C14_25 
REMARK   11  A    between atoms: N4_31  and  C18_33 
REMARK   12  A    between atoms: C19_38  and  N9_39 
ROOT
HETATM    1  C12 UNL     1       0.085  -1.022  -0.362  1.00  0.00     0.361 C 
HETATM    2  O6  UNL     1      -0.030   0.156  -0.757  1.00  0.00    -0.238 OA
HETATM    3  N2  UNL     1       1.395  -1.586  -0.094  1.00  0.00    -0.333 N 
ATOM      4  H2  UNL     1       1.496  -2.551   0.220  1.00  0.00     0.165 HD
ENDROOT
BRANCH   1   5
HETATM    5  O5  UNL     1      -1.042  -1.792  -0.181  1.00  0.00    -0.298 OA
BRANCH   5   6
HETATM    6  C11 UNL     1      -2.374  -1.394  -0.381  1.00  0.00     0.238 C 
BRANCH   6   7
HETATM    7  C10 UNL     1      -2.717  -0.319   0.566  1.00  0.00     0.050 A 
HETATM    8  C6  UNL     1      -3.971   0.232   0.530  1.00  0.00     0.064 A 
HETATM    9  C7  UNL     1      -4.286   1.241   1.451  1.00  0.00     0.021 A 
HETATM   10  C8  UNL     1      -3.387   1.677   2.365  1.00  0.00     0.018 A 
HETATM   11  C9  UNL     1      -2.130   1.098   2.373  1.00  0.00     0.088 A 
HETATM   12  N1  UNL     1      -1.837   0.138   1.493  1.00  0.00    -0.367 N 
ATOM     13  H1  UNL     1      -0.904  -0.273   1.518  1.00  0.00     0.165 HD
BRANCH   8  14
HETATM   14  C5  UNL     1      -5.027  -0.146  -0.397  1.00  0.00     0.302 C 
HETATM   15  O4  UNL     1      -4.821  -1.040  -1.240  1.00  0.00    -0.259 OA
BRANCH  14  16
HETATM   16  O3  UNL     1      -6.277   0.442  -0.401  1.00  0.00    -0.239 OA
BRANCH  16  17
HETATM   17  C4  UNL     1      -7.290   0.113  -1.262  1.00  0.00     0.300 C 
HETATM   18  O2  UNL     1      -7.087  -0.785  -2.116  1.00  0.00    -0.261 OA
BRANCH  17  19
HETATM   19  C2  UNL     1      -8.622   0.766  -1.238  1.00  0.00     0.138 C 
HETATM   20  C1  UNL     1      -8.405   2.266  -1.325  1.00  0.00     0.056 C 
HETATM   21  C3  UNL     1      -9.231   0.442   0.121  1.00  0.00     0.056 C 
BRANCH  19  22
HETATM   22  O1  UNL     1      -9.457   0.286  -2.232  1.00  0.00    -0.380 OA
ATOM     23  H1  UNL     1      -9.593  -0.653  -2.178  1.00  0.00     0.211 HD
ENDBRANCH  19  22
ENDBRANCH  17  19
ENDBRANCH  16  17
ENDBRANCH  14  16
ENDBRANCH   8  14
ENDBRANCH   6   7
ENDBRANCH   5   6
ENDBRANCH   1   5
BRANCH   3  24
HETATM   24  C13 UNL     1       2.535  -0.754  -0.281  1.00  0.00     0.166 C 
BRANCH  24  25
HETATM   25  C14 UNL     1       3.839  -1.396  -0.020  1.00  0.00    -0.002 A 
HETATM   26  C15 UNL     1       4.021  -2.707   0.345  1.00  0.00     0.028 A 
HETATM   27  C16 UNL     1       5.285  -3.221   0.556  1.00  0.00     0.090 A 
HETATM   28  N3  UNL     1       6.336  -2.425   0.402  1.00  0.00    -0.350 N 
HETATM   29  C17 UNL     1       6.240  -1.093   0.036  1.00  0.00     0.137 A 
ATOM     30  H3  UNL     1       7.265  -2.816   0.562  1.00  0.00     0.166 HD
HETATM   31  N4  UNL     1       7.315  -0.494  -0.043  1.00  0.00    -0.341 N 
HETATM   32  C19 UNL     1       4.972  -0.592  -0.173  1.00  0.00     0.154 A 
ATOM     33  H4  UNL     1       8.056  -1.154   0.191  1.00  0.00     0.164 HD
BRANCH  31  34
HETATM   34  C18 UNL     1       7.905   0.716  -0.323  1.00  0.00     0.308 C 
HETATM   35  N5  UNL     1       7.874   1.615   0.832  1.00  0.00    -0.085 NA
HETATM   36  N6  UNL     1       9.117   1.503   1.465  1.00  0.00    -0.018 NA
HETATM   37  N7  UNL     1       9.777   0.437   0.833  1.00  0.00    -0.018 NA
HETATM   38  N8  UNL     1       9.373   0.594  -0.507  1.00  0.00    -0.085 NA
ENDBRANCH  31  34
BRANCH  32  39
HETATM   39  N9  UNL     1       4.739   0.747  -0.570  1.00  0.00    -0.111 N 
HETATM   40  O7  UNL     1       4.382   1.586   0.297  1.00  0.00    -0.532 OA
HETATM   41  O8  UNL     1       4.870   1.227  -1.845  1.00  0.00    -0.532 OA
ENDBRANCH  32  39
ENDBRANCH  24  25
ENDBRANCH   3  24
TORSDOF 12
