REMARK  10 active torsions:
REMARK  status: ('A' for Active; 'I' for Inactive)
REMARK    1  A    between atoms: N1_1  and  C1_4 
REMARK    2  A    between atoms: C2_7  and  N3_8 
REMARK    3  A    between atoms: C3_14  and  C4_15 
REMARK    4  A    between atoms: C4_15  and  C5_16 
REMARK    5  A    between atoms: C5_16  and  C6_17 
REMARK    6  A    between atoms: C6_17  and  C7_18 
REMARK    7  A    between atoms: C7_18  and  C8_19 
REMARK    8  A    between atoms: C9_22  and  C10_23 
REMARK    9  A    between atoms: C10_23  and  S1_24 
REMARK   10  A    between atoms: S1_24  and  C11_25 
ROOT
HETATM    1  C8  UNL     1       0.527  -0.175   0.760  1.00  0.00     0.104 A 
HETATM    2  N6  UNL     1       1.767   0.340   0.457  1.00  0.00    -0.345 N 
ATOM      3  H6  UNL     1       1.950   1.305   0.180  1.00  0.00     0.167 HD
HETATM    4  C9  UNL     1       2.688  -0.607   0.579  1.00  0.00     0.055 A 
HETATM    5  C15 UNL     1       2.076  -1.759   0.962  1.00  0.00     0.149 A 
HETATM    6  C16 UNL     1       2.505  -3.034   1.245  1.00  0.00     0.280 A 
HETATM    7  O1  UNL     1       3.733  -3.269   1.137  1.00  0.00    -0.265 OA
HETATM    8  N10 UNL     1       1.650  -3.998   1.622  1.00  0.00    -0.272 N 
ATOM      9  H10 UNL     1       1.967  -4.945   1.831  1.00  0.00     0.174 HD
HETATM   10  C17 UNL     1       0.357  -3.651   1.710  1.00  0.00     0.342 A 
HETATM   11  O2  UNL     1      -0.509  -4.520   2.064  1.00  0.00    -0.245 OA
HETATM   12  N11 UNL     1      -0.068  -2.406   1.434  1.00  0.00    -0.243 N 
ATOM     13  H11 UNL     1      -1.063  -2.195   1.516  1.00  0.00     0.192 HD
HETATM   14  N12 UNL     1       0.749  -1.458   1.065  1.00  0.00    -0.233 N 
ENDROOT
BRANCH   1  15
HETATM   15  C7  UNL     1      -0.728   0.637   0.741  1.00  0.00     0.078 C 
BRANCH  15  16
HETATM   16  C6  UNL     1      -1.360   0.772  -0.583  1.00  0.00     0.008 C 
BRANCH  16  17
HETATM   17  C5  UNL     1      -1.863  -0.389  -1.307  1.00  0.00     0.008 C 
BRANCH  17  18
HETATM   18  C4  UNL     1      -2.961  -1.200  -0.762  1.00  0.00     0.078 C 
BRANCH  18  19
HETATM   19  C3  UNL     1      -4.244  -0.448  -0.568  1.00  0.00     0.113 A 
HETATM   20  N5  UNL     1      -4.566   0.821  -0.817  1.00  0.00    -0.252 N 
HETATM   21  N4  UNL     1      -5.824   1.066  -0.491  1.00  0.00     0.092 N 
ATOM     22  H5  UNL     1      -3.926   1.513  -1.208  1.00  0.00     0.190 HD
HETATM   23  C2  UNL     1      -6.635   2.137  -0.532  1.00  0.00     0.727 A 
HETATM   24  C18 UNL     1      -6.340  -0.097  -0.008  1.00  0.00     0.734 A 
HETATM   25  N2  UNL     1      -7.915   2.104  -0.122  1.00  0.00    -0.020 N 
HETATM   26  C1  UNL     1      -8.422   0.952   0.355  1.00  0.00     0.705 A 
ATOM     27  H2  UNL     1      -8.495   2.942  -0.172  1.00  0.00     0.203 HD
HETATM   28  N14 UNL     1      -7.629  -0.124   0.403  1.00  0.00    -0.020 N 
ATOM     29  H14 UNL     1      -8.011  -0.999   0.763  1.00  0.00     0.203 HD
HETATM   30  N13 UNL     1      -5.359  -1.016  -0.062  1.00  0.00    -0.176 N 
ATOM     31  H13 UNL     1      -5.444  -1.989   0.233  1.00  0.00     0.185 HD
BRANCH  23  32
HETATM   32  N3  UNL     1      -6.175   3.250  -0.983  1.00  0.00    -0.232 N 
ATOM     33  H32 UNL     1      -6.790   4.063  -1.014  1.00  0.00     0.174 HD
ATOM     34  H31 UNL     1      -5.204   3.275  -1.294  1.00  0.00     0.174 HD
ENDBRANCH  23  32
BRANCH  26  35
HETATM   35  N1  UNL     1      -9.661   0.912   0.754  1.00  0.00    -0.234 N 
ATOM     36  H12 UNL     1     -10.266   1.733   0.717  1.00  0.00     0.174 HD
ATOM     37  H11 UNL     1     -10.045   0.039   1.115  1.00  0.00     0.174 HD
ENDBRANCH  26  35
ENDBRANCH  18  19
ENDBRANCH  17  18
ENDBRANCH  16  17
ENDBRANCH  15  16
ENDBRANCH   1  15
BRANCH   4  38
HETATM   38  C10 UNL     1       4.151  -0.486   0.348  1.00  0.00     0.140 C 
BRANCH  38  39
HETATM   39  S1  UNL     1       4.573   1.216  -0.153  1.00  0.00    -0.105 SA
BRANCH  39  40
HETATM   40  C11 UNL     1       6.312   1.374  -0.431  1.00  0.00     0.085 A 
HETATM   41  C12 UNL     1       6.785   1.124  -1.710  1.00  0.00     0.041 A 
HETATM   42  C13 UNL     1       8.137   1.238  -1.961  1.00  0.00     0.049 A 
HETATM   43  C14 UNL     1       8.971   1.595  -0.932  1.00  0.00     0.130 A 
HETATM   44  N7  UNL     1      10.384   1.718  -1.177  1.00  0.00    -0.081 NA
HETATM   45  N8  UNL     1       8.475   1.824   0.272  1.00  0.00    -0.287 N 
HETATM   46  N9  UNL     1       7.197   1.715   0.507  1.00  0.00    -0.293 N 
ATOM     47  H8  UNL     1       9.103   2.091   1.030  1.00  0.00     0.188 HD
ATOM     48  H9  UNL     1       6.859   1.899   1.451  1.00  0.00     0.187 HD
ENDBRANCH  39  40
ENDBRANCH  38  39
ENDBRANCH   4  38
TORSDOF 10
