REMARK  7 active torsions:
REMARK  status: ('A' for Active; 'I' for Inactive)
REMARK    1  A    between atoms: C2_2  and  C3_3 
REMARK    2  A    between atoms: C4_6  and  C5_7 
REMARK    3  A    between atoms: C5_7  and  C6_8 
REMARK    4  A    between atoms: C6_8  and  N2_9 
REMARK    5  A    between atoms: C10_13  and  C11_14 
REMARK    6  A    between atoms: C14_18  and  N3_19 
REMARK    7  A    between atoms: N3_19  and  N4_20 
ROOT
HETATM    1  C3  UNL     1       4.148   0.402  -0.435  1.00  0.00     0.151 A 
HETATM    2  N1  UNL     1       2.949   0.220   0.122  1.00  0.00    -0.332 N 
ATOM      3  H1  UNL     1       2.643   0.632   1.003  1.00  0.00     0.168 HD
HETATM    4  C4  UNL     1       2.198  -0.595  -0.659  1.00  0.00     0.093 A 
HETATM    5  C14 UNL     1       2.985  -0.918  -1.741  1.00  0.00     0.231 A 
HETATM    6  N5  UNL     1       4.172  -0.280  -1.555  1.00  0.00    -0.307 N 
ATOM      7  H5  UNL     1       4.966  -0.325  -2.194  1.00  0.00     0.170 HD
ENDROOT
BRANCH   4   8
HETATM    8  C5  UNL     1       0.969  -0.960  -0.375  1.00  0.00     0.028 C 
BRANCH   8   9
HETATM    9  C6  UNL     1       0.340  -0.469   0.867  1.00  0.00     0.157 C 
BRANCH   9  10
HETATM   10  N2  UNL     1      -1.095  -0.591   0.851  1.00  0.00    -0.362 N 
HETATM   11  C7  UNL     1      -1.696  -1.679   1.293  1.00  0.00     0.090 A 
HETATM   12  C8  UNL     1      -3.073  -1.836   1.294  1.00  0.00     0.018 A 
HETATM   13  C9  UNL     1      -3.837  -0.796   0.808  1.00  0.00     0.018 A 
HETATM   14  C10 UNL     1      -3.210   0.338   0.348  1.00  0.00     0.025 A 
HETATM   15  C13 UNL     1      -1.826   0.428   0.375  1.00  0.00     0.106 A 
BRANCH  14  16
HETATM   16  C11 UNL     1      -3.960   1.469  -0.177  1.00  0.00     0.157 C 
HETATM   17  C12 UNL     1      -5.447   1.428  -0.231  1.00  0.00     0.097 C 
HETATM   18  O1  UNL     1      -3.388   2.502  -0.596  1.00  0.00    -0.293 OA
ENDBRANCH  14  16
ENDBRANCH   9  10
ENDBRANCH   8   9
ENDBRANCH   4   8
BRANCH   5  19
HETATM   19  N3  UNL     1       2.645  -1.649  -2.677  1.00  0.00    -0.312 NA
BRANCH  19  20
HETATM   20  N4  UNL     1       2.431  -2.556  -3.482  1.00  0.00    -0.278 N 
ATOM     21  H42 UNL     1       2.955  -3.208  -2.898  1.00  0.00     0.191 HD
ATOM     22  H41 UNL     1       2.150  -3.160  -4.255  1.00  0.00     0.191 HD
ENDBRANCH  19  20
ENDBRANCH   5  19
BRANCH   1  23
HETATM   23  C2  UNL     1       5.182   1.089  -0.061  1.00  0.00    -0.113 C 
HETATM   24  C1  UNL     1       5.955   2.029   0.398  1.00  0.00     0.106 C 
ENDBRANCH   1  23
TORSDOF 7
