REMARK  6 active torsions:
REMARK  status: ('A' for Active; 'I' for Inactive)
REMARK    1  A    between atoms: N2_7  and  C6_8 
REMARK    2  A    between atoms: C6_8  and  C7_9 
REMARK    3  A    between atoms: C8_10  and  C9_11 
REMARK    4  A    between atoms: C9_11  and  C10_12 
REMARK    5  A    between atoms: C10_12  and  C11_13 
REMARK    6  A    between atoms: C11_13  and  N3_14 
ROOT
HETATM    1  C7  UNL     1      -0.411  -0.028  -0.531  1.00  0.00    -0.086 C 
HETATM    2  C8  UNL     1       0.412  -0.145   0.345  1.00  0.00    -0.105 C 
ENDROOT
BRANCH   2   3
HETATM    3  C9  UNL     1       1.403  -0.264   1.416  1.00  0.00     0.095 C 
BRANCH   3   4
HETATM    4  C10 UNL     1       2.722   0.389   0.994  1.00  0.00     0.036 C 
BRANCH   4   5
HETATM    5  C11 UNL     1       3.274  -0.278  -0.245  1.00  0.00     0.174 C 
BRANCH   5   6
HETATM    6  N3  UNL     1       4.518   0.370  -0.606  1.00  0.00    -0.201 N 
HETATM    7  N4  UNL     1       4.830   1.404  -1.385  1.00  0.00    -0.209 N 
HETATM    8  N5  UNL     1       6.093   1.228  -1.093  1.00  0.00    -0.209 N 
ATOM      9  H4  UNL     1       4.305   2.058  -1.965  1.00  0.00     0.211 HD
HETATM   10  N6  UNL     1       5.789   0.195  -0.312  1.00  0.00    -0.205 N 
ATOM     11  H5  UNL     1       6.961   1.695  -1.357  1.00  0.00     0.211 HD
HETATM   12  C12 UNL     1       6.568  -0.715   0.501  1.00  0.00     0.203 C 
ENDBRANCH   5   6
ENDBRANCH   4   5
ENDBRANCH   3   4
ENDBRANCH   2   3
BRANCH   1  13
HETATM   13  C6  UNL     1      -1.418   0.140  -1.596  1.00  0.00     0.222 C 
BRANCH  13  14
HETATM   14  N2  UNL     1      -2.707   0.004  -0.981  1.00  0.00    -0.341 N 
HETATM   15  C5  UNL     1      -3.345   1.058  -0.490  1.00  0.00     0.185 A 
HETATM   16  N1  UNL     1      -4.556   0.995   0.099  1.00  0.00    -0.357 N 
HETATM   17  C3  UNL     1      -5.125  -0.223   0.176  1.00  0.00     0.099 A 
HETATM   18  C4  UNL     1      -5.199   2.167   0.613  1.00  0.00     0.156 C 
HETATM   19  C2  UNL     1      -4.498  -1.346  -0.321  1.00  0.00    -0.031 A 
HETATM   20  C1  UNL     1      -5.091  -2.707  -0.255  1.00  0.00     0.051 C 
HETATM   21  C13 UNL     1      -3.257  -1.220  -0.914  1.00  0.00     0.100 A 
ENDBRANCH  13  14
ENDBRANCH   1  13
TORSDOF 6
