REMARK  4 active torsions:
REMARK  status: ('A' for Active; 'I' for Inactive)
REMARK    1  A    between atoms: C3_3  and  N1_4 
REMARK    2  A    between atoms: N1_4  and  C4_5 
REMARK    3  A    between atoms: C4_5  and  C5_6 
REMARK    4  A    between atoms: C6_7  and  N2_8 
REMARK       I    between atoms: N2_8  and  C7_10 
ROOT
HETATM    1  C1  UNL     1      -2.728   3.250   0.059  1.00  0.00     0.013 C 
HETATM    2  C2  UNL     1      -2.135   2.298  -0.387  1.00  0.00    -0.089 C 
HETATM    3  C3  UNL     1      -1.413   1.131  -0.949  1.00  0.00     0.332 C 
ENDROOT
BRANCH   3   4
HETATM    4  N1  UNL     1      -0.990   0.216   0.069  1.00  0.00    -0.031 N 
HETATM    5  C8  UNL     1      -0.633  -1.040  -0.538  1.00  0.00     0.205 C 
HETATM    6  C9  UNL     1      -0.306  -1.809   0.734  1.00  0.00     0.041 C 
HETATM    7  C12 UNL     1      -2.001  -1.614  -0.903  1.00  0.00     0.089 C 
HETATM    8  C10 UNL     1      -1.733  -1.688   1.299  1.00  0.00     0.027 C 
HETATM    9  C11 UNL     1      -2.308  -2.637   0.218  1.00  0.00     0.021 C 
HETATM   10  C14 UNL     1      -2.121  -0.300   0.869  1.00  0.00     0.266 C 
HETATM   11  C13 UNL     1      -2.948  -0.613  -0.333  1.00  0.00     0.164 C 
HETATM   12  O2  UNL     1      -3.986  -0.171  -0.647  1.00  0.00    -0.295 OA
BRANCH   4  13
HETATM   13  C4  UNL     1      -0.027   0.839   0.885  1.00  0.00     0.335 C 
BRANCH  13  14
HETATM   14  C5  UNL     1       1.315   0.884   0.278  1.00  0.00    -0.055 C 
HETATM   15  C6  UNL     1       2.419   0.902  -0.210  1.00  0.00     0.015 C 
BRANCH  15  16
HETATM   16  N2  UNL     1       3.704   0.904  -0.763  1.00  0.00    -0.270 N 
HETATM   17  C7  UNL     1       4.879   0.988   0.021  1.00  0.00     0.340 C 
HETATM   18  N3  UNL     1       6.173   0.989  -0.541  1.00  0.00    -0.039 NA
HETATM   19  O1  UNL     1       4.764   1.065   1.264  1.00  0.00    -0.250 OA
ATOM     20  H2  UNL     1       3.798   0.842  -1.777  1.00  0.00     0.180 HD
ENDBRANCH  15  16
ENDBRANCH  13  14
ENDBRANCH   4  13
ENDBRANCH   3   4
TORSDOF 4
