REMARK  2 active torsions:
REMARK  status: ('A' for Active; 'I' for Inactive)
REMARK    1  A    between atoms: O1_1  and  N1_3 
REMARK    2  A    between atoms: N1_3  and  C1_4 
ROOT
HETATM    1  C1  UNL     1       1.036  -0.009  -0.287  1.00  0.00     0.057 C 
HETATM    2  C2  UNL     1       0.830  -1.445   0.195  1.00  0.00     0.029 C 
HETATM    3  C3  UNL     1      -0.293  -1.555   1.175  1.00  0.00     0.007 C 
HETATM    4  C4  UNL     1      -1.355  -0.552   0.851  1.00  0.00    -0.010 C 
HETATM    5  C5  UNL     1      -1.762  -0.734  -0.595  1.00  0.00     0.010 C 
HETATM    6  C6  UNL     1      -1.214   0.506  -1.282  1.00  0.00    -0.012 C 
HETATM    7  C7  UNL     1      -1.462   1.563  -0.227  1.00  0.00     0.010 C 
HETATM    8  C8  UNL     1      -0.874   0.860   1.004  1.00  0.00    -0.008 C 
HETATM    9  C9  UNL     1       0.644   0.959   0.819  1.00  0.00     0.034 C 
HETATM   10  C10 UNL     1       0.246   0.282  -1.523  1.00  0.00     0.034 C 
ENDROOT
BRANCH   1  11
HETATM   11  N1  UNL     1       2.439   0.146  -0.518  1.00  0.00    -0.093 NA
BRANCH  11  12
HETATM   12  O1  UNL     1       3.184  -0.057   0.563  1.00  0.00    -0.295 OA
ATOM     13  H1  UNL     1       4.116   0.046   0.410  1.00  0.00     0.238 HD
ENDBRANCH  11  12
ENDBRANCH   1  11
TORSDOF 2
