REMARK  10 active torsions:
REMARK  status: ('A' for Active; 'I' for Inactive)
REMARK    1  A    between atoms: N3_5  and  C3_6 
REMARK    2  A    between atoms: C4_9  and  N5_10 
REMARK    3  A    between atoms: N5_10  and  C5_12 
REMARK    4  A    between atoms: C5_12  and  O1_13 
REMARK    5  A    between atoms: C5_12  and  N6_15 
REMARK    6  A    between atoms: N6_15  and  N7_16 
REMARK    7  A    between atoms: N7_16  and  C6_18 
REMARK    8  A    between atoms: N8_22  and  O2_23 
REMARK    9  A    between atoms: C11_30  and  N11_31 
REMARK   10  A    between atoms: C12_36  and  N13_37 
ROOT
HETATM    1  C5  UNL     1       0.927   2.369   0.275  1.00  0.00     0.353 C 
ENDROOT
BRANCH   1   2
HETATM    2  N5  UNL     1      -0.442   1.998   0.413  1.00  0.00    -0.182 N 
ATOM      3  H5  UNL     1      -0.879   2.313   1.279  1.00  0.00     0.181 HD
BRANCH   2   4
HETATM    4  C4  UNL     1      -1.203   1.350  -0.347  1.00  0.00     0.710 A 
HETATM    5  N4  UNL     1      -2.485   1.167   0.093  1.00  0.00    -0.020 N 
HETATM    6  C3  UNL     1      -3.412   0.499  -0.607  1.00  0.00     0.726 A 
ATOM      7  H4  UNL     1      -2.748   1.558   0.998  1.00  0.00     0.203 HD
HETATM    8  N14 UNL     1      -3.013  -0.004  -1.806  1.00  0.00    -0.020 N 
HETATM    9  C12 UNL     1      -1.761   0.156  -2.270  1.00  0.00     0.705 A 
ATOM     10  H14 UNL     1      -3.686  -0.520  -2.372  1.00  0.00     0.203 HD
HETATM   11  N12 UNL     1      -0.861   0.833  -1.538  1.00  0.00    -0.022 N 
ATOM     12  H12 UNL     1       0.089   0.955  -1.889  1.00  0.00     0.203 HD
BRANCH   6  13
HETATM   13  N3  UNL     1      -4.741   0.313  -0.136  1.00  0.00    -0.097 N 
HETATM   14  N2  UNL     1      -5.223   0.781   1.069  1.00  0.00    -0.092 NA
HETATM   15  C2  UNL     1      -6.607   0.376   1.155  1.00  0.00     0.409 C 
HETATM   16  N1  UNL     1      -6.830  -0.638   0.143  1.00  0.00     0.119 N 
HETATM   17  C1  UNL     1      -6.712  -1.984   0.673  1.00  0.00     0.314 C 
HETATM   18  C13 UNL     1      -5.790  -0.394  -0.845  1.00  0.00     0.436 C 
ENDBRANCH   6  13
BRANCH   9  19
HETATM   19  N13 UNL     1      -1.405  -0.326  -3.404  1.00  0.00    -0.234 N 
ATOM     20 2H13 UNL     1      -0.455  -0.205  -3.756  1.00  0.00     0.174 HD
ATOM     21 1H13 UNL     1      -2.088  -0.840  -3.960  1.00  0.00     0.174 HD
ENDBRANCH   9  19
ENDBRANCH   2   4
ENDBRANCH   1   2
BRANCH   1  22
HETATM   22  O1  UNL     1       1.107   2.977  -0.968  1.00  0.00    -0.361 OA
ATOM     23  H1  UNL     1       2.020   3.224  -1.060  1.00  0.00     0.213 HD
ENDBRANCH   1  22
BRANCH   1  24
HETATM   24  N6  UNL     1       1.765   1.226   0.459  1.00  0.00    -0.087 NA
BRANCH  24  25
HETATM   25  N7  UNL     1       3.109   1.500   0.445  1.00  0.00    -0.296 N 
ATOM     26  H7  UNL     1       3.404   2.475   0.398  1.00  0.00     0.182 HD
BRANCH  25  27
HETATM   27  C6  UNL     1       4.104   0.502   0.492  1.00  0.00     0.096 A 
HETATM   28  C7  UNL     1       4.687   0.024  -0.673  1.00  0.00     0.051 A 
HETATM   29  C8  UNL     1       5.661  -0.951  -0.554  1.00  0.00     0.031 A 
HETATM   30  C9  UNL     1       6.442  -1.643  -1.458  1.00  0.00     0.158 A 
HETATM   31  C10 UNL     1       5.997  -1.392   0.706  1.00  0.00     0.135 A 
HETATM   32  N8  UNL     1       7.228  -2.478  -0.765  1.00  0.00    -0.172 N 
HETATM   33  N9  UNL     1       6.963  -2.329   0.532  1.00  0.00    -0.259 N 
ATOM     34  H9  UNL     1       7.420  -2.844   1.285  1.00  0.00     0.191 HD
HETATM   35  N10 UNL     1       5.419  -0.916   1.825  1.00  0.00    -0.320 N 
HETATM   36  C11 UNL     1       4.464   0.038   1.754  1.00  0.00     0.203 A 
ATOM     37  H10 UNL     1       5.704  -1.279   2.735  1.00  0.00     0.169 HD
BRANCH  32  38
HETATM   38  O2  UNL     1       8.165  -3.358  -1.221  1.00  0.00    -0.268 OA
ATOM     39  H2  UNL     1       8.722  -3.950  -0.730  1.00  0.00     0.247 HD
ENDBRANCH  32  38
BRANCH  36  40
HETATM   40  N11 UNL     1       3.852   0.536   2.945  1.00  0.00    -0.095 N 
HETATM   41  O3  UNL     1       3.788  -0.196   3.950  1.00  0.00    -0.530 OA
HETATM   42  O4  UNL     1       3.323   1.796   3.042  1.00  0.00    -0.530 OA
ENDBRANCH  36  40
ENDBRANCH  25  27
ENDBRANCH  24  25
ENDBRANCH   1  24
TORSDOF 10
