REMARK  10 active torsions:
REMARK  status: ('A' for Active; 'I' for Inactive)
REMARK    1  A    between atoms: C2_2  and  O1_3 
REMARK    2  A    between atoms: C2_2  and  C3_5 
REMARK    3  A    between atoms: C3_5  and  N1_6 
REMARK    4  A    between atoms: C5_8  and  C6_9 
REMARK    5  A    between atoms: C6_9  and  C7_10 
REMARK    6  A    between atoms: C8_15  and  C9_16 
REMARK    7  A    between atoms: C9_16  and  N4_17 
REMARK    8  A    between atoms: C12_22  and  N6_23 
REMARK    9  A    between atoms: C13_28  and  N8_29 
REMARK   10  A    between atoms: C14_36  and  N12_37 
ROOT
HETATM    1  N4  UNL     1      -3.040   0.232  -0.147  1.00  0.00    -0.326 N 
HETATM    2  C10 UNL     1      -4.307   0.760  -0.591  1.00  0.00     0.124 A 
HETATM    3  C11 UNL     1      -5.604   0.425  -0.166  1.00  0.00     0.164 A 
HETATM    4  N5  UNL     1      -6.702   1.032  -0.643  1.00  0.00    -0.173 N 
ATOM      5  H5  UNL     1      -7.635   0.773  -0.322  1.00  0.00     0.186 HD
HETATM    6  C12 UNL     1      -6.519   1.994  -1.561  1.00  0.00     0.679 A 
HETATM    7  N7  UNL     1      -5.302   2.343  -1.994  1.00  0.00    -0.175 N 
ATOM      8  H7  UNL     1      -5.209   3.079  -2.694  1.00  0.00     0.186 HD
HETATM    9  C13 UNL     1      -4.175   1.723  -1.508  1.00  0.00     0.145 A 
HETATM   10  N9  UNL     1      -5.933  -0.565   0.791  1.00  0.00    -0.270 N 
ATOM     11  H9  UNL     1      -6.927  -0.624   1.014  1.00  0.00     0.185 HD
HETATM   12  N10 UNL     1      -5.132  -1.471   1.480  1.00  0.00    -0.026 NA
HETATM   13  N11 UNL     1      -3.867  -0.951   1.685  1.00  0.00    -0.072 NA
HETATM   14  C14 UNL     1      -3.013  -1.072   0.486  1.00  0.00     0.397 C 
ENDROOT
BRANCH   1  15
HETATM   15  C9  UNL     1      -1.881   1.017  -0.345  1.00  0.00     0.204 C 
BRANCH  15  16
HETATM   16  C8  UNL     1      -0.860   0.353   0.561  1.00  0.00     0.117 A 
HETATM   17  N3  UNL     1      -0.803   0.459   1.925  1.00  0.00    -0.286 N 
HETATM   18  N2  UNL     1       0.204  -0.220   2.380  1.00  0.00    -0.287 N 
ATOM     19  H3  UNL     1      -1.456   0.993   2.498  1.00  0.00     0.188 HD
HETATM   20  C7  UNL     1       0.841  -0.790   1.373  1.00  0.00     0.104 A 
ATOM     21  H2  UNL     1       0.464  -0.301   3.363  1.00  0.00     0.188 HD
HETATM   22  N13 UNL     1       0.190  -0.438   0.271  1.00  0.00    -0.327 N 
HETATM   23  C15 UNL     1       0.563  -0.854  -1.066  1.00  0.00     0.159 C 
BRANCH  20  24
HETATM   24  C6  UNL     1       2.046  -1.655   1.481  1.00  0.00     0.137 C 
BRANCH  24  25
HETATM   25  C5  UNL     1       3.309  -0.874   1.432  1.00  0.00     0.047 A 
HETATM   26  C4  UNL     1       4.083  -0.511   0.349  1.00  0.00     0.134 A 
HETATM   27  N1  UNL     1       5.156   0.203   0.781  1.00  0.00    -0.282 N 
HETATM   28  N15 UNL     1       5.046   0.279   2.096  1.00  0.00    -0.020 NA
HETATM   29  N14 UNL     1       3.943  -0.363   2.503  1.00  0.00    -0.286 N 
ATOM     30  H14 UNL     1       3.633  -0.451   3.471  1.00  0.00     0.184 HD
BRANCH  27  31
HETATM   31  C3  UNL     1       6.226   0.780  -0.036  1.00  0.00     0.177 C 
BRANCH  31  32
HETATM   32  C2  UNL     1       7.362  -0.210  -0.203  1.00  0.00     0.133 C 
HETATM   33  C1  UNL     1       8.423   0.441  -1.047  1.00  0.00     0.041 C 
BRANCH  32  34
HETATM   34  O1  UNL     1       6.935  -1.419  -0.721  1.00  0.00    -0.394 OA
ATOM     35  H1  UNL     1       6.265  -1.830  -0.188  1.00  0.00     0.210 HD
ENDBRANCH  32  34
ENDBRANCH  31  32
ENDBRANCH  27  31
ENDBRANCH  24  25
ENDBRANCH  20  24
ENDBRANCH  15  16
ENDBRANCH   1  15
BRANCH  14  36
HETATM   36  N12 UNL     1      -3.681  -2.105  -0.324  1.00  0.00    -0.043 N 
ATOM     37 3H12 UNL     1      -4.635  -1.829  -0.557  1.00  0.00     0.278 HD
ATOM     38 2H12 UNL     1      -3.288  -2.145  -1.265  1.00  0.00     0.278 HD
ATOM     39 1H12 UNL     1      -3.662  -3.022   0.121  1.00  0.00     0.278 HD
ENDBRANCH  14  36
BRANCH   9  40
HETATM   40  N8  UNL     1      -2.968   2.119  -2.030  1.00  0.00    -0.383 N 
ATOM     41  H82 UNL     1      -2.132   1.659  -1.669  1.00  0.00     0.157 HD
ATOM     42  H81 UNL     1      -2.867   2.854  -2.730  1.00  0.00     0.157 HD
ENDBRANCH   9  40
BRANCH   6  43
HETATM   43  N6  UNL     1      -7.556   2.604  -2.045  1.00  0.00    -0.234 N 
ATOM     44  H62 UNL     1      -8.484   2.338  -1.715  1.00  0.00     0.174 HD
ATOM     45  H61 UNL     1      -7.417   3.335  -2.743  1.00  0.00     0.174 HD
ENDBRANCH   6  43
TORSDOF 10
