REMARK  9 active torsions:
REMARK  status: ('A' for Active; 'I' for Inactive)
REMARK    1  A    between atoms: N2_4  and  C3_6 
REMARK    2  A    between atoms: C3_6  and  C4_7 
REMARK    3  A    between atoms: C4_7  and  C5_8 
REMARK    4  A    between atoms: C5_8  and  C6_9 
REMARK    5  A    between atoms: C6_9  and  C7_10 
REMARK    6  A    between atoms: C7_10  and  C8_11 
REMARK       I    between atoms: C8_11  and  N3_13 
REMARK    7  A    between atoms: N3_13  and  C9_15 
REMARK    8  A    between atoms: C24_30  and  O2_31 
REMARK    9  A    between atoms: C25_33  and  O3_34 
ROOT
HETATM    1  C9  UNL     1       0.502  -1.865   0.422  1.00  0.00     0.088 C 
HETATM    2  C10 UNL     1      -0.063  -3.183   0.857  1.00  0.00     0.026 C 
HETATM    3  C11 UNL     1      -1.565  -3.237   0.639  1.00  0.00     0.002 C 
HETATM    4  C12 UNL     1      -2.119  -1.939   1.227  1.00  0.00     0.005 C 
HETATM    5  C13 UNL     1      -1.804  -0.812   0.333  1.00  0.00    -0.004 C 
HETATM    6  C14 UNL     1      -0.448  -0.982  -0.283  1.00  0.00     0.013 C 
HETATM    7  C15 UNL     1       0.167   0.369  -0.511  1.00  0.00     0.007 C 
HETATM    8  C16 UNL     1      -0.715   1.241  -1.383  1.00  0.00     0.001 C 
HETATM    9  C17 UNL     1      -1.875   1.819  -0.624  1.00  0.00     0.005 C 
HETATM   10  C18 UNL     1      -3.132   0.992  -0.795  1.00  0.00    -0.002 C 
HETATM   11  C19 UNL     1      -2.835  -0.469  -0.712  1.00  0.00    -0.005 C 
HETATM   12  C20 UNL     1      -4.065  -1.317  -0.678  1.00  0.00     0.006 C 
HETATM   13  C21 UNL     1      -5.224  -0.718   0.062  1.00  0.00     0.013 C 
HETATM   14  C22 UNL     1      -5.495   0.702  -0.312  1.00  0.00    -0.008 C 
HETATM   15  C23 UNL     1      -5.815   0.868  -1.782  1.00  0.00     0.018 C 
HETATM   16  C24 UNL     1      -6.651   1.222   0.472  1.00  0.00     0.159 C 
HETATM   17  C25 UNL     1      -6.439   1.272   1.948  1.00  0.00     0.170 C 
HETATM   18  C26 UNL     1      -5.036   1.561   2.313  1.00  0.00     0.003 C 
HETATM   19  C27 UNL     1      -4.038   1.668   1.452  1.00  0.00    -0.022 C 
HETATM   20  C28 UNL     1      -4.255   1.502   0.025  1.00  0.00     0.023 C 
ENDROOT
BRANCH   1  21
HETATM   21  N3  UNL     1       1.565  -2.179  -0.548  1.00  0.00    -0.356 N 
HETATM   22  C8  UNL     1       2.910  -1.862  -0.323  1.00  0.00     0.217 C 
HETATM   23  O1  UNL     1       3.237  -1.293   0.733  1.00  0.00    -0.274 OA
ATOM     24  H3  UNL     1       1.311  -2.646  -1.418  1.00  0.00     0.162 HD
BRANCH  22  25
HETATM   25  C7  UNL     1       3.908  -2.209  -1.340  1.00  0.00     0.103 C 
BRANCH  25  26
HETATM   26  C6  UNL     1       5.294  -1.737  -1.116  1.00  0.00     0.009 C 
BRANCH  26  27
HETATM   27  C5  UNL     1       5.366  -0.247  -1.092  1.00  0.00     0.002 C 
BRANCH  27  28
HETATM   28  C4  UNL     1       6.830   0.126  -0.864  1.00  0.00     0.020 C 
BRANCH  28  29
HETATM   29  C3  UNL     1       6.881   1.644  -0.843  1.00  0.00     0.120 C 
BRANCH  29  30
HETATM   30  N2  UNL     1       8.218   2.120  -0.639  1.00  0.00    -0.382 N 
HETATM   31  C2  UNL     1       8.823   2.070   0.462  1.00  0.00     0.085 C 
HETATM   32  C1  UNL     1       8.218   1.509   1.675  1.00  0.00     0.085 C 
HETATM   33  N1  UNL     1      10.162   2.580   0.536  1.00  0.00    -0.088 NA
ATOM     34  H2  UNL     1       8.709   2.524  -1.437  1.00  0.00     0.160 HD
ENDBRANCH  29  30
ENDBRANCH  28  29
ENDBRANCH  27  28
ENDBRANCH  26  27
ENDBRANCH  25  26
ENDBRANCH  22  25
ENDBRANCH   1  21
BRANCH  16  35
HETATM   35  O2  UNL     1      -7.759   0.396   0.172  1.00  0.00    -0.392 OA
ATOM     36  H2  UNL     1      -8.496   0.727   0.672  1.00  0.00     0.210 HD
ENDBRANCH  16  35
BRANCH  17  37
HETATM   37  O3  UNL     1      -7.218   2.345   2.439  1.00  0.00    -0.389 OA
ATOM     38  H3  UNL     1      -7.083   2.377   3.379  1.00  0.00     0.210 HD
ENDBRANCH  17  37
TORSDOF 9
