REMARK  16 active torsions:
REMARK  status: ('A' for Active; 'I' for Inactive)
REMARK    1  A    between atoms: C2_2  and  O1_3 
REMARK    2  A    between atoms: C4_6  and  O2_7 
REMARK    3  A    between atoms: O2_7  and  C5_8 
REMARK    4  A    between atoms: C6_9  and  O3_10 
REMARK    5  A    between atoms: C7_12  and  N1_13 
REMARK    6  A    between atoms: C9_18  and  N2_19 
REMARK    7  A    between atoms: C10_23  and  O4_24 
REMARK    8  A    between atoms: O4_24  and  C11_25 
REMARK    9  A    between atoms: C11_25  and  C12_26 
REMARK   10  A    between atoms: C12_26  and  O5_27 
REMARK   11  A    between atoms: C12_26  and  C13_29 
REMARK   12  A    between atoms: C13_29  and  C14_30 
REMARK   13  A    between atoms: C14_30  and  O6_31 
REMARK   14  A    between atoms: C17_41  and  N5_42 
REMARK   15  A    between atoms: N5_42  and  O7_43 
REMARK   16  A    between atoms: C18_45  and  O8_47 
ROOT
HETATM    1  C1  UNL     1      -3.271   1.328  -2.974  1.00  0.00     0.054 C 
HETATM    2  C2  UNL     1      -2.970  -0.098  -2.573  1.00  0.00     0.114 C 
HETATM    3  C3  UNL     1      -1.581  -0.194  -2.130  1.00  0.00     0.052 C 
HETATM    4  C4  UNL     1      -0.978   0.084  -0.957  1.00  0.00     0.098 C 
HETATM    5  C15 UNL     1      -1.690   0.586   0.204  1.00  0.00     0.129 C 
HETATM    6  N3  UNL     1      -0.923   0.982   1.156  1.00  0.00    -0.394 N 
ATOM      7  H31 UNL     1      -1.423   1.335   1.972  1.00  0.00     0.156 HD
ATOM      8  H32 UNL     1       0.072   0.881   0.954  1.00  0.00     0.156 HD
HETATM    9  C16 UNL     1      -3.135   0.732   0.497  1.00  0.00     0.391 C 
HETATM   10  N4  UNL     1      -3.497   0.143   1.770  1.00  0.00     0.015 N 
ATOM     11  H41 UNL     1      -2.792   0.225   2.502  1.00  0.00     0.286 HD
ATOM     12  H42 UNL     1      -3.528  -0.876   1.783  1.00  0.00     0.286 HD
HETATM   13  C17 UNL     1      -4.758   0.803   2.051  1.00  0.00     0.372 C 
HETATM   14  C18 UNL     1      -4.526   2.170   1.440  1.00  0.00     0.209 C 
HETATM   15  C19 UNL     1      -4.510   3.190   2.549  1.00  0.00     0.083 C 
HETATM   16  O9  UNL     1      -3.268   2.110   0.843  1.00  0.00    -0.288 OA
HETATM   17  O10 UNL     1      -3.999   0.515  -0.501  1.00  0.00    -0.304 OA
HETATM   18  C20 UNL     1      -3.861  -0.486  -1.384  1.00  0.00     0.271 C 
HETATM   19  C21 UNL     1      -3.511  -1.785  -0.887  1.00  0.00     0.095 C 
HETATM   20  N6  UNL     1      -3.242  -2.837  -0.505  1.00  0.00    -0.194 NA
ENDROOT
BRANCH   2  21
HETATM   21  O1  UNL     1      -3.187  -0.992  -3.604  1.00  0.00    -0.382 OA
ATOM     22  H1  UNL     1      -2.998  -1.888  -3.352  1.00  0.00     0.211 HD
ENDBRANCH   2  21
BRANCH   4  23
HETATM   23  O2  UNL     1       0.323  -0.144  -0.967  1.00  0.00    -0.339 OA
BRANCH  23  24
HETATM   24  C5  UNL     1       1.350  -0.362  -0.102  1.00  0.00     0.190 C 
HETATM   25  C6  UNL     1       1.243  -1.545   0.799  1.00  0.00     0.180 C 
HETATM   26  C7  UNL     1       2.475  -2.409   0.859  1.00  0.00     0.216 C 
HETATM   27  C8  UNL     1       2.961  -2.844  -0.492  1.00  0.00     0.071 C 
HETATM   28  C9  UNL     1       2.810  -1.796  -1.547  1.00  0.00     0.217 C 
HETATM   29  C10 UNL     1       2.717  -0.448  -0.850  1.00  0.00     0.183 C 
BRANCH  25  30
HETATM   30  O3  UNL     1       0.110  -2.344   0.514  1.00  0.00    -0.391 OA
ATOM     31  H3  UNL     1       0.042  -3.098   1.088  1.00  0.00     0.210 HD
ENDBRANCH  25  30
BRANCH  26  32
HETATM   32  N1  UNL     1       2.082  -3.634   1.573  1.00  0.00    -0.072 N 
ATOM     33  H13 UNL     1       1.667  -3.455   2.487  1.00  0.00     0.274 HD
ATOM     34  H12 UNL     1       1.276  -4.104   1.160  1.00  0.00     0.274 HD
ATOM     35  H11 UNL     1       2.916  -4.219   1.614  1.00  0.00     0.274 HD
ENDBRANCH  26  32
BRANCH  28  36
HETATM   36  N2  UNL     1       1.695  -2.103  -2.373  1.00  0.00    -0.072 N 
ATOM     37  H23 UNL     1       1.758  -3.041  -2.770  1.00  0.00     0.274 HD
ATOM     38  H22 UNL     1       0.840  -2.229  -1.832  1.00  0.00     0.274 HD
ATOM     39  H21 UNL     1       1.592  -1.388  -3.093  1.00  0.00     0.274 HD
ENDBRANCH  28  36
BRANCH  29  40
HETATM   40  O4  UNL     1       2.985   0.601  -1.574  1.00  0.00    -0.379 OA
BRANCH  40  41
HETATM   41  C11 UNL     1       3.897   1.528  -1.551  1.00  0.00     0.200 C 
BRANCH  41  42
HETATM   42  C12 UNL     1       5.350   1.206  -1.736  1.00  0.00     0.144 C 
BRANCH  42  43
HETATM   43  O5  UNL     1       5.997   2.493  -1.723  1.00  0.00    -0.393 OA
ATOM     44  H5  UNL     1       6.917   2.289  -1.840  1.00  0.00     0.210 HD
ENDBRANCH  42  43
BRANCH  42  45
HETATM   45  C13 UNL     1       5.999   0.334  -0.726  1.00  0.00     0.060 C 
BRANCH  45  46
HETATM   46  C14 UNL     1       5.949   0.979   0.638  1.00  0.00     0.166 C 
BRANCH  46  47
HETATM   47  O6  UNL     1       6.579   0.145   1.573  1.00  0.00    -0.401 OA
ATOM     48  H6  UNL     1       6.548   0.551   2.431  1.00  0.00     0.209 HD
ENDBRANCH  46  47
ENDBRANCH  45  46
ENDBRANCH  42  45
ENDBRANCH  41  42
ENDBRANCH  40  41
ENDBRANCH  29  40
ENDBRANCH  23  24
ENDBRANCH   4  23
BRANCH  13  49
HETATM   49  N5  UNL     1      -5.842   0.101   1.434  1.00  0.00    -0.064 NA
BRANCH  49  50
HETATM   50  O7  UNL     1      -7.038   0.643   1.647  1.00  0.00    -0.294 OA
ATOM     51  H7  UNL     1      -7.757   0.177   1.237  1.00  0.00     0.238 HD
ENDBRANCH  49  50
ENDBRANCH  13  49
BRANCH  14  52
HETATM   52  O8  UNL     1      -5.459   2.477   0.458  1.00  0.00    -0.363 OA
ATOM     53  H8  UNL     1      -5.314   3.334   0.075  1.00  0.00     0.213 HD
ENDBRANCH  14  52
TORSDOF 16
