REMARK  11 active torsions:
REMARK  status: ('A' for Active; 'I' for Inactive)
REMARK    1  A    between atoms: N1_1  and  C1_4 
REMARK    2  A    between atoms: C4_10  and  N4_11 
REMARK    3  A    between atoms: C6_14  and  N6_15 
REMARK    4  A    between atoms: C7_18  and  N7_19 
REMARK    5  A    between atoms: C8_24  and  N9_25 
REMARK    6  A    between atoms: N9_25  and  C9_27 
REMARK    7  A    between atoms: C9_27  and  C10_28 
REMARK    8  A    between atoms: C10_28  and  N10_29 
REMARK       I    between atoms: N10_29  and  C11_31 
REMARK    9  A    between atoms: C11_31  and  C12_33 
REMARK   10  A    between atoms: C13_38  and  C14_39 
REMARK   11  A    between atoms: C15_43  and  N13_44 
ROOT
HETATM    1  N4  UNL     1      -2.331   0.271   0.301  1.00  0.00    -0.265 N 
HETATM    2  C5  UNL     1      -3.081   0.031   1.393  1.00  0.00     0.163 C 
HETATM    3  N5  UNL     1      -4.506   0.099   1.253  1.00  0.00    -0.079 NA
HETATM    4  C6  UNL     1      -2.583  -0.281   2.663  1.00  0.00     0.187 C 
HETATM    5  C7  UNL     1      -1.303  -0.646   3.032  1.00  0.00     0.137 C 
HETATM    6  N8  UNL     1      -0.328  -1.073   2.169  1.00  0.00    -0.324 N 
ATOM      7  H8  UNL     1       0.460  -1.559   2.597  1.00  0.00     0.169 HD
HETATM    8  C8  UNL     1      -0.274  -0.936   0.832  1.00  0.00     0.148 C 
HETATM    9  C15 UNL     1      -1.057  -0.092   0.054  1.00  0.00     0.153 C 
ENDROOT
BRANCH   8  10
HETATM   10  N9  UNL     1       0.672  -1.753   0.184  1.00  0.00    -0.372 N 
ATOM     11  H9  UNL     1       0.733  -1.704  -0.833  1.00  0.00     0.161 HD
BRANCH  10  12
HETATM   12  C9  UNL     1       1.561  -2.657   0.876  1.00  0.00     0.141 C 
BRANCH  12  13
HETATM   13  C10 UNL     1       2.545  -1.988   1.779  1.00  0.00     0.142 C 
BRANCH  13  14
HETATM   14  N10 UNL     1       3.394  -1.070   1.044  1.00  0.00    -0.354 N 
HETATM   15  C11 UNL     1       4.235  -1.468  -0.004  1.00  0.00     0.276 C 
HETATM   16  O3  UNL     1       4.367  -2.621  -0.431  1.00  0.00    -0.265 OA
ATOM     17  H10 UNL     1       3.378  -0.084   1.303  1.00  0.00     0.162 HD
BRANCH  15  18
HETATM   18  C12 UNL     1       5.057  -0.440  -0.685  1.00  0.00     0.159 A 
HETATM   19  N11 UNL     1       5.107   0.864  -0.432  1.00  0.00    -0.288 N 
HETATM   20  N12 UNL     1       5.867   1.607  -1.113  1.00  0.00    -0.287 N 
ATOM     21  H11 UNL     1       4.533   1.263   0.310  1.00  0.00     0.188 HD
HETATM   22  C13 UNL     1       6.612   1.080  -2.079  1.00  0.00     0.168 A 
ATOM     23  H12 UNL     1       5.909   2.608  -0.923  1.00  0.00     0.188 HD
HETATM   24  S1  UNL     1       6.171  -0.570  -1.973  1.00  0.00    -0.040 SA
BRANCH  22  25
HETATM   25  C14 UNL     1       7.558   1.763  -2.987  1.00  0.00     0.235 C 
HETATM   26  O4  UNL     1       8.195   1.147  -3.850  1.00  0.00    -0.642 OA
HETATM   27  O5  UNL     1       7.706   3.118  -2.839  1.00  0.00    -0.642 OA
ENDBRANCH  22  25
ENDBRANCH  15  18
ENDBRANCH  13  14
ENDBRANCH  12  13
ENDBRANCH  10  12
ENDBRANCH   8  10
BRANCH   9  28
HETATM   28  N13 UNL     1      -0.478   0.374  -0.997  1.00  0.00    -0.382 N 
ATOM     29 2H13 UNL     1      -1.053   0.994  -1.568  1.00  0.00     0.157 HD
ATOM     30 1H13 UNL     1       0.486   0.099  -1.184  1.00  0.00     0.157 HD
ENDBRANCH   9  28
BRANCH   5  31
HETATM   31  N7  UNL     1      -1.005  -0.579   4.283  1.00  0.00    -0.383 N 
ATOM     32  H72 UNL     1      -1.731  -0.261   4.925  1.00  0.00     0.157 HD
ATOM     33  H71 UNL     1      -0.060  -0.849   4.555  1.00  0.00     0.157 HD
ENDBRANCH   5  31
BRANCH   1  34
HETATM   34  C4  UNL     1      -2.974   0.995  -0.701  1.00  0.00     0.133 A 
HETATM   35  C3  UNL     1      -3.966   0.407  -1.457  1.00  0.00     0.095 A 
HETATM   36  C2  UNL     1      -4.570   1.169  -2.434  1.00  0.00     0.135 A 
HETATM   37  N2  UNL     1      -4.169   2.452  -2.611  1.00  0.00    -0.179 N 
HETATM   38  N3  UNL     1      -5.597   0.588  -3.226  1.00  0.00    -0.082 NA
HETATM   39  C1  UNL     1      -3.197   2.997  -1.857  1.00  0.00     0.678 A 
ATOM     40  H2  UNL     1      -4.615   3.018  -3.333  1.00  0.00     0.185 HD
HETATM   41  N14 UNL     1      -2.599   2.269  -0.901  1.00  0.00    -0.176 N 
ATOM     42  H14 UNL     1      -1.863   2.682  -0.329  1.00  0.00     0.186 HD
BRANCH  39  43
HETATM   43  N1  UNL     1      -2.869   4.225  -2.084  1.00  0.00    -0.234 N 
ATOM     44  H12 UNL     1      -3.323   4.778  -2.811  1.00  0.00     0.174 HD
ATOM     45  H11 UNL     1      -2.132   4.638  -1.512  1.00  0.00     0.174 HD
ENDBRANCH  39  43
ENDBRANCH   1  34
BRANCH   4  46
HETATM   46  N6  UNL     1      -3.535  -0.207   3.703  1.00  0.00    -0.108 N 
HETATM   47  O1  UNL     1      -3.914   0.905   4.091  1.00  0.00    -0.532 OA
HETATM   48  O2  UNL     1      -4.050  -1.326   4.294  1.00  0.00    -0.532 OA
ENDBRANCH   4  46
TORSDOF 11
