REMARK  8 active torsions:
REMARK  status: ('A' for Active; 'I' for Inactive)
REMARK    1  A    between atoms: C2_2  and  C4_4 
REMARK    2  A    between atoms: C4_4  and  C5_5 
REMARK    3  A    between atoms: C5_5  and  C6_6 
REMARK    4  A    between atoms: C5_5  and  C8_9 
REMARK    5  A    between atoms: C8_9  and  O1_10 
REMARK    6  A    between atoms: C8_9  and  N2_12 
REMARK    7  A    between atoms: N2_12  and  C10_14 
REMARK    8  A    between atoms: C15_22  and  C16_23 
ROOT
HETATM    1  C6  UNL     1       2.425  -0.949   2.166  1.00  0.00     0.162 C 
HETATM    2  C7  UNL     1       2.174  -2.324   1.798  1.00  0.00     0.063 C 
HETATM    3  N1  UNL     1       1.980  -3.418   1.484  1.00  0.00    -0.197 NA
ENDROOT
BRANCH   1   4
HETATM    4  C5  UNL     1       2.170   0.068   1.109  1.00  0.00    -0.016 C 
BRANCH   4   5
HETATM    5  C4  UNL     1       2.930  -0.014  -0.157  1.00  0.00     0.043 C 
BRANCH   5   6
HETATM    6  C2  UNL     1       4.403   0.124  -0.116  1.00  0.00    -0.019 C 
HETATM    7  C1  UNL     1       4.871   0.011  -1.590  1.00  0.00     0.010 C 
HETATM    8  C3  UNL     1       5.209  -0.845   0.648  1.00  0.00     0.010 C 
ENDBRANCH   5   6
ENDBRANCH   4   5
BRANCH   4   9
HETATM    9  C8  UNL     1       0.761   0.521   1.003  1.00  0.00     0.141 C 
BRANCH   9  10
HETATM   10  O1  UNL     1       0.389   1.365   1.934  1.00  0.00    -0.346 OA
ATOM     11  H1  UNL     1      -0.513   1.655   1.866  1.00  0.00     0.219 HD
ENDBRANCH   9  10
BRANCH   9  12
HETATM   12  N2  UNL     1      -0.204   0.165   0.053  1.00  0.00    -0.360 N 
HETATM   13  C9  UNL     1       0.076  -0.726  -1.029  1.00  0.00     0.152 C 
BRANCH  12  14
HETATM   14  C10 UNL     1      -1.528   0.706   0.132  1.00  0.00     0.101 C 
HETATM   15  C11 UNL     1      -1.667   1.575  -1.140  1.00  0.00     0.051 C 
HETATM   16  C12 UNL     1      -2.661   2.633  -0.805  1.00  0.00     0.082 C 
HETATM   17  C13 UNL     1      -2.761   3.670  -1.871  1.00  0.00     0.032 C 
HETATM   18  N3  UNL     1      -3.926   1.899  -0.626  1.00  0.00    -0.356 N 
HETATM   19  C14 UNL     1      -3.903   0.689   0.126  1.00  0.00     0.224 C 
ATOM     20  H3  UNL     1      -4.795   2.248  -1.030  1.00  0.00     0.162 HD
HETATM   21  O2  UNL     1      -4.938   0.423   0.780  1.00  0.00    -0.273 OA
HETATM   22  C15 UNL     1      -2.678  -0.210   0.115  1.00  0.00     0.104 C 
BRANCH  22  23
HETATM   23  C16 UNL     1      -2.884  -1.165   1.214  1.00  0.00    -0.008 C 
HETATM   24  C17 UNL     1      -1.830  -2.168   1.500  1.00  0.00     0.010 C 
HETATM   25  C18 UNL     1      -4.149  -1.977   0.870  1.00  0.00     0.010 C 
ENDBRANCH  22  23
ENDBRANCH  12  14
ENDBRANCH   9  12
ENDBRANCH   4   9
ENDBRANCH   1   4
TORSDOF 8
