REMARK  4 active torsions:
REMARK  status: ('A' for Active; 'I' for Inactive)
REMARK    1  A    between atoms: O1_2  and  C2_3 
REMARK    2  A    between atoms: C5_6  and  C6_7 
REMARK    3  A    between atoms: C7_8  and  C8_9 
REMARK    4  A    between atoms: C19_21  and  O2_22 
ROOT
HETATM    1  C6  UNL     1       0.681   0.754  -0.040  1.00  0.00     0.012 C 
HETATM    2  C7  UNL     1      -0.153  -0.245  -0.111  1.00  0.00     0.013 C 
ENDROOT
BRANCH   2   3
HETATM    3  C8  UNL     1      -1.598  -0.022   0.004  1.00  0.00    -0.020 A 
HETATM    4  C9  UNL     1      -2.465  -1.122  -0.077  1.00  0.00     0.026 A 
HETATM    5  C10 UNL     1      -3.831  -1.008   0.019  1.00  0.00    -0.009 A 
HETATM    6  C11 UNL     1      -4.676  -2.106  -0.063  1.00  0.00     0.014 A 
HETATM    7  C15 UNL     1      -4.373   0.244   0.205  1.00  0.00     0.044 A 
HETATM    8  C12 UNL     1      -6.046  -1.985   0.034  1.00  0.00     0.001 A 
HETATM    9  C13 UNL     1      -6.591  -0.732   0.219  1.00  0.00     0.002 A 
HETATM   10  C14 UNL     1      -5.752   0.365   0.302  1.00  0.00     0.030 A 
HETATM   11  N1  UNL     1      -3.556   1.305   0.284  1.00  0.00    -0.360 N 
HETATM   12  C16 UNL     1      -4.113   2.626   0.479  1.00  0.00     0.156 C 
HETATM   13  C17 UNL     1      -2.193   1.192   0.188  1.00  0.00     0.102 A 
ENDBRANCH   2   3
BRANCH   1  14
HETATM   14  C5  UNL     1       2.112   0.556  -0.151  1.00  0.00    -0.033 A 
HETATM   15  C4  UNL     1       2.927   1.692  -0.062  1.00  0.00     0.014 A 
HETATM   16  C3  UNL     1       4.288   1.543  -0.162  1.00  0.00     0.040 A 
HETATM   17  C2  UNL     1       4.858   0.294  -0.349  1.00  0.00     0.101 A 
HETATM   18  C19 UNL     1       4.056  -0.831  -0.437  1.00  0.00     0.102 A 
HETATM   19  C18 UNL     1       2.678  -0.683  -0.336  1.00  0.00     0.051 A 
BRANCH  17  20
HETATM   20  O1  UNL     1       6.241   0.178  -0.447  1.00  0.00    -0.353 OA
HETATM   21  C1  UNL     1       7.026   1.334  -0.354  1.00  0.00     0.210 C 
ENDBRANCH  17  20
BRANCH  18  22
HETATM   22  O2  UNL     1       4.668  -2.060  -0.624  1.00  0.00    -0.353 OA
HETATM   23  C20 UNL     1       3.944  -3.261  -0.726  1.00  0.00     0.210 C 
ENDBRANCH  18  22
ENDBRANCH   1  14
TORSDOF 4
