REMARK  3 active torsions:
REMARK  status: ('A' for Active; 'I' for Inactive)
REMARK    1  A    between atoms: C3_3  and  N1_4 
REMARK    2  A    between atoms: N2_7  and  C6_8 
REMARK    3  A    between atoms: C13_15  and  O1_16 
ROOT
HETATM    1  C1  UNL     1       4.582   3.125  -0.129  1.00  0.00     0.013 C 
HETATM    2  C2  UNL     1       4.297   1.954  -0.177  1.00  0.00    -0.087 C 
HETATM    3  C3  UNL     1       3.932   0.558  -0.223  1.00  0.00     0.365 C 
ENDROOT
BRANCH   3   4
HETATM    4  N1  UNL     1       2.583   0.366  -0.783  1.00  0.00     0.105 N 
HETATM    5  C4  UNL     1       1.672   0.915   0.186  1.00  0.00     0.293 C 
HETATM    6  C5  UNL     1       1.108  -0.198   1.048  1.00  0.00     0.150 C 
HETATM    7  N2  UNL     1       0.331  -1.044   0.206  1.00  0.00    -0.380 N 
HETATM    8  C13 UNL     1       1.068  -1.605  -0.858  1.00  0.00     0.244 C 
HETATM    9  C14 UNL     1       2.449  -1.033  -1.039  1.00  0.00     0.326 C 
BRANCH   7  10
HETATM   10  C6  UNL     1      -0.977  -0.579  -0.044  1.00  0.00     0.081 C 
HETATM   11  C7  UNL     1      -1.855  -0.514   1.187  1.00  0.00     0.025 C 
HETATM   12  C8  UNL     1      -2.519   0.812   1.379  1.00  0.00     0.002 C 
HETATM   13  C9  UNL     1      -3.355   1.307   0.290  1.00  0.00     0.000 C 
HETATM   14  C10 UNL     1      -3.161   0.744  -1.076  1.00  0.00     0.000 C 
HETATM   15  C11 UNL     1      -3.164  -0.742  -1.141  1.00  0.00     0.002 C 
HETATM   16  C12 UNL     1      -1.734  -1.277  -1.127  1.00  0.00     0.025 C 
ENDBRANCH   7  10
BRANCH   8  17
HETATM   17  O1  UNL     1       1.263  -2.976  -0.533  1.00  0.00    -0.375 OA
ATOM     18  H1  UNL     1       1.759  -3.354  -1.250  1.00  0.00     0.212 HD
ENDBRANCH   8  17
ENDBRANCH   3   4
TORSDOF 3
