REMARK  2 active torsions:
REMARK  status: ('A' for Active; 'I' for Inactive)
REMARK       I    between atoms: C1_2  and  N1_3 
REMARK    1  A    between atoms: C1_2  and  C10_15 
REMARK    2  A    between atoms: N1_3  and  C2_5 
ROOT
HETATM    1  C2  UNL     1       0.348  -0.812   0.882  1.00  0.00     0.089 C 
HETATM    2  C3  UNL     1       0.378  -2.001  -0.028  1.00  0.00     0.030 C 
HETATM    3  C4  UNL     1       1.135  -1.590  -1.264  1.00  0.00     0.071 C 
HETATM    4  C5  UNL     1       1.993  -0.414  -0.856  1.00  0.00     0.165 C 
HETATM    5  C6  UNL     1       1.543   0.004   0.501  1.00  0.00     0.093 C 
HETATM    6  O2  UNL     1       3.322  -0.894  -0.848  1.00  0.00    -0.355 OA
HETATM    7  C7  UNL     1       3.796  -0.691  -2.160  1.00  0.00     0.173 C 
HETATM    8  C8  UNL     1       4.199   0.792  -2.178  1.00  0.00     0.053 C 
HETATM    9  C9  UNL     1       2.947   1.534  -1.691  1.00  0.00     0.173 C 
HETATM   10  O3  UNL     1       1.894   0.630  -1.787  1.00  0.00    -0.355 OA
ENDROOT
BRANCH   1  11
HETATM   11  N1  UNL     1      -0.903  -0.111   0.689  1.00  0.00    -0.356 N 
HETATM   12  C1  UNL     1      -1.735   0.203   1.791  1.00  0.00     0.222 C 
HETATM   13  O1  UNL     1      -1.386  -0.126   2.951  1.00  0.00    -0.273 OA
ATOM     14  H1  UNL     1      -1.189   0.160  -0.252  1.00  0.00     0.162 HD
BRANCH  12  15
HETATM   15  C10 UNL     1      -3.023   0.916   1.629  1.00  0.00     0.078 C 
HETATM   16  C11 UNL     1      -3.704   1.188   2.965  1.00  0.00     0.014 C 
HETATM   17  C12 UNL     1      -5.012   0.770   2.304  1.00  0.00     0.002 C 
HETATM   18  C13 UNL     1      -4.168  -0.032   1.329  1.00  0.00     0.014 C 
ENDBRANCH  12  15
ENDBRANCH   1  11
TORSDOF 2
