REMARK  14 active torsions:
REMARK  status: ('A' for Active; 'I' for Inactive)
REMARK    1  A    between atoms: C1_2  and  C2_4 
REMARK    2  A    between atoms: C4_8  and  O3_9 
REMARK    3  A    between atoms: C5_11  and  O4_12 
REMARK    4  A    between atoms: C6_14  and  N2_15 
REMARK    5  A    between atoms: N3_17  and  C7_19 
REMARK    6  A    between atoms: C8_20  and  O5_21 
REMARK    7  A    between atoms: N4_23  and  O6_24 
REMARK    8  A    between atoms: N6_32  and  O8_34 
REMARK    9  A    between atoms: O8_34  and  C12_35 
REMARK   10  A    between atoms: C12_35  and  C13_36 
REMARK   11  A    between atoms: C13_36  and  O9_37 
REMARK   12  A    between atoms: C13_36  and  C14_39 
REMARK   13  A    between atoms: C14_39  and  O10_40 
REMARK   14  A    between atoms: C14_39  and  O11_42 
ROOT
HETATM    1  C7  UNL     1      -2.271  -0.815   0.334  1.00  0.00     0.152 A 
HETATM    2  C8  UNL     1      -1.642  -1.646   1.222  1.00  0.00     0.200 A 
HETATM    3  N4  UNL     1      -0.306  -1.815   1.263  1.00  0.00    -0.193 N 
HETATM    4  C9  UNL     1       0.489  -1.146   0.397  1.00  0.00     0.153 A 
HETATM    5  C10 UNL     1       1.821  -1.414   0.552  1.00  0.00     0.290 C 
HETATM    6  O7  UNL     1       2.142  -2.199   1.473  1.00  0.00    -0.265 OA
HETATM    7  N5  UNL     1       2.836  -0.918  -0.190  1.00  0.00    -0.152 N 
ATOM      8  H5  UNL     1       3.676  -1.494  -0.239  1.00  0.00     0.187 HD
HETATM    9  C11 UNL     1       2.876   0.237  -0.869  1.00  0.00     0.707 C 
HETATM   10  N6  UNL     1       3.901   0.932  -0.902  1.00  0.00    -0.096 N 
ATOM     11  H6  UNL     1       3.776   1.777  -1.459  1.00  0.00     0.213 HD
HETATM   12  N7  UNL     1       1.821   0.757  -1.565  1.00  0.00    -0.153 N 
ATOM     13  H7  UNL     1       2.062   1.469  -2.254  1.00  0.00     0.187 HD
HETATM   14  C15 UNL     1       0.522   0.468  -1.474  1.00  0.00     0.276 C 
HETATM   15  O12 UNL     1      -0.236   0.948  -2.376  1.00  0.00    -0.267 OA
HETATM   16  C16 UNL     1      -0.131  -0.297  -0.514  1.00  0.00     0.120 A 
HETATM   17  C17 UNL     1      -1.484  -0.114  -0.569  1.00  0.00     0.222 A 
HETATM   18  O13 UNL     1      -1.945   0.668  -1.420  1.00  0.00    -0.285 OA
ENDROOT
BRANCH   1  19
HETATM   19  N3  UNL     1      -3.663  -0.631   0.283  1.00  0.00    -0.293 N 
HETATM   20  N2  UNL     1      -4.225   0.341  -0.307  1.00  0.00    -0.295 N 
ATOM     21  H2  UNL     1      -3.641   1.035  -0.774  1.00  0.00     0.187 HD
ATOM     22  H3  UNL     1      -4.256  -1.319   0.747  1.00  0.00     0.187 HD
BRANCH  20  23
HETATM   23  C6  UNL     1      -5.636   0.501  -0.342  1.00  0.00     0.117 A 
HETATM   24  C2  UNL     1      -6.180   1.602   0.280  1.00  0.00     0.141 A 
HETATM   25  N1  UNL     1      -7.512   1.778   0.264  1.00  0.00    -0.356 N 
HETATM   26  C3  UNL     1      -8.357   0.908  -0.346  1.00  0.00     0.128 A 
ATOM     27  H1  UNL     1      -7.904   2.597   0.728  1.00  0.00     0.165 HD
HETATM   28  C4  UNL     1      -7.830  -0.209  -0.979  1.00  0.00     0.116 A 
HETATM   29  C5  UNL     1      -6.467  -0.416  -0.979  1.00  0.00     0.131 A 
BRANCH  24  30
HETATM   30  C1  UNL     1      -5.285   2.543   0.938  1.00  0.00     0.229 C 
HETATM   31  O1  UNL     1      -4.048   2.394   0.963  1.00  0.00    -0.643 OA
HETATM   32  O2  UNL     1      -5.848   3.648   1.559  1.00  0.00    -0.643 OA
ENDBRANCH  24  30
BRANCH  28  33
HETATM   33  O3  UNL     1      -8.732  -1.079  -1.595  1.00  0.00    -0.357 OA
ATOM     34  H3  UNL     1      -8.371  -1.844  -2.028  1.00  0.00     0.218 HD
ENDBRANCH  28  33
BRANCH  29  35
HETATM   35  O4  UNL     1      -5.939  -1.522  -1.606  1.00  0.00    -0.356 OA
ATOM     36  H4  UNL     1      -5.000  -1.665  -1.606  1.00  0.00     0.218 HD
ENDBRANCH  29  35
ENDBRANCH  20  23
ENDBRANCH   1  19
BRANCH   2  37
HETATM   37  O5  UNL     1      -2.411  -2.354   2.130  1.00  0.00    -0.343 OA
ATOM     38  H5  UNL     1      -1.975  -2.931   2.746  1.00  0.00     0.219 HD
ENDBRANCH   2  37
BRANCH   3  39
HETATM   39  O6  UNL     1       0.295  -2.658   2.168  1.00  0.00    -0.280 OA
ATOM     40  H6  UNL     1       1.237  -2.777   2.197  1.00  0.00     0.245 HD
ENDBRANCH   3  39
BRANCH  10  41
HETATM   41  O8  UNL     1       5.084   0.848  -0.406  1.00  0.00    -0.264 OA
BRANCH  41  42
HETATM   42  C12 UNL     1       5.869  -0.123   0.145  1.00  0.00     0.238 C 
BRANCH  42  43
HETATM   43  C13 UNL     1       7.251   0.396   0.570  1.00  0.00     0.199 C 
BRANCH  43  44
HETATM   44  O9  UNL     1       7.975  -0.657   1.117  1.00  0.00    -0.388 OA
ATOM     45  H9  UNL     1       8.830  -0.336   1.380  1.00  0.00     0.210 HD
ENDBRANCH  43  44
BRANCH  43  46
HETATM   46  C14 UNL     1       7.982   0.945  -0.641  1.00  0.00     0.284 C 
BRANCH  46  47
HETATM   47  O10 UNL     1       7.289   2.003  -1.219  1.00  0.00    -0.369 OA
ATOM     48  H10 UNL     1       7.747   2.347  -1.977  1.00  0.00     0.212 HD
ENDBRANCH  46  47
BRANCH  46  49
HETATM   49  O11 UNL     1       8.118  -0.054  -1.626  1.00  0.00    -0.369 OA
ATOM     50  H11 UNL     1       8.576   0.290  -2.384  1.00  0.00     0.212 HD
ENDBRANCH  46  49
ENDBRANCH  43  46
ENDBRANCH  42  43
ENDBRANCH  41  42
ENDBRANCH  10  41
TORSDOF 14
