REMARK  13 active torsions:
REMARK  status: ('A' for Active; 'I' for Inactive)
REMARK    1  A    between atoms: O1_2  and  C2_3 
REMARK    2  A    between atoms: C2_3  and  C3_5 
REMARK    3  A    between atoms: C3_5  and  O3_6 
REMARK    4  A    between atoms: C3_5  and  C14_32 
REMARK    5  A    between atoms: O3_6  and  N1_7 
REMARK    6  A    between atoms: C4_9  and  C5_10 
REMARK    7  A    between atoms: C6_13  and  C7_14 
REMARK    8  A    between atoms: C8_17  and  C9_18 
REMARK    9  A    between atoms: C9_18  and  O5_19 
REMARK   10  A    between atoms: C10_22  and  C11_23 
REMARK   11  A    between atoms: C12_26  and  O9_27 
REMARK   12  A    between atoms: C13_29  and  O10_30 
REMARK   13  A    between atoms: C16_37  and  N6_38 
ROOT
HETATM    1  C5  UNL     1       1.148  -0.638   1.002  1.00  0.00     0.086 A 
HETATM    2  N2  UNL     1       2.308  -0.000   0.656  1.00  0.00    -0.352 N 
ATOM      3  H2  UNL     1       2.256   0.955   0.300  1.00  0.00     0.166 HD
HETATM    4  C6  UNL     1       3.530  -0.593   0.769  1.00  0.00     0.077 A 
HETATM    5  C10 UNL     1       3.583  -1.863   1.242  1.00  0.00     0.103 A 
HETATM    6  C12 UNL     1       2.411  -2.556   1.611  1.00  0.00     0.120 A 
HETATM    7  C13 UNL     1       1.158  -1.914   1.484  1.00  0.00     0.128 A 
ENDROOT
BRANCH   1   8
HETATM    8  C4  UNL     1      -0.113   0.079   0.845  1.00  0.00     0.146 C 
HETATM    9  N1  UNL     1      -1.277  -0.335   1.107  1.00  0.00    -0.274 N 
ATOM     10  H1  UNL     1      -1.374  -1.282   1.473  1.00  0.00     0.193 HD
BRANCH   9  11
HETATM   11  O3  UNL     1      -2.399   0.390   0.935  1.00  0.00    -0.260 OA
BRANCH  11  12
HETATM   12  C3  UNL     1      -3.222   0.403  -0.198  1.00  0.00     0.293 C 
BRANCH  12  13
HETATM   13  C2  UNL     1      -3.239   1.735  -0.862  1.00  0.00     0.295 C 
HETATM   14  O2  UNL     1      -2.585   2.724  -0.445  1.00  0.00    -0.262 OA
BRANCH  13  15
HETATM   15  O1  UNL     1      -4.012   1.890  -1.994  1.00  0.00    -0.324 OA
HETATM   16  C1  UNL     1      -4.090   3.136  -2.702  1.00  0.00     0.213 C 
ENDBRANCH  13  15
ENDBRANCH  12  13
BRANCH  12  17
HETATM   17  C14 UNL     1      -4.600  -0.080   0.088  1.00  0.00     0.093 A 
HETATM   18  C15 UNL     1      -5.552   0.761   0.635  1.00  0.00     0.146 A 
HETATM   19  N4  UNL     1      -5.201   2.099   0.924  1.00  0.00    -0.081 NA
HETATM   20  N5  UNL     1      -6.805   0.297   0.887  1.00  0.00    -0.178 N 
HETATM   21  C16 UNL     1      -7.161  -0.972   0.620  1.00  0.00     0.680 A 
ATOM     22  H5  UNL     1      -7.495   0.930   1.291  1.00  0.00     0.185 HD
HETATM   23  N7  UNL     1      -6.245  -1.800   0.087  1.00  0.00    -0.156 N 
HETATM   24  C17 UNL     1      -4.990  -1.377  -0.178  1.00  0.00     0.272 A 
ATOM     25  H7  UNL     1      -6.503  -2.765  -0.121  1.00  0.00     0.187 HD
HETATM   26  O11 UNL     1      -4.140  -2.164  -0.677  1.00  0.00    -0.267 OA
BRANCH  21  27
HETATM   27  N6  UNL     1      -8.368  -1.397   0.869  1.00  0.00    -0.234 N 
ATOM     28  H62 UNL     1      -9.063  -0.769   1.273  1.00  0.00     0.174 HD
ATOM     29  H61 UNL     1      -8.638  -2.360   0.666  1.00  0.00     0.174 HD
ENDBRANCH  21  27
ENDBRANCH  12  17
ENDBRANCH  11  12
ENDBRANCH   9  11
ENDBRANCH   1   8
BRANCH   7  30
HETATM   30  O10 UNL     1       0.059  -2.612   1.850  1.00  0.00    -0.356 OA
ATOM     31  H10 UNL     1       0.066  -3.501   2.186  1.00  0.00     0.218 HD
ENDBRANCH   7  30
BRANCH   4  32
HETATM   32  C7  UNL     1       4.709   0.212   0.451  1.00  0.00     0.296 C 
HETATM   33  N3  UNL     1       4.507   1.612   0.914  1.00  0.00    -0.059 NA
HETATM   34  O4  UNL     1       5.484   2.266   0.244  1.00  0.00    -0.249 OA
HETATM   35  C8  UNL     1       5.832   1.504  -0.846  1.00  0.00     0.309 C 
HETATM   36  O6  UNL     1       4.942   0.429  -0.896  1.00  0.00    -0.328 OA
BRANCH  35  37
HETATM   37  C9  UNL     1       5.808   2.315  -2.119  1.00  0.00     0.226 C 
BRANCH  37  38
HETATM   38  O5  UNL     1       6.162   1.523  -3.201  1.00  0.00    -0.396 OA
ATOM     39  H5  UNL     1       6.147   2.033  -4.002  1.00  0.00     0.209 HD
ENDBRANCH  37  38
ENDBRANCH  35  37
ENDBRANCH   4  32
BRANCH   6  40
HETATM   40  O9  UNL     1       2.406  -3.830   2.090  1.00  0.00    -0.357 OA
ATOM     41  H9  UNL     1       1.617  -4.297   2.338  1.00  0.00     0.218 HD
ENDBRANCH   6  40
BRANCH   5  42
HETATM   42  C11 UNL     1       4.837  -2.644   1.314  1.00  0.00     0.214 C 
HETATM   43  O7  UNL     1       5.078  -3.205   2.570  1.00  0.00    -0.644 OA
HETATM   44  O8  UNL     1       5.914  -2.181   0.643  1.00  0.00    -0.644 OA
ENDBRANCH   5  42
TORSDOF 13
