REMARK  15 active torsions:
REMARK  status: ('A' for Active; 'I' for Inactive)
REMARK    1  A    between atoms: C2_2  and  C3_3 
REMARK    2  A    between atoms: C3_3  and  N1_4 
REMARK    3  A    between atoms: N1_4  and  C4_5 
REMARK    4  A    between atoms: N1_4  and  C7_8 
REMARK    5  A    between atoms: C4_5  and  C5_6 
REMARK    6  A    between atoms: C7_8  and  C8_10 
REMARK    7  A    between atoms: C9_11  and  O1_12 
REMARK       I    between atoms: N2_15  and  C11_16 
REMARK    8  A    between atoms: C11_16  and  C12_18 
REMARK    9  A    between atoms: C12_18  and  N3_19 
REMARK   10  A    between atoms: C12_18  and  C18_28 
REMARK       I    between atoms: N3_19  and  C13_21 
REMARK   11  A    between atoms: C13_21  and  O4_23 
REMARK   12  A    between atoms: O4_23  and  C14_24 
REMARK   13  A    between atoms: C22_32  and  C23_33 
REMARK   14  A    between atoms: C23_33  and  O5_34 
REMARK   15  A    between atoms: N4_36  and  O6_38 
ROOT
HETATM    1  C8  UNL     1       2.220  -0.496   0.094  1.00  0.00     0.108 C 
HETATM    2  C9  UNL     1       1.801  -0.436  -1.334  1.00  0.00     0.149 C 
HETATM    3  C10 UNL     1       0.435  -1.064  -1.400  1.00  0.00     0.159 C 
HETATM    4  N2  UNL     1       0.101  -1.414  -0.035  1.00  0.00    -0.335 N 
HETATM    5  C11 UNL     1      -1.180  -1.498   0.537  1.00  0.00     0.244 C 
HETATM    6  O2  UNL     1      -1.414  -1.759   1.754  1.00  0.00    -0.271 OA
HETATM    7  C22 UNL     1       1.385  -1.669   0.637  1.00  0.00     0.176 C 
ENDROOT
BRANCH   5   8
HETATM    8  C12 UNL     1      -2.400  -1.276  -0.282  1.00  0.00     0.186 C 
BRANCH   8   9
HETATM    9  N3  UNL     1      -3.430  -0.556   0.442  1.00  0.00    -0.323 N 
HETATM   10  C13 UNL     1      -4.121   0.566  -0.148  1.00  0.00     0.362 C 
HETATM   11  O3  UNL     1      -3.862   0.966  -1.310  1.00  0.00    -0.238 OA
ATOM     12  H3  UNL     1      -3.672  -0.849   1.389  1.00  0.00     0.165 HD
BRANCH  10  13
HETATM   13  O4  UNL     1      -5.104   1.244   0.553  1.00  0.00    -0.294 OA
BRANCH  13  14
HETATM   14  C14 UNL     1      -5.848   2.327   0.099  1.00  0.00     0.061 C 
HETATM   15  C15 UNL     1      -5.074   3.540  -0.288  1.00  0.00     0.046 C 
HETATM   16  C16 UNL     1      -6.804   1.963  -1.018  1.00  0.00     0.046 C 
HETATM   17  C17 UNL     1      -6.741   2.745   1.280  1.00  0.00     0.046 C 
ENDBRANCH  13  14
ENDBRANCH  10  13
ENDBRANCH   8   9
BRANCH   8  18
HETATM   18  C18 UNL     1      -3.048  -2.608  -0.654  1.00  0.00    -0.022 C 
HETATM   19  C19 UNL     1      -4.286  -2.315  -1.484  1.00  0.00     0.017 C 
HETATM   20  C20 UNL     1      -3.452  -3.380   0.565  1.00  0.00     0.017 C 
HETATM   21  C21 UNL     1      -2.154  -3.484  -1.490  1.00  0.00     0.017 C 
ENDBRANCH   8  18
ENDBRANCH   5   8
BRANCH   7  22
HETATM   22  C23 UNL     1       1.336  -1.666   2.089  1.00  0.00     0.159 C 
HETATM   23  N4  UNL     1       1.672  -0.602   2.739  1.00  0.00    -0.249 N 
ATOM     24  H4  UNL     1       1.968   0.221   2.214  1.00  0.00     0.196 HD
BRANCH  22  25
HETATM   25  O5  UNL     1       0.932  -2.790   2.790  1.00  0.00    -0.347 OA
ATOM     26  H5  UNL     1       0.900  -2.788   3.739  1.00  0.00     0.219 HD
ENDBRANCH  22  25
BRANCH  23  27
HETATM   27  O6  UNL     1       1.646  -0.538   4.113  1.00  0.00    -0.288 OA
ATOM     28  H6  UNL     1       1.893   0.245   4.591  1.00  0.00     0.244 HD
ENDBRANCH  23  27
ENDBRANCH   7  22
BRANCH   2  29
HETATM   29  O1  UNL     1       2.707  -1.173  -2.148  1.00  0.00    -0.393 OA
ATOM     30  H1  UNL     1       2.440  -1.135  -3.059  1.00  0.00     0.210 HD
ENDBRANCH   2  29
BRANCH   1  31
HETATM   31  C7  UNL     1       3.651  -0.714   0.331  1.00  0.00     0.084 C 
HETATM   32  S1  UNL     1       4.247  -2.161   0.835  1.00  0.00    -0.065 SA
BRANCH  31  33
HETATM   33  N1  UNL     1       4.587   0.324   0.133  1.00  0.00    -0.375 N 
BRANCH  33  34
HETATM   34  C3  UNL     1       4.180   1.635  -0.296  1.00  0.00     0.123 C 
BRANCH  34  35
HETATM   35  C2  UNL     1       4.644   1.971  -1.691  1.00  0.00     0.015 C 
HETATM   36  C1  UNL     1       4.138   3.371  -1.997  1.00  0.00     0.006 C 
ENDBRANCH  34  35
ENDBRANCH  33  34
BRANCH  33  37
HETATM   37  C4  UNL     1       6.019   0.121   0.352  1.00  0.00     0.123 C 
BRANCH  37  38
HETATM   38  C5  UNL     1       6.498   0.906   1.555  1.00  0.00     0.015 C 
HETATM   39  C6  UNL     1       7.972   0.707   1.796  1.00  0.00     0.006 C 
ENDBRANCH  37  38
ENDBRANCH  33  37
ENDBRANCH  31  33
ENDBRANCH   1  31
TORSDOF 15
