REMARK  10 active torsions:
REMARK  status: ('A' for Active; 'I' for Inactive)
REMARK    1  A    between atoms: C5_14  and  N5_15 
REMARK    2  A    between atoms: N6_18  and  C6_19 
REMARK    3  A    between atoms: C6_19  and  C7_20 
REMARK    4  A    between atoms: C7_20  and  O1_21 
REMARK    5  A    between atoms: C7_20  and  C8_23 
REMARK    6  A    between atoms: C8_23  and  O3_25 
REMARK    7  A    between atoms: O3_25  and  N7_26 
REMARK    8  A    between atoms: N7_26  and  O4_27 
REMARK    9  A    between atoms: N8_29  and  N9_31 
REMARK   10  A    between atoms: N9_31  and  N10_33 
ROOT
HETATM    1  C1  UNL     1      -1.770  -2.082   0.801  1.00  0.00     0.177 C 
HETATM    2  N1  UNL     1      -2.801  -1.104   0.672  1.00  0.00    -0.170 N 
HETATM    3  C2  UNL     1      -4.048  -1.389   1.160  1.00  0.00     0.680 A 
HETATM    4  N2  UNL     1      -4.257  -2.516   1.753  1.00  0.00    -0.234 N 
ATOM      5  H21 UNL     1      -5.186  -2.728   2.117  1.00  0.00     0.174 HD
ATOM      6  H22 UNL     1      -3.474  -3.164   1.839  1.00  0.00     0.174 HD
HETATM    7  N3  UNL     1      -5.061  -0.550   1.049  1.00  0.00    -0.179 N 
ATOM      8  H3  UNL     1      -5.975  -0.802   1.426  1.00  0.00     0.185 HD
HETATM    9  C3  UNL     1      -4.893   0.614   0.451  1.00  0.00     0.147 A 
HETATM   10  S1  UNL     1      -6.092   1.713   0.269  1.00  0.00    -0.057 SA
HETATM   11  C4  UNL     1      -3.642   0.929  -0.052  1.00  0.00     0.133 A 
HETATM   12  N4  UNL     1      -3.210   1.991  -0.690  1.00  0.00    -0.185 N 
ATOM     13  H4  UNL     1      -3.767   2.812  -0.926  1.00  0.00     0.184 HD
HETATM   14  C5  UNL     1      -1.911   1.814  -0.979  1.00  0.00     0.680 A 
HETATM   15  N6  UNL     1      -1.476   0.613  -0.522  1.00  0.00    -0.162 N 
HETATM   16  C9  UNL     1      -2.568   0.050   0.061  1.00  0.00     0.171 A 
ENDROOT
BRANCH  15  17
HETATM   17  C6  UNL     1      -0.170   0.089  -0.619  1.00  0.00     0.191 C 
BRANCH  17  18
HETATM   18  C7  UNL     1       0.761   0.451   0.548  1.00  0.00     0.238 C 
BRANCH  18  19
HETATM   19  O1  UNL     1       0.886   1.820   0.623  1.00  0.00    -0.384 OA
ATOM     20  H1  UNL     1       1.462   2.044   1.345  1.00  0.00     0.210 HD
ENDBRANCH  18  19
BRANCH  18  21
HETATM   21  C8  UNL     1       2.075  -0.130   0.181  1.00  0.00     0.315 C 
HETATM   22  O2  UNL     1       2.257  -1.368   0.041  1.00  0.00    -0.260 OA
BRANCH  21  23
HETATM   23  O3  UNL     1       3.148   0.721  -0.016  1.00  0.00    -0.153 OA
BRANCH  23  24
HETATM   24  N7  UNL     1       4.393   0.248  -0.358  1.00  0.00    -0.030 N 
HETATM   25  N8  UNL     1       5.391   0.785   0.182  1.00  0.00    -0.180 N 
ATOM     26  H8  UNL     1       5.267   1.546   0.850  1.00  0.00     0.214 HD
BRANCH  24  27
HETATM   27  O4  UNL     1       4.540  -0.760  -1.244  1.00  0.00    -0.247 OA
ATOM     28  H4  UNL     1       5.400  -1.087  -1.480  1.00  0.00     0.249 HD
ENDBRANCH  24  27
BRANCH  25  29
HETATM   29  N9  UNL     1       6.670   0.333  -0.138  1.00  0.00    -0.231 N 
ATOM     30  H9  UNL     1       7.017   0.506  -1.082  1.00  0.00     0.209 HD
BRANCH  29  31
HETATM   31  N10 UNL     1       7.505  -0.341   0.753  1.00  0.00    -0.330 N 
ATOM     32 2H10 UNL     1       7.142  -0.505   1.692  1.00  0.00     0.178 HD
ATOM     33 1H10 UNL     1       8.441  -0.672   0.519  1.00  0.00     0.178 HD
ENDBRANCH  29  31
ENDBRANCH  25  29
ENDBRANCH  23  24
ENDBRANCH  21  23
ENDBRANCH  18  21
ENDBRANCH  17  18
ENDBRANCH  15  17
BRANCH  14  34
HETATM   34  N5  UNL     1      -1.198   2.668  -1.620  1.00  0.00    -0.234 N 
ATOM     35  H52 UNL     1      -1.525   3.571  -1.964  1.00  0.00     0.174 HD
ATOM     36  H51 UNL     1      -0.211   2.534  -1.840  1.00  0.00     0.174 HD
ENDBRANCH  14  34
TORSDOF 10
