REMARK  7 active torsions:
REMARK  status: ('A' for Active; 'I' for Inactive)
REMARK    1  A    between atoms: C2_2  and  C6_14 
REMARK    2  A    between atoms: N1_3  and  N2_5 
REMARK    3  A    between atoms: N2_5  and  C3_7 
REMARK    4  A    between atoms: N5_16  and  N6_18 
REMARK    5  A    between atoms: C8_19  and  N7_20 
REMARK    6  A    between atoms: N9_25  and  C9_26 
REMARK    7  A    between atoms: C10_32  and  N12_33 
ROOT
HETATM    1  N6  UNL     1      -1.753   0.728  -0.335  1.00  0.00    -0.029 N 
HETATM    2  C8  UNL     1      -2.101   0.868  -1.624  1.00  0.00     0.716 A 
HETATM    3  N8  UNL     1      -3.451   1.028  -1.628  1.00  0.00    -0.118 N 
ATOM      4  H8  UNL     1      -4.025   1.160  -2.461  1.00  0.00     0.206 HD
HETATM    5  N9  UNL     1      -3.903   0.987  -0.392  1.00  0.00    -0.167 N 
HETATM    6  C11 UNL     1      -2.859   0.802   0.424  1.00  0.00     0.384 A 
HETATM    7  O2  UNL     1      -2.924   0.715   1.666  1.00  0.00    -0.242 OA
ENDROOT
BRANCH   1   8
HETATM    8  N5  UNL     1      -0.449   0.538   0.142  1.00  0.00    -0.278 N 
HETATM    9  C6  UNL     1       0.121  -0.617   0.147  1.00  0.00     0.046 C 
HETATM   10  C7  UNL     1      -0.570  -1.838  -0.357  1.00  0.00     0.072 C 
ATOM     11  H5  UNL     1       0.067   1.343   0.498  1.00  0.00     0.188 HD
BRANCH   9  12
HETATM   12  C2  UNL     1       1.477  -0.726   0.660  1.00  0.00     0.045 C 
HETATM   13  C1  UNL     1       2.157  -2.053   0.676  1.00  0.00     0.072 C 
HETATM   14  N1  UNL     1       2.078   0.313   1.094  1.00  0.00    -0.301 N 
ATOM     15  H1  UNL     1       1.609   1.219   1.082  1.00  0.00     0.186 HD
BRANCH  14  16
HETATM   16  N2  UNL     1       3.374   0.205   1.583  1.00  0.00    -0.271 N 
ATOM     17  H2  UNL     1       3.525   0.072   2.583  1.00  0.00     0.190 HD
BRANCH  16  18
HETATM   18  C3  UNL     1       4.508   0.278   0.698  1.00  0.00     0.190 C 
HETATM   19  N3  UNL     1       5.478  -0.566   0.638  1.00  0.00    -0.360 N 
HETATM   20  C4  UNL     1       6.434  -0.172  -0.366  1.00  0.00     0.142 C 
ATOM     21  H3  UNL     1       5.559  -1.399   1.221  1.00  0.00     0.162 HD
HETATM   22  C5  UNL     1       6.105   1.284  -0.594  1.00  0.00     0.142 C 
HETATM   23  N4  UNL     1       4.703   1.322  -0.242  1.00  0.00    -0.360 N 
ATOM     24  H4  UNL     1       3.998   1.968  -0.597  1.00  0.00     0.162 HD
ENDBRANCH  16  18
ENDBRANCH  14  16
ENDBRANCH   9  12
ENDBRANCH   1   8
BRANCH   2  25
HETATM   25  N7  UNL     1      -1.293   0.850  -2.644  1.00  0.00    -0.231 N 
ATOM     26  H72 UNL     1      -0.280   0.730  -2.641  1.00  0.00     0.174 HD
ATOM     27  H71 UNL     1      -1.557   0.956  -3.623  1.00  0.00     0.174 HD
ENDBRANCH   2  25
BRANCH   5  28
HETATM   28  C9  UNL     1      -5.252   1.113   0.044  1.00  0.00     0.200 A 
HETATM   29  N10 UNL     1      -5.997   2.205   0.171  1.00  0.00    -0.220 N 
HETATM   30  O1  UNL     1      -7.159   1.864   0.597  1.00  0.00    -0.153 OA
ATOM     31  H10 UNL     1      -5.696   3.157  -0.036  1.00  0.00     0.198 HD
HETATM   32  N11 UNL     1      -7.226   0.593   0.761  1.00  0.00    -0.222 N 
HETATM   33  C10 UNL     1      -6.047   0.061   0.427  1.00  0.00     0.169 A 
ATOM     34  H11 UNL     1      -8.041   0.076   1.091  1.00  0.00     0.198 HD
BRANCH  33  35
HETATM   35  N12 UNL     1      -5.792  -1.201   0.483  1.00  0.00    -0.381 N 
ATOM     36 2H12 UNL     1      -4.892  -1.607   0.228  1.00  0.00     0.157 HD
ATOM     37 1H12 UNL     1      -6.383  -1.982   0.768  1.00  0.00     0.157 HD
ENDBRANCH  33  35
ENDBRANCH   5  28
TORSDOF 7
