REMARK  3 active torsions:
REMARK  status: ('A' for Active; 'I' for Inactive)
REMARK    1  A    between atoms: C2_2  and  C3_3 
REMARK    2  A    between atoms: C3_3  and  N1_4 
REMARK    3  A    between atoms: N1_4  and  C4_6 
ROOT
HETATM    1  C4  UNL     1      -1.649   0.578   0.062  1.00  0.00     0.706 A 
HETATM    2  N2  UNL     1      -2.533   1.364   0.680  1.00  0.00    -0.118 N 
ATOM      3  H2  UNL     1      -2.290   2.157   1.273  1.00  0.00     0.207 HD
HETATM    4  N3  UNL     1      -3.745   0.979   0.422  1.00  0.00    -0.212 N 
ATOM      5  H3  UNL     1      -4.610   1.399   0.763  1.00  0.00     0.206 HD
HETATM    6  N4  UNL     1      -3.628  -0.069  -0.373  1.00  0.00     0.009 NA
HETATM    7  N5  UNL     1      -2.356  -0.333  -0.608  1.00  0.00    -0.114 N 
ATOM      8  H5  UNL     1      -1.986  -1.086  -1.188  1.00  0.00     0.203 HD
ENDROOT
BRANCH   1   9
HETATM    9  N1  UNL     1      -0.396   0.740   0.150  1.00  0.00    -0.224 N 
ATOM     10  H1  UNL     1      -0.077   1.517   0.729  1.00  0.00     0.177 HD
BRANCH   9  11
HETATM   11  C3  UNL     1       0.620  -0.051  -0.476  1.00  0.00     0.138 C 
BRANCH  11  12
HETATM   12  C2  UNL     1       1.936   0.308   0.228  1.00  0.00     0.016 C 
HETATM   13  C1  UNL     1       3.097  -0.446  -0.325  1.00  0.00     0.006 C 
ENDBRANCH  11  12
ENDBRANCH   9  11
ENDBRANCH   1   9
TORSDOF 3
