REMARK  2 active torsions:
REMARK  status: ('A' for Active; 'I' for Inactive)
REMARK    1  A    between atoms: O1_2  and  C2_3 
REMARK    2  A    between atoms: C2_3  and  C3_4 
ROOT
HETATM    1  C3  UNL     1      -0.205  -0.925  -0.175  1.00  0.00     0.246 C 
HETATM    2  N1  UNL     1      -0.831   0.274  -0.687  1.00  0.00    -0.350 N 
ATOM      3  H1  UNL     1      -0.480   0.895  -1.416  1.00  0.00     0.163 HD
HETATM    4  C4  UNL     1      -2.042   0.398   0.046  1.00  0.00     0.097 C 
HETATM    5  N2  UNL     1      -2.732   1.474   0.277  1.00  0.00    -0.387 N 
ATOM      6  H21 UNL     1      -3.601   1.563   0.803  1.00  0.00     0.157 HD
ATOM      7  H22 UNL     1      -2.528   2.426  -0.027  1.00  0.00     0.157 HD
HETATM    8  C5  UNL     1      -2.339  -0.990   0.489  1.00  0.00     0.246 C 
HETATM    9  O2  UNL     1      -1.108  -1.566   0.623  1.00  0.00    -0.357 OA
ENDROOT
BRANCH   1  10
HETATM   10  C2  UNL     1       1.017  -0.446   0.628  1.00  0.00     0.220 C 
BRANCH  10  11
HETATM   11  O1  UNL     1       1.813   0.236  -0.273  1.00  0.00    -0.392 OA
HETATM   12  C1  UNL     1       2.971   0.743   0.285  1.00  0.00     0.201 C 
ENDBRANCH  10  11
ENDBRANCH   1  10
TORSDOF 2
