REMARK  5 active torsions:
REMARK  status: ('A' for Active; 'I' for Inactive)
REMARK    1  A    between atoms: N1_1  and  C1_5 
REMARK    2  A    between atoms: C1_5  and  C2_6 
REMARK    3  A    between atoms: C2_6  and  N2_7 
REMARK    4  A    between atoms: N2_7  and  C3_9 
REMARK    5  A    between atoms: N3_12  and  O1_13 
ROOT
HETATM    1  C3  UNL     1       1.199  -0.357  -0.015  1.00  0.00     0.119 A 
HETATM    2  C4  UNL     1       2.207  -1.234  -0.335  1.00  0.00     0.071 A 
HETATM    3  C5  UNL     1       3.432  -0.602  -0.172  1.00  0.00     0.147 A 
HETATM    4  N3  UNL     1       3.124   0.642   0.242  1.00  0.00    -0.173 N 
HETATM    5  N4  UNL     1       1.807   0.788   0.335  1.00  0.00    -0.260 N 
ATOM      6  H4  UNL     1       1.330   1.641   0.628  1.00  0.00     0.191 HD
ENDROOT
BRANCH   1   7
HETATM    7  N2  UNL     1      -0.213  -0.623  -0.053  1.00  0.00    -0.374 N 
ATOM      8  H2  UNL     1      -0.549  -1.542  -0.341  1.00  0.00     0.161 HD
BRANCH   7   9
HETATM    9  C2  UNL     1      -1.151   0.398   0.312  1.00  0.00     0.148 C 
BRANCH   9  10
HETATM   10  C1  UNL     1      -2.550  -0.148   0.183  1.00  0.00     0.249 C 
BRANCH  10  11
HETATM   11  N1  UNL     1      -3.558   0.828   0.534  1.00  0.00    -0.078 N 
ATOM     12  H13 UNL     1      -3.395   1.205   1.468  1.00  0.00     0.274 HD
ATOM     13  H12 UNL     1      -3.446   1.684  -0.010  1.00  0.00     0.274 HD
ATOM     14  H11 UNL     1      -4.505   0.459   0.447  1.00  0.00     0.274 HD
ENDBRANCH  10  11
ENDBRANCH   9  10
ENDBRANCH   7   9
ENDBRANCH   1   7
BRANCH   4  15
HETATM   15  O1  UNL     1       4.076   1.596   0.518  1.00  0.00    -0.268 OA
ATOM     16  H1  UNL     1       3.859   2.474   0.810  1.00  0.00     0.247 HD
ENDBRANCH   4  15
TORSDOF 5
