REMARK  3 active torsions:
REMARK  status: ('A' for Active; 'I' for Inactive)
REMARK       I    between atoms: N2_8  and  C7_9 
REMARK       I    between atoms: C7_9  and  N3_11 
REMARK    1  A    between atoms: N3_11  and  C8_13 
REMARK    2  A    between atoms: C8_13  and  C9_14 
REMARK    3  A    between atoms: C24_31  and  O2_32 
ROOT
HETATM    1  N1  UNL     1      -1.068  -1.256  -4.947  1.00  0.00    -0.102 NA
HETATM    2  C1  UNL     1      -1.263  -1.330  -3.534  1.00  0.00     0.048 A 
HETATM    3  C2  UNL     1      -2.213  -2.129  -2.976  1.00  0.00     0.029 A 
HETATM    4  C3  UNL     1      -2.333  -2.134  -1.637  1.00  0.00     0.034 A 
HETATM    5  C4  UNL     1      -1.574  -1.382  -0.676  1.00  0.00     0.061 A 
HETATM    6  C5  UNL     1      -0.611  -0.578  -1.284  1.00  0.00     0.073 A 
HETATM    7  C6  UNL     1      -0.486  -0.579  -2.706  1.00  0.00     0.059 A 
HETATM    8  N2  UNL     1       0.383   0.284  -0.718  1.00  0.00    -0.262 N 
HETATM    9  C7  UNL     1       1.736  -0.082  -1.063  1.00  0.00     0.328 C 
HETATM   10  O1  UNL     1       1.918  -1.116  -1.779  1.00  0.00    -0.246 OA
HETATM   11  N3  UNL     1       2.898   0.624  -0.671  1.00  0.00    -0.338 N 
ATOM     12  H3  UNL     1       2.807   1.466  -0.102  1.00  0.00     0.164 HD
HETATM   13  C15 UNL     1       0.249   1.478   0.111  1.00  0.00     0.054 A 
HETATM   14  C16 UNL     1       0.957   1.468   1.302  1.00  0.00     0.031 A 
HETATM   15  C17 UNL     1       1.062   2.527   2.173  1.00  0.00     0.002 A 
HETATM   16  C18 UNL     1       0.415   3.687   1.831  1.00  0.00     0.001 A 
HETATM   17  C19 UNL     1      -0.292   3.716   0.657  1.00  0.00     0.014 A 
HETATM   18  C20 UNL     1      -0.415   2.644  -0.241  1.00  0.00    -0.009 A 
HETATM   19  C21 UNL     1      -1.250   2.893  -1.403  1.00  0.00     0.011 C 
HETATM   20  C22 UNL     1      -2.476   2.584  -1.757  1.00  0.00    -0.007 C 
HETATM   21  C23 UNL     1      -3.481   1.818  -0.989  1.00  0.00     0.149 C 
HETATM   22  N4  UNL     1      -3.413   2.057   0.406  1.00  0.00    -0.367 N 
ATOM     23  H4  UNL     1      -3.567   3.048   0.593  1.00  0.00     0.161 HD
HETATM   24  C24 UNL     1      -3.209   1.396   1.578  1.00  0.00     0.150 C 
HETATM   25  C25 UNL     1      -3.249   0.040   2.151  1.00  0.00     0.059 A 
HETATM   26  C26 UNL     1      -4.045   0.056   3.343  1.00  0.00     0.021 A 
HETATM   27  C27 UNL     1      -4.269  -1.054   4.110  1.00  0.00     0.018 A 
HETATM   28  C28 UNL     1      -3.695  -2.217   3.699  1.00  0.00     0.090 A 
HETATM   29  N5  UNL     1      -2.994  -2.202   2.638  1.00  0.00    -0.351 N 
ATOM     30  H5  UNL     1      -2.590  -3.103   2.382  1.00  0.00     0.166 HD
HETATM   31  C29 UNL     1      -2.679  -1.135   1.748  1.00  0.00     0.120 A 
HETATM   32  N6  UNL     1      -1.913  -1.610   0.666  1.00  0.00    -0.340 N 
ATOM     33  H6  UNL     1      -1.411  -2.441   0.979  1.00  0.00     0.167 HD
ENDROOT
BRANCH  11  34
HETATM   34  C8  UNL     1       4.232   0.162  -1.071  1.00  0.00     0.162 C 
BRANCH  34  35
HETATM   35  C9  UNL     1       4.742  -0.959  -0.300  1.00  0.00    -0.040 A 
HETATM   36  C10 UNL     1       4.790  -2.229  -0.805  1.00  0.00     0.009 A 
HETATM   37  C11 UNL     1       5.273  -3.308  -0.089  1.00  0.00     0.001 A 
HETATM   38  C12 UNL     1       5.726  -3.091   1.188  1.00  0.00     0.000 A 
HETATM   39  C13 UNL     1       5.688  -1.808   1.726  1.00  0.00     0.001 A 
HETATM   40  C14 UNL     1       5.201  -0.746   0.994  1.00  0.00     0.009 A 
ENDBRANCH  34  35
ENDBRANCH  11  34
BRANCH  24  41
HETATM   41  O2  UNL     1      -2.850   2.243   2.564  1.00  0.00    -0.346 OA
ATOM     42  H2  UNL     1      -2.708   1.782   3.382  1.00  0.00     0.219 HD
ENDBRANCH  24  41
TORSDOF 3
