REMARK  7 active torsions:
REMARK  status: ('A' for Active; 'I' for Inactive)
REMARK    1  A    between atoms: N3_4  and  O1_6 
REMARK    2  A    between atoms: O1_6  and  C2_7 
REMARK    3  A    between atoms: C2_7  and  C3_8 
REMARK       I    between atoms: C3_8  and  N4_10 
REMARK    4  A    between atoms: N4_10  and  N5_12 
REMARK    5  A    between atoms: C4_14  and  C5_15 
REMARK    6  A    between atoms: C7_18  and  N6_19 
REMARK    7  A    between atoms: N7_25  and  O3_26 
ROOT
HETATM    1  N5  UNL     1       1.624  -2.064   0.561  1.00  0.00    -0.307 N 
ATOM      2  H5  UNL     1       2.043  -2.879   1.009  1.00  0.00     0.186 HD
HETATM    3  C4  UNL     1       0.431  -1.960   0.888  1.00  0.00     0.139 C 
ENDROOT
BRANCH   3   4
HETATM    4  C5  UNL     1      -0.523  -0.917   0.458  1.00  0.00     0.088 A 
HETATM    5  C6  UNL     1      -0.089   0.068  -0.391  1.00  0.00     0.086 A 
HETATM    6  S1  UNL     1      -1.492   1.017  -0.606  1.00  0.00    -0.061 SA
HETATM    7  C7  UNL     1      -2.549   0.116   0.389  1.00  0.00     0.174 A 
HETATM    8  N7  UNL     1      -1.776  -0.868   0.838  1.00  0.00    -0.200 N 
BRANCH   7   9
HETATM    9  N6  UNL     1      -3.946   0.363   0.675  1.00  0.00    -0.360 N 
HETATM   10  C8  UNL     1      -4.733  -0.454   1.517  1.00  0.00     0.125 C 
HETATM   11  C9  UNL     1      -6.148  -0.023   1.699  1.00  0.00     0.020 C 
HETATM   12  C10 UNL     1      -6.753   0.734   0.580  1.00  0.00     0.003 C 
HETATM   13  C11 UNL     1      -5.842   1.046  -0.555  1.00  0.00     0.020 C 
HETATM   14  C12 UNL     1      -4.527   1.527   0.038  1.00  0.00     0.125 C 
ENDBRANCH   7   9
BRANCH   8  15
HETATM   15  O3  UNL     1      -2.358  -1.816   1.708  1.00  0.00    -0.280 OA
ATOM     16  H3  UNL     1      -3.266  -1.780   1.984  1.00  0.00     0.245 HD
ENDBRANCH   8  15
ENDBRANCH   3   4
BRANCH   1  17
HETATM   17  N4  UNL     1       2.530  -1.437  -0.198  1.00  0.00    -0.269 N 
HETATM   18  C3  UNL     1       3.647  -0.673   0.289  1.00  0.00     0.262 C 
HETATM   19  O2  UNL     1       3.832  -0.554   1.526  1.00  0.00    -0.269 OA
ATOM     20  H4  UNL     1       2.419  -1.507  -1.210  1.00  0.00     0.190 HD
BRANCH  18  21
HETATM   21  C2  UNL     1       4.600  -0.012  -0.623  1.00  0.00     0.305 C 
BRANCH  21  22
HETATM   22  O1  UNL     1       5.610   0.677   0.060  1.00  0.00    -0.269 OA
BRANCH  22  23
HETATM   23  N3  UNL     1       6.549   1.328  -0.698  1.00  0.00    -0.240 N 
HETATM   24  C1  UNL     1       7.551   0.664  -1.140  1.00  0.00     0.221 C 
HETATM   25  N1  UNL     1       8.510   1.358  -1.923  1.00  0.00    -0.065 NA
HETATM   26  N2  UNL     1       7.680  -0.706  -0.850  1.00  0.00    -0.065 NA
ATOM     27  H3  UNL     1       6.451   2.322  -0.906  1.00  0.00     0.196 HD
ENDBRANCH  22  23
ENDBRANCH  21  22
ENDBRANCH  18  21
ENDBRANCH   1  17
TORSDOF 7
