REMARK  8 active torsions:
REMARK  status: ('A' for Active; 'I' for Inactive)
REMARK    1  A    between atoms: S1_2  and  C1_5 
REMARK    2  A    between atoms: C2_6  and  S2_7 
REMARK    3  A    between atoms: S2_7  and  C3_10 
REMARK    4  A    between atoms: C3_10  and  C4_11 
REMARK    5  A    between atoms: C7_14  and  C8_15 
REMARK    6  A    between atoms: C10_17  and  C11_18 
REMARK    7  A    between atoms: C11_18  and  O6_19 
REMARK    8  A    between atoms: C11_18  and  O7_21 
ROOT
HETATM    1  C4  UNL     1       0.392  -0.782  -0.126  1.00  0.00     0.136 C 
HETATM    2  C5  UNL     1      -0.191  -0.592   1.241  1.00  0.00     0.035 C 
HETATM    3  C6  UNL     1      -1.561  -1.266   1.057  1.00  0.00     0.035 C 
HETATM    4  C7  UNL     1      -1.734  -1.233  -0.413  1.00  0.00     0.126 C 
HETATM    5  O8  UNL     1      -0.705  -0.436  -0.940  1.00  0.00    -0.379 OA
ENDROOT
BRANCH   1   6
HETATM    6  C3  UNL     1       1.569   0.112  -0.417  1.00  0.00     0.176 C 
BRANCH   6   7
HETATM    7  S2  UNL     1       2.906  -0.132   0.692  1.00  0.00     0.168 S 
HETATM    8  O4  UNL     1       3.439  -1.529   0.668  1.00  0.00    -0.223 OA
HETATM    9  O5  UNL     1       2.413   0.224   2.088  1.00  0.00    -0.223 OA
BRANCH   7  10
HETATM   10  C2  UNL     1       4.220   0.949   0.270  1.00  0.00     0.123 C 
HETATM   11  C1  UNL     1       5.447   0.603   0.673  1.00  0.00     0.145 C 
BRANCH  11  12
HETATM   12  S1  UNL     1       6.818   1.650   0.280  1.00  0.00     0.127 S 
HETATM   13  O1  UNL     1       6.370   3.078   0.438  1.00  0.00    -0.592 OA
HETATM   14  O2  UNL     1       7.961   1.321   1.182  1.00  0.00    -0.592 OA
HETATM   15  O3  UNL     1       7.287   1.441  -1.314  1.00  0.00    -0.592 OA
ENDBRANCH  11  12
ENDBRANCH   7  10
ENDBRANCH   6   7
ENDBRANCH   1   6
BRANCH   4  16
HETATM   16  C8  UNL     1      -3.069  -0.868  -0.939  1.00  0.00     0.024 A 
HETATM   17  C9  UNL     1      -4.216  -1.757  -0.521  1.00  0.00     0.017 A 
HETATM   18  C10 UNL     1      -4.186  -0.332  -0.111  1.00  0.00     0.047 A 
BRANCH  18  19
HETATM   19  C11 UNL     1      -5.176   0.616  -0.809  1.00  0.00     0.258 C 
BRANCH  19  20
HETATM   20  O6  UNL     1      -6.148   1.027   0.077  1.00  0.00    -0.371 OA
ATOM     21  H6  UNL     1      -6.759   1.612  -0.354  1.00  0.00     0.212 HD
ENDBRANCH  19  20
BRANCH  19  22
HETATM   22  O7  UNL     1      -4.395   1.722  -1.201  1.00  0.00    -0.371 OA
ATOM     23  H7  UNL     1      -5.006   2.307  -1.632  1.00  0.00     0.212 HD
ENDBRANCH  19  22
ENDBRANCH  18  19
ENDBRANCH   4  16
TORSDOF 8
