REMARK  7 active torsions:
REMARK  status: ('A' for Active; 'I' for Inactive)
REMARK    1  A    between atoms: C5_10  and  C6_11 
REMARK    2  A    between atoms: C6_11  and  S2_12 
REMARK    3  A    between atoms: S2_12  and  C7_13 
REMARK    4  A    between atoms: C7_13  and  C8_14 
REMARK    5  A    between atoms: C8_14  and  C9_15 
REMARK    6  A    between atoms: C9_15  and  N2_16 
REMARK    7  A    between atoms: C14_23  and  O2_24 
ROOT
HETATM    1  S2  UNL     1      -1.241   0.651  -0.071  1.00  0.00    -0.165 SA
ENDROOT
BRANCH   1   2
HETATM    2  C6  UNL     1      -2.368  -0.281  -1.133  1.00  0.00     0.128 C 
BRANCH   2   3
HETATM    3  C5  UNL     1      -3.469  -0.936  -0.325  1.00  0.00     0.299 C 
HETATM    4  N1  UNL     1      -4.360  -1.705  -1.185  1.00  0.00    -0.051 N 
HETATM    5  C4  UNL     1      -5.629  -1.723  -0.443  1.00  0.00     0.270 C 
ATOM      6  H12 UNL     1      -4.007  -2.628  -1.440  1.00  0.00     0.279 HD
ATOM      7  H11 UNL     1      -4.434  -1.351  -2.139  1.00  0.00     0.279 HD
HETATM    8  C3  UNL     1      -5.723  -0.312  -0.040  1.00  0.00     0.177 C 
HETATM    9  S1  UNL     1      -6.360  -0.067   1.661  1.00  0.00    -0.133 SA
HETATM   10  N4  UNL     1      -4.318   0.073   0.217  1.00  0.00    -0.307 N 
HETATM   11  C2  UNL     1      -5.213   1.300   2.107  1.00  0.00     0.179 C 
HETATM   12  C1  UNL     1      -4.330   1.323   0.909  1.00  0.00     0.231 C 
HETATM   13  O1  UNL     1      -3.681   2.382   0.589  1.00  0.00    -0.272 OA
ENDBRANCH   2   3
ENDBRANCH   1   2
BRANCH   1  14
HETATM   14  C7  UNL     1      -0.235  -0.441   0.980  1.00  0.00     0.075 C 
BRANCH  14  15
HETATM   15  C8  UNL     1       0.693  -1.201   0.032  1.00  0.00     0.040 C 
BRANCH  15  16
HETATM   16  C9  UNL     1       1.562  -0.277  -0.743  1.00  0.00     0.279 C 
BRANCH  16  17
HETATM   17  N2  UNL     1       2.437   0.541   0.069  1.00  0.00     0.136 N 
HETATM   18  C10 UNL     1       3.085   1.549  -0.722  1.00  0.00     0.278 C 
HETATM   19  C11 UNL     1       4.506   1.831  -0.499  1.00  0.00     0.032 C 
HETATM   20  C12 UNL     1       5.440   0.813  -1.129  1.00  0.00     0.021 C 
HETATM   21  C13 UNL     1       5.608  -0.267  -0.059  1.00  0.00     0.118 C 
HETATM   22  N3  UNL     1       4.365  -0.919   0.123  1.00  0.00    -0.373 N 
HETATM   23  C14 UNL     1       3.349  -0.254   0.853  1.00  0.00     0.460 C 
ATOM     24  H3  UNL     1       4.204  -1.849  -0.264  1.00  0.00     0.157 HD
BRANCH  23  25
HETATM   25  O2  UNL     1       3.813   0.440   1.935  1.00  0.00    -0.353 OA
ATOM     26  H2  UNL     1       4.414  -0.084   2.452  1.00  0.00     0.214 HD
ENDBRANCH  23  25
ENDBRANCH  16  17
ENDBRANCH  15  16
ENDBRANCH  14  15
ENDBRANCH   1  14
TORSDOF 7
