REMARK  6 active torsions:
REMARK  status: ('A' for Active; 'I' for Inactive)
REMARK    1  A    between atoms: C2_2  and  C3_3 
REMARK    2  A    between atoms: C3_3  and  O2_5 
REMARK    3  A    between atoms: O2_5  and  C4_6 
REMARK    4  A    between atoms: C6_8  and  O3_9 
REMARK    5  A    between atoms: C14_19  and  O5_20 
REMARK    6  A    between atoms: O5_20  and  C15_21 
ROOT
HETATM    1  C4  UNL     1       1.400   0.350  -0.535  1.00  0.00     0.145 C 
HETATM    2  C5  UNL     1       0.489   1.537  -0.436  1.00  0.00     0.075 C 
HETATM    3  C6  UNL     1      -0.734   1.213   0.311  1.00  0.00     0.098 C 
HETATM    4  C7  UNL     1      -1.804   2.279   0.266  1.00  0.00     0.153 C 
HETATM    5  C8  UNL     1      -1.516   3.336   1.321  1.00  0.00     0.042 C 
HETATM    6  O4  UNL     1      -2.874   1.515   0.708  1.00  0.00    -0.372 OA
HETATM    7  C9  UNL     1      -2.818   0.287  -0.022  1.00  0.00     0.067 C 
HETATM    8  C10 UNL     1      -3.836   0.608  -1.148  1.00  0.00     0.046 C 
HETATM    9  C11 UNL     1      -3.574  -0.659   0.833  1.00  0.00     0.046 C 
HETATM   10  C12 UNL     1      -1.467   0.089  -0.445  1.00  0.00     0.048 C 
HETATM   11  C13 UNL     1      -1.449   0.442  -1.953  1.00  0.00     0.024 C 
HETATM   12  C14 UNL     1      -0.659  -1.151  -0.205  1.00  0.00     0.156 C 
HETATM   13  C17 UNL     1       0.826  -0.981  -0.294  1.00  0.00     0.007 C 
HETATM   14  C18 UNL     1       1.617  -1.561   0.873  1.00  0.00     0.020 C 
HETATM   15  C19 UNL     1       1.421  -1.886  -1.415  1.00  0.00     0.020 C 
ENDROOT
BRANCH   1  16
HETATM   16  O2  UNL     1       2.526   0.661   0.281  1.00  0.00    -0.315 OA
BRANCH  16  17
HETATM   17  C3  UNL     1       3.773   0.986  -0.179  1.00  0.00     0.258 C 
HETATM   18  O1  UNL     1       3.935   1.010  -1.426  1.00  0.00    -0.265 OA
BRANCH  17  19
HETATM   19  C2  UNL     1       4.935   1.307   0.678  1.00  0.00     0.106 C 
HETATM   20  C1  UNL     1       6.145   1.617  -0.157  1.00  0.00     0.015 C 
ENDBRANCH  17  19
ENDBRANCH  16  17
ENDBRANCH   1  16
BRANCH   3  21
HETATM   21  O3  UNL     1      -0.579   0.912   1.627  1.00  0.00    -0.386 OA
ATOM     22  H3  UNL     1      -1.370   0.703   2.110  1.00  0.00     0.210 HD
ENDBRANCH   3  21
BRANCH  12  23
HETATM   23  O5  UNL     1      -1.148  -2.128   0.593  1.00  0.00    -0.314 OA
BRANCH  23  24
HETATM   24  C15 UNL     1      -1.663  -3.354   0.448  1.00  0.00     0.255 C 
HETATM   25  C16 UNL     1      -2.145  -4.264   1.504  1.00  0.00     0.126 C 
HETATM   26  O6  UNL     1      -1.675  -3.619  -0.753  1.00  0.00    -0.266 OA
ENDBRANCH  23  24
ENDBRANCH  12  23
TORSDOF 6
