REMARK  5 active torsions:
REMARK  status: ('A' for Active; 'I' for Inactive)
REMARK    1  A    between atoms: C2_2  and  C4_4 
REMARK    2  A    between atoms: C5_7  and  N2_8 
REMARK    3  A    between atoms: C8_12  and  C9_13 
REMARK    4  A    between atoms: C9_13  and  O2_15 
REMARK    5  A    between atoms: C12_22  and  N5_23 
ROOT
HETATM    1  C4  UNL     1      -0.931   0.499  -0.127  1.00  0.00     0.075 A 
HETATM    2  N1  UNL     1       0.401   0.173  -0.137  1.00  0.00    -0.190 N 
ATOM      3  H1  UNL     1       1.087   0.919  -0.019  1.00  0.00     0.184 HD
HETATM    4  C5  UNL     1       0.842  -1.085  -0.295  1.00  0.00     0.695 A 
HETATM    5  N3  UNL     1      -0.104  -2.053  -0.449  1.00  0.00    -0.130 N 
ATOM      6  H3  UNL     1       0.182  -3.024  -0.572  1.00  0.00     0.205 HD
HETATM    7  N4  UNL     1      -1.387  -1.746  -0.441  1.00  0.00    -0.270 N 
ATOM      8  H4  UNL     1      -2.062  -2.501  -0.561  1.00  0.00     0.189 HD
HETATM    9  C12 UNL     1      -1.858  -0.493  -0.284  1.00  0.00     0.142 A 
ENDROOT
BRANCH   4  10
HETATM   10  N2  UNL     1       2.219  -1.373  -0.298  1.00  0.00    -0.212 N 
HETATM   11  C6  UNL     1       2.665  -2.723  -0.465  1.00  0.00     0.167 C 
HETATM   12  C7  UNL     1       4.144  -2.828  -0.751  1.00  0.00     0.188 C 
HETATM   13  O1  UNL     1       4.660  -1.748  -1.403  1.00  0.00    -0.380 OA
HETATM   14  C8  UNL     1       4.470  -0.526  -0.838  1.00  0.00     0.168 C 
HETATM   15  C11 UNL     1       3.166  -0.314  -0.135  1.00  0.00     0.175 C 
BRANCH  14  16
HETATM   16  C9  UNL     1       5.623  -0.115   0.082  1.00  0.00     0.144 C 
HETATM   17  C10 UNL     1       5.409   1.309   0.521  1.00  0.00     0.042 C 
BRANCH  16  18
HETATM   18  O2  UNL     1       5.799  -0.998   1.122  1.00  0.00    -0.393 OA
ATOM     19  H2  UNL     1       6.514  -0.743   1.693  1.00  0.00     0.210 HD
ENDBRANCH  16  18
ENDBRANCH  14  16
ENDBRANCH   4  10
BRANCH   1  20
HETATM   20  C2  UNL     1      -1.319   1.926   0.046  1.00  0.00     0.032 C 
HETATM   21  C1  UNL     1      -0.033   2.764   0.164  1.00  0.00     0.016 C 
HETATM   22  C3  UNL     1      -2.021   2.456  -1.191  1.00  0.00     0.016 C 
ENDBRANCH   1  20
BRANCH   9  23
HETATM   23  N5  UNL     1      -3.234  -0.197  -0.272  1.00  0.00    -0.365 N 
HETATM   24  C13 UNL     1      -3.825   0.325   0.941  1.00  0.00     0.124 C 
HETATM   25  C14 UNL     1      -5.043  -0.546   1.224  1.00  0.00     0.020 C 
HETATM   26  C15 UNL     1      -5.997  -0.526   0.071  1.00  0.00     0.003 C 
HETATM   27  C16 UNL     1      -5.421   0.223  -1.102  1.00  0.00     0.020 C 
HETATM   28  C17 UNL     1      -4.069  -0.399  -1.421  1.00  0.00     0.124 C 
ENDBRANCH   9  23
TORSDOF 5
