REMARK  5 active torsions:
REMARK  status: ('A' for Active; 'I' for Inactive)
REMARK    1  A    between atoms: C2_2  and  C3_3 
REMARK    2  A    between atoms: C10_11  and  C11_12 
REMARK    3  A    between atoms: C11_12  and  C12_13 
REMARK    4  A    between atoms: C12_13  and  C13_14 
REMARK    5  A    between atoms: C13_14  and  N2_15 
ROOT
HETATM    1  C3  UNL     1      -1.833   0.523  -0.392  1.00  0.00    -0.023 C 
HETATM    2  C4  UNL     1      -1.772   0.175  -1.870  1.00  0.00     0.017 C 
HETATM    3  C5  UNL     1      -3.262   0.447   0.019  1.00  0.00     0.016 C 
HETATM    4  C6  UNL     1      -3.478  -0.129   1.393  1.00  0.00     0.045 C 
HETATM    5  C7  UNL     1      -2.718  -1.414   1.591  1.00  0.00     0.058 C 
HETATM    6  N1  UNL     1      -1.450  -1.462   1.019  1.00  0.00    -0.388 N 
HETATM    7  C8  UNL     1      -1.082  -2.634   0.300  1.00  0.00     0.123 C 
HETATM    8  C9  UNL     1       0.243  -2.316  -0.351  1.00  0.00     0.026 C 
HETATM    9  C10 UNL     1       0.284  -0.818  -0.346  1.00  0.00     0.011 C 
HETATM   10  C15 UNL     1      -0.899  -0.315   0.435  1.00  0.00     0.095 C 
ENDROOT
BRANCH   9  11
HETATM   11  C11 UNL     1       1.597  -0.339   0.240  1.00  0.00     0.008 C 
BRANCH  11  12
HETATM   12  C12 UNL     1       2.744  -0.865  -0.592  1.00  0.00     0.028 C 
BRANCH  12  13
HETATM   13  C13 UNL     1       4.060  -0.377   0.007  1.00  0.00     0.231 C 
BRANCH  13  14
HETATM   14  N2  UNL     1       4.109   1.074   0.020  1.00  0.00    -0.079 N 
HETATM   15  C14 UNL     1       5.376   1.467   0.597  1.00  0.00     0.266 C 
ATOM     16  H22 UNL     1       3.948   1.484  -0.900  1.00  0.00     0.276 HD
ATOM     17  H21 UNL     1       3.310   1.493   0.496  1.00  0.00     0.276 HD
ENDBRANCH  13  14
ENDBRANCH  12  13
ENDBRANCH  11  12
ENDBRANCH   9  11
BRANCH   1  18
HETATM   18  C2  UNL     1      -1.346   1.976  -0.308  1.00  0.00     0.007 C 
HETATM   19  C1  UNL     1      -2.216   2.895  -1.105  1.00  0.00     0.006 C 
ENDBRANCH   1  18
TORSDOF 5
