REMARK  2 active torsions:
REMARK  status: ('A' for Active; 'I' for Inactive)
REMARK    1  A    between atoms: C3_4  and  N1_5 
REMARK    2  A    between atoms: N1_5  and  C4_7 
ROOT
HETATM    1  F1  UNL     1      -0.970  -2.044   0.153  1.00  0.00    -0.249 F 
HETATM    2  C1  UNL     1      -1.231  -0.927  -0.631  1.00  0.00     0.180 C 
HETATM    3  C2  UNL     1       0.106  -0.244  -0.879  1.00  0.00     0.062 C 
HETATM    4  C3  UNL     1       0.735   0.026   0.433  1.00  0.00     0.079 C 
HETATM    5  C7  UNL     1      -0.070   1.030   1.256  1.00  0.00     0.025 C 
HETATM    6  C8  UNL     1      -0.850   1.990   0.431  1.00  0.00     0.003 C 
HETATM    7  C9  UNL     1      -2.077   1.388  -0.200  1.00  0.00     0.012 C 
HETATM    8  C10 UNL     1      -2.224  -0.077   0.089  1.00  0.00    -0.009 A 
HETATM    9  C11 UNL     1      -2.981  -0.589   1.256  1.00  0.00     0.013 A 
HETATM   10  C12 UNL     1      -3.679  -0.586  -0.062  1.00  0.00     0.013 A 
ENDROOT
BRANCH   4  11
HETATM   11  N1  UNL     1       2.111   0.323   0.444  1.00  0.00    -0.413 N 
ATOM     12  H1  UNL     1       2.429   1.242   0.752  1.00  0.00     0.154 HD
BRANCH  11  13
HETATM   13  C4  UNL     1       3.054  -0.643   0.031  1.00  0.00     0.077 A 
HETATM   14  C5  UNL     1       3.225  -1.179  -1.322  1.00  0.00     0.027 A 
HETATM   15  C6  UNL     1       4.321  -0.330  -0.671  1.00  0.00     0.027 A 
ENDBRANCH  11  13
ENDBRANCH   4  11
TORSDOF 2
