REMARK  4 active torsions:
REMARK  status: ('A' for Active; 'I' for Inactive)
REMARK    1  A    between atoms: C1_4  and  O1_5 
REMARK    2  A    between atoms: O1_5  and  N2_6 
REMARK    3  A    between atoms: N2_6  and  C2_8 
REMARK    4  A    between atoms: C3_13  and  N5_14 
ROOT
HETATM    1  C2  UNL     1       2.998  -0.506  -0.726  1.00  0.00     0.166 A 
HETATM    2  N3  UNL     1       2.382  -0.899  -1.845  1.00  0.00    -0.281 N 
ATOM      3  H3  UNL     1       2.856  -1.225  -2.687  1.00  0.00     0.188 HD
HETATM    4  N4  UNL     1       1.078  -0.805  -1.706  1.00  0.00    -0.282 N 
ATOM      5  H4  UNL     1       0.394  -1.047  -2.423  1.00  0.00     0.188 HD
HETATM    6  C3  UNL     1       0.780  -0.342  -0.477  1.00  0.00     0.144 A 
HETATM    7  C10 UNL     1       2.012  -0.150   0.152  1.00  0.00     0.126 A 
HETATM    8 CL1  UNL     1       2.244   0.445   1.785  1.00  0.00    -0.076 Cl
ENDROOT
BRANCH   1   9
HETATM    9  N2  UNL     1       4.279  -0.486  -0.561  1.00  0.00    -0.241 N 
ATOM     10  H2  UNL     1       4.875  -0.789  -1.332  1.00  0.00     0.196 HD
BRANCH   9  11
HETATM   11  O1  UNL     1       4.871  -0.077   0.599  1.00  0.00    -0.232 OA
BRANCH  11  12
HETATM   12  C1  UNL     1       5.388   1.204   0.698  1.00  0.00     0.252 C 
HETATM   13  N1  UNL     1       5.230   1.988  -0.317  1.00  0.00    -0.388 N 
ATOM     14  H12 UNL     1       4.742   1.661  -1.151  1.00  0.00     0.157 HD
ATOM     15  H11 UNL     1       5.611   2.931  -0.244  1.00  0.00     0.157 HD
ENDBRANCH  11  12
ENDBRANCH   9  11
ENDBRANCH   1   9
BRANCH   6  16
HETATM   16  N5  UNL     1      -0.506  -0.095   0.080  1.00  0.00    -0.365 N 
HETATM   17  C4  UNL     1      -0.997   1.240  -0.145  1.00  0.00     0.124 C 
HETATM   18  C5  UNL     1      -2.212   1.130  -1.039  1.00  0.00     0.020 C 
HETATM   19  C6  UNL     1      -3.140   0.025  -0.600  1.00  0.00     0.002 C 
HETATM   20  C7  UNL     1      -3.281  -0.049   0.895  1.00  0.00     0.002 C 
HETATM   21  C8  UNL     1      -2.287  -0.948   1.550  1.00  0.00     0.020 C 
HETATM   22  C9  UNL     1      -1.062  -1.221   0.756  1.00  0.00     0.124 C 
ENDBRANCH   6  16
TORSDOF 4
