REMARK  3 active torsions:
REMARK  status: ('A' for Active; 'I' for Inactive)
REMARK    1  A    between atoms: N1_1  and  C1_4 
REMARK    2  A    between atoms: C3_8  and  C4_9 
REMARK    3  A    between atoms: C12_17  and  O3_18 
ROOT
HETATM    1  C4  UNL     1      -0.984   0.202   0.768  1.00  0.00     0.054 C 
HETATM    2  C5  UNL     1       0.220   0.829   0.279  1.00  0.00     0.012 C 
HETATM    3  C6  UNL     1       0.731   2.136   0.027  1.00  0.00     0.004 C 
HETATM    4  C7  UNL     1       2.267   1.835  -0.064  1.00  0.00     0.027 C 
HETATM    5  C8  UNL     1       2.608   0.786  -1.042  1.00  0.00    -0.031 C 
HETATM    6  C9  UNL     1       2.453  -0.486  -1.155  1.00  0.00    -0.031 C 
HETATM    7  C10 UNL     1       1.822  -1.542  -0.306  1.00  0.00     0.029 C 
HETATM    8  C11 UNL     1       0.362  -1.700  -0.356  1.00  0.00     0.036 C 
HETATM    9  C12 UNL     1      -0.516  -1.293   0.776  1.00  0.00     0.127 C 
ENDROOT
BRANCH   1  10
HETATM   10  C3  UNL     1      -2.189   0.314  -0.047  1.00  0.00     0.027 A 
HETATM   11  C1  UNL     1      -3.452  -0.064   0.363  1.00  0.00     0.181 A 
HETATM   12  O1  UNL     1      -4.283   0.172  -0.622  1.00  0.00    -0.174 OA
HETATM   13  O2  UNL     1      -3.633   0.666  -1.606  1.00  0.00    -0.202 OA
HETATM   14  C2  UNL     1      -2.357   0.783  -1.336  1.00  0.00     0.188 A 
BRANCH  11  15
HETATM   15  N1  UNL     1      -3.790  -0.567   1.514  1.00  0.00    -0.377 N 
ATOM     16  H12 UNL     1      -4.723  -0.846   1.817  1.00  0.00     0.158 HD
ATOM     17  H11 UNL     1      -3.143  -0.751   2.281  1.00  0.00     0.158 HD
ENDBRANCH  11  15
ENDBRANCH   1  10
BRANCH   9  18
HETATM   18  O3  UNL     1       0.150  -1.508   1.958  1.00  0.00    -0.395 OA
ATOM     19  H3  UNL     1       0.434  -2.415   1.963  1.00  0.00     0.210 HD
ENDBRANCH   9  18
TORSDOF 3
