REMARK  3 active torsions:
REMARK  status: ('A' for Active; 'I' for Inactive)
REMARK    1  A    between atoms: N1_1  and  C1_5 
REMARK    2  A    between atoms: C5_9  and  N2_10 
REMARK    3  A    between atoms: C7_13  and  C8_14 
ROOT
HETATM    1  C1  UNL     1      -1.411   0.856   0.998  1.00  0.00     0.207 C 
HETATM    2  C2  UNL     1      -2.899   1.115   0.801  1.00  0.00     0.035 C 
HETATM    3  C3  UNL     1      -3.336  -0.136   0.079  1.00  0.00     0.004 C 
HETATM    4  C4  UNL     1      -2.127  -0.565  -0.734  1.00  0.00     0.028 C 
HETATM    5  C5  UNL     1      -1.028   0.403  -0.381  1.00  0.00     0.131 C 
ENDROOT
BRANCH   5   6
HETATM    6  N2  UNL     1       0.261  -0.243  -0.448  1.00  0.00    -0.277 N 
HETATM    7  S1  UNL     1       0.521  -1.906  -0.649  1.00  0.00    -0.020 SA
HETATM    8  C6  UNL     1       2.231  -1.915  -0.666  1.00  0.00     0.081 A 
HETATM    9  C7  UNL     1       2.521  -0.593  -0.514  1.00  0.00     0.028 A 
HETATM   10  C9  UNL     1       1.488   0.256  -0.401  1.00  0.00     0.261 A 
HETATM   11  O1  UNL     1       1.636   1.523  -0.256  1.00  0.00    -0.267 OA
BRANCH   9  12
HETATM   12  C8  UNL     1       3.977  -0.128  -0.394  1.00  0.00     0.131 C 
HETATM   13  S2  UNL     1       4.257   1.214  -1.628  1.00  0.00    -0.092 SA
ENDBRANCH   9  12
ENDBRANCH   5   6
BRANCH   1  14
HETATM   14  N1  UNL     1      -1.245  -0.171   1.990  1.00  0.00    -0.073 N 
ATOM     15  H13 UNL     1      -1.720   0.052   2.864  1.00  0.00     0.274 HD
ATOM     16  H12 UNL     1      -1.761  -1.021   1.761  1.00  0.00     0.274 HD
ATOM     17  H11 UNL     1      -0.249  -0.344   2.122  1.00  0.00     0.274 HD
ENDBRANCH   1  14
TORSDOF 3
