REMARK  5 active torsions:
REMARK  status: ('A' for Active; 'I' for Inactive)
REMARK    1  A    between atoms: C2_5  and  C3_6 
REMARK    2  A    between atoms: C3_6  and  N4_9 
REMARK    3  A    between atoms: C3_6  and  C11_17 
REMARK    4  A    between atoms: N4_9  and  C5_11 
REMARK    5  A    between atoms: C13_21  and  C14_22 
ROOT
HETATM    1  C3  UNL     1      -0.825  -1.273   0.286  1.00  0.00     0.220 C 
HETATM    2  C4  UNL     1      -0.756  -2.677  -0.249  1.00  0.00     0.103 C 
HETATM    3  N3  UNL     1      -0.681  -3.752  -0.653  1.00  0.00    -0.194 NA
ENDROOT
BRANCH   1   4
HETATM    4  C2  UNL     1       0.631  -0.815   0.193  1.00  0.00     0.075 A 
HETATM    5  N2  UNL     1       1.642  -1.656  -0.004  1.00  0.00    -0.299 N 
HETATM    6  N1  UNL     1       2.781  -0.983  -0.042  1.00  0.00    -0.300 N 
ATOM      7  H2  UNL     1       1.553  -2.667  -0.110  1.00  0.00     0.187 HD
HETATM    8  C1  UNL     1       4.040  -1.629  -0.245  1.00  0.00     0.177 C 
HETATM    9  C13 UNL     1       2.537   0.331   0.127  1.00  0.00     0.034 A 
HETATM   10  C12 UNL     1       1.142   0.417   0.278  1.00  0.00     0.057 A 
BRANCH   9  11
HETATM   11  C14 UNL     1       3.464   1.440   0.140  1.00  0.00     0.037 C 
HETATM   12  C15 UNL     1       4.181   1.744  -1.159  1.00  0.00     0.011 C 
HETATM   13  C16 UNL     1       5.498   1.873  -0.401  1.00  0.00     0.001 C 
HETATM   14  C17 UNL     1       4.771   1.327   0.813  1.00  0.00     0.011 C 
ENDBRANCH   9  11
ENDBRANCH   1   4
BRANCH   1  15
HETATM   15  N4  UNL     1      -1.641  -0.505  -0.546  1.00  0.00    -0.388 N 
ATOM     16  H4  UNL     1      -1.253   0.359  -0.924  1.00  0.00     0.155 HD
BRANCH  15  17
HETATM   17  C5  UNL     1      -2.938  -0.834  -0.893  1.00  0.00     0.078 C 
HETATM   18  C6  UNL     1      -3.597   0.311  -1.692  1.00  0.00     0.024 C 
HETATM   19  C7  UNL     1      -3.741   1.461  -0.768  1.00  0.00     0.002 C 
HETATM   20  C8  UNL     1      -4.435   1.206   0.520  1.00  0.00     0.000 C 
HETATM   21  C9  UNL     1      -4.552  -0.184   0.956  1.00  0.00     0.002 C 
HETATM   22  C10 UNL     1      -3.969  -1.239   0.083  1.00  0.00     0.024 C 
ENDBRANCH  15  17
ENDBRANCH   1  15
BRANCH   1  23
HETATM   23  C11 UNL     1      -1.111  -1.241   1.753  1.00  0.00     0.401 C 
HETATM   24  F1  UNL     1      -0.930   0.060   2.199  1.00  0.00    -0.210 F 
HETATM   25  F2  UNL     1      -0.090  -2.000   2.365  1.00  0.00    -0.210 F 
ENDBRANCH   1  23
TORSDOF 5
