REMARK  7 active torsions:
REMARK  status: ('A' for Active; 'I' for Inactive)
REMARK    1  A    between atoms: C4_5  and  C5_6 
REMARK    2  A    between atoms: N1_8  and  C7_9 
REMARK    3  A    between atoms: C7_9  and  C8_10 
REMARK    4  A    between atoms: C8_10  and  N2_11 
REMARK       I    between atoms: N2_11  and  C9_13 
REMARK    5  A    between atoms: C9_13  and  C10_15 
REMARK    6  A    between atoms: C12_18  and  C13_19 
REMARK    7  A    between atoms: N3_22  and  C16_23 
ROOT
HETATM    1  C10 UNL     1       1.141  -2.549  -0.228  1.00  0.00     0.107 A 
HETATM    2  C11 UNL     1       0.490  -3.050  -1.334  1.00  0.00     0.086 A 
HETATM    3  S1  UNL     1      -1.056  -2.341  -1.186  1.00  0.00    -0.086 SA
HETATM    4  C12 UNL     1      -0.794  -1.460   0.251  1.00  0.00     0.056 A 
HETATM    5  N4  UNL     1       0.458  -1.754   0.541  1.00  0.00    -0.349 N 
ATOM      6  H4  UNL     1       0.893  -1.356   1.373  1.00  0.00     0.166 HD
ENDROOT
BRANCH   1   7
HETATM    7  C9  UNL     1       2.558  -2.905   0.062  1.00  0.00     0.268 C 
HETATM    8  N2  UNL     1       3.179  -2.386   1.197  1.00  0.00    -0.354 N 
ATOM      9  H2  UNL     1       2.649  -1.773   1.817  1.00  0.00     0.162 HD
HETATM   10  O1  UNL     1       3.157  -3.662  -0.721  1.00  0.00    -0.266 OA
BRANCH   8  11
HETATM   11  C8  UNL     1       4.545  -2.692   1.516  1.00  0.00     0.153 C 
BRANCH  11  12
HETATM   12  C7  UNL     1       5.449  -2.179   0.427  1.00  0.00     0.292 C 
BRANCH  12  13
HETATM   13  N1  UNL     1       5.234  -0.747   0.354  1.00  0.00     0.099 N 
HETATM   14  C5  UNL     1       6.032  -0.007  -0.695  1.00  0.00     0.258 A 
HETATM   15  C6  UNL     1       6.343   0.109   0.695  1.00  0.00     0.309 A 
BRANCH  14  16
HETATM   16  C4  UNL     1       5.149   0.958  -1.450  1.00  0.00     0.063 A 
HETATM   17  C2  UNL     1       5.503   2.389  -1.550  1.00  0.00     0.106 A 
HETATM   18  C1  UNL     1       6.753   2.931  -0.901  1.00  0.00     0.052 C 
HETATM   19  F1  UNL     1       4.474   3.303  -1.660  1.00  0.00    -0.243 F 
HETATM   20  C3  UNL     1       5.742   1.497  -2.727  1.00  0.00     0.053 A 
ENDBRANCH  14  16
ENDBRANCH  12  13
ENDBRANCH  11  12
ENDBRANCH   8  11
ENDBRANCH   1   7
BRANCH   4  21
HETATM   21  C13 UNL     1      -1.737  -0.563   1.018  1.00  0.00     0.052 C 
HETATM   22  C14 UNL     1      -2.143   0.580   0.139  1.00  0.00     0.056 C 
HETATM   23  C15 UNL     1      -3.119   1.436   0.912  1.00  0.00     0.064 C 
HETATM   24  N3  UNL     1      -4.283   0.693   1.179  1.00  0.00    -0.369 N 
HETATM   25  C21 UNL     1      -4.227  -0.703   1.282  1.00  0.00     0.064 C 
HETATM   26  C22 UNL     1      -2.911  -1.322   1.571  1.00  0.00     0.056 C 
BRANCH  24  27
HETATM   27  C16 UNL     1      -5.521   1.282   0.852  1.00  0.00     0.092 C 
HETATM   28  C17 UNL     1      -5.611   1.514  -0.640  1.00  0.00     0.052 C 
HETATM   29  C18 UNL     1      -7.061   1.392  -1.055  1.00  0.00     0.169 C 
HETATM   30  O2  UNL     1      -7.822   2.081  -0.114  1.00  0.00    -0.391 OA
HETATM   31  C19 UNL     1      -7.946   1.405   1.078  1.00  0.00     0.169 C 
HETATM   32  C20 UNL     1      -6.731   0.533   1.318  1.00  0.00     0.052 C 
ENDBRANCH  24  27
ENDBRANCH   4  21
TORSDOF 7
