REMARK  8 active torsions:
REMARK  status: ('A' for Active; 'I' for Inactive)
REMARK    1  A    between atoms: O1_2  and  C2_3 
REMARK    2  A    between atoms: C2_3  and  C3_4 
REMARK    3  A    between atoms: C3_4  and  C4_5 
REMARK    4  A    between atoms: C4_5  and  O2_6 
REMARK    5  A    between atoms: O2_6  and  C5_7 
REMARK    6  A    between atoms: C8_11  and  C9_12 
REMARK       I    between atoms: C9_12  and  N1_14 
REMARK    7  A    between atoms: N1_14  and  C10_16 
REMARK    8  A    between atoms: C13_19  and  N2_20 
ROOT
HETATM    1  C9  UNL     1       1.308  -0.422  -0.682  1.00  0.00     0.252 C 
HETATM    2  O3  UNL     1       0.983  -1.278  -1.543  1.00  0.00    -0.268 OA
HETATM    3  N1  UNL     1       0.306   0.418  -0.114  1.00  0.00    -0.352 N 
ATOM      4  H1  UNL     1       0.566   1.120   0.579  1.00  0.00     0.163 HD
ENDROOT
BRANCH   3   5
HETATM    5  C10 UNL     1      -1.093   0.279  -0.520  1.00  0.00     0.084 C 
HETATM    6  C11 UNL     1      -1.722   1.598  -0.633  1.00  0.00     0.027 C 
HETATM    7  C12 UNL     1      -3.233   1.637  -0.579  1.00  0.00     0.038 C 
HETATM    8  C13 UNL     1      -3.789   0.301  -0.121  1.00  0.00     0.223 C 
HETATM    9  C21 UNL     1      -2.943  -0.006   1.127  1.00  0.00     0.038 C 
HETATM   10  C22 UNL     1      -1.687  -0.616   0.555  1.00  0.00     0.027 C 
BRANCH   8  11
HETATM   11  N2  UNL     1      -5.150   0.333   0.255  1.00  0.00     0.093 N 
HETATM   12  C14 UNL     1      -6.021   0.762  -0.858  1.00  0.00     0.278 C 
HETATM   13  C15 UNL     1      -7.419   0.840  -0.288  1.00  0.00     0.099 C 
HETATM   14  C16 UNL     1      -7.886  -0.457   0.311  1.00  0.00     0.167 C 
HETATM   15  C17 UNL     1      -6.870  -1.001   1.312  1.00  0.00     0.099 C 
HETATM   16  O4  UNL     1      -8.188  -1.427  -0.637  1.00  0.00    -0.353 OA
HETATM   17  O5  UNL     1      -9.060  -0.281   0.998  1.00  0.00    -0.353 OA
HETATM   18  C18 UNL     1      -5.559  -1.054   0.561  1.00  0.00     0.278 C 
HETATM   19  C19 UNL     1      -9.429  -1.017  -1.125  1.00  0.00     0.197 C 
HETATM   20  C20 UNL     1     -10.052  -0.216   0.019  1.00  0.00     0.197 C 
ENDBRANCH   8  11
ENDBRANCH   3   5
BRANCH   1  21
HETATM   21  C8  UNL     1       2.681  -0.298  -0.259  1.00  0.00     0.040 A 
HETATM   22  C7  UNL     1       3.274  -1.508   0.120  1.00  0.00     0.044 A 
HETATM   23  C6  UNL     1       4.545  -1.584   0.673  1.00  0.00     0.069 A 
HETATM   24  C5  UNL     1       5.284  -0.440   0.872  1.00  0.00     0.097 A 
HETATM   25 CL1  UNL     1       5.154  -3.180   1.151  1.00  0.00    -0.081 Cl
HETATM   26  C25 UNL     1       4.674   0.762   0.483  1.00  0.00    -0.020 A 
HETATM   27  C23 UNL     1       3.411   0.836  -0.067  1.00  0.00    -0.037 A 
HETATM   28  C26 UNL     1       5.418   2.017   0.667  1.00  0.00     0.052 C 
HETATM   29  C24 UNL     1       2.879   2.167  -0.497  1.00  0.00     0.050 C 
BRANCH  24  30
HETATM   30  O2  UNL     1       6.511  -0.467   1.407  1.00  0.00    -0.349 OA
BRANCH  30  31
HETATM   31  C4  UNL     1       7.814  -0.545   0.934  1.00  0.00     0.178 C 
BRANCH  31  32
HETATM   32  C3  UNL     1       8.200  -1.723   0.152  1.00  0.00     0.053 C 
BRANCH  32  33
HETATM   33  C2  UNL     1       9.590  -1.847  -0.308  1.00  0.00     0.169 C 
BRANCH  33  34
HETATM   34  O1  UNL     1      10.262  -1.030  -1.083  1.00  0.00    -0.396 OA
HETATM   35  C1  UNL     1      10.650   0.201  -0.746  1.00  0.00     0.201 C 
ENDBRANCH  33  34
ENDBRANCH  32  33
ENDBRANCH  31  32
ENDBRANCH  30  31
ENDBRANCH  24  30
ENDBRANCH   1  21
TORSDOF 8
