REMARK  10 active torsions:
REMARK  status: ('A' for Active; 'I' for Inactive)
REMARK    1  A    between atoms: C2_2  and  O2_4 
REMARK    2  A    between atoms: O2_4  and  C3_5 
REMARK    3  A    between atoms: C11_13  and  O3_14 
REMARK    4  A    between atoms: C19_23  and  C20_24 
REMARK    5  A    between atoms: C20_24  and  C21_26 
REMARK    6  A    between atoms: C21_26  and  O5_27 
REMARK    7  A    between atoms: O5_27  and  C22_28 
REMARK    8  A    between atoms: C22_28  and  C23_30 
REMARK    9  A    between atoms: C23_30  and  C24_31 
REMARK   10  A    between atoms: C25_32  and  S1_34 
ROOT
HETATM    1  C3  UNL     1      -0.297   1.274   0.339  1.00  0.00     0.141 C 
HETATM    2  C4  UNL     1      -1.090   0.829  -0.899  1.00  0.00     0.039 C 
HETATM    3  C5  UNL     1      -1.781  -0.482  -0.806  1.00  0.00     0.001 C 
HETATM    4  C6  UNL     1      -1.466  -1.377   0.333  1.00  0.00    -0.005 C 
HETATM    5  C7  UNL     1      -2.605  -1.991   1.096  1.00  0.00     0.006 C 
HETATM    6  C8  UNL     1      -3.952  -1.913   0.492  1.00  0.00     0.006 C 
HETATM    7  C9  UNL     1      -3.811  -1.808  -0.988  1.00  0.00    -0.004 C 
HETATM    8  C10 UNL     1      -5.167  -1.908  -1.620  1.00  0.00     0.037 C 
HETATM    9  C11 UNL     1      -6.048  -0.900  -0.916  1.00  0.00     0.118 C 
HETATM   10  C12 UNL     1      -5.530   0.481  -0.939  1.00  0.00     0.032 C 
HETATM   11  C13 UNL     1      -4.065   0.633  -0.601  1.00  0.00     0.012 C 
HETATM   12  C14 UNL     1      -3.227  -0.412  -1.222  1.00  0.00    -0.036 C 
HETATM   13  C15 UNL     1      -3.357  -0.197  -2.743  1.00  0.00     0.016 C 
HETATM   14  C16 UNL     1      -0.584  -0.751   1.385  1.00  0.00     0.001 C 
HETATM   15  C17 UNL     1       0.211  -1.719   2.216  1.00  0.00     0.007 C 
HETATM   16  C18 UNL     1       0.986  -0.644   3.030  1.00  0.00     0.013 C 
HETATM   17  C19 UNL     1       1.490   0.281   1.880  1.00  0.00     0.069 C 
HETATM   18  C28 UNL     1       0.507   0.121   0.798  1.00  0.00    -0.003 C 
HETATM   19  C29 UNL     1       1.220  -0.561  -0.350  1.00  0.00     0.019 C 
ENDROOT
BRANCH  17  20
HETATM   20  C20 UNL     1       1.825   1.593   2.371  1.00  0.00     0.155 C 
HETATM   21  O4  UNL     1       1.473   1.849   3.545  1.00  0.00    -0.295 OA
BRANCH  20  22
HETATM   22  C21 UNL     1       2.519   2.694   1.699  1.00  0.00     0.257 C 
BRANCH  22  23
HETATM   23  O5  UNL     1       3.145   2.449   0.492  1.00  0.00    -0.314 OA
BRANCH  23  24
HETATM   24  C22 UNL     1       4.259   1.694   0.231  1.00  0.00     0.262 C 
HETATM   25  O6  UNL     1       4.832   1.137   1.195  1.00  0.00    -0.265 OA
BRANCH  24  26
HETATM   26  C23 UNL     1       4.807   1.516  -1.153  1.00  0.00     0.139 C 
BRANCH  26  27
HETATM   27  C24 UNL     1       6.004   0.657  -1.061  1.00  0.00     0.001 C 
HETATM   28  C25 UNL     1       6.140  -0.509  -1.669  1.00  0.00     0.029 C 
HETATM   29  C26 UNL     1       5.013  -0.999  -2.508  1.00  0.00     0.061 C 
BRANCH  28  30
HETATM   30  S1  UNL     1       7.567  -1.499  -1.539  1.00  0.00     0.167 S 
HETATM   31  C27 UNL     1       7.375  -2.588  -0.171  1.00  0.00     0.166 C 
HETATM   32  O7  UNL     1       8.816  -0.669  -1.433  1.00  0.00    -0.223 OA
HETATM   33  O8  UNL     1       7.696  -2.308  -2.800  1.00  0.00    -0.223 OA
ENDBRANCH  28  30
ENDBRANCH  26  27
ENDBRANCH  24  26
ENDBRANCH  23  24
ENDBRANCH  22  23
ENDBRANCH  20  22
ENDBRANCH  17  20
BRANCH   1  34
HETATM   34  O2  UNL     1      -1.271   1.651   1.273  1.00  0.00    -0.316 OA
BRANCH  34  35
HETATM   35  C2  UNL     1      -1.577   2.919   1.705  1.00  0.00     0.255 C 
HETATM   36  C1  UNL     1      -2.663   3.105   2.737  1.00  0.00     0.126 C 
HETATM   37  O1  UNL     1      -0.979   3.912   1.264  1.00  0.00    -0.266 OA
ENDBRANCH  34  35
ENDBRANCH   1  34
BRANCH   9  38
HETATM   38  O3  UNL     1      -7.270  -0.904  -1.633  1.00  0.00    -0.396 OA
ATOM     39  H3  UNL     1      -7.823  -0.271  -1.191  1.00  0.00     0.210 HD
ENDBRANCH   9  38
TORSDOF 10
