REMARK  10 active torsions:
REMARK  status: ('A' for Active; 'I' for Inactive)
REMARK    1  A    between atoms: C2_2  and  C4_4 
REMARK    2  A    between atoms: C18_19  and  C19_20 
REMARK    3  A    between atoms: C18_19  and  C20_27 
REMARK    4  A    between atoms: C19_20  and  O3_22 
REMARK    5  A    between atoms: O3_22  and  S1_23 
REMARK    6  A    between atoms: C20_27  and  O7_30 
REMARK    7  A    between atoms: C23_32  and  C25_34 
REMARK    8  A    between atoms: C25_34  and  O9_36 
REMARK    9  A    between atoms: O9_36  and  C26_37 
REMARK   10  A    between atoms: C26_37  and  C27_38 
ROOT
HETATM    1  C4  UNL     1       2.124   1.463  -0.391  1.00  0.00     0.032 C 
HETATM    2  C5  UNL     1       0.797   2.090  -0.058  1.00  0.00     0.011 C 
HETATM    3  C6  UNL     1      -0.374   1.683  -0.882  1.00  0.00     0.011 C 
HETATM    4  C7  UNL     1      -0.301   0.287  -1.448  1.00  0.00    -0.024 C 
HETATM    5  C8  UNL     1       0.162   0.518  -2.864  1.00  0.00     0.017 C 
HETATM    6  C9  UNL     1       0.681  -0.565  -0.660  1.00  0.00     0.013 C 
HETATM    7  C10 UNL     1       0.136  -0.941   0.679  1.00  0.00     0.007 C 
HETATM    8  C11 UNL     1      -1.288  -0.563   0.983  1.00  0.00     0.008 C 
HETATM    9  C12 UNL     1      -2.245  -0.737  -0.165  1.00  0.00     0.027 C 
HETATM   10  C13 UNL     1      -1.601  -0.487  -1.493  1.00  0.00     0.034 C 
HETATM   11  C14 UNL     1      -1.174  -1.881  -2.028  1.00  0.00     0.025 C 
HETATM   12  C15 UNL     1      -2.569  -0.047  -2.521  1.00  0.00     0.158 C 
HETATM   13  O1  UNL     1      -2.597  -0.402  -3.731  1.00  0.00    -0.292 OA
HETATM   14  C16 UNL     1      -3.605   0.890  -2.105  1.00  0.00     0.048 C 
HETATM   15  C17 UNL     1      -4.059   0.881  -0.852  1.00  0.00     0.000 C 
HETATM   16  C18 UNL     1      -3.530  -0.070   0.149  1.00  0.00     0.102 C 
HETATM   17  C23 UNL     1       2.089   0.007  -0.597  1.00  0.00     0.056 C 
HETATM   18  C24 UNL     1       2.825  -0.270  -1.951  1.00  0.00     0.027 C 
ENDROOT
BRANCH  16  19
HETATM   19  C19 UNL     1      -3.549   0.666   1.453  1.00  0.00     0.292 C 
HETATM   20  O2  UNL     1      -3.666   1.920   1.480  1.00  0.00    -0.263 OA
BRANCH  19  21
HETATM   21  O3  UNL     1      -3.444   0.068   2.698  1.00  0.00    -0.176 OA
BRANCH  21  22
HETATM   22  S1  UNL     1      -3.471   0.957   4.149  1.00  0.00     0.259 S 
HETATM   23  O4  UNL     1      -4.485   0.280   5.054  1.00  0.00    -0.572 OA
HETATM   24  O5  UNL     1      -3.965   2.358   3.932  1.00  0.00    -0.572 OA
HETATM   25  O6  UNL     1      -1.990   0.931   4.929  1.00  0.00    -0.572 OA
ENDBRANCH  21  22
ENDBRANCH  19  21
ENDBRANCH  16  19
BRANCH  16  26
HETATM   26  C20 UNL     1      -4.698  -1.072   0.323  1.00  0.00     0.071 C 
HETATM   27  C21 UNL     1      -5.953  -0.253   0.644  1.00  0.00     0.047 C 
HETATM   28  C22 UNL     1      -4.994  -1.843  -0.913  1.00  0.00     0.047 C 
BRANCH  26  29
HETATM   29  O7  UNL     1      -4.421  -1.973   1.344  1.00  0.00    -0.389 OA
ATOM     30  H7  UNL     1      -5.137  -2.588   1.451  1.00  0.00     0.210 HD
ENDBRANCH  26  29
ENDBRANCH  16  26
BRANCH  17  31
HETATM   31  C25 UNL     1       2.928  -0.827   0.282  1.00  0.00     0.268 C 
HETATM   32  O8  UNL     1       2.480  -1.794   0.879  1.00  0.00    -0.264 OA
BRANCH  31  33
HETATM   33  O9  UNL     1       4.292  -0.569   0.483  1.00  0.00    -0.321 OA
BRANCH  33  34
HETATM   34  C26 UNL     1       5.066  -1.424   1.343  1.00  0.00     0.178 C 
BRANCH  34  35
HETATM   35  C27 UNL     1       6.499  -0.892   1.360  1.00  0.00     0.022 C 
HETATM   36  C28 UNL     1       7.096  -0.895  -0.020  1.00  0.00     0.007 C 
ENDBRANCH  34  35
ENDBRANCH  33  34
ENDBRANCH  31  33
ENDBRANCH  17  31
BRANCH   1  37
HETATM   37  C2  UNL     1       3.071   1.991   0.616  1.00  0.00    -0.088 C 
HETATM   38  C1  UNL     1       4.084   2.808   0.285  1.00  0.00     0.014 C 
HETATM   39  C3  UNL     1       2.925   1.701   2.054  1.00  0.00     0.043 C 
ENDBRANCH   1  37
TORSDOF 10
