REMARK  9 active torsions:
REMARK  status: ('A' for Active; 'I' for Inactive)
REMARK    1  A    between atoms: C2_2  and  C3_3 
REMARK    2  A    between atoms: N3_11  and  C6_12 
REMARK    3  A    between atoms: C6_12  and  C7_13 
REMARK    4  A    between atoms: C6_12  and  C11_23 
REMARK    5  A    between atoms: C7_13  and  C8_14 
REMARK    6  A    between atoms: C8_14  and  C9_15 
REMARK    7  A    between atoms: C9_15  and  N4_16 
REMARK    8  A    between atoms: C9_15  and  C10_20 
REMARK    9  A    between atoms: C11_23  and  C12_24 
ROOT
HETATM    1  C6  UNL     1      -0.239   0.068  -0.293  1.00  0.00     0.118 C 
ENDROOT
BRANCH   1   2
HETATM    2  N3  UNL     1      -1.461  -0.389   0.274  1.00  0.00    -0.177 N 
HETATM    3  C3  UNL     1      -1.560  -1.620   0.883  1.00  0.00     0.067 A 
HETATM    4  C4  UNL     1      -2.855  -1.737   1.310  1.00  0.00     0.136 A 
HETATM    5  N1  UNL     1      -3.558  -0.658   1.002  1.00  0.00    -0.200 N 
HETATM    6  C5  UNL     1      -2.681   0.191   0.349  1.00  0.00     0.678 A 
ATOM      7  H1  UNL     1      -4.543  -0.487   1.204  1.00  0.00     0.183 HD
HETATM    8  N2  UNL     1      -3.104   1.293  -0.058  1.00  0.00    -0.234 N 
ATOM      9  H22 UNL     1      -4.024   1.730  -0.001  1.00  0.00     0.174 HD
ATOM     10  H21 UNL     1      -2.458   1.919  -0.539  1.00  0.00     0.174 HD
BRANCH   3  11
HETATM   11  C2  UNL     1      -0.492  -2.591   1.029  1.00  0.00     0.021 C 
HETATM   12  C1  UNL     1      -0.697  -3.753   1.639  1.00  0.00     0.013 C 
ENDBRANCH   3  11
ENDBRANCH   1   2
BRANCH   1  13
HETATM   13  C7  UNL     1       0.089   1.510  -0.193  1.00  0.00     0.029 C 
BRANCH  13  14
HETATM   14  C8  UNL     1       1.430   1.853  -0.803  1.00  0.00     0.046 C 
BRANCH  14  15
HETATM   15  C9  UNL     1       2.605   1.174  -0.209  1.00  0.00     0.283 C 
BRANCH  15  16
HETATM   16  N4  UNL     1       3.771   1.645  -0.945  1.00  0.00    -0.065 N 
ATOM     17  H43 UNL     1       3.694   1.510  -1.953  1.00  0.00     0.275 HD
ATOM     18  H42 UNL     1       3.856   2.661  -0.959  1.00  0.00     0.275 HD
ATOM     19  H41 UNL     1       4.580   1.177  -0.536  1.00  0.00     0.275 HD
ENDBRANCH  15  16
BRANCH  15  20
HETATM   20  C10 UNL     1       2.817   1.449   1.218  1.00  0.00     0.204 C 
HETATM   21  O1  UNL     1       3.897   2.003   1.566  1.00  0.00    -0.646 OA
HETATM   22  O2  UNL     1       1.941   1.160   2.242  1.00  0.00    -0.646 OA
ENDBRANCH  15  20
ENDBRANCH  14  15
ENDBRANCH  13  14
ENDBRANCH   1  13
BRANCH   1  23
HETATM   23  C11 UNL     1      -0.111  -0.478  -1.708  1.00  0.00     0.139 C 
BRANCH  23  24
HETATM   24  C12 UNL     1      -1.178  -0.075  -2.614  1.00  0.00     0.174 C 
HETATM   25  O3  UNL     1      -1.215   1.108  -3.036  1.00  0.00    -0.648 OA
HETATM   26  O4  UNL     1      -2.174  -0.937  -3.045  1.00  0.00    -0.648 OA
ENDBRANCH  23  24
ENDBRANCH   1  23
TORSDOF 9
