REMARK  5 active torsions:
REMARK  status: ('A' for Active; 'I' for Inactive)
REMARK       I    between atoms: C1_2  and  N2_4 
REMARK    1  A    between atoms: N2_4  and  N3_6 
REMARK    2  A    between atoms: C2_8  and  C3_9 
REMARK    3  A    between atoms: C5_11  and  N4_12 
REMARK    4  A    between atoms: C7_18  and  N6_19 
REMARK    5  A    between atoms: N6_19  and  C8_21 
ROOT
HETATM    1  C3  UNL     1      -0.701   0.434   0.268  1.00  0.00     0.027 A 
HETATM    2  C4  UNL     1      -1.518   1.513   0.650  1.00  0.00     0.054 A 
HETATM    3  C5  UNL     1      -2.856   1.362   0.793  1.00  0.00     0.119 A 
HETATM    4  C6  UNL     1      -3.440   0.137   0.564  1.00  0.00     0.125 A 
HETATM    5  N5  UNL     1      -2.651  -0.867   0.206  1.00  0.00    -0.349 N 
ATOM      6  H5  UNL     1      -3.087  -1.774   0.038  1.00  0.00     0.167 HD
HETATM    7  C7  UNL     1      -1.295  -0.775   0.045  1.00  0.00     0.119 A 
ENDROOT
BRANCH   1   8
HETATM    8  C2  UNL     1       0.717   0.638   0.128  1.00  0.00     0.122 C 
HETATM    9  N3  UNL     1       1.651  -0.149  -0.196  1.00  0.00    -0.307 N 
ATOM     10  H3  UNL     1       1.396  -1.115  -0.404  1.00  0.00     0.186 HD
BRANCH   9  11
HETATM   11  N2  UNL     1       2.996   0.189  -0.293  1.00  0.00    -0.254 N 
HETATM   12  C1  UNL     1       4.031  -0.489   0.380  1.00  0.00     0.347 C 
HETATM   13  N1  UNL     1       5.366  -0.068   0.215  1.00  0.00    -0.038 NA
HETATM   14  O1  UNL     1       3.742  -1.457   1.115  1.00  0.00    -0.249 OA
ATOM     15  H2  UNL     1       3.249   0.977  -0.889  1.00  0.00     0.191 HD
ENDBRANCH   9  11
ENDBRANCH   1   8
BRANCH   7  16
HETATM   16  N6  UNL     1      -0.586  -1.957  -0.347  1.00  0.00    -0.320 N 
ATOM     17  H6  UNL     1       0.425  -1.949  -0.481  1.00  0.00     0.169 HD
BRANCH  16  18
HETATM   18  C8  UNL     1      -1.356  -3.156  -0.544  1.00  0.00     0.354 C 
HETATM   19  O4  UNL     1      -2.586  -3.216  -0.392  1.00  0.00    -0.283 OA
ENDBRANCH  16  18
ENDBRANCH   7  16
BRANCH   3  20
HETATM   20  N4  UNL     1      -3.659   2.466   1.178  1.00  0.00    -0.114 N 
HETATM   21  O2  UNL     1      -4.907   2.347   1.317  1.00  0.00    -0.532 OA
HETATM   22  O3  UNL     1      -3.094   3.697   1.411  1.00  0.00    -0.532 OA
ENDBRANCH   3  20
TORSDOF 5
