REMARK  16 active torsions:
REMARK  status: ('A' for Active; 'I' for Inactive)
REMARK    1  A    between atoms: C4_5  and  N2_6 
REMARK    2  A    between atoms: N3_8  and  C5_10 
REMARK    3  A    between atoms: C13_24  and  N8_25 
REMARK    4  A    between atoms: N8_25  and  N9_27 
REMARK    5  A    between atoms: N10_30  and  C14_31 
REMARK    6  A    between atoms: C14_31  and  C15_32 
REMARK    7  A    between atoms: C15_32  and  O2_33 
REMARK    8  A    between atoms: C15_32  and  C16_35 
REMARK    9  A    between atoms: C16_35  and  O3_36 
REMARK   10  A    between atoms: C16_35  and  C17_38 
REMARK   11  A    between atoms: C17_38  and  O4_39 
REMARK   12  A    between atoms: C17_38  and  C18_41 
REMARK   13  A    between atoms: C18_41  and  C19_42 
REMARK   14  A    between atoms: C19_42  and  O5_43 
REMARK   15  A    between atoms: N11_45  and  N12_46 
REMARK   16  A    between atoms: C21_51  and  O7_52 
ROOT
HETATM    1  C5  UNL     1      -1.975  -1.218   0.212  1.00  0.00     0.108 A 
HETATM    2  C6  UNL     1      -1.932  -2.064   1.263  1.00  0.00     0.144 A 
HETATM    3  N4  UNL     1      -3.093  -2.385   1.985  1.00  0.00    -0.094 NA
HETATM    4  C7  UNL     1      -0.734  -2.605   1.612  1.00  0.00     0.275 A 
HETATM    5  O1  UNL     1      -0.641  -3.413   2.603  1.00  0.00    -0.266 OA
HETATM    6  N5  UNL     1       0.460  -2.355   0.969  1.00  0.00    -0.301 N 
HETATM    7  C8  UNL     1       1.614  -3.082   1.331  1.00  0.00     0.161 C 
HETATM    8  C9  UNL     1       0.421  -1.509  -0.071  1.00  0.00     0.143 A 
HETATM    9  C10 UNL     1      -0.811  -0.932  -0.462  1.00  0.00     0.109 A 
HETATM   10  N6  UNL     1      -0.880  -0.115  -1.523  1.00  0.00    -0.340 N 
ATOM     11  H6  UNL     1      -1.771   0.296  -1.801  1.00  0.00     0.167 HD
HETATM   12  C11 UNL     1       0.232   0.155  -2.212  1.00  0.00     0.160 A 
HETATM   13  C12 UNL     1       0.143   1.050  -3.369  1.00  0.00     0.121 C 
HETATM   14  N7  UNL     1       0.040   1.771  -4.285  1.00  0.00    -0.190 NA
HETATM   15  C13 UNL     1       1.434  -0.358  -1.886  1.00  0.00     0.162 A 
HETATM   16  N10 UNL     1       1.528  -1.217  -0.765  1.00  0.00    -0.311 N 
ENDROOT
BRANCH  15  17
HETATM   17  N8  UNL     1       2.509  -0.222  -2.517  1.00  0.00    -0.289 N 
ATOM     18  H8  UNL     1       3.331  -0.680  -2.124  1.00  0.00     0.188 HD
BRANCH  17  19
HETATM   19  N9  UNL     1       2.692   0.476  -3.675  1.00  0.00    -0.344 N 
ATOM     20  H92 UNL     1       1.859   0.927  -4.052  1.00  0.00     0.176 HD
ATOM     21  H91 UNL     1       3.566   0.587  -4.188  1.00  0.00     0.176 HD
ENDBRANCH  17  19
ENDBRANCH  15  17
BRANCH  16  22
HETATM   22  C14 UNL     1       2.843  -1.559  -0.407  1.00  0.00     0.166 C 
BRANCH  22  23
HETATM   23  C15 UNL     1       3.408  -0.437   0.485  1.00  0.00     0.167 C 
BRANCH  23  24
HETATM   24  O2  UNL     1       3.420   0.823  -0.044  1.00  0.00    -0.391 OA
ATOM     25  H2  UNL     1       3.768   1.515   0.506  1.00  0.00     0.210 HD
ENDBRANCH  23  24
BRANCH  23  26
HETATM   26  C16 UNL     1       4.854  -0.695   0.931  1.00  0.00     0.177 C 
BRANCH  26  27
HETATM   27  O3  UNL     1       4.957  -2.033   1.404  1.00  0.00    -0.390 OA
ATOM     28  H3  UNL     1       5.852  -2.193   1.680  1.00  0.00     0.210 HD
ENDBRANCH  26  27
BRANCH  26  29
HETATM   29  C17 UNL     1       5.194   0.109   2.156  1.00  0.00     0.151 C 
BRANCH  29  30
HETATM   30  O4  UNL     1       6.467  -0.461   2.589  1.00  0.00    -0.393 OA
ATOM     31  H4  UNL     1       6.682   0.047   3.363  1.00  0.00     0.210 HD
ENDBRANCH  29  30
BRANCH  29  32
HETATM   32  C18 UNL     1       5.579   1.515   1.858  1.00  0.00     0.060 C 
BRANCH  32  33
HETATM   33  C19 UNL     1       6.794   1.762   1.056  1.00  0.00     0.166 C 
BRANCH  33  34
HETATM   34  O5  UNL     1       6.912   1.287  -0.200  1.00  0.00    -0.401 OA
ATOM     35  H5  UNL     1       7.694   1.446  -0.716  1.00  0.00     0.209 HD
ENDBRANCH  33  34
ENDBRANCH  32  33
ENDBRANCH  29  32
ENDBRANCH  26  29
ENDBRANCH  23  26
ENDBRANCH  22  23
ENDBRANCH  16  22
BRANCH   1  36
HETATM   36  N3  UNL     1      -3.179  -0.594  -0.246  1.00  0.00    -0.295 N 
HETATM   37  N2  UNL     1      -3.671   0.382   0.392  1.00  0.00    -0.282 N 
ATOM     38  H2  UNL     1      -3.197   0.714   1.232  1.00  0.00     0.188 HD
ATOM     39  H3  UNL     1      -3.641  -0.937  -1.088  1.00  0.00     0.187 HD
BRANCH  37  40
HETATM   40  C4  UNL     1      -4.866   1.030  -0.029  1.00  0.00     0.169 A 
HETATM   41  C3  UNL     1      -5.405   0.656  -1.236  1.00  0.00     0.102 A 
HETATM   42  C2  UNL     1      -6.559   1.273  -1.657  1.00  0.00     0.005 A 
HETATM   43  N1  UNL     1      -4.769  -0.357  -2.035  1.00  0.00    -0.098 NA
HETATM   44  C1  UNL     1      -7.127   0.854  -2.969  1.00  0.00     0.053 C 
HETATM   45  C21 UNL     1      -7.136   2.230  -0.874  1.00  0.00     0.144 A 
HETATM   46  C20 UNL     1      -6.551   2.561   0.323  1.00  0.00     0.301 A 
HETATM   47  N11 UNL     1      -5.426   1.970   0.747  1.00  0.00    -0.205 N 
HETATM   48  O6  UNL     1      -7.071   3.450   1.066  1.00  0.00    -0.263 OA
BRANCH  45  49
HETATM   49  O7  UNL     1      -8.296   2.849  -1.299  1.00  0.00    -0.355 OA
ATOM     50  H7  UNL     1      -8.698   3.515  -0.754  1.00  0.00     0.218 HD
ENDBRANCH  45  49
BRANCH  47  51
HETATM   51  N12 UNL     1      -4.843   2.326   1.980  1.00  0.00    -0.334 N 
ATOM     52 2H12 UNL     1      -3.986   1.876   2.303  1.00  0.00     0.177 HD
ATOM     53 1H12 UNL     1      -5.269   3.041   2.570  1.00  0.00     0.177 HD
ENDBRANCH  47  51
ENDBRANCH  37  40
ENDBRANCH   1  36
TORSDOF 16
