REMARK  10 active torsions:
REMARK  status: ('A' for Active; 'I' for Inactive)
REMARK    1  A    between atoms: C4_4  and  C5_5 
REMARK    2  A    between atoms: C5_5  and  O2_7 
REMARK    3  A    between atoms: O2_7  and  C6_8 
REMARK    4  A    between atoms: C6_8  and  C7_9 
REMARK    5  A    between atoms: C7_9  and  O3_11 
REMARK    6  A    between atoms: C7_9  and  C9_13 
REMARK    7  A    between atoms: C11_16  and  O4_17 
REMARK    8  A    between atoms: C12_19  and  C13_20 
REMARK    9  A    between atoms: C20_29  and  C21_30 
REMARK   10  A    between atoms: C22_32  and  O5_33 
ROOT
HETATM    1  C9  UNL     1      -0.060  -0.158  -0.024  1.00  0.00     0.005 C 
HETATM    2  C10 UNL     1      -0.340  -1.307  -0.571  1.00  0.00     0.029 C 
HETATM    3 BR1  UNL     1       1.150  -2.207  -1.458  1.00  0.00    -0.052 Br
HETATM    4  C11 UNL     1      -1.664  -1.994  -0.567  1.00  0.00     0.189 C 
HETATM    5  C12 UNL     1      -2.756  -1.174   0.013  1.00  0.00    -0.033 C 
HETATM    6  C16 UNL     1      -2.435   0.276  -0.008  1.00  0.00    -0.007 C 
HETATM    7  C17 UNL     1      -3.453   1.285  -0.191  1.00  0.00    -0.002 A 
HETATM    8  C18 UNL     1      -4.506   1.156  -1.115  1.00  0.00     0.031 A 
HETATM    9  C19 UNL     1      -5.241   2.299  -1.174  1.00  0.00     0.089 A 
HETATM   10  N1  UNL     1      -4.664   3.128  -0.308  1.00  0.00    -0.368 N 
ATOM     11  H1  UNL     1      -4.990   4.077  -0.126  1.00  0.00     0.165 HD
HETATM   12  C20 UNL     1      -3.588   2.564   0.307  1.00  0.00     0.030 A 
HETATM   13  C22 UNL     1      -1.179   0.537   0.727  1.00  0.00     0.185 C 
ENDROOT
BRANCH   1  14
HETATM   14  C7  UNL     1       1.345   0.344  -0.129  1.00  0.00     0.103 C 
HETATM   15  C8  UNL     1       1.514   1.781  -0.091  1.00  0.00     0.053 C 
BRANCH  14  16
HETATM   16  C6  UNL     1       2.108  -0.354   0.985  1.00  0.00     0.221 C 
BRANCH  16  17
HETATM   17  O2  UNL     1       3.426  -0.536   0.780  1.00  0.00    -0.315 OA
BRANCH  17  18
HETATM   18  C5  UNL     1       4.595   0.086   0.605  1.00  0.00     0.283 C 
HETATM   19  O1  UNL     1       4.556   1.363   0.648  1.00  0.00    -0.260 OA
BRANCH  18  20
HETATM   20  C4  UNL     1       5.855  -0.601   0.373  1.00  0.00     0.084 C 
HETATM   21  C2  UNL     1       7.019  -0.119   0.191  1.00  0.00    -0.082 C 
HETATM   22  C1  UNL     1       8.143  -1.134  -0.042  1.00  0.00     0.043 C 
HETATM   23  C3  UNL     1       7.405   1.293   0.188  1.00  0.00     0.043 C 
ENDBRANCH  18  20
ENDBRANCH  17  18
ENDBRANCH  16  17
ENDBRANCH  14  16
BRANCH  14  24
HETATM   24  O3  UNL     1       1.800  -0.234  -1.336  1.00  0.00    -0.383 OA
ATOM     25  H3  UNL     1       1.323   0.202  -2.032  1.00  0.00     0.211 HD
ENDBRANCH  14  24
ENDBRANCH   1  14
BRANCH  13  26
HETATM   26  O5  UNL     1      -1.068  -0.121   1.976  1.00  0.00    -0.386 OA
ATOM     27  H5  UNL     1      -1.769   0.314   2.447  1.00  0.00     0.210 HD
ENDBRANCH  13  26
BRANCH   4  28
HETATM   28  O4  UNL     1      -1.854  -2.358  -1.898  1.00  0.00    -0.386 OA
ATOM     29  H4  UNL     1      -2.697  -2.796  -1.895  1.00  0.00     0.210 HD
ENDBRANCH   4  28
BRANCH   5  30
HETATM   30  C13 UNL     1      -4.080  -1.754   0.132  1.00  0.00     0.010 C 
HETATM   31  C14 UNL     1      -4.056  -2.952   1.146  1.00  0.00     0.014 C 
HETATM   32  C15 UNL     1      -4.634  -2.477  -1.089  1.00  0.00     0.014 C 
ENDBRANCH   5  30
BRANCH  12  33
HETATM   33  C21 UNL     1      -2.822   3.260   1.351  1.00  0.00     0.142 C 
HETATM   34 BR2  UNL     1      -3.321   2.619   3.138  1.00  0.00    -0.090 Br
ENDBRANCH  12  33
TORSDOF 10
