REMARK  8 active torsions:
REMARK  status: ('A' for Active; 'I' for Inactive)
REMARK    1  A    between atoms: O1_2  and  C2_3 
REMARK    2  A    between atoms: C9_11  and  C10_12 
REMARK    3  A    between atoms: C10_12  and  C11_13 
REMARK    4  A    between atoms: C11_13  and  C12_14 
REMARK    5  A    between atoms: C12_14  and  C13_15 
REMARK    6  A    between atoms: C13_15  and  N1_16 
REMARK    7  A    between atoms: C16_22  and  C17_23 
REMARK    8  A    between atoms: C17_23  and  O3_24 
ROOT
HETATM    1  C2  UNL     1      -0.883  -0.156  -1.241  1.00  0.00     0.075 A 
HETATM    2  C3  UNL     1       0.472  -0.345  -1.034  1.00  0.00     0.052 A 
HETATM    3  C4  UNL     1       1.098   0.045   0.133  1.00  0.00     0.009 A 
HETATM    4  C5  UNL     1       2.409  -0.016   0.607  1.00  0.00    -0.015 A 
HETATM    5  C6  UNL     1       2.442   0.538   1.866  1.00  0.00     0.061 A 
HETATM    6  O2  UNL     1       1.213   0.916   2.142  1.00  0.00    -0.314 OA
HETATM    7  C7  UNL     1       0.390   0.645   1.150  1.00  0.00     0.087 A 
HETATM    8  C8  UNL     1      -0.971   0.842   0.960  1.00  0.00     0.048 A 
HETATM    9  C9  UNL     1      -1.584   0.445  -0.217  1.00  0.00    -0.022 A 
HETATM   10  C14 UNL     1       3.732   0.612   2.631  1.00  0.00     0.066 C 
HETATM   11  C15 UNL     1       4.713  -0.400   2.167  1.00  0.00     0.013 C 
HETATM   12  C16 UNL     1       4.855  -0.535   0.695  1.00  0.00     0.014 C 
HETATM   13  C18 UNL     1       3.590  -0.574  -0.089  1.00  0.00     0.049 C 
ENDROOT
BRANCH   9  14
HETATM   14  C10 UNL     1      -3.054   0.654  -0.424  1.00  0.00     0.041 C 
BRANCH  14  15
HETATM   15  C11 UNL     1      -3.735  -0.672  -0.235  1.00  0.00     0.006 C 
BRANCH  15  16
HETATM   16  C12 UNL     1      -5.206  -0.501  -0.437  1.00  0.00     0.027 C 
BRANCH  16  17
HETATM   17  C13 UNL     1      -5.835   0.478   0.527  1.00  0.00     0.229 C 
BRANCH  17  18
HETATM   18  N1  UNL     1      -7.261   0.560   0.236  1.00  0.00    -0.079 N 
ATOM     19  H13 UNL     1      -7.449   0.794  -0.739  1.00  0.00     0.274 HD
ATOM     20  H12 UNL     1      -7.717  -0.352   0.251  1.00  0.00     0.274 HD
ATOM     21  H11 UNL     1      -7.686   1.221   0.887  1.00  0.00     0.274 HD
ENDBRANCH  17  18
ENDBRANCH  16  17
ENDBRANCH  15  16
ENDBRANCH  14  15
ENDBRANCH   9  14
BRANCH   1  22
HETATM   22  O1  UNL     1      -1.547  -0.523  -2.377  1.00  0.00    -0.355 OA
HETATM   23  C1  UNL     1      -0.982  -1.139  -3.500  1.00  0.00     0.210 C 
ENDBRANCH   1  22
BRANCH  12  24
HETATM   24  C17 UNL     1       5.815   0.485   0.100  1.00  0.00     0.169 C 
BRANCH  24  25
HETATM   25  O3  UNL     1       5.910   0.312  -1.280  1.00  0.00    -0.400 OA
ATOM     26  H3  UNL     1       6.509   0.949  -1.651  1.00  0.00     0.209 HD
ENDBRANCH  24  25
ENDBRANCH  12  24
TORSDOF 8
