REMARK  10 active torsions:
REMARK  status: ('A' for Active; 'I' for Inactive)
REMARK    1  A    between atoms: C2_2  and  C3_4 
REMARK    2  A    between atoms: C7_9  and  C8_10 
REMARK    3  A    between atoms: C8_10  and  C9_12 
REMARK    4  A    between atoms: C9_12  and  O1_13 
REMARK    5  A    between atoms: O1_13  and  C10_14 
REMARK    6  A    between atoms: C10_14  and  C11_15 
REMARK    7  A    between atoms: C11_15  and  O2_16 
REMARK    8  A    between atoms: C11_15  and  C12_18 
REMARK    9  A    between atoms: C12_18  and  C13_19 
REMARK   10  A    between atoms: C13_19  and  N1_20 
ROOT
HETATM    1  C8  UNL     1      -0.396  -0.509  -1.006  1.00  0.00     0.228 C 
HETATM    2  F1  UNL     1      -0.385  -1.720  -1.653  1.00  0.00    -0.242 F 
ENDROOT
BRANCH   1   3
HETATM    3  C7  UNL     1      -1.721   0.166  -1.252  1.00  0.00    -0.000 A 
HETATM    4  C6  UNL     1      -2.118   0.413  -2.549  1.00  0.00     0.043 A 
HETATM    5  C5  UNL     1      -3.339   1.035  -2.728  1.00  0.00     0.025 A 
HETATM    6 CL2  UNL     1      -1.127  -0.036  -3.927  1.00  0.00    -0.084 Cl
HETATM    7  C4  UNL     1      -4.152   1.406  -1.662  1.00  0.00     0.010 A 
HETATM    8  C3  UNL     1      -3.744   1.154  -0.370  1.00  0.00    -0.039 A 
HETATM    9  C14 UNL     1      -2.522   0.531  -0.199  1.00  0.00     0.020 A 
BRANCH   8  10
HETATM   10  C2  UNL     1      -4.594   1.540   0.787  1.00  0.00     0.111 C 
HETATM   11  C1  UNL     1      -4.907   0.282   1.607  1.00  0.00     0.032 C 
HETATM   12 CL1  UNL     1      -3.656   2.615   1.859  1.00  0.00    -0.120 Cl
ENDBRANCH   8  10
ENDBRANCH   1   3
BRANCH   1  13
HETATM   13  C9  UNL     1      -0.196  -0.731   0.458  1.00  0.00     0.209 C 
BRANCH  13  14
HETATM   14  O1  UNL     1       0.995  -1.346   0.721  1.00  0.00    -0.386 OA
BRANCH  14  15
HETATM   15  C10 UNL     1       2.117  -0.647   0.303  1.00  0.00     0.199 C 
BRANCH  15  16
HETATM   16  C11 UNL     1       3.310  -1.488   0.710  1.00  0.00     0.143 C 
BRANCH  16  17
HETATM   17  O2  UNL     1       3.188  -2.718   0.070  1.00  0.00    -0.393 OA
ATOM     18  H2  UNL     1       3.936  -3.245   0.325  1.00  0.00     0.210 HD
ENDBRANCH  16  17
BRANCH  16  19
HETATM   19  C12 UNL     1       4.623  -0.868   0.322  1.00  0.00     0.061 C 
BRANCH  19  20
HETATM   20  C13 UNL     1       4.847   0.479   0.940  1.00  0.00     0.232 C 
BRANCH  20  21
HETATM   21  N1  UNL     1       4.836   0.380   2.388  1.00  0.00    -0.079 N 
ATOM     22  H13 UNL     1       3.982  -0.058   2.732  1.00  0.00     0.274 HD
ATOM     23  H12 UNL     1       5.507  -0.309   2.727  1.00  0.00     0.274 HD
ATOM     24  H11 UNL     1       4.988   1.297   2.809  1.00  0.00     0.274 HD
ENDBRANCH  20  21
ENDBRANCH  19  20
ENDBRANCH  16  19
ENDBRANCH  15  16
ENDBRANCH  14  15
ENDBRANCH  13  14
ENDBRANCH   1  13
TORSDOF 10
