REMARK  10 active torsions:
REMARK  status: ('A' for Active; 'I' for Inactive)
REMARK    1  A    between atoms: C2_2  and  C3_3 
REMARK    2  A    between atoms: C3_3  and  C4_4 
REMARK    3  A    between atoms: C4_4  and  C5_5 
REMARK    4  A    between atoms: C5_5  and  C6_6 
REMARK    5  A    between atoms: C5_5  and  C13_21 
REMARK    6  A    between atoms: C8_11  and  N2_12 
REMARK    7  A    between atoms: C9_17  and  C10_18 
REMARK    8  A    between atoms: C10_18  and  C11_19 
REMARK    9  A    between atoms: C13_21  and  O1_22 
REMARK   10  A    between atoms: C13_21  and  C14_24 
ROOT
HETATM    1  C6  UNL     1      -0.487  -0.688   0.115  1.00  0.00     0.040 A 
HETATM    2  N1  UNL     1      -0.305  -0.929   1.453  1.00  0.00    -0.345 N 
ATOM      3  H1  UNL     1       0.629  -1.136   1.808  1.00  0.00     0.167 HD
HETATM    4  C7  UNL     1      -1.341  -0.895   2.295  1.00  0.00     0.147 A 
HETATM    5 CL1  UNL     1      -1.131  -1.196   4.015  1.00  0.00    -0.060 Cl
HETATM    6  C8  UNL     1      -2.628  -0.622   1.879  1.00  0.00     0.138 A 
HETATM    7  N3  UNL     1      -2.782  -0.386   0.561  1.00  0.00    -0.342 N 
ATOM      8  H3  UNL     1      -3.719  -0.180   0.214  1.00  0.00     0.167 HD
HETATM    9  C9  UNL     1      -1.749  -0.408  -0.336  1.00  0.00     0.034 A 
ENDROOT
BRANCH   1  10
HETATM   10  C5  UNL     1       0.635  -0.882  -0.831  1.00  0.00     0.072 C 
BRANCH  10  11
HETATM   11  C4  UNL     1       1.960  -0.515  -0.187  1.00  0.00     0.013 C 
BRANCH  11  12
HETATM   12  C3  UNL     1       1.914   0.964   0.175  1.00  0.00     0.000 C 
BRANCH  12  13
HETATM   13  C2  UNL     1       3.199   1.442   0.803  1.00  0.00    -0.005 C 
HETATM   14  C1  UNL     1       3.123   2.917   1.155  1.00  0.00     0.005 C 
ENDBRANCH  12  13
ENDBRANCH  11  12
ENDBRANCH  10  11
BRANCH  10  15
HETATM   15  C13 UNL     1       0.766  -2.270  -1.347  1.00  0.00     0.193 C 
BRANCH  15  16
HETATM   16  O1  UNL     1      -0.340  -2.827  -1.945  1.00  0.00    -0.389 OA
ATOM     17  H1  UNL     1      -0.256  -3.714  -2.275  1.00  0.00     0.210 HD
ENDBRANCH  15  16
BRANCH  15  18
HETATM   18  C14 UNL     1       1.397  -3.311  -0.510  1.00  0.00     0.382 C 
HETATM   19  F1  UNL     1       2.684  -3.153  -0.137  1.00  0.00    -0.212 F 
HETATM   20  F2  UNL     1       0.575  -3.665   0.573  1.00  0.00    -0.212 F 
ENDBRANCH  15  18
ENDBRANCH  10  15
ENDBRANCH   1  10
BRANCH   9  21
HETATM   21  C10 UNL     1      -2.024   0.012  -1.729  1.00  0.00     0.059 C 
BRANCH  21  22
HETATM   22  C11 UNL     1      -1.738   1.509  -1.900  1.00  0.00     0.002 C 
HETATM   23  C12 UNL     1      -2.624   2.311  -0.964  1.00  0.00     0.005 C 
ENDBRANCH  21  22
ENDBRANCH   9  21
BRANCH   6  24
HETATM   24  N2  UNL     1      -3.644  -0.586   2.648  1.00  0.00    -0.383 N 
ATOM     25  H22 UNL     1      -3.527  -0.765   3.645  1.00  0.00     0.157 HD
ATOM     26  H21 UNL     1      -4.595  -0.384   2.340  1.00  0.00     0.157 HD
ENDBRANCH   6  24
TORSDOF 10
