REMARK  13 active torsions:
REMARK  status: ('A' for Active; 'I' for Inactive)
REMARK    1  A    between atoms: C2_2  and  C3_3 
REMARK    2  A    between atoms: C2_2  and  C16_32 
REMARK    3  A    between atoms: C3_3  and  C4_5 
REMARK    4  A    between atoms: C4_5  and  C6_7 
REMARK    5  A    between atoms: C6_7  and  C7_9 
REMARK    6  A    between atoms: C7_9  and  C8_12 
REMARK    7  A    between atoms: C8_12  and  C9_14 
REMARK    8  A    between atoms: C9_14  and  O1_15 
REMARK    9  A    between atoms: C9_14  and  C10_17 
REMARK   10  A    between atoms: C10_17  and  C11_19 
REMARK   11  A    between atoms: C10_17  and  C15_28 
REMARK   12  A    between atoms: C11_19  and  C12_21 
REMARK   13  A    between atoms: C12_21  and  N1_24 
ROOT
HETATM    1  C9  UNL     1      -1.273  -1.668   0.525  1.00  0.00     0.214 C 
ENDROOT
BRANCH   1   2
HETATM    2  C8  UNL     1      -0.138  -2.342  -0.060  1.00  0.00     0.277 C 
HETATM    3  F5  UNL     1       0.319  -3.355   0.857  1.00  0.00    -0.240 F 
BRANCH   2   4
HETATM    4  C7  UNL     1       1.125  -1.655  -0.465  1.00  0.00     0.306 C 
HETATM    5  F3  UNL     1       1.945  -2.681  -1.048  1.00  0.00    -0.200 F 
HETATM    6  F4  UNL     1       0.930  -0.790  -1.485  1.00  0.00    -0.200 F 
BRANCH   4   7
HETATM    7  C6  UNL     1       1.875  -1.072   0.695  1.00  0.00     0.252 C 
HETATM    8  F2  UNL     1       1.128  -0.134   1.359  1.00  0.00    -0.242 F 
BRANCH   7   9
HETATM    9  C4  UNL     1       3.201  -0.462   0.399  1.00  0.00     0.060 C 
HETATM   10  C5  UNL     1       4.278  -1.440  -0.009  1.00  0.00     0.016 C 
BRANCH   9  11
HETATM   11  C3  UNL     1       3.158   0.759  -0.436  1.00  0.00     0.213 C 
HETATM   12  F1  UNL     1       2.081   1.549  -0.079  1.00  0.00    -0.244 F 
BRANCH  11  13
HETATM   13  C2  UNL     1       4.363   1.601  -0.437  1.00  0.00     0.050 C 
HETATM   14  C1  UNL     1       5.029   1.790  -1.564  1.00  0.00     0.026 C 
BRANCH  13  15
HETATM   15  C16 UNL     1       4.886   2.262   0.783  1.00  0.00     0.415 C 
HETATM   16  F11 UNL     1       3.924   3.052   1.390  1.00  0.00    -0.166 F 
HETATM   17  F12 UNL     1       5.471   1.406   1.685  1.00  0.00    -0.166 F 
HETATM   18  F13 UNL     1       5.905   3.174   0.441  1.00  0.00    -0.166 F 
ENDBRANCH  13  15
ENDBRANCH  11  13
ENDBRANCH   9  11
ENDBRANCH   7   9
ENDBRANCH   4   7
ENDBRANCH   2   4
ENDBRANCH   1   2
BRANCH   1  19
HETATM   19  O1  UNL     1      -2.260  -2.720   0.858  1.00  0.00    -0.388 OA
ATOM     20  H1  UNL     1      -3.007  -2.277   1.243  1.00  0.00     0.210 HD
ENDBRANCH   1  19
BRANCH   1  21
HETATM   21  C10 UNL     1      -2.125  -0.673  -0.234  1.00  0.00     0.279 C 
HETATM   22  F6  UNL     1      -1.403   0.353  -0.718  1.00  0.00    -0.223 F 
BRANCH  21  23
HETATM   23  C11 UNL     1      -3.047  -0.144   0.872  1.00  0.00     0.158 C 
HETATM   24  F7  UNL     1      -3.803  -1.130   1.404  1.00  0.00    -0.209 F 
BRANCH  23  25
HETATM   25  C12 UNL     1      -3.779   1.094   0.703  1.00  0.00     0.169 C 
HETATM   26  C13 UNL     1      -2.933   2.325   0.425  1.00  0.00     0.053 C 
HETATM   27  C14 UNL     1      -5.045   1.159  -0.043  1.00  0.00     0.053 C 
BRANCH  25  28
HETATM   28  N1  UNL     1      -4.223   1.397   2.134  1.00  0.00    -0.065 N 
ATOM     29  H13 UNL     1      -4.741   0.648   2.594  1.00  0.00     0.275 HD
ATOM     30  H12 UNL     1      -3.471   1.430   2.822  1.00  0.00     0.275 HD
ATOM     31  H11 UNL     1      -4.739   2.269   2.015  1.00  0.00     0.275 HD
ENDBRANCH  25  28
ENDBRANCH  23  25
ENDBRANCH  21  23
BRANCH  21  32
HETATM   32  C15 UNL     1      -2.861  -1.361  -1.316  1.00  0.00     0.432 C 
HETATM   33  F8  UNL     1      -2.097  -2.018  -2.260  1.00  0.00    -0.167 F 
HETATM   34  F9  UNL     1      -3.541  -0.420  -2.134  1.00  0.00    -0.167 F 
HETATM   35  F10 UNL     1      -3.825  -2.244  -0.897  1.00  0.00    -0.167 F 
ENDBRANCH  21  32
ENDBRANCH   1  21
TORSDOF 13
