REMARK  7 active torsions:
REMARK  status: ('A' for Active; 'I' for Inactive)
REMARK    1  A    between atoms: C2_2  and  C11_19 
REMARK    2  A    between atoms: C3_3  and  O1_4 
REMARK    3  A    between atoms: C3_3  and  C4_6 
REMARK    4  A    between atoms: C6_11  and  C7_12 
REMARK    5  A    between atoms: C7_12  and  C8_13 
REMARK    6  A    between atoms: C11_19  and  O3_20 
REMARK    7  A    between atoms: C11_19  and  C12_22 
ROOT
HETATM    1  C4  UNL     1      -0.093  -1.128   0.871  1.00  0.00     0.112 A 
HETATM    2  N1  UNL     1       1.182  -1.636   0.827  1.00  0.00    -0.326 N 
ATOM      3  H1  UNL     1       1.335  -2.644   0.846  1.00  0.00     0.168 HD
HETATM    4  C5  UNL     1       2.180  -0.830   0.762  1.00  0.00     0.184 A 
HETATM    5  O2  UNL     1       3.509  -0.955   0.706  1.00  0.00    -0.278 OA
HETATM    6  C6  UNL     1       4.071   0.211   0.652  1.00  0.00     0.127 A 
HETATM    7  N2  UNL     1       3.149   1.179   0.669  1.00  0.00    -0.331 N 
ATOM      8  H2  UNL     1       3.300   2.187   0.637  1.00  0.00     0.168 HD
HETATM    9  C10 UNL     1       1.957   0.510   0.739  1.00  0.00     0.130 A 
HETATM   10  S1  UNL     1       0.260   0.529   0.814  1.00  0.00    -0.047 SA
ENDROOT
BRANCH   1  11
HETATM   11  C3  UNL     1      -1.262  -1.968   0.977  1.00  0.00     0.108 C 
HETATM   12  C2  UNL     1      -2.640  -1.787   1.003  1.00  0.00     0.003 C 
HETATM   13  C1  UNL     1      -3.341  -3.019   1.188  1.00  0.00     0.054 C 
BRANCH  12  14
HETATM   14  C11 UNL     1      -3.508  -0.671   0.892  1.00  0.00     0.056 C 
BRANCH  14  15
HETATM   15  O3  UNL     1      -4.798  -0.971   1.033  1.00  0.00    -0.364 OA
ATOM     16  H3  UNL     1      -5.379  -0.223   0.959  1.00  0.00     0.217 HD
ENDBRANCH  14  15
BRANCH  14  17
HETATM   17  C12 UNL     1      -3.276   0.722   0.651  1.00  0.00     0.043 C 
HETATM   18  C13 UNL     1      -4.597   1.518   0.762  1.00  0.00     0.011 C 
HETATM   19  C14 UNL     1      -5.347   1.221  -0.481  1.00  0.00     0.001 C 
HETATM   20  C15 UNL     1      -4.344   0.676  -1.454  1.00  0.00     0.001 C 
HETATM   21  C16 UNL     1      -2.993   0.979  -0.832  1.00  0.00     0.011 C 
ENDBRANCH  14  17
ENDBRANCH  12  14
BRANCH  11  22
HETATM   22  O1  UNL     1      -0.891  -3.272   1.080  1.00  0.00    -0.357 OA
ATOM     23  H1  UNL     1       0.051  -3.396   1.062  1.00  0.00     0.217 HD
ENDBRANCH  11  22
ENDBRANCH   1  11
BRANCH   6  24
HETATM   24  C7  UNL     1       5.560   0.368   0.581  1.00  0.00     0.084 C 
BRANCH  24  25
HETATM   25  C8  UNL     1       5.984   0.383  -0.864  1.00  0.00     0.003 C 
HETATM   26  C9  UNL     1       7.497   0.542  -0.924  1.00  0.00     0.005 C 
ENDBRANCH  24  25
ENDBRANCH   6  24
TORSDOF 7
