REMARK  1 active torsions:
REMARK  status: ('A' for Active; 'I' for Inactive)
REMARK    1  A    between atoms: C11_11  and  N1_12 
ROOT
HETATM    1  C1  UNL     1       3.483  -0.876  -1.140  1.00  0.00     0.011 C 
HETATM    2  C2  UNL     1       2.121  -0.834  -0.420  1.00  0.00    -0.008 C 
HETATM    3  C3  UNL     1       1.025  -1.030  -1.401  1.00  0.00     0.006 C 
HETATM    4  C4  UNL     1      -0.248  -1.625  -0.950  1.00  0.00     0.010 C 
HETATM    5  C5  UNL     1      -1.380  -0.894  -0.467  1.00  0.00    -0.033 C 
HETATM    6  C6  UNL     1      -2.607  -1.290  -1.330  1.00  0.00     0.016 C 
HETATM    7  C7  UNL     1      -1.786  -1.406   0.944  1.00  0.00     0.018 C 
HETATM    8  C8  UNL     1      -3.053  -0.586   1.158  1.00  0.00     0.008 C 
HETATM    9  C9  UNL     1      -3.042   0.552   0.143  1.00  0.00     0.008 C 
HETATM   10  C10 UNL     1      -1.520   0.507  -0.128  1.00  0.00     0.024 C 
HETATM   11  C11 UNL     1      -0.939   1.600  -0.873  1.00  0.00     0.188 C 
HETATM   12  C12 UNL     1       0.249   2.183  -0.110  1.00  0.00     0.034 C 
HETATM   13  C13 UNL     1       1.561   1.606  -0.246  1.00  0.00     0.013 C 
HETATM   14  C14 UNL     1       2.056   0.426   0.435  1.00  0.00    -0.019 C 
HETATM   15  C15 UNL     1       3.543   0.675   0.812  1.00  0.00     0.018 C 
HETATM   16  C16 UNL     1       1.459  -0.015   1.757  1.00  0.00     0.177 C 
HETATM   17  O1  UNL     1       0.547  -0.963   1.495  1.00  0.00    -0.390 OA
HETATM   18  C17 UNL     1      -0.689  -1.044   1.962  1.00  0.00     0.172 C 
ENDROOT
BRANCH  11  19
HETATM   19  N1  UNL     1      -1.960   2.682  -0.822  1.00  0.00    -0.075 N 
ATOM     20  H13 UNL     1      -2.881   2.398  -1.155  1.00  0.00     0.274 HD
ATOM     21  H12 UNL     1      -2.250   2.933   0.123  1.00  0.00     0.274 HD
ATOM     22  H11 UNL     1      -1.550   3.454  -1.348  1.00  0.00     0.274 HD
ENDBRANCH  11  19
TORSDOF 1
