REMARK  4 active torsions:
REMARK  status: ('A' for Active; 'I' for Inactive)
REMARK    1  A    between atoms: C1_2  and  C2_3 
REMARK       I    between atoms: C1_2  and  N1_7 
REMARK    2  A    between atoms: C2_3  and  C3_4 
REMARK    3  A    between atoms: C3_4  and  C4_5 
REMARK    4  A    between atoms: N1_7  and  C5_9 
ROOT
HETATM    1  O1  UNL     1       0.889  -1.532  -0.531  1.00  0.00    -0.274 OA
HETATM    2  C1  UNL     1       1.032  -0.390  -0.046  1.00  0.00     0.217 C 
HETATM    3  N1  UNL     1      -0.098   0.446   0.132  1.00  0.00    -0.355 N 
ATOM      4  H1  UNL     1       0.017   1.379   0.528  1.00  0.00     0.162 HD
ENDROOT
BRANCH   3   5
HETATM    5  C5  UNL     1      -1.393  -0.013  -0.240  1.00  0.00     0.098 C 
HETATM    6  C6  UNL     1      -2.097   0.900  -1.219  1.00  0.00     0.026 C 
HETATM    7  C7  UNL     1      -3.577   0.795  -0.920  1.00  0.00     0.003 C 
HETATM    8  C8  UNL     1      -3.682  -0.285   0.162  1.00  0.00     0.018 C 
HETATM    9  C9  UNL     1      -2.376  -0.015   0.920  1.00  0.00     0.080 C 
HETATM   10 BR1  UNL     1      -2.536   1.757   1.670  1.00  0.00    -0.089 Br
ENDBRANCH   3   5
BRANCH   2  11
HETATM   11  C2  UNL     1       2.383   0.077   0.338  1.00  0.00     0.104 C 
BRANCH  11  12
HETATM   12  C3  UNL     1       3.374  -0.998   0.043  1.00  0.00     0.024 C 
BRANCH  12  13
HETATM   13  C4  UNL     1       4.779  -0.581   0.415  1.00  0.00     0.115 C 
HETATM   14 CL1  UNL     1       4.843  -0.218   2.150  1.00  0.00    -0.130 Cl
ENDBRANCH  12  13
ENDBRANCH  11  12
ENDBRANCH   2  11
TORSDOF 4
