REMARK  8 active torsions:
REMARK  status: ('A' for Active; 'I' for Inactive)
REMARK    1  A    between atoms: C1_2  and  C2_4 
REMARK    2  A    between atoms: C2_4  and  C3_5 
REMARK    3  A    between atoms: C3_5  and  C4_6 
REMARK    4  A    between atoms: C7_10  and  C8_11 
REMARK    5  A    between atoms: C8_11  and  C9_13 
REMARK    6  A    between atoms: C12_17  and  C13_18 
REMARK    7  A    between atoms: C13_18  and  O4_19 
REMARK    8  A    between atoms: C13_18  and  C14_21 
ROOT
HETATM    1  C9  UNL     1       1.020   0.140   0.565  1.00  0.00     0.038 A 
HETATM    2  C10 UNL     1       1.580  -0.743  -0.319  1.00  0.00     0.042 A 
HETATM    3  C11 UNL     1       2.982  -0.868  -0.384  1.00  0.00     0.048 A 
HETATM    4 CL1  UNL     1       3.623  -2.008  -1.528  1.00  0.00    -0.083 Cl
HETATM    5  C12 UNL     1       3.808  -0.134   0.406  1.00  0.00     0.021 A 
HETATM    6  C15 UNL     1       3.188   0.758   1.293  1.00  0.00     0.040 A 
HETATM    7  C16 UNL     1       1.848   0.905   1.386  1.00  0.00     0.049 A 
HETATM    8 CL5  UNL     1       1.043   2.020   2.486  1.00  0.00    -0.083 Cl
ENDROOT
BRANCH   1   9
HETATM    9  C8  UNL     1      -0.419   0.234   0.660  1.00  0.00     0.195 C 
HETATM   10  O3  UNL     1      -0.853   0.459   1.847  1.00  0.00    -0.287 OA
BRANCH   9  11
HETATM   11  C7  UNL     1      -1.354   0.096  -0.466  1.00  0.00     0.028 A 
HETATM   12  C4  UNL     1      -2.689  -0.243  -0.228  1.00  0.00    -0.003 A 
HETATM   13  S1  UNL     1      -3.366  -0.252  -1.777  1.00  0.00    -0.105 SA
HETATM   14  C5  UNL     1      -2.001   0.160  -2.698  1.00  0.00     0.051 A 
HETATM   15  C6  UNL     1      -1.024   0.297  -1.747  1.00  0.00     0.024 A 
BRANCH  12  16
HETATM   16  C3  UNL     1      -3.302  -0.520   1.118  1.00  0.00     0.057 C 
BRANCH  16  17
HETATM   17  C2  UNL     1      -4.732  -0.947   0.920  1.00  0.00     0.118 C 
BRANCH  17  18
HETATM   18  C1  UNL     1      -5.595   0.045   0.275  1.00  0.00     0.172 C 
HETATM   19  O1  UNL     1      -6.754  -0.339  -0.121  1.00  0.00    -0.648 OA
HETATM   20  O2  UNL     1      -5.249   1.351   0.073  1.00  0.00    -0.648 OA
ENDBRANCH  17  18
ENDBRANCH  16  17
ENDBRANCH  12  16
ENDBRANCH   9  11
ENDBRANCH   1   9
BRANCH   5  21
HETATM   21  C13 UNL     1       5.240  -0.247   0.409  1.00  0.00     0.109 C 
BRANCH  21  22
HETATM   22  O4  UNL     1       5.783  -0.929   1.374  1.00  0.00    -0.360 OA
ATOM     23  H4  UNL     1       6.730  -1.004   1.376  1.00  0.00     0.217 HD
ENDBRANCH  21  22
BRANCH  21  24
HETATM   24  C14 UNL     1       6.201   0.312  -0.547  1.00  0.00     0.237 C 
HETATM   25 CL2  UNL     1       6.679  -0.890  -1.760  1.00  0.00    -0.076 Cl
HETATM   26 CL3  UNL     1       5.538   1.727  -1.416  1.00  0.00    -0.076 Cl
HETATM   27 CL4  UNL     1       7.668   0.799   0.386  1.00  0.00    -0.076 Cl
ENDBRANCH  21  24
ENDBRANCH   5  21
TORSDOF 8
