REMARK  6 active torsions:
REMARK  status: ('A' for Active; 'I' for Inactive)
REMARK    1  A    between atoms: C2_2  and  O1_3 
REMARK    2  A    between atoms: O1_3  and  N1_4 
REMARK    3  A    between atoms: C3_6  and  C4_7 
REMARK    4  A    between atoms: C3_6  and  C17_26 
REMARK    5  A    between atoms: C8_12  and  C9_13 
REMARK       I    between atoms: C9_13  and  N2_15 
REMARK    6  A    between atoms: N2_15  and  C10_17 
ROOT
HETATM    1  C10 UNL     1       4.497  -1.288   0.326  1.00  0.00     0.125 C 
HETATM    2  C11 UNL     1       4.947  -1.461   1.732  1.00  0.00     0.091 C 
HETATM    3  N3  UNL     1       5.288  -1.615   2.827  1.00  0.00    -0.195 NA
HETATM    4  C12 UNL     1       4.216  -2.622  -0.290  1.00  0.00     0.049 C 
HETATM    5  C13 UNL     1       5.229  -2.880  -1.375  1.00  0.00     0.041 C 
HETATM    6  C14 UNL     1       6.382  -2.002  -0.998  1.00  0.00     0.173 C 
HETATM    7  F1  UNL     1       7.202  -2.563  -0.069  1.00  0.00    -0.249 F 
HETATM    8  C15 UNL     1       5.680  -0.771  -0.465  1.00  0.00     0.084 C 
ENDROOT
BRANCH   1   9
HETATM    9  N2  UNL     1       3.377  -0.405   0.337  1.00  0.00    -0.335 N 
HETATM   10  C9  UNL     1       2.661   0.002  -0.818  1.00  0.00     0.254 C 
HETATM   11  O2  UNL     1       3.039  -0.447  -1.928  1.00  0.00    -0.268 OA
ATOM     12  H2  UNL     1       3.069  -0.041   1.239  1.00  0.00     0.164 HD
BRANCH  10  13
HETATM   13  C8  UNL     1       1.528   0.897  -0.797  1.00  0.00     0.054 A 
HETATM   14  C7  UNL     1       1.739   2.261  -0.915  1.00  0.00     0.049 A 
HETATM   15  C6  UNL     1       0.699   3.156  -0.901  1.00  0.00     0.026 A 
HETATM   16 CL1  UNL     1       3.366   2.930  -1.093  1.00  0.00    -0.083 Cl
HETATM   17  C5  UNL     1      -0.620   2.725  -0.766  1.00  0.00     0.015 A 
HETATM   18  C4  UNL     1      -0.857   1.383  -0.647  1.00  0.00    -0.010 A 
HETATM   19  C16 UNL     1       0.218   0.506  -0.665  1.00  0.00     0.032 A 
BRANCH  18  20
HETATM   20  C3  UNL     1      -2.222   0.907  -0.526  1.00  0.00     0.046 C 
HETATM   21  N1  UNL     1      -3.228   1.617  -0.593  1.00  0.00    -0.270 N 
ATOM     22  H1  UNL     1      -4.050   1.025  -0.474  1.00  0.00     0.194 HD
BRANCH  21  23
HETATM   23  O1  UNL     1      -3.625   2.848  -0.760  1.00  0.00    -0.281 OA
BRANCH  23  24
HETATM   24  C2  UNL     1      -4.709   3.518  -0.181  1.00  0.00     0.196 C 
HETATM   25  C1  UNL     1      -4.766   4.941  -0.683  1.00  0.00     0.036 C 
ENDBRANCH  23  24
ENDBRANCH  21  23
BRANCH  20  26
HETATM   26  C17 UNL     1      -2.410  -0.576  -0.265  1.00  0.00     0.039 C 
HETATM   27  C18 UNL     1      -3.905  -0.906  -0.263  1.00  0.00     0.017 C 
HETATM   28  C19 UNL     1      -4.076  -2.336   0.125  1.00  0.00     0.080 C 
HETATM   29  C20 UNL     1      -3.696  -2.504   1.582  1.00  0.00     0.243 C 
HETATM   30  F2  UNL     1      -4.793  -2.813   2.343  1.00  0.00    -0.206 F 
HETATM   31  F3  UNL     1      -2.821  -3.574   1.640  1.00  0.00    -0.206 F 
HETATM   32  C21 UNL     1      -2.980  -1.263   2.089  1.00  0.00     0.080 C 
HETATM   33  C22 UNL     1      -1.885  -0.927   1.128  1.00  0.00     0.017 C 
ENDBRANCH  20  26
ENDBRANCH  18  20
ENDBRANCH  10  13
ENDBRANCH   1   9
TORSDOF 6
