REMARK  7 active torsions:
REMARK  status: ('A' for Active; 'I' for Inactive)
REMARK    1  A    between atoms: N1_2  and  O1_3 
REMARK    2  A    between atoms: N1_2  and  C2_5 
REMARK    3  A    between atoms: C3_8  and  N3_9 
REMARK    4  A    between atoms: C8_17  and  N5_18 
REMARK    5  A    between atoms: N5_18  and  C9_20 
REMARK    6  A    between atoms: C9_20  and  C10_21 
REMARK    7  A    between atoms: C10_21  and  N6_22 
ROOT
HETATM    1  C2  UNL     1      -1.410   2.070   0.125  1.00  0.00     0.167 A 
HETATM    2  N2  UNL     1      -2.060   0.900   0.248  1.00  0.00    -0.173 N 
ATOM      3  H2  UNL     1      -3.044   0.900   0.518  1.00  0.00     0.186 HD
HETATM    4  C3  UNL     1      -1.441  -0.264   0.023  1.00  0.00     0.683 A 
HETATM    5  N4  UNL     1      -0.148  -0.254  -0.331  1.00  0.00    -0.175 N 
ATOM      6  H4  UNL     1       0.321  -1.144  -0.502  1.00  0.00     0.186 HD
HETATM    7  C8  UNL     1       0.551   0.877  -0.469  1.00  0.00     0.141 A 
HETATM    8  C12 UNL     1      -0.084   2.103  -0.237  1.00  0.00     0.135 A 
HETATM    9  C13 UNL     1       0.664   3.339  -0.383  1.00  0.00     0.107 C 
HETATM   10  N9  UNL     1       1.278   4.311  -0.506  1.00  0.00    -0.191 NA
ENDROOT
BRANCH   1  11
HETATM   11  N1  UNL     1      -2.107   3.295   0.374  1.00  0.00    -0.247 N 
HETATM   12  C1  UNL     1      -3.525   3.222   0.759  1.00  0.00     0.187 C 
BRANCH  11  13
HETATM   13  O1  UNL     1      -1.567   4.517   0.284  1.00  0.00    -0.286 OA
ATOM     14  H1  UNL     1      -0.651   4.564   0.035  1.00  0.00     0.244 HD
ENDBRANCH  11  13
ENDBRANCH   1  11
BRANCH   7  15
HETATM   15  N5  UNL     1       1.913   0.862  -0.852  1.00  0.00    -0.373 N 
ATOM     16  H5  UNL     1       2.391   1.757  -0.954  1.00  0.00     0.161 HD
BRANCH  15  17
HETATM   17  C9  UNL     1       2.664  -0.337  -1.106  1.00  0.00     0.141 C 
BRANCH  17  18
HETATM   18  C10 UNL     1       2.837  -1.226   0.100  1.00  0.00     0.141 C 
BRANCH  18  19
HETATM   19  N6  UNL     1       3.544  -0.433   1.110  1.00  0.00    -0.365 N 
HETATM   20  C11 UNL     1       4.819  -0.294   1.091  1.00  0.00     0.197 C 
HETATM   21  N7  UNL     1       5.617  -0.898   0.091  1.00  0.00    -0.067 NA
HETATM   22  N8  UNL     1       5.439   0.484   2.094  1.00  0.00    -0.067 NA
ATOM     23  H6  UNL     1       3.007   0.021   1.849  1.00  0.00     0.161 HD
ENDBRANCH  18  19
ENDBRANCH  17  18
ENDBRANCH  15  17
ENDBRANCH   7  15
BRANCH   4  24
HETATM   24  N3  UNL     1      -2.162  -1.506   0.162  1.00  0.00    -0.216 N 
HETATM   25  C4  UNL     1      -1.462  -2.735  -0.088  1.00  0.00     0.151 C 
HETATM   26  C5  UNL     1      -1.959  -3.323  -1.410  1.00  0.00     0.094 C 
HETATM   27  S1  UNL     1      -3.748  -3.599  -1.200  1.00  0.00    -0.166 SA
HETATM   28  C6  UNL     1      -4.433  -2.018  -0.572  1.00  0.00     0.094 C 
HETATM   29  C7  UNL     1      -3.544  -1.481   0.543  1.00  0.00     0.151 C 
ENDBRANCH   4  24
TORSDOF 7
