REMARK  7 active torsions:
REMARK  status: ('A' for Active; 'I' for Inactive)
REMARK    1  A    between atoms: O1_1  and  C1_3 
REMARK    2  A    between atoms: C1_3  and  C2_4 
REMARK    3  A    between atoms: C3_6  and  C4_7 
REMARK    4  A    between atoms: C5_8  and  C6_9 
REMARK    5  A    between atoms: C6_9  and  O3_10 
REMARK    6  A    between atoms: O3_10  and  C7_11 
REMARK    7  A    between atoms: C17_23  and  O6_24 
ROOT
HETATM    1  C6  UNL     1       0.555  -1.252  -0.512  1.00  0.00     0.198 C 
ENDROOT
BRANCH   1   2
HETATM    2  C5  UNL     1       1.125  -2.066  -1.584  1.00  0.00     0.002 C 
HETATM    3  C4  UNL     1       2.374  -2.148  -1.905  1.00  0.00     0.035 C 
BRANCH   3   4
HETATM    4  C3  UNL     1       3.512  -1.470  -1.300  1.00  0.00     0.078 A 
HETATM    5  O2  UNL     1       3.569  -0.625  -0.305  1.00  0.00    -0.310 OA
HETATM    6  C2  UNL     1       4.771  -0.220  -0.037  1.00  0.00     0.110 A 
HETATM    7  C17 UNL     1       5.641  -0.827  -0.913  1.00  0.00     0.100 A 
HETATM    8  C16 UNL     1       4.844  -1.616  -1.710  1.00  0.00     0.076 A 
BRANCH   6   9
HETATM    9  C1  UNL     1       5.237   0.733   1.014  1.00  0.00     0.232 C 
BRANCH   9  10
HETATM   10  O1  UNL     1       4.110   1.152   1.712  1.00  0.00    -0.394 OA
ATOM     11  H1  UNL     1       4.406   1.758   2.381  1.00  0.00     0.209 HD
ENDBRANCH   9  10
ENDBRANCH   6   9
BRANCH   7  12
HETATM   12  O6  UNL     1       7.035  -0.683  -0.989  1.00  0.00    -0.358 OA
ATOM     13  H6  UNL     1       7.636  -1.102  -1.594  1.00  0.00     0.217 HD
ENDBRANCH   7  12
ENDBRANCH   3   4
ENDBRANCH   1   2
BRANCH   1  14
HETATM   14  O3  UNL     1      -0.377  -0.314  -1.005  1.00  0.00    -0.355 OA
BRANCH  14  15
HETATM   15  C7  UNL     1      -0.863   0.404   0.051  1.00  0.00     0.294 C 
HETATM   16  O4  UNL     1      -0.573   1.767  -0.033  1.00  0.00    -0.356 OA
HETATM   17  C8  UNL     1      -0.868   2.349   1.183  1.00  0.00     0.197 C 
HETATM   18  C9  UNL     1      -1.697   1.507   2.090  1.00  0.00     0.195 C 
HETATM   19  O5  UNL     1      -2.678   0.781   1.474  1.00  0.00    -0.373 OA
HETATM   20  C10 UNL     1      -2.353   0.288   0.235  1.00  0.00     0.110 C 
HETATM   21  C11 UNL     1      -3.100   1.147  -0.795  1.00  0.00     0.043 C 
HETATM   22  C15 UNL     1      -2.875  -1.102   0.100  1.00  0.00     0.043 C 
HETATM   23  C12 UNL     1      -4.529   1.242  -0.297  1.00  0.00     0.003 C 
HETATM   24  C13 UNL     1      -5.167  -0.125  -0.186  1.00  0.00     0.000 C 
HETATM   25  C14 UNL     1      -4.327  -1.089   0.596  1.00  0.00     0.003 C 
ENDBRANCH  14  15
ENDBRANCH   1  14
TORSDOF 7
