REMARK  5 active torsions:
REMARK  status: ('A' for Active; 'I' for Inactive)
REMARK    1  A    between atoms: C2_3  and  C8_10 
REMARK    2  A    between atoms: C3_4  and  C4_5 
REMARK    3  A    between atoms: C8_10  and  C9_12 
REMARK    4  A    between atoms: C10_13  and  C11_14 
REMARK    5  A    between atoms: C14_17  and  N2_18 
ROOT
HETATM    1  N1  UNL     1      -0.396  -0.799  -2.569  1.00  0.00    -0.191 NA
HETATM    2  C1  UNL     1      -0.863   0.146  -2.066  1.00  0.00     0.103 C 
HETATM    3  C2  UNL     1      -1.426   1.346  -1.445  1.00  0.00     0.097 C 
HETATM    4  C3  UNL     1      -2.227   2.096  -2.054  1.00  0.00     0.064 C 
ENDROOT
BRANCH   3   5
HETATM    5  C8  UNL     1      -1.025   1.569  -0.031  1.00  0.00     0.192 C 
HETATM    6  O2  UNL     1      -1.458   2.513   0.615  1.00  0.00    -0.287 OA
BRANCH   5   7
HETATM    7  C9  UNL     1      -0.093   0.613   0.581  1.00  0.00     0.057 C 
HETATM    8  C10 UNL     1       0.327   0.631   1.808  1.00  0.00     0.019 C 
BRANCH   8   9
HETATM    9  C11 UNL     1       1.262  -0.403   2.261  1.00  0.00     0.008 A 
HETATM   10  C12 UNL     1       1.859  -1.278   1.379  1.00  0.00     0.019 A 
HETATM   11  C13 UNL     1       2.657  -2.310   1.857  1.00  0.00     0.056 A 
HETATM   12  C14 UNL     1       2.900  -2.529   3.193  1.00  0.00     0.175 A 
HETATM   13  N3  UNL     1       2.307  -1.656   4.041  1.00  0.00    -0.323 N 
HETATM   14  C15 UNL     1       1.524  -0.638   3.600  1.00  0.00     0.110 A 
ATOM     15  H3  UNL     1       2.453  -1.767   5.044  1.00  0.00     0.169 HD
HETATM   16  N4  UNL     1       1.006   0.168   4.481  1.00  0.00    -0.385 N 
ATOM     17  H42 UNL     1       0.418   0.933   4.150  1.00  0.00     0.157 HD
ATOM     18  H41 UNL     1       1.199  -0.005   5.467  1.00  0.00     0.157 HD
BRANCH  12  19
HETATM   19  N2  UNL     1       3.737  -3.603   3.603  1.00  0.00    -0.098 N 
HETATM   20  O3  UNL     1       4.261  -4.308   2.719  1.00  0.00    -0.531 OA
HETATM   21  O4  UNL     1       4.002  -3.879   4.909  1.00  0.00    -0.531 OA
ENDBRANCH  12  19
ENDBRANCH   8   9
ENDBRANCH   5   7
ENDBRANCH   3   5
BRANCH   4  22
HETATM   22  C4  UNL     1      -2.637   1.790  -3.417  1.00  0.00     0.076 A 
HETATM   23  C5  UNL     1      -2.822   2.726  -4.454  1.00  0.00     0.039 A 
HETATM   24  C6  UNL     1      -3.206   2.035  -5.560  1.00  0.00     0.027 A 
HETATM   25  C7  UNL     1      -3.252   0.704  -5.207  1.00  0.00     0.142 A 
HETATM   26  O1  UNL     1      -2.913   0.627  -3.955  1.00  0.00    -0.323 OA
ENDBRANCH   4  22
TORSDOF 5
