REMARK  19 active torsions:
REMARK  status: ('A' for Active; 'I' for Inactive)
REMARK    1  A    between atoms: C2_2  and  C10_25 
REMARK    2  A    between atoms: N1_3  and  O1_5 
REMARK    3  A    between atoms: O1_5  and  C3_6 
REMARK    4  A    between atoms: C4_7  and  N2_8 
REMARK    5  A    between atoms: C6_13  and  O2_14 
REMARK    6  A    between atoms: C7_16  and  C8_17 
REMARK    7  A    between atoms: C8_17  and  N3_18 
REMARK    8  A    between atoms: C9_22  and  O3_23 
REMARK    9  A    between atoms: C10_25  and  O4_26 
REMARK   10  A    between atoms: C10_25  and  N4_28 
REMARK   11  A    between atoms: N4_28  and  C11_30 
REMARK   12  A    between atoms: C11_30  and  O5_31 
REMARK   13  A    between atoms: C11_30  and  O6_33 
REMARK   14  A    between atoms: O6_33  and  C12_34 
REMARK   15  A    between atoms: C15_40  and  C16_41 
REMARK   16  A    between atoms: C16_41  and  O7_42 
REMARK   17  A    between atoms: C17_44  and  O8_45 
REMARK   18  A    between atoms: C18_47  and  O9_48 
REMARK   19  A    between atoms: C19_50  and  O10_51 
ROOT
HETATM    1  C12 UNL     1       3.563   0.608   0.570  1.00  0.00     0.204 C 
HETATM    2  C13 UNL     1       4.956   0.470   0.098  1.00  0.00     0.037 C 
HETATM    3  N5  UNL     1       5.873   1.341   0.196  1.00  0.00    -0.298 N 
ATOM      4  H5  UNL     1       6.795   1.111  -0.175  1.00  0.00     0.177 HD
HETATM    5  C14 UNL     1       5.697   2.585   0.776  1.00  0.00     0.181 C 
HETATM    6  N6  UNL     1       5.572   3.636   1.261  1.00  0.00    -0.172 NA
HETATM    7  C15 UNL     1       5.298  -0.844  -0.557  1.00  0.00     0.089 C 
HETATM    8  C17 UNL     1       4.905  -1.914   0.428  1.00  0.00     0.161 C 
HETATM    9  C18 UNL     1       4.519  -1.371   1.781  1.00  0.00     0.179 C 
HETATM   10  C19 UNL     1       3.418  -0.355   1.736  1.00  0.00     0.184 C 
ENDROOT
BRANCH   1  11
HETATM   11  O6  UNL     1       3.190   1.885   0.888  1.00  0.00    -0.331 OA
BRANCH  11  12
HETATM   12  C11 UNL     1       2.091   2.245   0.069  1.00  0.00     0.366 C 
BRANCH  12  13
HETATM   13  N4  UNL     1       1.031   2.572   0.954  1.00  0.00    -0.345 N 
ATOM     14  H4  UNL     1       1.167   2.534   1.964  1.00  0.00     0.161 HD
BRANCH  13  15
HETATM   15  C10 UNL     1      -0.219   2.952   0.408  1.00  0.00     0.265 C 
BRANCH  15  16
HETATM   16  C2  UNL     1      -0.919   1.895  -0.385  1.00  0.00     0.054 C 
HETATM   17  C1  UNL     1      -0.497   1.478  -1.733  1.00  0.00     0.070 C 
HETATM   18  N1  UNL     1      -1.919   1.335   0.148  1.00  0.00    -0.270 N 
ATOM     19  H1  UNL     1      -2.116   1.705   1.078  1.00  0.00     0.194 HD
BRANCH  18  20
HETATM   20  O1  UNL     1      -2.769   0.392  -0.201  1.00  0.00    -0.270 OA
BRANCH  20  21
HETATM   21  C3  UNL     1      -3.800   0.469  -1.132  1.00  0.00     0.211 C 
HETATM   22  C4  UNL     1      -3.977  -0.795  -1.929  1.00  0.00     0.219 C 
HETATM   23  C5  UNL     1      -3.832  -1.926  -0.931  1.00  0.00     0.067 C 
HETATM   24  C6  UNL     1      -4.774  -1.806   0.221  1.00  0.00     0.128 C 
HETATM   25  C7  UNL     1      -5.599  -0.587   0.304  1.00  0.00     0.071 C 
HETATM   26  C9  UNL     1      -5.131   0.635  -0.381  1.00  0.00     0.159 C 
BRANCH  22  27
HETATM   27  N2  UNL     1      -3.032  -0.991  -2.982  1.00  0.00    -0.072 N 
ATOM     28  H23 UNL     1      -3.028  -0.183  -3.604  1.00  0.00     0.274 HD
ATOM     29  H22 UNL     1      -2.082  -0.939  -2.614  1.00  0.00     0.274 HD
ATOM     30  H21 UNL     1      -3.152  -1.848  -3.522  1.00  0.00     0.274 HD
ENDBRANCH  22  27
BRANCH  24  31
HETATM   31  O2  UNL     1      -4.073  -2.041   1.429  1.00  0.00    -0.395 OA
ATOM     32  H2  UNL     1      -4.672  -1.965   2.162  1.00  0.00     0.210 HD
ENDBRANCH  24  31
BRANCH  25  33
HETATM   33  C8  UNL     1      -7.058  -0.891  -0.076  1.00  0.00     0.239 C 
BRANCH  33  34
HETATM   34  N3  UNL     1      -7.608  -1.884   0.827  1.00  0.00    -0.079 N 
ATOM     35  H33 UNL     1      -7.037  -2.729   0.860  1.00  0.00     0.274 HD
ATOM     36  H32 UNL     1      -7.517  -1.605   1.804  1.00  0.00     0.274 HD
ATOM     37  H31 UNL     1      -8.576  -2.086   0.575  1.00  0.00     0.274 HD
ENDBRANCH  33  34
ENDBRANCH  25  33
BRANCH  26  38
HETATM   38  O3  UNL     1      -4.959   1.736   0.463  1.00  0.00    -0.392 OA
ATOM     39  H3  UNL     1      -5.782   1.839   0.927  1.00  0.00     0.210 HD
ENDBRANCH  26  38
ENDBRANCH  20  21
ENDBRANCH  18  20
ENDBRANCH  15  16
BRANCH  15  40
HETATM   40  O4  UNL     1      -1.060   3.237   1.511  1.00  0.00    -0.372 OA
ATOM     41  H4  UNL     1      -0.615   3.909   2.015  1.00  0.00     0.212 HD
ENDBRANCH  15  40
ENDBRANCH  13  15
ENDBRANCH  12  13
BRANCH  12  42
HETATM   42  O5  UNL     1       2.461   3.312  -0.761  1.00  0.00    -0.355 OA
ATOM     43  H5  UNL     1       3.171   3.093  -1.353  1.00  0.00     0.214 HD
ENDBRANCH  12  42
ENDBRANCH  11  12
ENDBRANCH   1  11
BRANCH   7  44
HETATM   44  C16 UNL     1       6.749  -0.894  -0.924  1.00  0.00     0.177 C 
BRANCH  44  45
HETATM   45  O7  UNL     1       6.986   0.165  -1.818  1.00  0.00    -0.400 OA
ATOM     46  H7  UNL     1       7.906   0.133  -2.051  1.00  0.00     0.209 HD
ENDBRANCH  44  45
ENDBRANCH   7  44
BRANCH  10  47
HETATM   47  O10 UNL     1       3.420   0.361   2.934  1.00  0.00    -0.390 OA
ATOM     48  H10 UNL     1       3.329  -0.241   3.663  1.00  0.00     0.210 HD
ENDBRANCH  10  47
BRANCH   8  49
HETATM   49  O8  UNL     1       6.053  -2.709   0.639  1.00  0.00    -0.392 OA
ATOM     50  H8  UNL     1       5.805  -3.384   1.260  1.00  0.00     0.210 HD
ENDBRANCH   8  49
BRANCH   9  51
HETATM   51  O9  UNL     1       4.013  -2.472   2.511  1.00  0.00    -0.390 OA
ATOM     52  H9  UNL     1       3.770  -2.130   3.363  1.00  0.00     0.210 HD
ENDBRANCH   9  51
TORSDOF 19
