REMARK  12 active torsions:
REMARK  status: ('A' for Active; 'I' for Inactive)
REMARK    1  A    between atoms: C2_2  and  C3_3 
REMARK    2  A    between atoms: C3_3  and  C4_4 
REMARK    3  A    between atoms: C3_3  and  C6_6 
REMARK       I    between atoms: C6_6  and  N1_8 
REMARK       I    between atoms: N1_8  and  C7_10 
REMARK    4  A    between atoms: C7_10  and  C8_12 
REMARK    5  A    between atoms: C10_14  and  O3_15 
REMARK    6  A    between atoms: C12_18  and  S1_19 
REMARK    7  A    between atoms: S1_19  and  C13_20 
REMARK    8  A    between atoms: C15_22  and  O4_23 
REMARK    9  A    between atoms: O4_23  and  C16_24 
REMARK   10  A    between atoms: C19_27  and  O5_28 
REMARK   11  A    between atoms: C20_30  and  C21_31 
REMARK   12  A    between atoms: C21_31  and  O6_32 
ROOT
HETATM    1  C8  UNL     1      -1.187  -0.642   1.512  1.00  0.00     0.094 C 
HETATM    2  C9  UNL     1      -1.292  -1.939   2.222  1.00  0.00     0.047 C 
HETATM    3  C10 UNL     1      -0.388  -2.900   1.528  1.00  0.00     0.120 C 
HETATM    4  C11 UNL     1       0.444  -2.062   0.575  1.00  0.00     0.048 C 
HETATM    5  C12 UNL     1      -0.403  -0.878   0.251  1.00  0.00     0.065 C 
ENDROOT
BRANCH   5   6
HETATM    6  S1  UNL     1       0.550   0.645  -0.029  1.00  0.00    -0.132 SA
BRANCH   6   7
HETATM    7  C13 UNL     1       1.523   0.630  -1.549  1.00  0.00     0.186 C 
HETATM    8  C14 UNL     1       2.655  -0.340  -1.533  1.00  0.00     0.077 C 
HETATM    9  C15 UNL     1       3.795   0.106  -0.653  1.00  0.00     0.156 C 
HETATM   10  C19 UNL     1       3.862   1.612  -0.562  1.00  0.00     0.178 C 
HETATM   11  C20 UNL     1       3.173   2.270  -1.731  1.00  0.00     0.177 C 
HETATM   12  O7  UNL     1       1.873   1.924  -1.810  1.00  0.00    -0.365 OA
BRANCH   9  13
HETATM   13  O4  UNL     1       4.978  -0.357  -1.210  1.00  0.00    -0.379 OA
BRANCH  13  14
HETATM   14  C16 UNL     1       5.684  -1.182  -0.344  1.00  0.00     0.114 C 
HETATM   15  C17 UNL     1       5.827  -2.532  -1.006  1.00  0.00     0.039 C 
HETATM   16  C18 UNL     1       7.099  -0.654  -0.113  1.00  0.00     0.039 C 
ENDBRANCH  13  14
ENDBRANCH   9  13
BRANCH  10  17
HETATM   17  O5  UNL     1       3.268   2.086   0.604  1.00  0.00    -0.390 OA
ATOM     18  H5  UNL     1       3.310   3.033   0.661  1.00  0.00     0.210 HD
ENDBRANCH  10  17
BRANCH  11  19
HETATM   19  C21 UNL     1       3.239   3.781  -1.463  1.00  0.00     0.198 C 
BRANCH  19  20
HETATM   20  O6  UNL     1       4.545   4.209  -1.366  1.00  0.00    -0.398 OA
ATOM     21  H6  UNL     1       4.586   5.144  -1.200  1.00  0.00     0.209 HD
ENDBRANCH  19  20
ENDBRANCH  11  19
ENDBRANCH   6   7
ENDBRANCH   5   6
BRANCH   1  22
HETATM   22  C7  UNL     1      -2.554  -0.096   1.186  1.00  0.00     0.229 C 
HETATM   23  N1  UNL     1      -3.366  -0.914   0.352  1.00  0.00    -0.297 N 
HETATM   24  C6  UNL     1      -4.668  -0.618  -0.086  1.00  0.00     0.228 C 
ATOM     25  H1  UNL     1      -2.965  -1.799   0.043  1.00  0.00     0.171 HD
HETATM   26  O1  UNL     1      -5.216  -1.474  -0.878  1.00  0.00    -0.273 OA
HETATM   27  O2  UNL     1      -2.942   0.996   1.621  1.00  0.00    -0.273 OA
BRANCH  24  28
HETATM   28  C3  UNL     1      -5.475   0.563   0.266  1.00  0.00     0.077 C 
BRANCH  28  29
HETATM   29  C2  UNL     1      -6.632   0.684  -0.748  1.00  0.00     0.009 C 
HETATM   30  C1  UNL     1      -6.095   0.853  -2.145  1.00  0.00     0.006 C 
ENDBRANCH  28  29
BRANCH  28  31
HETATM   31  C4  UNL     1      -6.181   0.405   1.598  1.00  0.00     0.009 C 
HETATM   32  C5  UNL     1      -7.035   1.647   1.808  1.00  0.00     0.006 C 
ENDBRANCH  28  31
ENDBRANCH  24  28
ENDBRANCH   1  22
BRANCH   3  33
HETATM   33  O3  UNL     1       0.405  -3.653   2.393  1.00  0.00    -0.396 OA
ATOM     34  H3  UNL     1       0.981  -4.265   1.951  1.00  0.00     0.210 HD
ENDBRANCH   3  33
TORSDOF 12
