REMARK  15 active torsions:
REMARK  status: ('A' for Active; 'I' for Inactive)
REMARK    1  A    between atoms: C2_2  and  O2_4 
REMARK    2  A    between atoms: O2_4  and  C3_5 
REMARK    3  A    between atoms: C4_6  and  O3_7 
REMARK    4  A    between atoms: O3_7  and  C5_8 
REMARK    5  A    between atoms: C5_8  and  C6_10 
REMARK    6  A    between atoms: C7_11  and  O5_12 
REMARK    7  A    between atoms: C7_11  and  C8_14 
REMARK    8  A    between atoms: C9_17  and  N1_18 
REMARK       I    between atoms: N1_18  and  C10_20 
REMARK    9  A    between atoms: C10_20  and  O8_22 
REMARK   10  A    between atoms: O8_22  and  C11_23 
REMARK   11  A    between atoms: C15_27  and  N2_28 
REMARK   12  A    between atoms: N2_28  and  C16_30 
REMARK   13  A    between atoms: C21_43  and  N6_44 
REMARK   14  A    between atoms: C22_49  and  O10_50 
REMARK   15  A    between atoms: O10_50  and  C23_51 
ROOT
HETATM    1  C3  UNL     1      -1.046  -1.673  -1.265  1.00  0.00     0.219 C 
HETATM    2  C4  UNL     1      -2.047  -0.915  -0.412  1.00  0.00     0.304 C 
HETATM    3  O6  UNL     1      -1.327  -0.375   0.637  1.00  0.00    -0.331 OA
HETATM    4  C9  UNL     1      -0.346   0.535   0.257  1.00  0.00     0.254 C 
HETATM    5  C15 UNL     1       0.652  -0.004  -0.727  1.00  0.00     0.180 C 
HETATM    6  C22 UNL     1      -0.100  -0.677  -1.851  1.00  0.00     0.193 C 
ENDROOT
BRANCH   5   7
HETATM    7  N2  UNL     1       1.645  -0.871  -0.174  1.00  0.00    -0.214 N 
ATOM      8  H2  UNL     1       1.561  -1.863  -0.397  1.00  0.00     0.178 HD
BRANCH   7   9
HETATM    9  C16 UNL     1       2.733  -0.498   0.651  1.00  0.00     0.681 A 
HETATM   10  N3  UNL     1       3.592  -1.430   1.120  1.00  0.00    -0.184 N 
HETATM   11  C17 UNL     1       4.642  -1.147   1.880  1.00  0.00     0.147 A 
ATOM     12  H3  UNL     1       3.424  -2.406   0.876  1.00  0.00     0.184 HD
HETATM   13  C18 UNL     1       5.516  -2.097   2.356  1.00  0.00     0.277 A 
HETATM   14  C20 UNL     1       4.847   0.179   2.196  1.00  0.00     0.112 A 
HETATM   15  O9  UNL     1       5.329  -3.328   2.065  1.00  0.00    -0.266 OA
HETATM   16  N4  UNL     1       6.561  -1.722   3.125  1.00  0.00    -0.298 N 
HETATM   17  C19 UNL     1       6.759  -0.418   3.434  1.00  0.00     0.182 A 
ATOM     18  H4  UNL     1       7.208  -2.428   3.477  1.00  0.00     0.171 HD
HETATM   19 CL1  UNL     1       8.129   0.035   4.437  1.00  0.00    -0.045 Cl
HETATM   20  N5  UNL     1       5.903   0.508   2.967  1.00  0.00    -0.327 N 
ATOM     21  H5  UNL     1       6.057   1.488   3.203  1.00  0.00     0.168 HD
HETATM   22  C21 UNL     1       3.976   1.134   1.722  1.00  0.00     0.144 A 
HETATM   23  N7  UNL     1       2.921   0.791   0.951  1.00  0.00    -0.175 N 
ATOM     24  H7  UNL     1       2.279   1.503   0.604  1.00  0.00     0.186 HD
BRANCH  22  25
HETATM   25  N6  UNL     1       4.164   2.378   2.016  1.00  0.00    -0.383 N 
ATOM     26  H62 UNL     1       4.961   2.637   2.598  1.00  0.00     0.157 HD
ATOM     27  H61 UNL     1       3.519   3.086   1.665  1.00  0.00     0.157 HD
ENDBRANCH  22  25
ENDBRANCH   7   9
ENDBRANCH   5   7
BRANCH   4  28
HETATM   28  N1  UNL     1      -0.883   1.774  -0.209  1.00  0.00    -0.308 N 
HETATM   29  C10 UNL     1      -0.697   2.998   0.489  1.00  0.00     0.363 C 
HETATM   30  O7  UNL     1      -0.038   3.019   1.560  1.00  0.00    -0.238 OA
ATOM     31  H1  UNL     1      -1.421   1.780  -1.076  1.00  0.00     0.167 HD
BRANCH  29  32
HETATM   32  O8  UNL     1      -1.223   4.194   0.028  1.00  0.00    -0.294 OA
BRANCH  32  33
HETATM   33  C11 UNL     1      -1.004   5.390   0.770  1.00  0.00     0.061 C 
HETATM   34  C12 UNL     1      -1.664   6.562   0.084  1.00  0.00     0.046 C 
HETATM   35  C13 UNL     1       0.499   5.664   0.802  1.00  0.00     0.046 C 
HETATM   36  C14 UNL     1      -1.552   5.307   2.166  1.00  0.00     0.046 C 
ENDBRANCH  32  33
ENDBRANCH  29  32
ENDBRANCH   4  28
BRANCH   6  37
HETATM   37  O10 UNL     1       0.760  -1.226  -2.817  1.00  0.00    -0.311 OA
BRANCH  37  38
HETATM   38  C23 UNL     1       0.752  -0.754  -4.120  1.00  0.00     0.255 C 
HETATM   39  C24 UNL     1       1.680  -1.372  -5.097  1.00  0.00     0.126 C 
HETATM   40  O11 UNL     1      -0.037   0.183  -4.452  1.00  0.00    -0.266 OA
ENDBRANCH  37  38
ENDBRANCH   6  37
BRANCH   1  41
HETATM   41  O2  UNL     1      -1.693  -2.334  -2.347  1.00  0.00    -0.308 OA
BRANCH  41  42
HETATM   42  C2  UNL     1      -1.682  -3.710  -2.483  1.00  0.00     0.255 C 
HETATM   43  C1  UNL     1      -2.352  -4.424  -3.606  1.00  0.00     0.126 C 
HETATM   44  O1  UNL     1      -1.084  -4.413  -1.630  1.00  0.00    -0.266 OA
ENDBRANCH  41  42
ENDBRANCH   1  41
BRANCH   2  45
HETATM   45  O3  UNL     1      -2.912  -1.894   0.151  1.00  0.00    -0.283 OA
BRANCH  45  46
HETATM   46  C5  UNL     1      -4.252  -1.935   0.024  1.00  0.00     0.288 C 
HETATM   47  O4  UNL     1      -4.759  -0.976  -0.685  1.00  0.00    -0.260 OA
BRANCH  46  48
HETATM   48  C6  UNL     1      -5.086  -2.940   0.609  1.00  0.00     0.120 C 
HETATM   49  C7  UNL     1      -4.841  -3.973   1.338  1.00  0.00     0.098 C 
BRANCH  49  50
HETATM   50  O5  UNL     1      -6.029  -4.719   1.706  1.00  0.00    -0.358 OA
ATOM     51  H5  UNL     1      -5.848  -5.481   2.244  1.00  0.00     0.217 HD
ENDBRANCH  49  50
BRANCH  49  52
HETATM   52  C8  UNL     1      -3.644  -4.578   1.887  1.00  0.00     0.224 C 
HETATM   53  F1  UNL     1      -2.439  -4.048   1.667  1.00  0.00    -0.216 F 
ENDBRANCH  49  52
ENDBRANCH  46  48
ENDBRANCH  45  46
ENDBRANCH   2  45
TORSDOF 15
