REMARK  16 active torsions:
REMARK  status: ('A' for Active; 'I' for Inactive)
REMARK    1  A    between atoms: C1_2  and  O2_3 
REMARK    2  A    between atoms: C1_2  and  O14_35 
REMARK    3  A    between atoms: O2_3  and  C2_4 
REMARK    4  A    between atoms: C2_4  and  C3_6 
REMARK    5  A    between atoms: C3_6  and  O3_7 
REMARK    6  A    between atoms: C3_6  and  C4_9 
REMARK    7  A    between atoms: C3_6  and  C12_26 
REMARK    8  A    between atoms: C5_10  and  C6_11 
REMARK    9  A    between atoms: C8_13  and  N1_14 
REMARK   10  A    between atoms: C9_17  and  N2_18 
REMARK   11  A    between atoms: C10_21  and  O8_22 
REMARK   12  A    between atoms: C12_26  and  O9_27 
REMARK   13  A    between atoms: C12_26  and  C13_29 
REMARK   14  A    between atoms: C13_29  and  O10_30 
REMARK   15  A    between atoms: O10_30  and  S1_31 
REMARK   16  A    between atoms: O14_35  and  C14_36 
ROOT
HETATM    1  C3  UNL     1       0.637   1.971   0.174  1.00  0.00     0.189 C 
ENDROOT
BRANCH   1   2
HETATM    2  C2  UNL     1      -0.327   1.578  -0.884  1.00  0.00     0.279 C 
HETATM    3 CL1  UNL     1       0.476   1.134  -2.417  1.00  0.00    -0.090 Cl
BRANCH   2   4
HETATM    4  O2  UNL     1      -1.065   0.417  -0.433  1.00  0.00    -0.273 OA
BRANCH   4   5
HETATM    5  C1  UNL     1      -2.450   0.471  -0.336  1.00  0.00     0.408 C 
HETATM    6  O1  UNL     1      -3.011   1.538  -0.648  1.00  0.00    -0.229 OA
BRANCH   5   7
HETATM    7  O14 UNL     1      -3.242  -0.586   0.084  1.00  0.00    -0.287 OA
BRANCH   7   8
HETATM    8  C14 UNL     1      -4.662  -0.474   0.164  1.00  0.00     0.203 C 
HETATM    9  C15 UNL     1      -5.086  -0.847   1.546  1.00  0.00     0.219 C 
HETATM   10  C16 UNL     1      -6.547  -0.494   1.714  1.00  0.00     0.038 C 
HETATM   11  N3  UNL     1      -5.187  -2.314   1.443  1.00  0.00    -0.061 N 
HETATM   12  C17 UNL     1      -7.244  -1.518   0.806  1.00  0.00     0.038 C 
HETATM   13  C18 UNL     1      -6.108  -2.349   0.292  1.00  0.00     0.225 C 
HETATM   14  C19 UNL     1      -5.327  -1.543  -0.702  1.00  0.00     0.139 A 
HETATM   15  C20 UNL     1      -5.649  -1.355  -2.061  1.00  0.00     0.212 A 
HETATM   16  O15 UNL     1      -4.547  -2.184  -1.655  1.00  0.00    -0.370 OA
ATOM     17  H32 UNL     1      -4.314  -2.834   1.355  1.00  0.00     0.278 HD
ATOM     18  H31 UNL     1      -5.472  -2.820   2.282  1.00  0.00     0.278 HD
ENDBRANCH   7   8
ENDBRANCH   5   7
ENDBRANCH   4   5
ENDBRANCH   2   4
ENDBRANCH   1   2
BRANCH   1  19
HETATM   19  O3  UNL     1      -0.212   2.094   1.360  1.00  0.00    -0.371 OA
ATOM     20  H3  UNL     1       0.405   2.346   2.037  1.00  0.00     0.212 HD
ENDBRANCH   1  19
BRANCH   1  21
HETATM   21  C4  UNL     1       1.643   0.950   0.384  1.00  0.00    -0.056 C 
HETATM   22  C5  UNL     1       2.495   0.110   0.545  1.00  0.00    -0.062 C 
BRANCH  22  23
HETATM   23  C6  UNL     1       3.530  -0.882   0.722  1.00  0.00     0.044 A 
HETATM   24  C7  UNL     1       4.644  -0.813  -0.050  1.00  0.00     0.061 A 
HETATM   25  C8  UNL     1       5.680  -1.754   0.083  1.00  0.00     0.140 A 
HETATM   26  C9  UNL     1       5.552  -2.757   1.010  1.00  0.00     0.170 A 
HETATM   27  C10 UNL     1       4.409  -2.847   1.818  1.00  0.00     0.124 A 
HETATM   28  C11 UNL     1       3.438  -1.903   1.642  1.00  0.00     0.088 A 
HETATM   29 CL2  UNL     1       2.003  -1.986   2.632  1.00  0.00    -0.080 Cl
BRANCH  25  30
HETATM   30  N1  UNL     1       6.813  -1.575  -0.756  1.00  0.00    -0.113 N 
HETATM   31  O4  UNL     1       7.446  -2.544  -1.168  1.00  0.00    -0.532 OA
HETATM   32  O5  UNL     1       7.155  -0.273  -1.086  1.00  0.00    -0.532 OA
ENDBRANCH  25  30
BRANCH  26  33
HETATM   33  N2  UNL     1       6.589  -3.706   1.174  1.00  0.00    -0.110 N 
HETATM   34  O6  UNL     1       6.678  -4.670   0.418  1.00  0.00    -0.532 OA
HETATM   35  O7  UNL     1       7.515  -3.619   2.192  1.00  0.00    -0.532 OA
ENDBRANCH  26  33
BRANCH  27  36
HETATM   36  O8  UNL     1       4.357  -3.883   2.726  1.00  0.00    -0.357 OA
ATOM     37  H8  UNL     1       3.583  -3.944   3.273  1.00  0.00     0.218 HD
ENDBRANCH  27  36
ENDBRANCH  22  23
ENDBRANCH   1  21
BRANCH   1  38
HETATM   38  C12 UNL     1       1.236   3.344   0.111  1.00  0.00     0.194 C 
BRANCH  38  39
HETATM   39  O9  UNL     1       1.915   3.509   1.393  1.00  0.00    -0.389 OA
ATOM     40  H9  UNL     1       2.295   4.379   1.353  1.00  0.00     0.210 HD
ENDBRANCH  38  39
BRANCH  38  41
HETATM   41  C13 UNL     1       2.299   3.618  -0.873  1.00  0.00     0.228 C 
BRANCH  41  42
HETATM   42  O10 UNL     1       1.900   3.632  -2.193  1.00  0.00    -0.254 OA
BRANCH  42  43
HETATM   43  S1  UNL     1       3.201   3.956  -3.206  1.00  0.00     0.251 S 
HETATM   44  O11 UNL     1       4.500   4.020  -2.424  1.00  0.00    -0.572 OA
HETATM   45  O12 UNL     1       2.995   5.280  -3.899  1.00  0.00    -0.572 OA
HETATM   46  O13 UNL     1       3.346   2.710  -4.332  1.00  0.00    -0.572 OA
ENDBRANCH  42  43
ENDBRANCH  41  42
ENDBRANCH  38  41
ENDBRANCH   1  38
TORSDOF 16
