REMARK  11 active torsions:
REMARK  status: ('A' for Active; 'I' for Inactive)
REMARK    1  A    between atoms: N1_1  and  C1_4 
REMARK    2  A    between atoms: C2_7  and  C3_8 
REMARK    3  A    between atoms: C3_8  and  N3_9 
REMARK    4  A    between atoms: C3_8  and  C7_18 
REMARK    5  A    between atoms: N3_9  and  O1_10 
REMARK    6  A    between atoms: O1_10  and  C4_11 
REMARK       I    between atoms: C7_18  and  N6_20 
REMARK    7  A    between atoms: N6_20  and  C8_22 
REMARK    8  A    between atoms: C10_25  and  C11_26 
REMARK    9  A    between atoms: N7_27  and  O3_29 
REMARK   10  A    between atoms: C12_31  and  C13_32 
REMARK   11  A    between atoms: C15_40  and  O6_41 
ROOT
HETATM    1  C7  UNL     1       0.425  -0.400   0.196  1.00  0.00     0.245 C 
HETATM    2  O2  UNL     1       0.273  -1.582   0.642  1.00  0.00    -0.271 OA
HETATM    3  N6  UNL     1      -0.754   0.346  -0.068  1.00  0.00    -0.348 N 
ATOM      4  H6  UNL     1      -0.665   1.296  -0.429  1.00  0.00     0.163 HD
ENDROOT
BRANCH   3   5
HETATM    5  C8  UNL     1      -2.082  -0.195   0.157  1.00  0.00     0.172 C 
HETATM    6  C9  UNL     1      -2.821   0.503   1.227  1.00  0.00     0.147 C 
HETATM    7 CL1  UNL     1      -2.387   2.250   1.198  1.00  0.00    -0.117 Cl
HETATM    8  C10 UNL     1      -4.319   0.468   1.181  1.00  0.00     0.015 C 
HETATM    9  C12 UNL     1      -4.873   0.549  -0.033  1.00  0.00     0.140 C 
HETATM   10  N8  UNL     1      -3.931   0.628  -1.159  1.00  0.00    -0.239 N 
HETATM   11  N9  UNL     1      -3.478   1.151  -2.294  1.00  0.00    -0.281 N 
HETATM   12  C15 UNL     1      -2.816  -0.274  -1.143  1.00  0.00     0.233 A 
HETATM   13  C14 UNL     1      -2.449   0.452  -2.308  1.00  0.00     0.168 A 
ATOM     14  H9  UNL     1      -3.842   1.866  -2.924  1.00  0.00     0.188 HD
HETATM   15  N10 UNL     1      -1.350   0.397  -3.248  1.00  0.00    -0.081 NA
BRANCH   8  16
HETATM   16  C11 UNL     1      -5.053   0.353   2.415  1.00  0.00     0.125 C 
HETATM   17  N7  UNL     1      -6.232   0.296   2.759  1.00  0.00    -0.280 N 
ATOM     18  H7  UNL     1      -6.945   0.334   2.030  1.00  0.00     0.193 HD
BRANCH  17  19
HETATM   19  O3  UNL     1      -6.647   0.185   4.051  1.00  0.00    -0.290 OA
ATOM     20  H3  UNL     1      -7.558   0.141   4.317  1.00  0.00     0.244 HD
ENDBRANCH  17  19
ENDBRANCH   8  16
BRANCH   9  21
HETATM   21  C13 UNL     1      -6.264   0.540  -0.296  1.00  0.00     0.229 C 
HETATM   22  O4  UNL     1      -7.204   0.450   0.475  1.00  0.00    -0.643 OA
HETATM   23  O5  UNL     1      -6.685   0.654  -1.648  1.00  0.00    -0.643 OA
ENDBRANCH   9  21
BRANCH  12  24
HETATM   24  O6  UNL     1      -3.142  -1.617  -1.500  1.00  0.00    -0.362 OA
ATOM     25  H6  UNL     1      -3.608  -1.667  -2.326  1.00  0.00     0.213 HD
ENDBRANCH  12  24
ENDBRANCH   3   5
BRANCH   1  26
HETATM   26  C3  UNL     1       1.784   0.110  -0.014  1.00  0.00     0.249 C 
BRANCH  26  27
HETATM   27  C2  UNL     1       2.007   0.484  -1.471  1.00  0.00     0.049 A 
HETATM   28  N2  UNL     1       1.982   1.723  -1.915  1.00  0.00    -0.338 N 
HETATM   29  C1  UNL     1       2.199   1.931  -3.215  1.00  0.00     0.142 A 
ATOM     30  H2  UNL     1       1.802   2.503  -1.283  1.00  0.00     0.168 HD
HETATM   31  S1  UNL     1       2.443   0.365  -3.831  1.00  0.00    -0.064 SA
HETATM   32  C16 UNL     1       2.255  -0.508  -2.381  1.00  0.00     0.080 A 
BRANCH  29  33
HETATM   33  N1  UNL     1       2.213   3.092  -3.838  1.00  0.00    -0.380 N 
ATOM     34  H12 UNL     1       2.067   4.031  -3.468  1.00  0.00     0.158 HD
ATOM     35  H11 UNL     1       2.379   3.251  -4.832  1.00  0.00     0.158 HD
ENDBRANCH  29  33
ENDBRANCH  26  27
BRANCH  26  36
HETATM   36  N3  UNL     1       2.778  -0.903   0.370  1.00  0.00    -0.070 NA
BRANCH  36  37
HETATM   37  O1  UNL     1       4.040  -0.439   0.210  1.00  0.00    -0.208 OA
BRANCH  37  38
HETATM   38  C4  UNL     1       5.099  -0.783   1.051  1.00  0.00     0.235 C 
HETATM   39  N4  UNL     1       5.036  -1.784   1.863  1.00  0.00    -0.354 N 
HETATM   40  C5  UNL     1       6.273  -1.906   2.609  1.00  0.00     0.143 C 
ATOM     41  H4  UNL     1       4.231  -2.401   1.965  1.00  0.00     0.163 HD
HETATM   42  C6  UNL     1       6.993  -0.591   2.392  1.00  0.00     0.143 C 
HETATM   43  N5  UNL     1       6.358  -0.129   1.152  1.00  0.00    -0.354 N 
ATOM     44  H5  UNL     1       6.748   0.538   0.486  1.00  0.00     0.163 HD
ENDBRANCH  37  38
ENDBRANCH  36  37
ENDBRANCH  26  36
ENDBRANCH   1  26
TORSDOF 11
