REMARK  6 active torsions:
REMARK  status: ('A' for Active; 'I' for Inactive)
REMARK    1  A    between atoms: N2_4  and  N3_6 
REMARK    2  A    between atoms: N3_6  and  C1_8 
REMARK    3  A    between atoms: C1_8  and  C2_9 
REMARK    4  A    between atoms: C2_9  and  N4_10 
REMARK    5  A    between atoms: C2_9  and  N8_22 
REMARK    6  A    between atoms: C3_12  and  C4_13 
ROOT
HETATM    1  C2  UNL     1      -1.436  -0.218  -0.109  1.00  0.00     0.202 C 
ENDROOT
BRANCH   1   2
HETATM    2  C1  UNL     1      -2.268   1.041  -0.203  1.00  0.00     0.187 C 
BRANCH   2   3
HETATM    3  N3  UNL     1      -1.684   2.144   0.489  1.00  0.00    -0.319 N 
ATOM      4  H3  UNL     1      -0.796   2.028   0.977  1.00  0.00     0.181 HD
BRANCH   3   5
HETATM    5  N2  UNL     1      -2.327   3.380   0.498  1.00  0.00    -0.254 N 
HETATM    6  N1  UNL     1      -2.166   4.121   1.519  1.00  0.00    -0.331 N 
ATOM      7  H12 UNL     1      -1.584   3.807   2.295  1.00  0.00     0.178 HD
ATOM      8  H11 UNL     1      -2.637   5.026   1.526  1.00  0.00     0.178 HD
ATOM      9  H2  UNL     1      -2.906   3.680  -0.286  1.00  0.00     0.207 HD
ENDBRANCH   3   5
ENDBRANCH   2   3
ENDBRANCH   1   2
BRANCH   1  10
HETATM   10  N4  UNL     1      -0.118  -0.041  -0.668  1.00  0.00    -0.374 N 
HETATM   11  C3  UNL     1       0.879   0.088   0.132  1.00  0.00     0.118 C 
ATOM     12  H4  UNL     1       0.020  -0.019  -1.678  1.00  0.00     0.161 HD
BRANCH  11  13
HETATM   13  C4  UNL     1       2.250   0.272  -0.374  1.00  0.00     0.093 A 
HETATM   14  N5  UNL     1       2.661   0.332  -1.632  1.00  0.00    -0.304 N 
HETATM   15  C5  UNL     1       3.990   0.509  -1.656  1.00  0.00     0.326 A 
ATOM     16  H5  UNL     1       2.061   0.256  -2.453  1.00  0.00     0.171 HD
HETATM   17  O1  UNL     1       4.686   0.606  -2.700  1.00  0.00    -0.247 OA
HETATM   18  N6  UNL     1       4.391   0.556  -0.375  1.00  0.00    -0.295 N 
HETATM   19  C6  UNL     1       3.341   0.413   0.455  1.00  0.00     0.148 A 
ATOM     20  H6  UNL     1       5.357   0.682  -0.073  1.00  0.00     0.172 HD
HETATM   21  N7  UNL     1       3.365   0.409   1.869  1.00  0.00    -0.080 NA
ENDBRANCH  11  13
ENDBRANCH   1  10
BRANCH   1  22
HETATM   22  N8  UNL     1      -2.072  -1.286  -0.866  1.00  0.00    -0.344 N 
HETATM   23  C7  UNL     1      -2.363  -2.435  -0.347  1.00  0.00     0.198 C 
HETATM   24  N9  UNL     1      -2.978  -3.396  -1.175  1.00  0.00    -0.067 NA
HETATM   25  N10 UNL     1      -2.040  -2.643   1.016  1.00  0.00    -0.067 NA
ATOM     26  H8  UNL     1      -2.298  -1.122  -1.847  1.00  0.00     0.164 HD
ENDBRANCH   1  22
TORSDOF 6
