REMARK  7 active torsions:
REMARK  status: ('A' for Active; 'I' for Inactive)
REMARK    1  A    between atoms: C1_4  and  C2_6 
REMARK    2  A    between atoms: C2_6  and  C3_7 
REMARK    3  A    between atoms: C3_7  and  N3_8 
REMARK       I    between atoms: N3_8  and  C4_10 
REMARK       I    between atoms: C4_10  and  N8_22 
REMARK    4  A    between atoms: N4_11  and  C5_13 
REMARK    5  A    between atoms: N8_22  and  C8_24 
REMARK    6  A    between atoms: C8_24  and  C9_25 
REMARK    7  A    between atoms: C9_25  and  N9_26 
ROOT
HETATM    1  N3  UNL     1       0.693   0.325   0.899  1.00  0.00    -0.226 N 
ATOM      2  H3  UNL     1       0.780   0.008   1.864  1.00  0.00     0.177 HD
HETATM    3  C4  UNL     1      -0.590   0.664   0.355  1.00  0.00     0.672 C 
HETATM    4  N4  UNL     1      -1.467  -0.246   0.117  1.00  0.00    -0.187 N 
ATOM      5  H4  UNL     1      -2.378   0.003  -0.269  1.00  0.00     0.181 HD
HETATM    6  N8  UNL     1      -0.841   2.019   0.089  1.00  0.00    -0.225 N 
ATOM      7  H8  UNL     1      -0.322   2.719   0.619  1.00  0.00     0.177 HD
ENDROOT
BRANCH   1   8
HETATM    8  C3  UNL     1       1.849   0.440   0.063  1.00  0.00     0.145 C 
BRANCH   8   9
HETATM    9  C2  UNL     1       3.129   0.046   0.764  1.00  0.00     0.092 C 
BRANCH   9  10
HETATM   10  C1  UNL     1       4.267   0.190  -0.179  1.00  0.00     0.088 C 
HETATM   11  N1  UNL     1       4.056   0.594  -1.371  1.00  0.00    -0.391 N 
ATOM     12  H12 UNL     1       4.838   0.693  -2.019  1.00  0.00     0.157 HD
ATOM     13  H11 UNL     1       3.102   0.813  -1.658  1.00  0.00     0.157 HD
HETATM   14  N2  UNL     1       5.608  -0.118   0.224  1.00  0.00    -0.088 NA
ENDBRANCH   9  10
ENDBRANCH   8   9
ENDBRANCH   1   8
BRANCH   4  15
HETATM   15  C5  UNL     1      -1.144  -1.638   0.405  1.00  0.00     0.319 A 
HETATM   16  N5  UNL     1      -2.110  -2.250   1.256  1.00  0.00    -0.295 N 
HETATM   17  N6  UNL     1      -2.730  -3.432   0.908  1.00  0.00    -0.312 N 
ATOM     18  H5  UNL     1      -2.348  -1.804   2.142  1.00  0.00     0.184 HD
HETATM   19  C6  UNL     1      -2.510  -4.082  -0.181  1.00  0.00     0.123 A 
ATOM     20  H6  UNL     1      -3.412  -3.819   1.561  1.00  0.00     0.185 HD
HETATM   21  C7  UNL     1      -1.524  -3.475  -1.069  1.00  0.00     0.105 A 
HETATM   22  N7  UNL     1      -0.923  -2.384  -0.792  1.00  0.00    -0.359 N 
ATOM     23  H7  UNL     1      -0.246  -2.024  -1.464  1.00  0.00     0.162 HD
ENDBRANCH   4  15
BRANCH   6  24
HETATM   24  C8  UNL     1      -1.778   2.467  -0.878  1.00  0.00     0.165 C 
BRANCH  24  25
HETATM   25  C9  UNL     1      -3.196   2.218  -0.464  1.00  0.00     0.249 C 
BRANCH  25  26
HETATM   26  N9  UNL     1      -3.427   2.919   0.787  1.00  0.00    -0.078 N 
ATOM     27  H93 UNL     1      -2.754   2.667   1.511  1.00  0.00     0.274 HD
ATOM     28  H92 UNL     1      -3.201   3.912   0.731  1.00  0.00     0.274 HD
ATOM     29  H91 UNL     1      -4.393   2.749   1.069  1.00  0.00     0.274 HD
ENDBRANCH  25  26
ENDBRANCH  24  25
ENDBRANCH   6  24
TORSDOF 7
