REMARK  6 active torsions:
REMARK  status: ('A' for Active; 'I' for Inactive)
REMARK    1  A    between atoms: C1_2  and  C2_4 
REMARK    2  A    between atoms: C4_6  and  C5_7 
REMARK       I    between atoms: C5_7  and  N2_9 
REMARK    3  A    between atoms: N2_9  and  C6_11 
REMARK    4  A    between atoms: C6_11  and  C7_12 
REMARK    5  A    between atoms: C7_12  and  C8_13 
REMARK    6  A    between atoms: C17_22  and  O2_23 
ROOT
HETATM    1  C8  UNL     1      -1.397   0.170  -0.615  1.00  0.00    -0.005 C 
HETATM    2  C9  UNL     1      -2.284   1.213   0.043  1.00  0.00    -0.009 C 
HETATM    3  C10 UNL     1      -2.807   0.798   1.378  1.00  0.00     0.012 C 
HETATM    4  C11 UNL     1      -3.622  -0.469   1.254  1.00  0.00     0.015 C 
HETATM    5  C12 UNL     1      -2.685  -1.532   0.719  1.00  0.00     0.012 C 
HETATM    6  C13 UNL     1      -2.123  -1.127  -0.625  1.00  0.00    -0.009 C 
HETATM    7  C14 UNL     1      -3.312  -0.969  -1.586  1.00  0.00     0.012 C 
HETATM    8  C15 UNL     1      -4.204   0.111  -1.041  1.00  0.00     0.015 C 
HETATM    9  C16 UNL     1      -3.462   1.427  -0.881  1.00  0.00     0.012 C 
HETATM   10  C17 UNL     1      -4.755  -0.334   0.278  1.00  0.00     0.126 C 
ENDROOT
BRANCH   1  11
HETATM   11  C7  UNL     1      -0.026   0.155  -0.012  1.00  0.00     0.025 C 
BRANCH  11  12
HETATM   12  C6  UNL     1       0.839  -0.879  -0.682  1.00  0.00     0.123 C 
BRANCH  12  13
HETATM   13  N2  UNL     1       2.178  -0.955  -0.170  1.00  0.00    -0.361 N 
HETATM   14  C5  UNL     1       3.066   0.154  -0.231  1.00  0.00     0.222 C 
HETATM   15  O1  UNL     1       2.768   1.261  -0.725  1.00  0.00    -0.273 OA
ATOM     16  H2  UNL     1       2.501  -1.827   0.249  1.00  0.00     0.162 HD
BRANCH  14  17
HETATM   17  C4  UNL     1       4.452  -0.027   0.339  1.00  0.00     0.089 A 
HETATM   18  C2  UNL     1       5.495   0.812  -0.305  1.00  0.00     0.058 A 
HETATM   19  C3  UNL     1       4.950   1.213   1.066  1.00  0.00     0.027 A 
BRANCH  18  20
HETATM   20  C1  UNL     1       6.922   0.403  -0.245  1.00  0.00     0.095 C 
HETATM   21  N1  UNL     1       7.391  -0.678   0.533  1.00  0.00    -0.094 NA
HETATM   22  S1  UNL     1       8.007   1.242  -1.121  1.00  0.00    -0.068 SA
ENDBRANCH  18  20
ENDBRANCH  14  17
ENDBRANCH  12  13
ENDBRANCH  11  12
ENDBRANCH   1  11
BRANCH  10  23
HETATM   23  O2  UNL     1      -5.790   0.458   0.739  1.00  0.00    -0.395 OA
ATOM     24  H2  UNL     1      -6.507   0.543   0.121  1.00  0.00     0.210 HD
ENDBRANCH  10  23
TORSDOF 6
