REMARK  5 active torsions:
REMARK  status: ('A' for Active; 'I' for Inactive)
REMARK    1  A    between atoms: C5_5  and  O1_6 
REMARK    2  A    between atoms: C17_19  and  N1_20 
REMARK    3  A    between atoms: N1_20  and  N2_22 
REMARK    4  A    between atoms: N2_22  and  N3_23 
REMARK    5  A    between atoms: C18_26  and  O2_27 
ROOT
HETATM    1  C1  UNL     1      -5.435  -0.071   0.297  1.00  0.00     0.010 C 
HETATM    2  C2  UNL     1      -4.312   0.628  -0.435  1.00  0.00    -0.018 C 
HETATM    3  C3  UNL     1      -3.580   1.607   0.447  1.00  0.00     0.007 C 
HETATM    4  C4  UNL     1      -2.094   1.668   0.125  1.00  0.00     0.039 C 
HETATM    5  C5  UNL     1      -1.448   0.362   0.617  1.00  0.00     0.065 C 
HETATM    6  C6  UNL     1      -2.480  -0.705   0.448  1.00  0.00     0.021 C 
HETATM    7  C7  UNL     1      -1.867  -2.063   0.423  1.00  0.00     0.008 C 
HETATM    8  C8  UNL     1      -0.428  -2.005   0.833  1.00  0.00     0.006 C 
HETATM    9  C9  UNL     1       0.392  -1.167  -0.166  1.00  0.00    -0.001 C 
HETATM   10  C10 UNL     1       1.822  -1.276   0.177  1.00  0.00     0.024 C 
HETATM   11  C11 UNL     1       2.432  -0.223   0.999  1.00  0.00     0.019 C 
HETATM   12  C12 UNL     1       2.973   0.751  -0.022  1.00  0.00    -0.018 C 
HETATM   13  C13 UNL     1       3.891   1.776   0.564  1.00  0.00     0.017 C 
HETATM   14  C14 UNL     1       1.902   1.332  -0.905  1.00  0.00     0.012 C 
HETATM   15  C15 UNL     1       0.619   1.356  -0.151  1.00  0.00     0.009 C 
HETATM   16  C16 UNL     1      -0.235   0.138  -0.303  1.00  0.00     0.025 C 
HETATM   17  C17 UNL     1       3.738  -0.241  -0.914  1.00  0.00     0.153 C 
HETATM   18  C18 UNL     1       2.727  -1.379  -1.044  1.00  0.00     0.175 C 
HETATM   19  C19 UNL     1      -3.299  -0.465  -0.802  1.00  0.00     0.012 C 
ENDROOT
BRANCH  17  20
HETATM   20  N1  UNL     1       4.924  -0.690  -0.225  1.00  0.00    -0.244 N 
ATOM     21  H1  UNL     1       4.872  -1.400   0.506  1.00  0.00     0.197 HD
BRANCH  20  22
HETATM   22  N2  UNL     1       6.000  -0.188  -0.548  1.00  0.00    -0.248 NA
BRANCH  22  23
HETATM   23  N3  UNL     1       7.031   0.493  -0.534  1.00  0.00    -0.261 N 
ATOM     24  H32 UNL     1       6.845   0.930   0.369  1.00  0.00     0.193 HD
ATOM     25  H31 UNL     1       7.923   0.909  -0.802  1.00  0.00     0.193 HD
ENDBRANCH  22  23
ENDBRANCH  20  22
ENDBRANCH  17  20
BRANCH  18  26
HETATM   26  O2  UNL     1       3.453  -2.544  -1.091  1.00  0.00    -0.276 OA
HETATM   27 CL1  UNL     1       3.189  -3.484  -2.452  1.00  0.00     0.062 Cl
ENDBRANCH  18  26
BRANCH   5  28
HETATM   28  O1  UNL     1      -1.069   0.595   1.919  1.00  0.00    -0.389 OA
ATOM     29  H1  UNL     1      -0.670  -0.212   2.223  1.00  0.00     0.210 HD
ENDBRANCH   5  28
TORSDOF 5
