REMARK  4 active torsions:
REMARK  status: ('A' for Active; 'I' for Inactive)
REMARK    1  A    between atoms: C20_23  and  C21_24 
REMARK    2  A    between atoms: C21_24  and  C22_25 
REMARK    3  A    between atoms: C30_39  and  C31_40 
REMARK    4  A    between atoms: C32_44  and  O5_45 
ROOT
HETATM    1  C1  UNL     1      -4.467  -0.299  -2.028  1.00  0.00     0.010 C 
HETATM    2  C2  UNL     1      -3.739  -0.560  -0.764  1.00  0.00    -0.010 C 
HETATM    3  C3  UNL     1      -3.870   0.494   0.291  1.00  0.00     0.017 C 
HETATM    4  C4  UNL     1      -4.844   1.556   0.054  1.00  0.00     0.061 C 
HETATM    5  C5  UNL     1      -5.659   1.730   1.343  1.00  0.00     0.013 C 
HETATM    6  C6  UNL     1      -6.184   0.507   1.952  1.00  0.00     0.001 C 
HETATM    7  C7  UNL     1      -6.766  -0.551   1.093  1.00  0.00     0.000 C 
HETATM    8  C8  UNL     1      -6.054  -1.908   1.225  1.00  0.00     0.001 C 
HETATM    9  C9  UNL     1      -5.361  -2.350   0.002  1.00  0.00     0.009 C 
HETATM   10  C10 UNL     1      -3.954  -1.977  -0.225  1.00  0.00     0.011 C 
HETATM   11  C11 UNL     1      -3.030  -2.208   0.889  1.00  0.00    -0.026 C 
HETATM   12  C12 UNL     1      -1.926  -2.928   0.826  1.00  0.00    -0.030 C 
HETATM   13  C13 UNL     1      -1.392  -3.643  -0.357  1.00  0.00     0.027 C 
HETATM   14  C14 UNL     1      -0.381  -2.861  -1.144  1.00  0.00     0.004 C 
HETATM   15  C15 UNL     1       0.819  -2.426  -0.291  1.00  0.00     0.001 C 
HETATM   16  C16 UNL     1       1.721  -1.656  -1.188  1.00  0.00     0.008 C 
HETATM   17  C17 UNL     1       2.618  -0.637  -0.470  1.00  0.00     0.033 C 
HETATM   18  C18 UNL     1       2.593   0.616  -1.197  1.00  0.00     0.233 C 
HETATM   19  N1  UNL     1       3.750   1.365  -1.481  1.00  0.00    -0.341 N 
ATOM     20  H1  UNL     1       3.509   2.197  -2.020  1.00  0.00     0.163 HD
HETATM   21  C19 UNL     1       5.139   1.320  -1.250  1.00  0.00     0.223 C 
HETATM   22  O1  UNL     1       5.802   2.341  -1.476  1.00  0.00    -0.273 OA
HETATM   23  C20 UNL     1       5.847   0.097  -0.745  1.00  0.00     0.079 C 
HETATM   24  C25 UNL     1       4.999  -0.440   0.353  1.00  0.00     0.023 C 
HETATM   25  C26 UNL     1       3.878  -1.324  -0.137  1.00  0.00    -0.040 C 
HETATM   26  C27 UNL     1       3.597  -2.272   1.042  1.00  0.00     0.015 C 
HETATM   27  C28 UNL     1       4.446  -2.206  -1.221  1.00  0.00     0.015 C 
HETATM   28  S1  UNL     1       1.448   1.786  -0.406  1.00  0.00     0.255 S 
HETATM   29  O2  UNL     1       1.846   3.197  -0.709  1.00  0.00    -0.203 OA
HETATM   30  O3  UNL     1       1.583   1.628   1.104  1.00  0.00    -0.203 OA
HETATM   31  N2  UNL     1      -0.169   1.466  -0.902  1.00  0.00    -0.247 N 
ATOM     32  H2  UNL     1      -0.453   0.492  -0.794  1.00  0.00     0.182 HD
HETATM   33  C29 UNL     1      -1.147   2.282  -1.417  1.00  0.00     0.282 C 
HETATM   34  O4  UNL     1      -1.561   2.010  -2.617  1.00  0.00    -0.265 OA
HETATM   35  C30 UNL     1      -1.869   3.457  -0.881  1.00  0.00     0.116 C 
HETATM   36  N4  UNL     1      -3.307   3.355  -1.115  1.00  0.00    -0.335 N 
ATOM     37  H4  UNL     1      -3.581   3.716  -2.029  1.00  0.00     0.168 HD
HETATM   38  C32 UNL     1      -4.379   2.886  -0.391  1.00  0.00     0.120 C 
ENDROOT
BRANCH  23  39
HETATM   39  C21 UNL     1       7.266   0.393  -0.346  1.00  0.00     0.018 C 
BRANCH  39  40
HETATM   40  C22 UNL     1       7.392   1.408   0.736  1.00  0.00    -0.014 A 
HETATM   41  C23 UNL     1       8.833   1.706   1.136  1.00  0.00     0.005 A 
HETATM   42  C24 UNL     1       7.973   0.879   2.041  1.00  0.00     0.005 A 
ENDBRANCH  39  40
ENDBRANCH  23  39
BRANCH  35  43
HETATM   43  C31 UNL     1      -1.449   4.041   0.392  1.00  0.00     0.135 C 
HETATM   44  N3  UNL     1      -1.447   3.335   1.591  1.00  0.00    -0.113 NA
ENDBRANCH  35  43
BRANCH  38  45
HETATM   45  O5  UNL     1      -5.201   3.821   0.008  1.00  0.00    -0.349 OA
ATOM     46  H5  UNL     1      -4.902   4.676  -0.278  1.00  0.00     0.219 HD
ENDBRANCH  38  45
TORSDOF 4
