REMARK  7 active torsions:
REMARK  status: ('A' for Active; 'I' for Inactive)
REMARK    1  A    between atoms: N1_6  and  C6_7 
REMARK    2  A    between atoms: C6_7  and  C7_8 
REMARK    3  A    between atoms: N2_17  and  O1_19 
REMARK    4  A    between atoms: C18_23  and  O2_24 
REMARK    5  A    between atoms: C24_33  and  C25_34 
REMARK    6  A    between atoms: C25_34  and  O4_37 
REMARK    7  A    between atoms: C29_41  and  O5_42 
ROOT
HETATM    1  C1  UNL     1      -0.255  -0.412   3.647  1.00  0.00     0.015 C 
HETATM    2  C2  UNL     1       0.207   0.126   2.661  1.00  0.00    -0.076 C 
HETATM    3  C3  UNL     1       0.726   0.775   1.498  1.00  0.00     0.161 C 
HETATM    4  C4  UNL     1       1.740   1.774   1.948  1.00  0.00     0.084 C 
HETATM    5  C5  UNL     1       2.705   0.759   2.599  1.00  0.00     0.277 C 
HETATM    6  N1  UNL     1       2.712  -0.390   1.794  1.00  0.00     0.103 N 
HETATM    7  C14 UNL     1       1.696  -0.238   0.854  1.00  0.00     0.318 C 
HETATM    8  C15 UNL     1       0.827  -1.326   0.459  1.00  0.00     0.060 C 
HETATM    9  N2  UNL     1       0.734  -2.478   0.907  1.00  0.00    -0.274 N 
ATOM     10  H2  UNL     1       0.026  -3.036   0.430  1.00  0.00     0.193 HD
HETATM   11  C16 UNL     1      -0.082  -0.878  -0.656  1.00  0.00     0.053 C 
HETATM   12  C17 UNL     1       0.927  -0.391  -1.682  1.00  0.00     0.027 C 
HETATM   13  C18 UNL     1      -0.986  -1.912  -1.207  1.00  0.00     0.141 C 
HETATM   14  C19 UNL     1      -2.379  -1.434  -1.568  1.00  0.00     0.056 C 
HETATM   15  C20 UNL     1      -2.242   0.001  -2.015  1.00  0.00     0.046 C 
HETATM   16  C21 UNL     1      -2.188   0.592  -0.625  1.00  0.00     0.222 C 
HETATM   17  C22 UNL     1      -0.919   0.183   0.018  1.00  0.00     0.171 C 
HETATM   18  O3  UNL     1      -0.162   1.235   0.566  1.00  0.00    -0.356 OA
HETATM   19  N3  UNL     1      -3.410   0.077  -0.008  1.00  0.00    -0.044 N 
HETATM   20  C23 UNL     1      -3.421   0.198   1.399  1.00  0.00     0.274 C 
HETATM   21  C24 UNL     1      -4.611   0.604  -0.554  1.00  0.00     0.241 C 
HETATM   22  C28 UNL     1      -5.554  -0.563  -0.261  1.00  0.00     0.123 C 
HETATM   23 BR1  UNL     1      -7.227  -0.464  -1.173  1.00  0.00    -0.086 Br
HETATM   24  C29 UNL     1      -4.735  -1.639  -1.015  1.00  0.00     0.171 C 
HETATM   25  C30 UNL     1      -3.350  -1.329  -0.447  1.00  0.00     0.159 C 
HETATM   26  C31 UNL     1      -3.218  -2.315   0.648  1.00  0.00     0.050 C 
ENDROOT
BRANCH   6  27
HETATM   27  C6  UNL     1       3.930  -0.912   1.301  1.00  0.00     0.278 C 
BRANCH  27  28
HETATM   28  C7  UNL     1       4.713  -0.198   0.278  1.00  0.00     0.014 C 
HETATM   29  C8  UNL     1       5.943  -1.096  -0.015  1.00  0.00     0.006 C 
HETATM   30  C9  UNL     1       6.487  -0.898  -1.373  1.00  0.00     0.000 C 
HETATM   31  C10 UNL     1       6.093   0.330  -2.110  1.00  0.00     0.000 C 
HETATM   32  C11 UNL     1       6.348   1.617  -1.410  1.00  0.00     0.000 C 
HETATM   33  C12 UNL     1       6.549   1.496   0.060  1.00  0.00     0.000 C 
HETATM   34  C13 UNL     1       5.301   1.067   0.816  1.00  0.00     0.006 C 
ENDBRANCH  27  28
ENDBRANCH   6  27
BRANCH   9  35
HETATM   35  O1  UNL     1       1.361  -3.148   1.880  1.00  0.00    -0.290 OA
ATOM     36  H1  UNL     1       1.290  -4.031   2.223  1.00  0.00     0.244 HD
ENDBRANCH   9  35
BRANCH  13  37
HETATM   37  O2  UNL     1      -0.970  -3.154  -0.631  1.00  0.00    -0.394 OA
ATOM     38  H2  UNL     1      -1.550  -3.818  -0.985  1.00  0.00     0.210 HD
ENDBRANCH  13  37
BRANCH  21  39
HETATM   39  C25 UNL     1      -5.196   1.876  -0.298  1.00  0.00     0.081 C 
HETATM   40  C26 UNL     1      -4.474   3.125  -0.771  1.00  0.00     0.047 C 
HETATM   41  C27 UNL     1      -5.751   2.240   1.056  1.00  0.00     0.047 C 
BRANCH  39  42
HETATM   42  O4  UNL     1      -6.381   1.976  -1.114  1.00  0.00    -0.388 OA
ATOM     43  H4  UNL     1      -6.771   2.825  -0.943  1.00  0.00     0.210 HD
ENDBRANCH  39  42
ENDBRANCH  21  39
BRANCH  24  44
HETATM   44  O5  UNL     1      -4.780  -1.428  -2.386  1.00  0.00    -0.392 OA
ATOM     45  H5  UNL     1      -4.277  -2.088  -2.849  1.00  0.00     0.210 HD
ENDBRANCH  24  44
TORSDOF 7
