REMARK  13 active torsions:
REMARK  status: ('A' for Active; 'I' for Inactive)
REMARK       I    between atoms: C2_2  and  N1_4 
REMARK    1  A    between atoms: C5_7  and  N2_8 
REMARK    2  A    between atoms: N2_8  and  C6_10 
REMARK    3  A    between atoms: C6_10  and  C7_11 
REMARK    4  A    between atoms: C6_10  and  C16_34 
REMARK       I    between atoms: C7_11  and  N3_13 
REMARK    5  A    between atoms: N3_13  and  C8_15 
REMARK    6  A    between atoms: C8_15  and  O3_16 
REMARK    7  A    between atoms: C8_15  and  C9_18 
REMARK    8  A    between atoms: C9_18  and  N4_19 
REMARK    9  A    between atoms: C9_18  and  C10_23 
REMARK   10  A    between atoms: C10_23  and  C12_25 
REMARK       I    between atoms: C12_25  and  N5_27 
REMARK   11  A    between atoms: N5_27  and  C13_29 
REMARK   12  A    between atoms: C13_29  and  C15_31 
REMARK   13  A    between atoms: C16_34  and  C17_36 
ROOT
HETATM    1  C7  UNL     1      -1.439  -1.588   0.588  1.00  0.00     0.253 C 
HETATM    2  O2  UNL     1      -1.127  -0.814   1.503  1.00  0.00    -0.270 OA
HETATM    3  N3  UNL     1      -0.467  -2.085  -0.291  1.00  0.00    -0.307 N 
ATOM      4  H3  UNL     1      -0.844  -2.700  -1.012  1.00  0.00     0.170 HD
ENDROOT
BRANCH   3   5
HETATM    5  C8  UNL     1       0.897  -1.908  -0.375  1.00  0.00     0.150 C 
BRANCH   5   6
HETATM    6  O3  UNL     1       1.482  -2.636  -1.302  1.00  0.00    -0.348 OA
ATOM      7  H3  UNL     1       2.422  -2.514  -1.360  1.00  0.00     0.219 HD
ENDBRANCH   5   6
BRANCH   5   8
HETATM    8  C9  UNL     1       1.861  -1.077   0.348  1.00  0.00     0.270 C 
BRANCH   8   9
HETATM    9  N4  UNL     1       1.404   0.108   0.960  1.00  0.00    -0.067 N 
ATOM     10  H43 UNL     1       0.932   0.681   0.261  1.00  0.00     0.275 HD
ATOM     11  H42 UNL     1       0.629  -0.119   1.584  1.00  0.00     0.275 HD
ATOM     12  H41 UNL     1       2.076   0.687   1.464  1.00  0.00     0.275 HD
ENDBRANCH   8   9
BRANCH   8  13
HETATM   13  C10 UNL     1       3.076  -0.740  -0.516  1.00  0.00     0.112 C 
HETATM   14  C11 UNL     1       2.581   0.006  -1.719  1.00  0.00     0.022 C 
BRANCH  13  15
HETATM   15  C12 UNL     1       4.066   0.088   0.205  1.00  0.00     0.224 C 
HETATM   16  O4  UNL     1       3.941   0.506   1.385  1.00  0.00    -0.273 OA
HETATM   17  N5  UNL     1       5.284   0.468  -0.460  1.00  0.00    -0.348 N 
ATOM     18  H5  UNL     1       5.444   0.153  -1.417  1.00  0.00     0.163 HD
BRANCH  17  19
HETATM   19  C13 UNL     1       6.283   1.279   0.185  1.00  0.00     0.169 C 
HETATM   20  C14 UNL     1       6.652   2.498  -0.599  1.00  0.00     0.042 C 
BRANCH  19  21
HETATM   21  C15 UNL     1       7.499   0.454   0.443  1.00  0.00     0.253 C 
HETATM   22  N6  UNL     1       8.609   1.069   1.079  1.00  0.00    -0.060 NA
HETATM   23  O5  UNL     1       7.532  -0.743   0.108  1.00  0.00    -0.275 OA
ENDBRANCH  19  21
ENDBRANCH  17  19
ENDBRANCH  13  15
ENDBRANCH   8  13
ENDBRANCH   5   8
ENDBRANCH   3   5
BRANCH   1  24
HETATM   24  C6  UNL     1      -2.903  -1.938   0.501  1.00  0.00     0.251 C 
BRANCH  24  25
HETATM   25  N2  UNL     1      -3.763  -1.163   1.272  1.00  0.00    -0.397 N 
ATOM     26  H2  UNL     1      -4.197  -1.632   2.067  1.00  0.00     0.154 HD
BRANCH  25  27
HETATM   27  C5  UNL     1      -4.097   0.147   1.094  1.00  0.00     0.097 C 
HETATM   28  C4  UNL     1      -3.172   1.287   1.156  1.00  0.00     0.046 C 
HETATM   29  C3  UNL     1      -4.154   2.453   0.895  1.00  0.00     0.128 C 
HETATM   30  N1  UNL     1      -5.065   1.881  -0.043  1.00  0.00    -0.350 N 
HETATM   31  C2  UNL     1      -6.104   2.610  -0.702  1.00  0.00     0.215 C 
HETATM   32  C18 UNL     1      -4.803   0.452  -0.242  1.00  0.00     0.150 C 
HETATM   33  C1  UNL     1      -6.297   4.046  -0.438  1.00  0.00     0.117 C 
HETATM   34  O1  UNL     1      -6.861   2.022  -1.515  1.00  0.00    -0.274 OA
ENDBRANCH  25  27
ENDBRANCH  24  25
BRANCH  24  35
HETATM   35  C16 UNL     1      -2.995  -3.347   1.048  1.00  0.00     0.245 C 
HETATM   36  O6  UNL     1      -3.037  -3.425   2.325  1.00  0.00    -0.285 OA
BRANCH  35  37
HETATM   37  C17 UNL     1      -3.040  -4.537   0.253  1.00  0.00     0.303 C 
HETATM   38  N7  UNL     1      -3.074  -5.806   0.885  1.00  0.00    -0.054 NA
HETATM   39  O7  UNL     1      -3.051  -4.512  -0.987  1.00  0.00    -0.268 OA
ENDBRANCH  35  37
ENDBRANCH  24  35
ENDBRANCH   1  24
TORSDOF 13
