REMARK  12 active torsions:
REMARK  status: ('A' for Active; 'I' for Inactive)
REMARK    1  A    between atoms: N1_1  and  C1_4 
REMARK    2  A    between atoms: N3_7  and  C2_8 
REMARK    3  A    between atoms: C3_11  and  C4_12 
REMARK    4  A    between atoms: C5_18  and  C6_19 
REMARK    5  A    between atoms: C6_19  and  O3_20 
REMARK    6  A    between atoms: C6_19  and  C7_22 
REMARK    7  A    between atoms: C7_22  and  O4_23 
REMARK    8  A    between atoms: C7_22  and  C8_25 
REMARK    9  A    between atoms: C8_25  and  O5_26 
REMARK   10  A    between atoms: N7_33  and  C11_34 
REMARK   11  A    between atoms: C12_38  and  O7_39 
REMARK   12  A    between atoms: C12_38  and  O8_41 
ROOT
HETATM    1  C1  UNL     1       2.591  -1.176  -0.267  1.00  0.00     0.145 A 
HETATM    2  N2  UNL     1       1.272  -1.284  -0.066  1.00  0.00    -0.276 N 
ATOM      3  H2  UNL     1       0.726  -2.117  -0.286  1.00  0.00     0.189 HD
HETATM    4  N3  UNL     1       0.761  -0.175   0.454  1.00  0.00    -0.225 N 
HETATM    5  C9  UNL     1       1.811   0.675   0.589  1.00  0.00     0.158 A 
HETATM    6  N6  UNL     1       2.190   1.905   0.993  1.00  0.00    -0.335 N 
ATOM      7  H6  UNL     1       1.570   2.616   1.381  1.00  0.00     0.168 HD
HETATM    8  C10 UNL     1       3.511   2.045   0.804  1.00  0.00     0.189 A 
HETATM    9  N7  UNL     1       4.013   0.912   0.276  1.00  0.00    -0.286 N 
HETATM   10  C13 UNL     1       2.971   0.072   0.144  1.00  0.00     0.130 A 
ENDROOT
BRANCH   4  11
HETATM   11  C2  UNL     1      -0.631   0.081   0.808  1.00  0.00     0.354 C 
HETATM   12  N4  UNL     1      -0.892  -0.564   2.051  1.00  0.00    -0.343 N 
HETATM   13  C3  UNL     1      -2.190  -1.137   2.196  1.00  0.00     0.388 C 
ATOM     14  H4  UNL     1      -0.193  -0.613   2.792  1.00  0.00     0.160 HD
HETATM   15  N5  UNL     1      -3.198  -0.509   1.376  1.00  0.00    -0.015 N 
HETATM   16  C5  UNL     1      -2.762  -0.496   0.020  1.00  0.00     0.358 C 
ATOM     17  H52 UNL     1      -4.112  -0.948   1.484  1.00  0.00     0.283 HD
ATOM     18  H51 UNL     1      -3.444   0.422   1.712  1.00  0.00     0.283 HD
HETATM   19  O6  UNL     1      -1.462  -0.233  -0.225  1.00  0.00    -0.312 OA
BRANCH  13  20
HETATM   20  C4  UNL     1      -2.120  -2.609   1.995  1.00  0.00     0.225 C 
HETATM   21  O1  UNL     1      -1.079  -3.237   1.738  1.00  0.00    -0.645 OA
HETATM   22  O2  UNL     1      -3.299  -3.373   2.094  1.00  0.00    -0.645 OA
ENDBRANCH  13  20
BRANCH  16  23
HETATM   23  C6  UNL     1      -3.606   0.572  -0.696  1.00  0.00     0.205 C 
BRANCH  23  24
HETATM   24  O3  UNL     1      -3.248   0.657  -2.036  1.00  0.00    -0.389 OA
ATOM     25  H3  UNL     1      -3.769   1.317  -2.478  1.00  0.00     0.210 HD
ENDBRANCH  23  24
BRANCH  23  26
HETATM   26  C7  UNL     1      -5.062   0.244  -0.519  1.00  0.00     0.174 C 
BRANCH  26  27
HETATM   27  O4  UNL     1      -5.368  -0.977  -1.106  1.00  0.00    -0.391 OA
ATOM     28  H4  UNL     1      -6.288  -1.184  -0.994  1.00  0.00     0.210 HD
ENDBRANCH  26  27
BRANCH  26  29
HETATM   29  C8  UNL     1      -5.956   1.326  -1.091  1.00  0.00     0.198 C 
BRANCH  29  30
HETATM   30  O5  UNL     1      -5.694   2.564  -0.541  1.00  0.00    -0.398 OA
ATOM     31  H5  UNL     1      -6.254   3.242  -0.900  1.00  0.00     0.209 HD
ENDBRANCH  29  30
ENDBRANCH  26  29
ENDBRANCH  23  26
ENDBRANCH  16  23
ENDBRANCH   4  11
BRANCH   1  32
HETATM   32  N1  UNL     1       3.370  -2.080  -0.757  1.00  0.00    -0.382 N 
ATOM     33  H12 UNL     1       3.087  -3.011  -1.063  1.00  0.00     0.157 HD
ATOM     34  H11 UNL     1       4.375  -1.998  -0.910  1.00  0.00     0.157 HD
ENDBRANCH   1  32
BRANCH   9  35
HETATM   35  C11 UNL     1       5.403   0.709  -0.057  1.00  0.00     0.452 C 
HETATM   36  N8  UNL     1       5.674  -0.002  -1.270  1.00  0.00     0.055 N 
HETATM   37  C12 UNL     1       6.777   0.959  -1.391  1.00  0.00     0.467 C 
ATOM     38  H82 UNL     1       5.813  -1.012  -1.301  1.00  0.00     0.292 HD
ATOM     39  H81 UNL     1       4.975  -0.138  -2.000  1.00  0.00     0.292 HD
HETATM   40  O9  UNL     1       5.987   1.846  -0.660  1.00  0.00    -0.258 OA
BRANCH  37  41
HETATM   41  O7  UNL     1       7.895   0.615  -0.607  1.00  0.00    -0.320 OA
ATOM     42  H7  UNL     1       8.609   1.237  -0.685  1.00  0.00     0.217 HD
ENDBRANCH  37  41
BRANCH  37  43
HETATM   43  O8  UNL     1       7.066   1.348  -2.677  1.00  0.00    -0.320 OA
ATOM     44  H8  UNL     1       7.780   1.970  -2.755  1.00  0.00     0.217 HD
ENDBRANCH  37  43
ENDBRANCH   9  35
TORSDOF 12
