REMARK  1 active torsions:
REMARK  status: ('A' for Active; 'I' for Inactive)
REMARK    1  A    between atoms: C9_11  and  O2_13 
ROOT
HETATM    1  C1  UNL     1      -2.442  -0.309   0.802  1.00  0.00     0.046 C 
HETATM    2  C2  UNL     1      -1.443  -0.367  -0.279  1.00  0.00     0.061 C 
HETATM    3  C3  UNL     1      -2.147  -0.443  -1.645  1.00  0.00     0.046 C 
HETATM    4  O1  UNL     1      -0.534  -1.454  -0.232  1.00  0.00    -0.365 OA
HETATM    5  C4  UNL     1       0.401  -0.627   0.347  1.00  0.00     0.105 C 
HETATM    6  C5  UNL     1       0.398  -0.682   1.831  1.00  0.00     0.051 C 
HETATM    7  C6  UNL     1      -0.304   0.540  -0.304  1.00  0.00     0.058 C 
HETATM    8  C7  UNL     1      -0.226   1.753   0.517  1.00  0.00     0.021 C 
HETATM    9  C8  UNL     1       1.201   2.202   0.657  1.00  0.00     0.077 C 
HETATM   10  S1  UNL     1       2.424   1.041   0.111  1.00  0.00    -0.129 SA
HETATM   11  C9  UNL     1       1.785  -0.629  -0.205  1.00  0.00     0.133 C 
HETATM   12  C10 UNL     1       1.838  -0.835  -1.702  1.00  0.00     0.061 C 
ENDROOT
BRANCH  11  13
HETATM   13  O2  UNL     1       2.616  -1.565   0.417  1.00  0.00    -0.377 OA
ATOM     14  H2  UNL     1       3.498  -1.566   0.065  1.00  0.00     0.211 HD
ENDBRANCH  11  13
TORSDOF 1
