REMARK  2 active torsions:
REMARK  status: ('A' for Active; 'I' for Inactive)
REMARK    1  A    between atoms: S1_2  and  C2_3 
REMARK    2  A    between atoms: C5_6  and  O1_8 
ROOT
HETATM    1  C2  UNL     1       1.213  -0.533   0.120  1.00  0.00     0.056 C 
HETATM    2  C3  UNL     1       0.561   0.123   1.334  1.00  0.00     0.024 C 
HETATM    3  C4  UNL     1      -0.911   0.215   1.026  1.00  0.00     0.029 C 
HETATM    4  C5  UNL     1      -1.099   1.405   0.133  1.00  0.00     0.059 C 
HETATM    5  C6  UNL     1      -0.633   2.701   0.738  1.00  0.00     0.046 C 
HETATM    6  C7  UNL     1      -0.257   0.995  -1.071  1.00  0.00     0.048 C 
HETATM    7  C8  UNL     1       0.073  -0.470  -0.873  1.00  0.00    -0.021 C 
HETATM    8  C9  UNL     1       0.264  -1.238  -2.113  1.00  0.00     0.017 C 
HETATM    9  C10 UNL     1      -1.051  -0.920   0.017  1.00  0.00    -0.033 C 
HETATM   10  C11 UNL     1      -2.383  -0.986  -0.635  1.00  0.00     0.016 C 
HETATM   11  C12 UNL     1      -0.751  -2.225   0.729  1.00  0.00     0.016 C 
ENDROOT
BRANCH   4  12
HETATM   12  O1  UNL     1      -2.431   1.582  -0.221  1.00  0.00    -0.390 OA
ATOM     13  H1  UNL     1      -2.550   2.336  -0.787  1.00  0.00     0.210 HD
ENDBRANCH   4  12
BRANCH   1  14
HETATM   14  S1  UNL     1       2.575   0.444  -0.531  1.00  0.00    -0.168 SA
HETATM   15  C1  UNL     1       4.079   0.290   0.447  1.00  0.00     0.090 C 
ENDBRANCH   1  14
TORSDOF 2
