REMARK  3 active torsions:
REMARK  status: ('A' for Active; 'I' for Inactive)
REMARK    1  A    between atoms: C2_2  and  N1_4 
REMARK    2  A    between atoms: N1_4  and  C4_6 
REMARK    3  A    between atoms: N2_11  and  O1_12 
ROOT
HETATM    1  C4  UNL     1       0.273  -0.189  -0.338  1.00  0.00     0.111 C 
HETATM    2  C5  UNL     1      -0.613  -1.167   0.393  1.00  0.00     0.054 C 
HETATM    3  C6  UNL     1      -1.975  -0.563  -0.019  1.00  0.00     0.034 C 
HETATM    4  C7  UNL     1      -2.472  -1.317  -1.236  1.00  0.00     0.034 C 
HETATM    5  C8  UNL     1      -2.991  -0.791   1.082  1.00  0.00     0.034 C 
HETATM    6  N2  UNL     1      -1.754   0.825  -0.281  1.00  0.00    -0.180 NA
HETATM    7  C9  UNL     1      -0.337   1.113  -0.040  1.00  0.00     0.052 C 
HETATM    8  C10 UNL     1      -0.208   1.644   1.341  1.00  0.00     0.036 C 
HETATM    9  C11 UNL     1       0.069   2.216  -0.998  1.00  0.00     0.036 C 
ENDROOT
BRANCH   1  10
HETATM   10  N1  UNL     1       1.662  -0.374  -0.257  1.00  0.00    -0.373 N 
HETATM   11  C3  UNL     1       2.401  -0.244  -1.550  1.00  0.00     0.150 C 
BRANCH  10  12
HETATM   12  C2  UNL     1       2.481  -0.634   0.859  1.00  0.00     0.071 C 
HETATM   13  C1  UNL     1       3.952  -0.740   0.673  1.00  0.00     0.081 C 
HETATM   14  S1  UNL     1       1.932  -0.860   2.368  1.00  0.00    -0.066 SA
ENDBRANCH  10  12
ENDBRANCH   1  10
BRANCH   6  15
HETATM   15  O1  UNL     1      -2.152   1.241  -1.484  1.00  0.00    -0.311 OA
ATOM     16  H1  UNL     1      -2.005   2.163  -1.658  1.00  0.00     0.237 HD
ENDBRANCH   6  15
TORSDOF 3
