REMARK  3 active torsions:
REMARK  status: ('A' for Active; 'I' for Inactive)
REMARK    1  A    between atoms: C6_11  and  C7_12 
REMARK    2  A    between atoms: C16_22  and  C17_23 
REMARK    3  A    between atoms: C20_26  and  C21_27 
ROOT
HETATM    1  N1  UNL     1       3.019  -3.653  -2.734  1.00  0.00    -0.196 NA
HETATM    2  C1  UNL     1       2.594  -2.619  -2.440  1.00  0.00     0.073 C 
HETATM    3  C2  UNL     1       2.037  -1.278  -2.079  1.00  0.00     0.180 A 
HETATM    4  C3  UNL     1       1.097  -0.912  -3.125  1.00  0.00     0.136 A 
HETATM    5  N2  UNL     1       1.509  -0.970  -4.377  1.00  0.00    -0.382 N 
ATOM      6  H21 UNL     1       0.849  -0.713  -5.111  1.00  0.00     0.158 HD
ATOM      7  H22 UNL     1       2.466  -1.269  -4.568  1.00  0.00     0.158 HD
HETATM    8  O1  UNL     1      -0.178  -0.514  -2.871  1.00  0.00    -0.296 OA
HETATM    9  C4  UNL     1      -0.643  -0.462  -1.574  1.00  0.00     0.085 A 
HETATM   10  C5  UNL     1      -1.967  -0.046  -1.369  1.00  0.00     0.050 A 
HETATM   11  C6  UNL     1      -2.500   0.031  -0.108  1.00  0.00    -0.023 A 
HETATM   12  C13 UNL     1      -1.693  -0.314   0.953  1.00  0.00     0.013 A 
HETATM   13  C14 UNL     1      -0.393  -0.723   0.751  1.00  0.00     0.011 A 
HETATM   14  C15 UNL     1       0.174  -0.809  -0.527  1.00  0.00    -0.014 A 
HETATM   15  C16 UNL     1       1.572  -1.250  -0.671  1.00  0.00     0.080 A 
ENDROOT
BRANCH  15  16
HETATM   16  C17 UNL     1       2.495  -0.465   0.215  1.00  0.00    -0.048 A 
HETATM   17  C18 UNL     1       2.899  -0.959   1.435  1.00  0.00     0.008 A 
HETATM   18  C19 UNL     1       3.748  -0.256   2.271  1.00  0.00     0.009 A 
HETATM   19  C20 UNL     1       4.231   0.984   1.916  1.00  0.00    -0.044 A 
HETATM   20  C22 UNL     1       3.833   1.489   0.697  1.00  0.00     0.009 A 
HETATM   21  C23 UNL     1       2.977   0.776  -0.140  1.00  0.00     0.008 A 
BRANCH  19  22
HETATM   22  C21 UNL     1       5.152   1.755   2.814  1.00  0.00     0.153 C 
HETATM   23 CL1  UNL     1       4.254   2.800   3.922  1.00  0.00    -0.126 Cl
ENDBRANCH  19  22
ENDBRANCH  15  16
BRANCH  11  24
HETATM   24  C7  UNL     1      -3.893   0.468   0.112  1.00  0.00    -0.026 A 
HETATM   25  C8  UNL     1      -4.278   1.144   1.250  1.00  0.00     0.015 A 
HETATM   26  C9  UNL     1      -5.606   1.535   1.409  1.00  0.00     0.043 A 
HETATM   27  C10 UNL     1      -6.561   1.265   0.452  1.00  0.00     0.116 A 
HETATM   28  F1  UNL     1      -7.845   1.658   0.633  1.00  0.00    -0.206 F 
HETATM   29  C11 UNL     1      -6.185   0.593  -0.684  1.00  0.00     0.043 A 
HETATM   30  C12 UNL     1      -4.856   0.204  -0.838  1.00  0.00     0.015 A 
ENDBRANCH  11  24
TORSDOF 3
