REMARK  2 active torsions:
REMARK  status: ('A' for Active; 'I' for Inactive)
REMARK    1  A    between atoms: C6_8  and  N2_9 
REMARK    2  A    between atoms: C11_14  and  C12_15 
ROOT
HETATM    1  N2  UNL     1       0.617   1.173  -0.968  1.00  0.00    -0.376 N 
HETATM    2  C7  UNL     1       0.702   2.512  -1.498  1.00  0.00     0.123 C 
HETATM    3  C8  UNL     1       0.515   3.622  -0.518  1.00  0.00     0.020 C 
HETATM    4  C9  UNL     1      -0.817   3.457   0.162  1.00  0.00     0.007 C 
HETATM    5  C10 UNL     1      -0.783   2.074   0.819  1.00  0.00     0.053 C 
HETATM    6  C11 UNL     1      -0.544   1.024  -0.233  1.00  0.00    -0.011 C 
ENDROOT
BRANCH   1   7
HETATM    7  C6  UNL     1       1.843   0.603  -0.835  1.00  0.00     0.138 C 
HETATM    8  C4  UNL     1       2.028  -0.830  -0.497  1.00  0.00     0.010 A 
HETATM    9  C3  UNL     1       2.545  -0.947   0.805  1.00  0.00     0.109 A 
HETATM   10  C5  UNL     1       1.835  -2.010  -1.155  1.00  0.00     0.014 A 
HETATM   11  N1  UNL     1       2.824  -2.138   1.352  1.00  0.00    -0.352 N 
HETATM   12  N3  UNL     1       2.699   0.385   1.333  1.00  0.00    -0.373 N 
HETATM   13  C2  UNL     1       2.634  -3.304   0.707  1.00  0.00     0.089 A 
ATOM     14  H1  UNL     1       3.198  -2.162   2.301  1.00  0.00     0.166 HD
HETATM   15  C1  UNL     1       2.126  -3.228  -0.579  1.00  0.00     0.018 A 
HETATM   16  C18 UNL     1       2.877   1.180   0.107  1.00  0.00     0.151 C 
ATOM     17  H3  UNL     1       2.688   0.696   2.304  1.00  0.00     0.161 HD
ENDBRANCH   1   7
BRANCH   6  18
HETATM   18  C12 UNL     1      -1.142  -0.265   0.149  1.00  0.00     0.031 C 
HETATM   19  C13 UNL     1      -2.354  -0.092   1.097  1.00  0.00     0.010 C 
HETATM   20  C14 UNL     1      -2.959  -1.462   1.284  1.00  0.00     0.001 C 
HETATM   21  C15 UNL     1      -2.109  -2.583   0.787  1.00  0.00     0.000 C 
HETATM   22  C16 UNL     1      -1.960  -2.415  -0.694  1.00  0.00     0.001 C 
HETATM   23  C17 UNL     1      -1.807  -0.964  -1.046  1.00  0.00     0.010 C 
ENDBRANCH   6  18
TORSDOF 2
