REMARK  3 active torsions:
REMARK  status: ('A' for Active; 'I' for Inactive)
REMARK    1  A    between atoms: O1_2  and  C2_3 
REMARK    2  A    between atoms: C4_7  and  C5_8 
REMARK    3  A    between atoms: C10_13  and  C11_14 
ROOT
HETATM    1  C2  UNL     1       2.634  -0.862   0.003  1.00  0.00     0.076 C 
HETATM    2  C3  UNL     1       1.498  -0.818   0.965  1.00  0.00     0.152 C 
HETATM    3  N1  UNL     1       0.212  -0.853   0.344  1.00  0.00    -0.409 N 
ATOM      4  H1  UNL     1      -0.437  -1.628   0.482  1.00  0.00     0.154 HD
HETATM    5  C4  UNL     1      -0.103   0.259  -0.476  1.00  0.00     0.030 C 
HETATM    6  C12 UNL     1       0.071  -0.147  -1.916  1.00  0.00     0.036 C 
HETATM    7  C13 UNL     1       1.601  -0.098  -2.046  1.00  0.00    -0.005 C 
HETATM    8  C14 UNL     1       2.229  -1.305  -1.390  1.00  0.00     0.045 C 
HETATM    9  C15 UNL     1       2.049   1.061  -1.207  1.00  0.00    -0.005 C 
HETATM   10  C16 UNL     1       3.140   0.554  -0.287  1.00  0.00     0.045 C 
HETATM   11  C17 UNL     1       0.866   1.413  -0.366  1.00  0.00     0.036 C 
ENDROOT
BRANCH   5  12
HETATM   12  C5  UNL     1      -1.498   0.732  -0.162  1.00  0.00     0.027 C 
HETATM   13  C6  UNL     1      -1.641   1.152   1.283  1.00  0.00     0.008 C 
HETATM   14  C7  UNL     1      -2.141   0.064   2.180  1.00  0.00     0.001 C 
HETATM   15  C8  UNL     1      -3.437  -0.542   1.718  1.00  0.00     0.001 C 
HETATM   16  C9  UNL     1      -3.755  -0.005   0.362  1.00  0.00     0.016 C 
HETATM   17  C10 UNL     1      -2.572  -0.212  -0.594  1.00  0.00     0.093 C 
BRANCH  17  18
HETATM   18  C11 UNL     1      -3.070   0.140  -1.940  1.00  0.00     0.177 C 
HETATM   19  O2  UNL     1      -2.991  -0.673  -2.883  1.00  0.00    -0.648 OA
HETATM   20  O3  UNL     1      -3.627   1.382  -2.150  1.00  0.00    -0.648 OA
ENDBRANCH  17  18
ENDBRANCH   5  12
BRANCH   1  21
HETATM   21  O1  UNL     1       3.692  -1.625   0.483  1.00  0.00    -0.383 OA
HETATM   22  C1  UNL     1       4.139  -1.073   1.666  1.00  0.00     0.202 C 
ENDBRANCH   1  21
TORSDOF 3
