REMARK  6 active torsions:
REMARK  status: ('A' for Active; 'I' for Inactive)
REMARK    1  A    between atoms: N1_1  and  C1_4 
REMARK    2  A    between atoms: C2_7  and  N3_8 
REMARK    3  A    between atoms: N3_8  and  C3_10 
REMARK    4  A    between atoms: N6_21  and  O1_23 
REMARK    5  A    between atoms: O1_23  and  C9_24 
REMARK    6  A    between atoms: C9_24  and  C10_25 
REMARK       I    between atoms: C10_25  and  N7_27 
ROOT
HETATM    1  C1  UNL     1      -1.215  -1.681   1.627  1.00  0.00     0.705 A 
HETATM    2  N2  UNL     1      -2.303  -1.400   0.891  1.00  0.00    -0.021 N 
ATOM      3  H2  UNL     1      -3.227  -1.452   1.319  1.00  0.00     0.203 HD
HETATM    4  C2  UNL     1      -2.191  -1.051  -0.402  1.00  0.00     0.711 A 
HETATM    5  N5  UNL     1      -0.917  -0.987  -0.920  1.00  0.00    -0.019 N 
ATOM      6  H5  UNL     1      -0.823  -0.720  -1.900  1.00  0.00     0.203 HD
HETATM    7  C8  UNL     1       0.152  -1.233  -0.277  1.00  0.00     0.731 A 
HETATM    8  N6  UNL     1       1.400  -1.060  -0.361  1.00  0.00    -0.095 N 
ATOM      9  H6  UNL     1       1.768  -1.495   0.485  1.00  0.00     0.213 HD
HETATM   10  N8  UNL     1      -0.031  -1.616   1.123  1.00  0.00    -0.020 N 
ATOM     11  H8  UNL     1       0.781  -1.832   1.702  1.00  0.00     0.203 HD
ENDROOT
BRANCH   8  12
HETATM   12  O1  UNL     1       2.445  -0.618  -0.964  1.00  0.00    -0.257 OA
BRANCH  12  13
HETATM   13  C9  UNL     1       2.532   0.846  -1.067  1.00  0.00     0.304 C 
BRANCH  13  14
HETATM   14  C10 UNL     1       3.799   1.433  -0.581  1.00  0.00     0.250 C 
HETATM   15  O2  UNL     1       3.708   2.710  -0.365  1.00  0.00    -0.271 OA
HETATM   16  N7  UNL     1       5.000   0.814  -0.328  1.00  0.00    -0.287 N 
HETATM   17  C11 UNL     1       5.419  -0.476  -0.744  1.00  0.00     0.157 C 
HETATM   18  C14 UNL     1       6.001   1.485   0.548  1.00  0.00     0.332 A 
HETATM   19  C12 UNL     1       6.758  -0.894  -0.262  1.00  0.00     0.188 C 
HETATM   20  O3  UNL     1       7.752   0.051  -0.236  1.00  0.00    -0.382 OA
HETATM   21  C13 UNL     1       7.306   1.354  -0.211  1.00  0.00     0.267 C 
HETATM   22  O4  UNL     1       5.829   1.917   1.754  1.00  0.00    -0.168 OA
HETATM   23  O5  UNL     1       5.647   2.834   0.792  1.00  0.00    -0.168 OA
ENDBRANCH  13  14
ENDBRANCH  12  13
ENDBRANCH   8  12
BRANCH   4  24
HETATM   24  N3  UNL     1      -3.319  -0.754  -1.142  1.00  0.00    -0.198 N 
ATOM     25  H3  UNL     1      -3.051  -0.491  -2.090  1.00  0.00     0.183 HD
BRANCH  24  26
HETATM   26  C3  UNL     1      -4.705  -0.698  -1.011  1.00  0.00     0.007 C 
HETATM   27  C4  UNL     1      -5.472  -1.046   0.166  1.00  0.00     0.080 C 
HETATM   28  C5  UNL     1      -5.800   0.077   1.137  1.00  0.00     0.238 C 
HETATM   29  N4  UNL     1      -5.252   1.345   0.777  1.00  0.00    -0.074 N 
HETATM   30  C6  UNL     1      -5.479   1.681  -0.597  1.00  0.00     0.238 C 
ATOM     31  H42 UNL     1      -5.598   2.080   1.394  1.00  0.00     0.277 HD
ATOM     32  H41 UNL     1      -4.259   1.391   1.004  1.00  0.00     0.277 HD
HETATM   33  C7  UNL     1      -5.291   0.584  -1.585  1.00  0.00     0.080 C 
ENDBRANCH  24  26
ENDBRANCH   4  24
BRANCH   1  34
HETATM   34  N1  UNL     1      -1.349  -1.953   2.905  1.00  0.00    -0.234 N 
ATOM     35  H12 UNL     1      -2.286  -2.004   3.304  1.00  0.00     0.174 HD
ATOM     36  H11 UNL     1      -0.523  -2.166   3.464  1.00  0.00     0.174 HD
ENDBRANCH   1  34
TORSDOF 6
