REMARK  8 active torsions:
REMARK  status: ('A' for Active; 'I' for Inactive)
REMARK    1  A    between atoms: N1_1  and  N2_4 
REMARK    2  A    between atoms: C2_9  and  N4_10 
REMARK    3  A    between atoms: N4_10  and  N5_12 
REMARK    4  A    between atoms: C8_22  and  N7_23 
REMARK    5  A    between atoms: C10_25  and  C11_26 
REMARK    6  A    between atoms: C11_26  and  C12_27 
REMARK    7  A    between atoms: C12_27  and  N8_28 
REMARK    8  A    between atoms: C12_27  and  C13_32 
ROOT
HETATM    1  N2  UNL     1      -0.141  -0.004  -3.393  1.00  0.00    -0.290 N 
ATOM      2  H2  UNL     1      -0.781   0.115  -4.178  1.00  0.00     0.188 HD
HETATM    3  C1  UNL     1      -0.723  -0.059  -2.268  1.00  0.00     0.167 A 
HETATM    4  N3  UNL     1      -2.096   0.044  -2.226  1.00  0.00    -0.171 N 
ATOM      5  H3  UNL     1      -2.596   0.161  -3.107  1.00  0.00     0.186 HD
HETATM    6  C2  UNL     1      -2.809  -0.001  -1.100  1.00  0.00     0.699 A 
HETATM    7  N6  UNL     1      -2.135  -0.156   0.052  1.00  0.00    -0.181 N 
ATOM      8  H6  UNL     1      -2.655  -0.194   0.928  1.00  0.00     0.185 HD
HETATM    9  C7  UNL     1      -0.797  -0.263   0.084  1.00  0.00     0.129 A 
HETATM   10  S1  UNL     1       0.082  -0.469   1.636  1.00  0.00    -0.030 SA
HETATM   11  C8  UNL     1      -0.038  -0.217  -1.098  1.00  0.00     0.138 A 
ENDROOT
BRANCH  11  12
HETATM   12  N7  UNL     1       1.380  -0.338  -1.002  1.00  0.00    -0.245 N 
HETATM   13  C9  UNL     1       2.320   0.592  -0.840  1.00  0.00     0.145 A 
HETATM   14  C10 UNL     1       3.545  -0.041  -0.786  1.00  0.00     0.047 A 
HETATM   15  N10 UNL     1       3.288  -1.368  -0.921  1.00  0.00    -0.289 N 
HETATM   16  N11 UNL     1       1.999  -1.508  -1.047  1.00  0.00    -0.236 N 
ATOM     17  H10 UNL     1       3.979  -2.118  -0.923  1.00  0.00     0.188 HD
ATOM     18  H11 UNL     1       1.527  -2.404  -1.165  1.00  0.00     0.209 HD
BRANCH  14  19
HETATM   19  C11 UNL     1       4.852   0.592  -0.631  1.00  0.00     0.102 C 
BRANCH  19  20
HETATM   20  C12 UNL     1       5.269   0.781   0.795  1.00  0.00     0.277 C 
BRANCH  20  21
HETATM   21  N8  UNL     1       6.586   1.422   0.836  1.00  0.00    -0.067 N 
ATOM     22  H83 UNL     1       7.282   0.909   0.295  1.00  0.00     0.275 HD
ATOM     23  H82 UNL     1       6.607   2.295   0.309  1.00  0.00     0.275 HD
ATOM     24  H81 UNL     1       6.870   1.551   1.807  1.00  0.00     0.275 HD
ENDBRANCH  20  21
BRANCH  20  25
HETATM   25  C13 UNL     1       5.288  -0.427   1.615  1.00  0.00     0.262 C 
HETATM   26  N9  UNL     1       6.534  -0.825   2.218  1.00  0.00    -0.060 NA
HETATM   27  O2  UNL     1       4.310  -1.176   1.858  1.00  0.00    -0.275 OA
ENDBRANCH  20  25
ENDBRANCH  19  20
ENDBRANCH  14  19
ENDBRANCH  11  12
BRANCH   1  28
HETATM   28  N1  UNL     1       1.156  -0.072  -3.758  1.00  0.00    -0.344 N 
ATOM     29  H12 UNL     1       1.778  -0.191  -2.958  1.00  0.00     0.176 HD
ATOM     30  H11 UNL     1       1.624  -0.028  -4.663  1.00  0.00     0.176 HD
ENDBRANCH   1  28
BRANCH   6  31
HETATM   31  N4  UNL     1      -4.066   0.101  -1.153  1.00  0.00    -0.134 N 
ATOM     32  H4  UNL     1      -4.441   0.213  -2.095  1.00  0.00     0.205 HD
BRANCH  31  33
HETATM   33  N5  UNL     1      -5.008   0.087  -0.170  1.00  0.00    -0.310 N 
HETATM   34  C3  UNL     1      -5.306   1.274   0.560  1.00  0.00     0.169 C 
HETATM   35  C4  UNL     1      -5.352   0.908   2.029  1.00  0.00     0.189 C 
HETATM   36  O1  UNL     1      -6.087  -0.226   2.268  1.00  0.00    -0.388 OA
HETATM   37  C5  UNL     1      -5.552  -1.351   1.627  1.00  0.00     0.189 C 
HETATM   38  C6  UNL     1      -5.723  -1.107   0.142  1.00  0.00     0.169 C 
ENDBRANCH  31  33
ENDBRANCH   6  31
TORSDOF 8
