REMARK  2 active torsions:
REMARK  status: ('A' for Active; 'I' for Inactive)
REMARK    1  A    between atoms: N1_2  and  N2_4 
REMARK    2  A    between atoms: N2_4  and  C2_6 
ROOT
HETATM    1  N2  UNL     1      -0.134  -0.094  -0.760  1.00  0.00    -0.285 N 
ATOM      2  H2  UNL     1      -0.496   0.333  -1.613  1.00  0.00     0.188 HD
ENDROOT
BRANCH   1   3
HETATM    3  N1  UNL     1       1.228  -0.389  -0.705  1.00  0.00    -0.321 N 
HETATM    4  C1  UNL     1       1.966  -0.047   0.308  1.00  0.00     0.139 C 
ATOM      5  H1  UNL     1       1.658  -0.888  -1.484  1.00  0.00     0.185 HD
ENDBRANCH   1   3
BRANCH   1   6
HETATM    6  C2  UNL     1      -1.037  -0.347   0.282  1.00  0.00     0.164 C 
HETATM    7  S1  UNL     1      -0.620  -1.023   1.707  1.00  0.00    -0.050 SA
HETATM    8  S2  UNL     1      -2.750   0.092   0.052  1.00  0.00    -0.019 SA
ENDBRANCH   1   6
TORSDOF 2
