REMARK  7 active torsions:
REMARK  status: ('A' for Active; 'I' for Inactive)
REMARK    1  A    between atoms: C2_2  and  O2_4 
REMARK    2  A    between atoms: O2_4  and  C3_5 
REMARK    3  A    between atoms: C14_18  and  O4_19 
REMARK    4  A    between atoms: C24_30  and  O5_31 
REMARK    5  A    between atoms: C24_30  and  C25_33 
REMARK    6  A    between atoms: C25_33  and  C26_35 
REMARK    7  A    between atoms: C26_35  and  O7_36 
ROOT
HETATM    1  C3  UNL     1      -3.691   0.111  -0.459  1.00  0.00     0.181 C 
HETATM    2  C4  UNL     1      -3.176  -1.176  -1.021  1.00  0.00     0.115 C 
HETATM    3  C5  UNL     1      -1.690  -1.298  -0.992  1.00  0.00     0.139 C 
HETATM    4  O3  UNL     1      -1.127  -1.851  -1.918  1.00  0.00    -0.297 OA
HETATM    5  C6  UNL     1      -1.027  -0.718   0.195  1.00  0.00     0.032 C 
HETATM    6  C7  UNL     1      -1.686  -1.436   1.385  1.00  0.00     0.025 C 
HETATM    7  C8  UNL     1       0.434  -1.058   0.326  1.00  0.00     0.009 C 
HETATM    8  C9  UNL     1       0.651  -2.501   0.117  1.00  0.00     0.043 C 
HETATM    9  C10 UNL     1       1.693  -3.158   0.985  1.00  0.00     0.171 C 
HETATM   10  F1  UNL     1       1.740  -2.733   2.270  1.00  0.00    -0.249 F 
HETATM   11  C11 UNL     1       3.048  -2.797   0.361  1.00  0.00     0.042 C 
HETATM   12  C12 UNL     1       3.287  -1.335   0.568  1.00  0.00    -0.001 C 
HETATM   13  C13 UNL     1       4.700  -1.065   0.948  1.00  0.00     0.037 C 
HETATM   14  C14 UNL     1       5.614  -0.654  -0.136  1.00  0.00     0.118 C 
HETATM   15  C15 UNL     1       5.049   0.504  -0.873  1.00  0.00     0.032 C 
HETATM   16  C16 UNL     1       3.597   0.810  -0.496  1.00  0.00     0.012 C 
HETATM   17  C17 UNL     1       2.746  -0.472  -0.542  1.00  0.00    -0.036 C 
HETATM   18  C18 UNL     1       3.046  -1.047  -1.927  1.00  0.00     0.016 C 
HETATM   19  C19 UNL     1       1.318  -0.115  -0.419  1.00  0.00    -0.001 C 
HETATM   20  C20 UNL     1       1.092   1.240   0.275  1.00  0.00     0.007 C 
HETATM   21  C21 UNL     1      -0.290   1.656  -0.267  1.00  0.00     0.014 C 
HETATM   22  C22 UNL     1      -1.356   0.740   0.301  1.00  0.00     0.011 C 
HETATM   23  C23 UNL     1      -1.319   1.028   1.818  1.00  0.00     0.020 C 
HETATM   24  C24 UNL     1      -2.636   1.179  -0.304  1.00  0.00     0.155 C 
ENDROOT
BRANCH  24  25
HETATM   25  O5  UNL     1      -3.206   2.128   0.589  1.00  0.00    -0.378 OA
ATOM     26  H5  UNL     1      -2.542   2.800   0.687  1.00  0.00     0.211 HD
ENDBRANCH  24  25
BRANCH  24  27
HETATM   27  C25 UNL     1      -2.557   1.884  -1.602  1.00  0.00     0.187 C 
HETATM   28  O6  UNL     1      -2.171   1.280  -2.620  1.00  0.00    -0.292 OA
BRANCH  27  29
HETATM   29  C26 UNL     1      -2.894   3.294  -1.871  1.00  0.00     0.245 C 
BRANCH  29  30
HETATM   30  O7  UNL     1      -3.341   4.031  -0.814  1.00  0.00    -0.393 OA
ATOM     31  H7  UNL     1      -3.558   4.939  -0.987  1.00  0.00     0.209 HD
ENDBRANCH  29  30
ENDBRANCH  27  29
ENDBRANCH  24  27
BRANCH   1  32
HETATM   32  O2  UNL     1      -4.647   0.601  -1.390  1.00  0.00    -0.312 OA
BRANCH  32  33
HETATM   33  C2  UNL     1      -5.964   0.830  -1.048  1.00  0.00     0.255 C 
HETATM   34  C1  UNL     1      -6.905   1.348  -2.092  1.00  0.00     0.126 C 
HETATM   35  O1  UNL     1      -6.348   0.600   0.129  1.00  0.00    -0.266 OA
ENDBRANCH  32  33
ENDBRANCH   1  32
BRANCH  14  36
HETATM   36  O4  UNL     1       6.815  -0.214   0.475  1.00  0.00    -0.396 OA
ATOM     37  H4  UNL     1       7.403   0.050  -0.223  1.00  0.00     0.210 HD
ENDBRANCH  14  36
TORSDOF 7
