REMARK  5 active torsions:
REMARK  status: ('A' for Active; 'I' for Inactive)
REMARK    1  A    between atoms: C3_5  and  C4_6 
REMARK    2  A    between atoms: C7_9  and  N2_10 
REMARK    3  A    between atoms: C10_18  and  O1_19 
REMARK    4  A    between atoms: C11_21  and  C12_22 
REMARK    5  A    between atoms: C12_22  and  C13_23 
ROOT
HETATM    1  C1  UNL     1      -0.801   0.359   3.224  1.00  0.00     0.069 C 
HETATM    2  C2  UNL     1      -0.099   0.296   1.910  1.00  0.00     0.015 A 
HETATM    3  N1  UNL     1       1.139  -0.238   1.729  1.00  0.00    -0.357 N 
ATOM      4  H1  UNL     1       1.735  -0.654   2.445  1.00  0.00     0.166 HD
HETATM    5  C3  UNL     1       1.422  -0.110   0.421  1.00  0.00     0.078 A 
HETATM    6  C10 UNL     1       0.369   0.500  -0.220  1.00  0.00     0.101 A 
HETATM    7  C11 UNL     1      -0.620   0.767   0.736  1.00  0.00    -0.000 A 
ENDROOT
BRANCH   5   8
HETATM    8  C4  UNL     1       2.709  -0.579  -0.158  1.00  0.00     0.039 C 
HETATM    9  C5  UNL     1       2.958  -0.474  -1.437  1.00  0.00    -0.009 C 
HETATM   10  C6  UNL     1       4.228  -0.930  -2.052  1.00  0.00     0.061 C 
HETATM   11  C7  UNL     1       5.347  -0.664  -1.077  1.00  0.00     0.193 C 
HETATM   12  C8  UNL     1       5.027  -1.503   0.144  1.00  0.00     0.117 C 
HETATM   13  C9  UNL     1       3.715  -1.164   0.754  1.00  0.00     0.275 C 
HETATM   14  F1  UNL     1       4.002  -0.286   1.815  1.00  0.00    -0.201 F 
HETATM   15  F2  UNL     1       3.143  -2.294   1.356  1.00  0.00    -0.201 F 
BRANCH  11  16
HETATM   16  N2  UNL     1       5.386   0.740  -0.807  1.00  0.00    -0.075 N 
ATOM     17  H23 UNL     1       5.464   1.301  -1.656  1.00  0.00     0.274 HD
ATOM     18  H22 UNL     1       4.489   1.102  -0.483  1.00  0.00     0.274 HD
ATOM     19  H21 UNL     1       6.143   0.920  -0.147  1.00  0.00     0.274 HD
ENDBRANCH  11  16
ENDBRANCH   5   8
BRANCH   6  20
HETATM   20  O1  UNL     1       0.213   0.831  -1.536  1.00  0.00    -0.358 OA
ATOM     21  H1  UNL     1      -0.514   1.252  -1.979  1.00  0.00     0.217 HD
ENDBRANCH   6  20
BRANCH   7  22
HETATM   22  C12 UNL     1      -1.923   1.409   0.505  1.00  0.00     0.048 C 
BRANCH  22  23
HETATM   23  C13 UNL     1      -3.066   0.418   0.504  1.00  0.00    -0.010 C 
HETATM   24  C14 UNL     1      -4.370   1.139   0.263  1.00  0.00     0.005 C 
HETATM   25  C15 UNL     1      -5.376   0.243  -0.446  1.00  0.00     0.000 C 
HETATM   26  C16 UNL     1      -4.924   0.068  -1.861  1.00  0.00     0.000 C 
HETATM   27  C17 UNL     1      -3.429  -0.012  -1.876  1.00  0.00     0.000 C 
HETATM   28  C18 UNL     1      -2.918  -0.621  -0.586  1.00  0.00     0.005 C 
ENDBRANCH  22  23
ENDBRANCH   7  22
TORSDOF 5
