REMARK  4 active torsions:
REMARK  status: ('A' for Active; 'I' for Inactive)
REMARK    1  A    between atoms: C4_6  and  N2_7 
REMARK    2  A    between atoms: C6_11  and  C7_12 
REMARK    3  A    between atoms: C9_14  and  C10_15 
REMARK    4  A    between atoms: C15_20  and  C16_21 
ROOT
HETATM    1  C1  UNL     1       6.805  -0.431   2.411  1.00  0.00     0.021 C 
HETATM    2  C2  UNL     1       5.749  -0.448   1.846  1.00  0.00    -0.041 C 
HETATM    3  C3  UNL     1       4.476  -0.441   1.154  1.00  0.00     0.163 A 
HETATM    4  N1  UNL     1       3.507   0.447   1.489  1.00  0.00    -0.321 N 
ATOM      5  H1  UNL     1       3.697   1.110   2.241  1.00  0.00     0.169 HD
HETATM    6  C4  UNL     1       2.313   0.498   0.883  1.00  0.00     0.116 A 
HETATM    7  C5  UNL     1       2.015  -0.387  -0.146  1.00  0.00     0.064 A 
HETATM    8  C6  UNL     1       0.921  -0.564  -0.946  1.00  0.00     0.008 A 
HETATM    9  C17 UNL     1       1.268  -1.615  -1.802  1.00  0.00     0.103 A 
HETATM   10  N3  UNL     1       2.502  -2.024  -1.508  1.00  0.00    -0.351 N 
ATOM     11  H3  UNL     1       2.996  -2.779  -1.983  1.00  0.00     0.166 HD
HETATM   12  C18 UNL     1       3.008  -1.287  -0.481  1.00  0.00     0.122 A 
HETATM   13  N4  UNL     1       4.187  -1.292   0.162  1.00  0.00    -0.320 N 
ATOM     14  H4  UNL     1       4.893  -1.974  -0.118  1.00  0.00     0.169 HD
ENDROOT
BRANCH   6  15
HETATM   15  N2  UNL     1       1.493   1.385   1.270  1.00  0.00    -0.385 N 
ATOM     16  H22 UNL     1       1.712   2.035   2.025  1.00  0.00     0.157 HD
ATOM     17  H21 UNL     1       0.584   1.424   0.809  1.00  0.00     0.157 HD
ENDBRANCH   6  15
BRANCH   8  18
HETATM   18  C7  UNL     1      -0.368   0.110  -0.878  1.00  0.00    -0.011 A 
HETATM   19  C8  UNL     1      -1.170  -0.021   0.261  1.00  0.00     0.020 A 
HETATM   20  C9  UNL     1      -2.451   0.531   0.319  1.00  0.00    -0.054 A 
HETATM   21  C13 UNL     1      -2.901   1.214  -0.786  1.00  0.00     0.008 A 
HETATM   22  C14 UNL     1      -2.145   1.368  -1.927  1.00  0.00     0.014 A 
HETATM   23  C15 UNL     1      -0.862   0.803  -1.958  1.00  0.00     0.017 A 
BRANCH  20  24
HETATM   24  C10 UNL     1      -3.223   0.345   1.566  1.00  0.00     0.010 C 
HETATM   25  C11 UNL     1      -3.527  -1.162   1.654  1.00  0.00     0.015 C 
HETATM   26  C12 UNL     1      -4.547   1.049   1.543  1.00  0.00     0.015 C 
ENDBRANCH  20  24
BRANCH  23  27
HETATM   27  C16 UNL     1      -0.041   1.012  -3.177  1.00  0.00     0.387 C 
HETATM   28  F1  UNL     1      -0.704   0.427  -4.238  1.00  0.00    -0.209 F 
HETATM   29  F2  UNL     1       0.076   2.385  -3.390  1.00  0.00    -0.209 F 
ENDBRANCH  23  27
ENDBRANCH   8  18
TORSDOF 4
