REMARK  2 active torsions:
REMARK  status: ('A' for Active; 'I' for Inactive)
REMARK    1  A    between atoms: C2_2  and  N1_3 
REMARK    2  A    between atoms: N2_9  and  C8_10 
ROOT
HETATM    1  N1  UNL     1       3.358   0.502  -0.453  1.00  0.00     0.090 N 
HETATM    2  C3  UNL     1       2.932  -0.359  -1.522  1.00  0.00     0.273 C 
HETATM    3  C4  UNL     1       1.879  -1.341  -1.152  1.00  0.00     0.040 C 
HETATM    4  C5  UNL     1       0.699  -0.765  -0.432  1.00  0.00    -0.028 C 
HETATM    5  C6  UNL     1       0.248   0.464  -1.160  1.00  0.00     0.040 C 
HETATM    6  C7  UNL     1      -1.047   1.039  -0.647  1.00  0.00     0.273 C 
HETATM    7  N2  UNL     1      -1.994   0.049  -0.226  1.00  0.00     0.093 N 
HETATM    8  C13 UNL     1      -1.739  -1.175  -0.916  1.00  0.00     0.273 C 
HETATM    9  C14 UNL     1      -0.420  -1.800  -0.587  1.00  0.00     0.040 C 
HETATM   10  C15 UNL     1       0.871  -0.528   1.014  1.00  0.00     0.052 C 
HETATM   11  C16 UNL     1       0.949  -1.734   1.907  1.00  0.00     0.240 C 
HETATM   12  N3  UNL     1       2.052  -1.091   2.617  1.00  0.00    -0.068 N 
ATOM     13  H31 UNL     1       2.871  -1.633   2.891  1.00  0.00     0.277 HD
ATOM     14  H32 UNL     1       1.934  -0.789   3.584  1.00  0.00     0.277 HD
HETATM   15  C17 UNL     1       2.149  -0.100   1.541  1.00  0.00     0.220 C 
HETATM   16  C18 UNL     1       3.381  -0.308   0.749  1.00  0.00     0.305 C 
ENDROOT
BRANCH   1  17
HETATM   17  C2  UNL     1       4.706   0.955  -0.799  1.00  0.00     0.268 C 
HETATM   18  C1  UNL     1       5.034   2.127   0.060  1.00  0.00     0.037 C 
ENDBRANCH   1  17
BRANCH   7  19
HETATM   19  C8  UNL     1      -3.341   0.489  -0.535  1.00  0.00     0.223 C 
HETATM   20  C9  UNL     1      -4.336  -0.641  -0.512  1.00  0.00     0.036 C 
HETATM   21  C10 UNL     1      -5.666   0.090  -0.404  1.00  0.00     0.002 C 
HETATM   22  C11 UNL     1      -5.365   1.424   0.233  1.00  0.00     0.002 C 
HETATM   23  C12 UNL     1      -3.881   1.464   0.486  1.00  0.00     0.036 C 
ENDBRANCH   7  19
TORSDOF 2
