REMARK  5 active torsions:
REMARK  status: ('A' for Active; 'I' for Inactive)
REMARK    1  A    between atoms: C2_2  and  C3_3 
REMARK    2  A    between atoms: C2_2  and  N2_6 
REMARK    3  A    between atoms: N2_6  and  C5_9 
REMARK    4  A    between atoms: C5_9  and  C6_10 
REMARK       I    between atoms: N3_16  and  C12_17 
REMARK    5  A    between atoms: C12_17  and  C13_19 
ROOT
HETATM    1  C3  UNL     1       4.683   2.655   0.603  1.00  0.00     0.156 C 
HETATM    2  C4  UNL     1       5.901   1.841   0.818  1.00  0.00     0.061 C 
HETATM    3  N1  UNL     1       6.845   1.186   0.986  1.00  0.00    -0.197 NA
ENDROOT
BRANCH   1   4
HETATM    4  C2  UNL     1       3.802   1.867  -0.361  1.00  0.00     0.195 C 
HETATM    5  C1  UNL     1       4.574   1.681  -1.621  1.00  0.00     0.041 C 
BRANCH   4   6
HETATM    6  N2  UNL     1       3.429   0.658   0.324  1.00  0.00    -0.070 N 
ATOM      7  H22 UNL     1       4.252   0.130   0.614  1.00  0.00     0.277 HD
ATOM      8  H21 UNL     1       3.035   0.862   1.242  1.00  0.00     0.277 HD
BRANCH   6   9
HETATM    9  C5  UNL     1       2.545  -0.151  -0.446  1.00  0.00     0.244 C 
BRANCH   9  10
HETATM   10  C6  UNL     1       2.209  -1.384   0.335  1.00  0.00     0.005 C 
HETATM   11  C7  UNL     1       3.371  -2.224   0.688  1.00  0.00     0.013 C 
HETATM   12  C8  UNL     1       3.679  -2.885  -0.666  1.00  0.00     0.001 C 
HETATM   13  C9  UNL     1       2.386  -2.768  -1.490  1.00  0.00     0.007 C 
HETATM   14  C10 UNL     1       1.405  -2.408  -0.482  1.00  0.00     0.015 C 
HETATM   15  C11 UNL     1       0.226  -1.594  -0.785  1.00  0.00     0.131 C 
HETATM   16  N3  UNL     1       0.027  -0.849   0.441  1.00  0.00    -0.351 N 
HETATM   17  C12 UNL     1      -1.050  -0.020   0.780  1.00  0.00     0.224 C 
HETATM   18  C21 UNL     1       1.176  -1.086   1.345  1.00  0.00     0.137 C 
HETATM   19  O1  UNL     1      -1.029   0.580   1.917  1.00  0.00    -0.273 OA
BRANCH  17  20
HETATM   20  C13 UNL     1      -2.244   0.245  -0.049  1.00  0.00     0.078 C 
HETATM   21  C14 UNL     1      -3.223  -0.870   0.121  1.00  0.00     0.015 C 
HETATM   22  C15 UNL     1      -4.628  -0.572  -0.279  1.00  0.00     0.010 C 
HETATM   23  C16 UNL     1      -5.088   0.814   0.010  1.00  0.00    -0.048 C 
HETATM   24  C17 UNL     1      -5.352   0.975   1.489  1.00  0.00     0.015 C 
HETATM   25  C18 UNL     1      -6.358   1.108  -0.757  1.00  0.00     0.015 C 
HETATM   26  C19 UNL     1      -4.049   1.826  -0.467  1.00  0.00     0.010 C 
HETATM   27  C20 UNL     1      -2.823   1.574   0.381  1.00  0.00     0.015 C 
ENDBRANCH  17  20
ENDBRANCH   9  10
ENDBRANCH   6   9
ENDBRANCH   4   6
ENDBRANCH   1   4
TORSDOF 5
