REMARK  10 active torsions:
REMARK  status: ('A' for Active; 'I' for Inactive)
REMARK    1  A    between atoms: N1_1  and  C1_5 
REMARK    2  A    between atoms: C1_5  and  C2_6 
REMARK    3  A    between atoms: C1_5  and  C12_24 
REMARK    4  A    between atoms: C2_6  and  C3_7 
REMARK    5  A    between atoms: C3_7  and  S1_8 
REMARK    6  A    between atoms: S1_8  and  C4_11 
REMARK    7  A    between atoms: C4_11  and  C5_14 
REMARK       I    between atoms: C12_24  and  N3_26 
REMARK    8  A    between atoms: C16_30  and  C17_31 
REMARK       I    between atoms: C17_31  and  N4_33 
REMARK    9  A    between atoms: N4_33  and  C18_35 
REMARK   10  A    between atoms: C18_35  and  C19_36 
ROOT
HETATM    1  C1  UNL     1       0.320  -2.867   0.223  1.00  0.00     0.275 C 
ENDROOT
BRANCH   1   2
HETATM    2  N1  UNL     1       0.116  -3.870   1.282  1.00  0.00    -0.066 N 
ATOM      3  H13 UNL     1       0.749  -4.666   1.207  1.00  0.00     0.275 HD
ATOM      4  H12 UNL     1       0.418  -3.549   2.202  1.00  0.00     0.275 HD
ATOM      5  H11 UNL     1      -0.868  -4.137   1.254  1.00  0.00     0.275 HD
ENDBRANCH   1   2
BRANCH   1   6
HETATM    6  C2  UNL     1       1.746  -2.480   0.263  1.00  0.00     0.058 C 
BRANCH   6   7
HETATM    7  C3  UNL     1       2.253  -1.894   1.524  1.00  0.00     0.149 C 
BRANCH   7   8
HETATM    8  S1  UNL     1       3.940  -1.422   1.442  1.00  0.00     0.218 S 
HETATM    9  O1  UNL     1       4.732  -2.685   1.126  1.00  0.00    -0.221 OA
HETATM   10  O2  UNL     1       4.394  -0.966   2.795  1.00  0.00    -0.221 OA
BRANCH   8  11
HETATM   11  C4  UNL     1       4.293  -0.176   0.268  1.00  0.00     0.385 C 
HETATM   12  F1  UNL     1       3.565   0.974   0.566  1.00  0.00    -0.181 F 
HETATM   13  F2  UNL     1       3.987  -0.576  -1.006  1.00  0.00    -0.181 F 
BRANCH  11  14
HETATM   14  C5  UNL     1       5.734   0.212   0.262  1.00  0.00     0.098 A 
HETATM   15  C6  UNL     1       6.833  -0.463   0.775  1.00  0.00     0.043 A 
HETATM   16  C7  UNL     1       7.951   0.310   0.519  1.00  0.00    -0.010 A 
HETATM   17  C8  UNL     1       7.542   1.433  -0.139  1.00  0.00     0.020 A 
HETATM   18  C11 UNL     1       9.373   0.090   0.832  1.00  0.00     0.208 C 
HETATM   19  N2  UNL     1       6.215   1.344  -0.276  1.00  0.00    -0.357 N 
HETATM   20  C9  UNL     1       8.535   2.453  -0.547  1.00  0.00     0.084 C 
ATOM     21  H2  UNL     1       5.638   2.050  -0.734  1.00  0.00     0.166 HD
HETATM   22  C10 UNL     1       9.872   1.770  -0.707  1.00  0.00     0.174 C 
HETATM   23  O3  UNL     1      10.232   1.056   0.412  1.00  0.00    -0.386 OA
ENDBRANCH  11  14
ENDBRANCH   8  11
ENDBRANCH   7   8
ENDBRANCH   6   7
ENDBRANCH   1   6
BRANCH   1  24
HETATM   24  C12 UNL     1      -0.687  -1.834   0.313  1.00  0.00     0.251 C 
HETATM   25  O4  UNL     1      -1.497  -1.868   1.312  1.00  0.00    -0.271 OA
HETATM   26  N3  UNL     1      -0.927  -0.739  -0.574  1.00  0.00    -0.337 N 
HETATM   27  C13 UNL     1      -0.109  -0.521  -1.782  1.00  0.00     0.127 C 
HETATM   28  C16 UNL     1      -1.850   0.330  -0.589  1.00  0.00     0.179 C 
HETATM   29  C14 UNL     1      -1.155  -0.056  -2.803  1.00  0.00     0.022 C 
HETATM   30  C15 UNL     1      -2.451   0.150  -1.998  1.00  0.00     0.037 C 
BRANCH  28  31
HETATM   31  C17 UNL     1      -2.758   0.665   0.436  1.00  0.00     0.240 C 
HETATM   32  O5  UNL     1      -2.423   0.932   1.654  1.00  0.00    -0.271 OA
HETATM   33  N4  UNL     1      -4.151   0.751   0.163  1.00  0.00    -0.359 N 
ATOM     34  H4  UNL     1      -4.488   0.525  -0.773  1.00  0.00     0.162 HD
BRANCH  33  35
HETATM   35  C18 UNL     1      -5.090   1.145   1.163  1.00  0.00     0.127 C 
BRANCH  35  36
HETATM   36  C19 UNL     1      -6.520   1.106   0.666  1.00  0.00     0.003 C 
HETATM   37  C20 UNL     1      -6.940  -0.293   0.233  1.00  0.00     0.006 C 
HETATM   38  C21 UNL     1      -8.462  -0.261   0.207  1.00  0.00     0.000 C 
HETATM   39  C22 UNL     1      -9.004   1.124   0.025  1.00  0.00     0.000 C 
HETATM   40  C23 UNL     1      -8.188   1.995  -0.902  1.00  0.00     0.000 C 
HETATM   41  C24 UNL     1      -6.708   1.972  -0.566  1.00  0.00     0.006 C 
ENDBRANCH  35  36
ENDBRANCH  33  35
ENDBRANCH  28  31
ENDBRANCH   1  24
TORSDOF 10
