REMARK  7 active torsions:
REMARK  status: ('A' for Active; 'I' for Inactive)
REMARK    1  A    between atoms: C2_2  and  C3_3 
REMARK    2  A    between atoms: C3_3  and  N1_4 
REMARK    3  A    between atoms: C5_6  and  C6_7 
REMARK    4  A    between atoms: C6_7  and  C7_8 
REMARK    5  A    between atoms: C12_13  and  N2_14 
REMARK    6  A    between atoms: N2_14  and  C13_16 
REMARK       I    between atoms: N4_25  and  C19_27 
REMARK    7  A    between atoms: N6_29  and  C20_31 
ROOT
HETATM    1  N1  UNL     1       0.862   0.651   1.086  1.00  0.00    -0.320 N 
HETATM    2  C4  UNL     1      -0.417   0.362   0.696  1.00  0.00     0.119 A 
HETATM    3  C5  UNL     1      -0.695  -0.594  -0.231  1.00  0.00     0.027 A 
HETATM    4  N3  UNL     1       0.362  -1.250  -0.753  1.00  0.00    -0.340 N 
ATOM      5  H3  UNL     1       0.177  -1.971  -1.450  1.00  0.00     0.167 HD
HETATM    6  C18 UNL     1       1.653  -1.016  -0.414  1.00  0.00     0.177 A 
HETATM    7  N4  UNL     1       2.593  -1.694  -0.963  1.00  0.00    -0.312 N 
ATOM      8  H4  UNL     1       2.317  -2.397  -1.649  1.00  0.00     0.170 HD
HETATM    9  C19 UNL     1       3.959  -1.558  -0.708  1.00  0.00     0.190 C 
HETATM   10  N5  UNL     1       4.545  -2.310   0.339  1.00  0.00    -0.063 NA
HETATM   11  N6  UNL     1       4.657  -0.786  -1.410  1.00  0.00    -0.360 N 
ATOM     12  H6  UNL     1       4.123  -0.309  -2.137  1.00  0.00     0.162 HD
HETATM   13  C26 UNL     1       1.872  -0.038   0.528  1.00  0.00     0.291 A 
HETATM   14  O2  UNL     1       3.051   0.222   0.877  1.00  0.00    -0.264 OA
ENDROOT
BRANCH   3  15
HETATM   15  C6  UNL     1      -2.043  -0.976  -0.669  1.00  0.00     0.068 C 
BRANCH  15  16
HETATM   16  C7  UNL     1      -3.202  -0.433   0.079  1.00  0.00    -0.031 C 
HETATM   17  C8  UNL     1      -3.322  -0.787   1.517  1.00  0.00     0.010 C 
HETATM   18  C9  UNL     1      -3.842   0.246   2.445  1.00  0.00     0.001 C 
HETATM   19  C10 UNL     1      -5.076   0.964   2.051  1.00  0.00     0.002 C 
HETATM   20  C11 UNL     1      -5.827   0.387   0.900  1.00  0.00     0.031 C 
HETATM   21  C12 UNL     1      -5.072   0.398  -0.410  1.00  0.00     0.027 C 
HETATM   22  C16 UNL     1      -3.659   0.944  -0.254  1.00  0.00     0.040 C 
HETATM   23  C17 UNL     1      -4.490  -0.956  -0.608  1.00  0.00     0.040 C 
BRANCH  21  24
HETATM   24  N2  UNL     1      -5.733   1.051  -1.490  1.00  0.00    -0.404 N 
ATOM     25  H2  UNL     1      -5.324   1.869  -1.942  1.00  0.00     0.154 HD
BRANCH  24  26
HETATM   26  C13 UNL     1      -6.975   0.527  -1.914  1.00  0.00     0.124 C 
HETATM   27  C14 UNL     1      -7.054  -0.844  -2.494  1.00  0.00     0.194 C 
HETATM   28  O1  UNL     1      -8.020  -0.319  -3.404  1.00  0.00    -0.387 OA
HETATM   29  C15 UNL     1      -7.301   0.900  -3.353  1.00  0.00     0.194 C 
ENDBRANCH  24  26
ENDBRANCH  21  24
ENDBRANCH  15  16
ENDBRANCH   3  15
BRANCH   1  30
HETATM   30  C3  UNL     1       1.120   1.655   2.088  1.00  0.00     0.131 C 
BRANCH  30  31
HETATM   31  C2  UNL     1       1.045   1.190   3.497  1.00  0.00     0.016 C 
HETATM   32  C1  UNL     1       2.012   0.102   3.816  1.00  0.00     0.006 C 
ENDBRANCH  30  31
ENDBRANCH   1  30
BRANCH  11  33
HETATM   33  C20 UNL     1       6.019  -0.440  -1.406  1.00  0.00     0.084 C 
HETATM   34  C21 UNL     1       6.128   1.022  -1.843  1.00  0.00     0.025 C 
HETATM   35  C22 UNL     1       7.502   1.161  -2.464  1.00  0.00     0.002 C 
HETATM   36  C23 UNL     1       8.487   0.253  -1.757  1.00  0.00     0.000 C 
HETATM   37  C24 UNL     1       8.138   0.067  -0.301  1.00  0.00     0.002 C 
HETATM   38  C25 UNL     1       6.771  -0.583  -0.128  1.00  0.00     0.025 C 
ENDBRANCH  11  33
TORSDOF 7
