REMARK  8 active torsions:
REMARK  status: ('A' for Active; 'I' for Inactive)
REMARK    1  A    between atoms: C2_2  and  O1_5 
REMARK    2  A    between atoms: O1_5  and  C5_6 
REMARK       I    between atoms: C5_6  and  N1_8 
REMARK    3  A    between atoms: C9_12  and  C10_13 
REMARK    4  A    between atoms: C10_13  and  C11_14 
REMARK    5  A    between atoms: C12_17  and  C13_18 
REMARK       I    between atoms: C13_18  and  N2_20 
REMARK    6  A    between atoms: N2_20  and  C14_22 
REMARK    7  A    between atoms: C14_22  and  C15_23 
REMARK       I    between atoms: C15_23  and  N3_25 
REMARK    8  A    between atoms: N3_25  and  C16_27 
ROOT
HETATM    1  C16 UNL     1       5.117  -0.819  -1.567  1.00  0.00     0.122 A 
HETATM    2  C17 UNL     1       4.574  -0.727  -2.922  1.00  0.00     0.091 C 
HETATM    3  N4  UNL     1       4.126  -0.667  -4.001  1.00  0.00    -0.195 NA
HETATM    4  C18 UNL     1       6.343  -0.045  -1.270  1.00  0.00     0.050 A 
HETATM    5  C19 UNL     1       6.468  -1.538  -1.418  1.00  0.00     0.050 A 
ENDROOT
BRANCH   1   6
HETATM    6  N3  UNL     1       4.126  -1.059  -0.525  1.00  0.00    -0.337 N 
HETATM    7  C15 UNL     1       3.053  -0.166  -0.271  1.00  0.00     0.248 C 
HETATM    8  O6  UNL     1       3.057   0.852  -1.066  1.00  0.00    -0.271 OA
ATOM      9  H3  UNL     1       4.207  -1.902   0.044  1.00  0.00     0.164 HD
BRANCH   7  10
HETATM   10  C14 UNL     1       2.008  -0.270   0.725  1.00  0.00     0.121 C 
HETATM   11  C20 UNL     1       2.259   0.599   1.987  1.00  0.00     0.024 C 
HETATM   12  C21 UNL     1       3.497   0.040   2.564  1.00  0.00     0.008 C 
HETATM   13  C24 UNL     1       1.160  -0.303   2.573  1.00  0.00     0.015 C 
HETATM   14  C22 UNL     1       3.143  -1.448   2.521  1.00  0.00     0.008 C 
HETATM   15  C23 UNL     1       1.919  -1.370   1.703  1.00  0.00     0.024 C 
BRANCH  10  16
HETATM   16  N2  UNL     1       0.657   0.077   0.228  1.00  0.00    -0.341 N 
HETATM   17  C13 UNL     1       0.217   1.333  -0.187  1.00  0.00     0.242 C 
HETATM   18  O5  UNL     1       0.968   2.335  -0.159  1.00  0.00    -0.271 OA
ATOM     19  H2  UNL     1      -0.023  -0.682   0.185  1.00  0.00     0.163 HD
BRANCH  17  20
HETATM   20  C12 UNL     1      -1.204   1.538  -0.695  1.00  0.00     0.186 C 
HETATM   21  N1  UNL     1      -1.929   0.300  -0.734  1.00  0.00    -0.314 N 
HETATM   22  C5  UNL     1      -2.621  -0.139   0.413  1.00  0.00     0.364 C 
HETATM   23  C6  UNL     1      -1.975  -0.520  -1.913  1.00  0.00     0.129 C 
HETATM   24  O2  UNL     1      -2.601   0.551   1.443  1.00  0.00    -0.238 OA
HETATM   25  C7  UNL     1      -1.925   0.270  -3.192  1.00  0.00     0.020 C 
HETATM   26  C8  UNL     1      -0.865   1.314  -3.139  1.00  0.00     0.009 C 
HETATM   27  C9  UNL     1      -1.118   2.267  -1.991  1.00  0.00     0.028 C 
BRANCH  22  28
HETATM   28  O1  UNL     1      -3.344  -1.319   0.482  1.00  0.00    -0.294 OA
BRANCH  28  29
HETATM   29  C2  UNL     1      -4.033  -1.766   1.602  1.00  0.00     0.061 C 
HETATM   30  C1  UNL     1      -4.708  -3.109   1.313  1.00  0.00     0.046 C 
HETATM   31  C3  UNL     1      -5.204  -0.798   1.822  1.00  0.00     0.046 C 
HETATM   32  C4  UNL     1      -3.258  -1.832   2.865  1.00  0.00     0.046 C 
ENDBRANCH  28  29
ENDBRANCH  22  28
BRANCH  27  33
HETATM   33  C10 UNL     1      -2.285   3.154  -2.305  1.00  0.00     0.120 C 
BRANCH  33  34
HETATM   34  C11 UNL     1      -2.640   4.128  -1.279  1.00  0.00     0.172 C 
HETATM   35  O3  UNL     1      -3.387   3.840  -0.310  1.00  0.00    -0.648 OA
HETATM   36  O4  UNL     1      -2.164   5.432  -1.326  1.00  0.00    -0.648 OA
ENDBRANCH  33  34
ENDBRANCH  27  33
ENDBRANCH  17  20
ENDBRANCH  10  16
ENDBRANCH   7  10
ENDBRANCH   1   6
TORSDOF 8
