REMARK  6 active torsions:
REMARK  status: ('A' for Active; 'I' for Inactive)
REMARK    1  A    between atoms: C2_2  and  C3_3 
REMARK    2  A    between atoms: C3_3  and  C4_4 
REMARK    3  A    between atoms: C4_4  and  C5_5 
REMARK    4  A    between atoms: C10_11  and  C11_12 
REMARK    5  A    between atoms: C15_19  and  N1_20 
REMARK    6  A    between atoms: N4_29  and  C18_30 
ROOT
HETATM    1  C1  UNL     1      -2.011   1.086   1.704  1.00  0.00     0.024 C 
HETATM    2  C2  UNL     1      -2.138   0.536   0.275  1.00  0.00     0.023 C 
HETATM    3  C9  UNL     1      -1.399   1.501  -0.613  1.00  0.00     0.037 C 
HETATM    4  C10 UNL     1      -0.046   1.168  -1.070  1.00  0.00     0.145 C 
HETATM    5  C12 UNL     1       0.700   0.162  -0.301  1.00  0.00     0.041 A 
HETATM    6  C13 UNL     1      -0.058  -0.844   0.329  1.00  0.00     0.052 A 
HETATM    7  C14 UNL     1       0.810  -1.663   0.954  1.00  0.00     0.068 A 
HETATM    8  C15 UNL     1       0.633  -2.793   1.709  1.00  0.00     0.114 A 
HETATM    9  N2  UNL     1       1.722  -3.400   2.202  1.00  0.00    -0.338 N 
ATOM     10  H2  UNL     1       1.605  -4.242   2.765  1.00  0.00     0.168 HD
HETATM   11  C16 UNL     1       2.963  -2.934   1.978  1.00  0.00     0.183 A 
HETATM   12  N3  UNL     1       3.117  -1.826   1.237  1.00  0.00    -0.338 N 
ATOM     13  H3  UNL     1       4.062  -1.479   1.072  1.00  0.00     0.168 HD
HETATM   14  C17 UNL     1       2.096  -1.159   0.708  1.00  0.00     0.124 A 
HETATM   15  N4  UNL     1       1.986  -0.047  -0.059  1.00  0.00    -0.330 N 
HETATM   16  C24 UNL     1      -1.518  -0.794   0.200  1.00  0.00     0.171 C 
HETATM   17  O1  UNL     1      -2.102  -1.870   0.037  1.00  0.00    -0.291 OA
ENDROOT
BRANCH   2  18
HETATM   18  C3  UNL     1      -3.578   0.560  -0.162  1.00  0.00     0.022 C 
BRANCH  18  19
HETATM   19  C4  UNL     1      -4.531  -0.210   0.670  1.00  0.00     0.040 C 
BRANCH  19  20
HETATM   20  C5  UNL     1      -5.947  -0.089   0.128  1.00  0.00    -0.051 A 
HETATM   21  C6  UNL     1      -6.462  -0.928  -0.778  1.00  0.00     0.014 A 
HETATM   22  C7  UNL     1      -7.751  -0.707  -1.183  1.00  0.00     0.050 A 
HETATM   23  S1  UNL     1      -8.202   0.668  -0.282  1.00  0.00    -0.113 SA
HETATM   24  C8  UNL     1      -6.751   0.922   0.578  1.00  0.00     0.056 A 
ENDBRANCH  19  20
ENDBRANCH  18  19
ENDBRANCH   2  18
BRANCH   4  25
HETATM   25  C11 UNL     1      -0.156   0.794  -2.558  1.00  0.00     0.396 C 
HETATM   26  F1  UNL     1      -0.666   1.899  -3.262  1.00  0.00    -0.170 F 
HETATM   27  F2  UNL     1       1.052   0.522  -3.133  1.00  0.00    -0.170 F 
HETATM   28  F3  UNL     1      -1.075  -0.210  -2.776  1.00  0.00    -0.170 F 
ENDBRANCH   4  25
BRANCH  15  29
HETATM   29  C18 UNL     1       3.163   0.735  -0.478  1.00  0.00     0.091 C 
HETATM   30  C19 UNL     1       4.141  -0.032  -1.276  1.00  0.00     0.026 C 
HETATM   31  C20 UNL     1       5.532  -0.074  -0.772  1.00  0.00     0.002 C 
HETATM   32  C21 UNL     1       6.019   1.127  -0.049  1.00  0.00     0.000 C 
HETATM   33  C22 UNL     1       4.984   2.142   0.306  1.00  0.00     0.002 C 
HETATM   34  C23 UNL     1       3.750   1.373   0.764  1.00  0.00     0.026 C 
ENDBRANCH  15  29
BRANCH   8  35
HETATM   35  N1  UNL     1      -0.513  -3.290   1.971  1.00  0.00    -0.385 N 
ATOM     36  H12 UNL     1      -1.342  -2.828   1.596  1.00  0.00     0.157 HD
ATOM     37  H11 UNL     1      -0.645  -4.131   2.533  1.00  0.00     0.157 HD
ENDBRANCH   8  35
TORSDOF 6
