REMARK  7 active torsions:
REMARK  status: ('A' for Active; 'I' for Inactive)
REMARK    1  A    between atoms: C2_2  and  O1_3 
REMARK    2  A    between atoms: O1_3  and  C3_4 
REMARK    3  A    between atoms: C3_4  and  C4_6 
REMARK    4  A    between atoms: C5_7  and  N1_8 
REMARK    5  A    between atoms: N1_8  and  C6_10 
REMARK    6  A    between atoms: C7_13  and  C8_14 
REMARK    7  A    between atoms: C16_26  and  C17_27 
ROOT
HETATM    1  C4  UNL     1      -0.524   1.198   0.180  1.00  0.00     0.087 A 
HETATM    2  C5  UNL     1       0.377   0.536  -0.586  1.00  0.00     0.079 A 
HETATM    3  C11 UNL     1      -0.002  -0.791  -0.963  1.00  0.00     0.067 A 
HETATM    4  C12 UNL     1       0.764  -1.632  -1.727  1.00  0.00     0.034 A 
HETATM    5  C13 UNL     1       0.066  -2.799  -1.858  1.00  0.00     0.020 A 
HETATM    6  C14 UNL     1      -1.136  -2.613  -1.158  1.00  0.00     0.098 A 
HETATM    7  N3  UNL     1      -1.164  -1.374  -0.610  1.00  0.00    -0.318 N 
HETATM    8  C15 UNL     1      -2.086  -0.703   0.161  1.00  0.00     0.064 A 
HETATM    9  C16 UNL     1      -3.342  -1.094   0.519  1.00  0.00    -0.019 A 
HETATM   10  C20 UNL     1      -4.091  -0.152   1.247  1.00  0.00     0.060 A 
HETATM   11  S2  UNL     1      -3.055   1.184   1.369  1.00  0.00    -0.098 SA
HETATM   12  C21 UNL     1      -1.726   0.559   0.529  1.00  0.00     0.051 A 
ENDROOT
BRANCH   2  13
HETATM   13  N1  UNL     1       1.523   1.100  -1.114  1.00  0.00    -0.334 N 
ATOM     14  H1  UNL     1       1.357   1.784  -1.852  1.00  0.00     0.168 HD
BRANCH  13  15
HETATM   15  C6  UNL     1       2.740   0.912  -0.838  1.00  0.00     0.149 A 
HETATM   16  N2  UNL     1       3.392   0.137   0.050  1.00  0.00    -0.335 N 
HETATM   17  C7  UNL     1       4.685   0.118   0.013  1.00  0.00     0.089 A 
ATOM     18  H2  UNL     1       2.880  -0.420   0.734  1.00  0.00     0.168 HD
HETATM   19  C10 UNL     1       5.356   0.855  -0.907  1.00  0.00     0.084 A 
HETATM   20  S1  UNL     1       4.071   1.601  -1.730  1.00  0.00    -0.064 SA
BRANCH  17  21
HETATM   21  C8  UNL     1       5.489  -0.674   1.071  1.00  0.00     0.282 C 
HETATM   22  C9  UNL     1       6.085  -1.876   0.432  1.00  0.00     0.097 C 
HETATM   23  F1  UNL     1       6.557   0.169   1.460  1.00  0.00    -0.200 F 
HETATM   24  F2  UNL     1       4.720  -0.924   2.178  1.00  0.00    -0.200 F 
ENDBRANCH  17  21
ENDBRANCH  13  15
ENDBRANCH   2  13
BRANCH   1  25
HETATM   25  C3  UNL     1      -0.421   2.572   0.666  1.00  0.00     0.297 C 
HETATM   26  O2  UNL     1       0.116   2.850   1.733  1.00  0.00    -0.259 OA
BRANCH  25  27
HETATM   27  O1  UNL     1      -0.993   3.577  -0.139  1.00  0.00    -0.318 OA
BRANCH  27  28
HETATM   28  C2  UNL     1      -1.045   4.917   0.249  1.00  0.00     0.174 C 
HETATM   29  C1  UNL     1       0.289   5.512   0.613  1.00  0.00     0.034 C 
ENDBRANCH  27  28
ENDBRANCH  25  27
ENDBRANCH   1  25
BRANCH   9  30
HETATM   30  C17 UNL     1      -4.063  -2.415   0.353  1.00  0.00     0.013 C 
HETATM   31  C18 UNL     1      -5.489  -2.060  -0.161  1.00  0.00     0.015 C 
HETATM   32  C19 UNL     1      -4.443  -2.959   1.791  1.00  0.00     0.015 C 
ENDBRANCH   9  30
TORSDOF 7
