REMARK  6 active torsions:
REMARK  status: ('A' for Active; 'I' for Inactive)
REMARK    1  A    between atoms: N2_5  and  C4_6 
REMARK    2  A    between atoms: C4_6  and  C5_11 
REMARK    3  A    between atoms: N3_7  and  O1_9 
REMARK    4  A    between atoms: C8_15  and  C9_16 
REMARK    5  A    between atoms: C9_16  and  C10_17 
REMARK    6  A    between atoms: C13_20  and  N4_21 
ROOT
HETATM    1  N1  UNL     1      -7.926   0.570  -3.789  1.00  0.00    -0.191 NA
HETATM    2  C1  UNL     1      -7.209   0.165  -2.973  1.00  0.00     0.106 C 
HETATM    3  C2  UNL     1      -6.330  -0.358  -1.956  1.00  0.00     0.131 A 
HETATM    4  C3  UNL     1      -5.503   0.346  -1.091  1.00  0.00     0.146 A 
HETATM    5  N2  UNL     1      -4.863  -0.546  -0.310  1.00  0.00    -0.248 N 
HETATM    6  N6  UNL     1      -5.228  -1.777  -0.621  1.00  0.00    -0.257 N 
ATOM      7  H6  UNL     1      -4.893  -2.635  -0.182  1.00  0.00     0.191 HD
HETATM    8  C21 UNL     1      -6.123  -1.692  -1.623  1.00  0.00     0.282 A 
HETATM    9  O3  UNL     1      -6.726  -2.621  -2.221  1.00  0.00    -0.265 OA
ENDROOT
BRANCH   5  10
HETATM   10  C4  UNL     1      -3.929  -0.165   0.699  1.00  0.00     0.127 C 
HETATM   11  N3  UNL     1      -4.252  -0.377   1.924  1.00  0.00    -0.255 N 
ATOM     12  H3  UNL     1      -3.604  -0.114   2.666  1.00  0.00     0.195 HD
BRANCH  11  13
HETATM   13  O1  UNL     1      -5.446  -0.947   2.248  1.00  0.00    -0.288 OA
ATOM     14  H1  UNL     1      -5.685  -1.104   3.154  1.00  0.00     0.244 HD
ENDBRANCH  11  13
BRANCH  10  15
HETATM   15  C5  UNL     1      -2.615   0.462   0.348  1.00  0.00     0.059 C 
HETATM   16  C6  UNL     1      -1.803  -0.440  -0.496  1.00  0.00     0.038 C 
HETATM   17  C7  UNL     1      -0.513  -0.922   0.050  1.00  0.00     0.169 C 
HETATM   18  O2  UNL     1       0.157  -0.085   0.888  1.00  0.00    -0.386 OA
HETATM   19  C8  UNL     1       0.208   1.234   0.502  1.00  0.00     0.125 C 
HETATM   20  C19 UNL     1      -0.921   1.957   1.249  1.00  0.00     0.033 C 
HETATM   21  C20 UNL     1      -1.994   0.928   1.613  1.00  0.00     0.015 C 
BRANCH  19  22
HETATM   22  C9  UNL     1       1.495   1.826   0.999  1.00  0.00     0.070 C 
BRANCH  22  23
HETATM   23  C10 UNL     1       2.699   1.181   0.496  1.00  0.00    -0.056 A 
HETATM   24  C11 UNL     1       3.366   1.539  -0.655  1.00  0.00     0.009 A 
HETATM   25  C12 UNL     1       4.504   0.889  -1.082  1.00  0.00     0.030 A 
HETATM   26  C13 UNL     1       5.027  -0.178  -0.343  1.00  0.00     0.039 A 
HETATM   27  C17 UNL     1       4.363  -0.543   0.813  1.00  0.00     0.030 A 
HETATM   28  C18 UNL     1       3.227   0.127   1.214  1.00  0.00     0.009 A 
BRANCH  26  29
HETATM   29  N4  UNL     1       6.200  -0.859  -0.770  1.00  0.00    -0.317 N 
HETATM   30  C14 UNL     1       7.152  -0.383  -1.586  1.00  0.00     0.115 A 
HETATM   31  C15 UNL     1       8.097  -1.381  -1.724  1.00  0.00     0.106 A 
HETATM   32  N5  UNL     1       7.713  -2.446  -0.995  1.00  0.00    -0.360 N 
HETATM   33  C16 UNL     1       6.555  -2.107  -0.421  1.00  0.00     0.188 A 
ATOM     34  H5  UNL     1       8.207  -3.333  -0.900  1.00  0.00     0.166 HD
ENDBRANCH  26  29
ENDBRANCH  22  23
ENDBRANCH  19  22
ENDBRANCH  10  15
ENDBRANCH   5  10
TORSDOF 6
