REMARK  9 active torsions:
REMARK  status: ('A' for Active; 'I' for Inactive)
REMARK    1  A    between atoms: O1_2  and  C2_3 
REMARK    2  A    between atoms: C2_3  and  C3_4 
REMARK       I    between atoms: N1_6  and  C5_7 
REMARK    3  A    between atoms: C5_7  and  O3_9 
REMARK    4  A    between atoms: O3_9  and  C6_10 
REMARK    5  A    between atoms: C6_10  and  C7_11 
REMARK    6  A    between atoms: C7_11  and  N2_12 
REMARK    7  A    between atoms: C7_11  and  N3_16 
REMARK    8  A    between atoms: N3_16  and  C8_19 
REMARK    9  A    between atoms: C9_20  and  O4_21 
ROOT
HETATM    1  C7  UNL     1      -1.255  -0.866  -0.848  1.00  0.00     0.415 C 
ENDROOT
BRANCH   1   2
HETATM    2  C6  UNL     1       0.132  -0.347  -1.030  1.00  0.00     0.126 C 
HETATM    3  C15 UNL     1       0.655  -1.098  -2.293  1.00  0.00     0.043 C 
HETATM    4  C16 UNL     1       1.809  -0.211  -2.697  1.00  0.00     0.003 C 
HETATM    5  C17 UNL     1       1.520   1.172  -2.160  1.00  0.00     0.003 C 
HETATM    6  C18 UNL     1       0.142   1.047  -1.634  1.00  0.00     0.043 C 
BRANCH   2   7
HETATM    7  O3  UNL     1       1.086  -0.574  -0.100  1.00  0.00    -0.289 OA
BRANCH   7   8
HETATM    8  C5  UNL     1       1.310  -0.247   1.181  1.00  0.00     0.364 C 
HETATM    9  N1  UNL     1       2.484  -0.712   1.877  1.00  0.00    -0.318 N 
HETATM   10  C4  UNL     1       3.503  -1.544   1.344  1.00  0.00     0.146 C 
HETATM   11  C19 UNL     1       2.738  -0.334   3.273  1.00  0.00     0.202 C 
HETATM   12  C3  UNL     1       4.857  -1.120   1.777  1.00  0.00     0.090 C 
HETATM   13  S1  UNL     1       4.510   0.129   3.045  1.00  0.00    -0.141 SA
HETATM   14  O2  UNL     1       0.458   0.470   1.728  1.00  0.00    -0.238 OA
BRANCH  12  15
HETATM   15  C2  UNL     1       5.768  -0.677   0.698  1.00  0.00     0.183 C 
BRANCH  15  16
HETATM   16  O1  UNL     1       5.358   0.395  -0.052  1.00  0.00    -0.395 OA
HETATM   17  C1  UNL     1       6.387   0.617  -1.000  1.00  0.00     0.201 C 
ENDBRANCH  15  16
ENDBRANCH  12  15
ENDBRANCH   7   8
ENDBRANCH   2   7
ENDBRANCH   1   2
BRANCH   1  18
HETATM   18  N2  UNL     1      -1.212  -2.319  -0.738  1.00  0.00    -0.047 N 
ATOM     19  H23 UNL     1      -0.737  -2.753  -1.529  1.00  0.00     0.276 HD
ATOM     20  H22 UNL     1      -0.581  -2.633  -0.001  1.00  0.00     0.276 HD
ATOM     21  H21 UNL     1      -2.160  -2.674  -0.614  1.00  0.00     0.276 HD
ENDBRANCH   1  18
BRANCH   1  22
HETATM   22  N3  UNL     1      -1.979  -0.268   0.211  1.00  0.00    -0.036 N 
ATOM     23  H32 UNL     1      -1.708  -0.673   1.107  1.00  0.00     0.280 HD
ATOM     24  H31 UNL     1      -1.673   0.694   0.360  1.00  0.00     0.280 HD
BRANCH  22  25
HETATM   25  C8  UNL     1      -3.419  -0.327   0.035  1.00  0.00     0.224 C 
HETATM   26  C9  UNL     1      -3.959   0.386  -1.149  1.00  0.00     0.149 C 
HETATM   27  C10 UNL     1      -5.357   0.881  -0.736  1.00  0.00     0.034 C 
HETATM   28  C11 UNL     1      -5.489   0.583   0.736  1.00  0.00     0.013 C 
HETATM   29  C12 UNL     1      -4.031   0.493   1.175  1.00  0.00    -0.017 C 
HETATM   30  C13 UNL     1      -3.948  -0.182   2.502  1.00  0.00     0.017 C 
HETATM   31  C14 UNL     1      -3.403   1.852   1.142  1.00  0.00     0.017 C 
BRANCH  26  32
HETATM   32  O4  UNL     1      -4.179  -0.545  -2.173  1.00  0.00    -0.393 OA
ATOM     33  H4  UNL     1      -4.525  -0.089  -2.931  1.00  0.00     0.210 HD
ENDBRANCH  26  32
ENDBRANCH  22  25
ENDBRANCH   1  22
TORSDOF 9
