REMARK  3 active torsions:
REMARK  status: ('A' for Active; 'I' for Inactive)
REMARK    1  A    between atoms: C5_6  and  C6_7 
REMARK    2  A    between atoms: C10_14  and  C11_15 
REMARK    3  A    between atoms: C11_15  and  N3_16 
ROOT
HETATM    1  N1  UNL     1       7.269   0.021   1.092  1.00  0.00    -0.191 NA
HETATM    2  C1  UNL     1       6.141   0.003   0.860  1.00  0.00     0.107 C 
HETATM    3  C2  UNL     1       4.723  -0.033   0.546  1.00  0.00     0.086 A 
HETATM    4  C3  UNL     1       3.718   0.640   1.170  1.00  0.00     0.031 A 
HETATM    5  C4  UNL     1       2.463   0.463   0.716  1.00  0.00     0.022 A 
HETATM    6  C5  UNL     1       2.292  -0.382  -0.343  1.00  0.00     0.019 A 
HETATM    7  S2  UNL     1       3.895  -0.898  -0.662  1.00  0.00    -0.078 SA
ENDROOT
BRANCH   6   8
HETATM    8  C6  UNL     1       1.034  -0.814  -1.036  1.00  0.00     0.017 A 
HETATM    9  C7  UNL     1       1.121  -1.908  -1.880  1.00  0.00     0.067 A 
HETATM   10  S1  UNL     1      -0.464  -2.082  -2.471  1.00  0.00    -0.081 SA
HETATM   11  C8  UNL     1      -1.204  -0.788  -1.652  1.00  0.00     0.103 A 
HETATM   12  C9  UNL     1      -0.170  -0.237  -0.925  1.00  0.00     0.075 A 
HETATM   13  N5  UNL     1      -2.555  -0.264  -1.558  1.00  0.00    -0.337 N 
HETATM   14  N2  UNL     1      -0.578   0.960  -0.199  1.00  0.00    -0.374 N 
HETATM   15  C10 UNL     1      -1.900   1.028   0.418  1.00  0.00     0.174 C 
ATOM     16  H2  UNL     1       0.061   1.751  -0.122  1.00  0.00     0.160 HD
HETATM   17  C12 UNL     1      -2.888   0.834  -0.714  1.00  0.00     0.100 C 
HETATM   18  N4  UNL     1      -3.906   1.560  -0.902  1.00  0.00    -0.387 N 
ATOM     19  H42 UNL     1      -4.144   2.346  -0.298  1.00  0.00     0.157 HD
ATOM     20  H41 UNL     1      -4.571   1.429  -1.664  1.00  0.00     0.157 HD
ATOM     21  H5  UNL     1      -3.291  -0.697  -2.116  1.00  0.00     0.168 HD
BRANCH  15  22
HETATM   22  C11 UNL     1      -2.122  -0.127   1.365  1.00  0.00     0.262 C 
BRANCH  22  23
HETATM   23  N3  UNL     1      -3.427  -0.066   1.980  1.00  0.00    -0.077 N 
ATOM     24  H33 UNL     1      -3.579   0.830   2.443  1.00  0.00     0.274 HD
ATOM     25  H32 UNL     1      -4.167  -0.011   1.280  1.00  0.00     0.274 HD
ATOM     26  H31 UNL     1      -3.577  -0.846   2.620  1.00  0.00     0.274 HD
ENDBRANCH  22  23
ENDBRANCH  15  22
ENDBRANCH   6   8
TORSDOF 3
