REMARK  4 active torsions:
REMARK  status: ('A' for Active; 'I' for Inactive)
REMARK    1  A    between atoms: N1_1  and  C1_4 
REMARK    2  A    between atoms: C2_7  and  O1_8 
REMARK    3  A    between atoms: C4_13  and  C5_14 
REMARK    4  A    between atoms: N4_23  and  N5_24 
ROOT
HETATM    1  C1  UNL     1       5.268   0.891   0.245  1.00  0.00     0.679 A 
HETATM    2  N2  UNL     1       4.802   0.835   1.526  1.00  0.00    -0.168 N 
ATOM      3  H2  UNL     1       5.450   1.011   2.294  1.00  0.00     0.186 HD
HETATM    4  C2  UNL     1       3.522   0.557   1.809  1.00  0.00     0.186 A 
HETATM    5  C3  UNL     1       2.608   0.311   0.797  1.00  0.00     0.132 A 
HETATM    6  N3  UNL     1       1.316   0.016   0.730  1.00  0.00    -0.338 N 
ATOM      7  H3  UNL     1       0.693  -0.094   1.530  1.00  0.00     0.167 HD
HETATM    8  C4  UNL     1       0.961  -0.114  -0.548  1.00  0.00     0.110 A 
HETATM    9  N4  UNL     1       2.051   0.104  -1.292  1.00  0.00    -0.231 N 
HETATM   10  C14 UNL     1       3.089   0.370  -0.484  1.00  0.00     0.174 A 
HETATM   11  N6  UNL     1       4.401   0.657  -0.730  1.00  0.00    -0.172 N 
ATOM     12  H6  UNL     1       4.725   0.693  -1.697  1.00  0.00     0.186 HD
ENDROOT
BRANCH   8  13
HETATM   13  C5  UNL     1      -0.377  -0.433  -1.118  1.00  0.00     0.055 C 
HETATM   14  C6  UNL     1      -1.303   0.739  -1.228  1.00  0.00     0.012 C 
HETATM   15  C7  UNL     1      -1.603   1.526  -0.037  1.00  0.00     0.001 C 
HETATM   16  C8  UNL     1      -2.872   1.244   0.704  1.00  0.00     0.000 C 
HETATM   17  C9  UNL     1      -3.923   0.481   0.015  1.00  0.00     0.000 C 
HETATM   18  C10 UNL     1      -3.829  -0.997   0.027  1.00  0.00     0.000 C 
HETATM   19  C11 UNL     1      -2.953  -1.627   1.021  1.00  0.00     0.000 C 
HETATM   20  C12 UNL     1      -1.496  -1.657   0.802  1.00  0.00     0.001 C 
HETATM   21  C13 UNL     1      -0.995  -1.687  -0.575  1.00  0.00     0.012 C 
ENDBRANCH   8  13
BRANCH   9  22
HETATM   22  N5  UNL     1       2.151   0.072  -2.709  1.00  0.00    -0.335 N 
ATOM     23  H52 UNL     1       1.362  -0.130  -3.323  1.00  0.00     0.177 HD
ATOM     24  H51 UNL     1       2.982   0.238  -3.276  1.00  0.00     0.177 HD
ENDBRANCH   9  22
BRANCH   4  25
HETATM   25  O1  UNL     1       3.077   0.506   3.113  1.00  0.00    -0.344 OA
ATOM     26  H1  UNL     1       2.170   0.309   3.314  1.00  0.00     0.219 HD
ENDBRANCH   4  25
BRANCH   1  27
HETATM   27  N1  UNL     1       6.498   1.160  -0.007  1.00  0.00    -0.234 N 
ATOM     28  H12 UNL     1       7.165   1.340   0.743  1.00  0.00     0.174 HD
ATOM     29  H11 UNL     1       6.846   1.202  -0.965  1.00  0.00     0.174 HD
ENDBRANCH   1  27
TORSDOF 4
