REMARK  5 active torsions:
REMARK  status: ('A' for Active; 'I' for Inactive)
REMARK    1  A    between atoms: N1_1  and  C1_5 
REMARK    2  A    between atoms: C1_5  and  C2_6 
REMARK    3  A    between atoms: C2_6  and  C3_7 
REMARK    4  A    between atoms: N2_10  and  C6_11 
REMARK    5  A    between atoms: C6_11  and  C7_12 
ROOT
HETATM    1  C3  UNL     1      -1.875  -0.677   0.011  1.00  0.00    -0.054 A 
HETATM    2  C4  UNL     1      -1.443  -0.046  -1.141  1.00  0.00     0.024 A 
HETATM    3  C5  UNL     1      -0.116  -0.142  -1.505  1.00  0.00     0.091 A 
HETATM    4  N2  UNL     1       0.778  -0.833  -0.775  1.00  0.00    -0.361 N 
HETATM    5  C10 UNL     1       0.370  -1.451   0.348  1.00  0.00     0.091 A 
HETATM    6  C11 UNL     1      -0.953  -1.383   0.756  1.00  0.00     0.024 A 
ENDROOT
BRANCH   4   7
HETATM    7  C6  UNL     1       2.162  -0.938  -1.148  1.00  0.00     0.186 C 
BRANCH   7   8
HETATM    8  C7  UNL     1       2.996   0.136  -0.583  1.00  0.00     0.049 A 
HETATM    9  C8  UNL     1       3.622   0.065   0.638  1.00  0.00     0.104 A 
HETATM   10  C9  UNL     1       4.308   1.230   0.847  1.00  0.00     0.261 A 
HETATM   11  O1  UNL     1       5.005   1.561   1.835  1.00  0.00    -0.267 OA
HETATM   12  N3  UNL     1       4.101   1.998  -0.233  1.00  0.00    -0.266 N 
HETATM   13  N4  UNL     1       3.318   1.340  -1.081  1.00  0.00    -0.300 N 
ATOM     14  H3  UNL     1       4.482   2.933  -0.379  1.00  0.00     0.190 HD
ATOM     15  H4  UNL     1       3.006   1.699  -1.983  1.00  0.00     0.186 HD
ENDBRANCH   7   8
ENDBRANCH   4   7
BRANCH   1  16
HETATM   16  C2  UNL     1      -3.284  -0.608   0.451  1.00  0.00     0.066 C 
BRANCH  16  17
HETATM   17  C1  UNL     1      -3.497   0.598   1.366  1.00  0.00     0.234 C 
BRANCH  17  18
HETATM   18  N1  UNL     1      -4.885   0.631   1.775  1.00  0.00    -0.079 N 
ATOM     19  H13 UNL     1      -5.526   0.625   0.981  1.00  0.00     0.274 HD
ATOM     20  H12 UNL     1      -5.186  -0.243   2.206  1.00  0.00     0.274 HD
ATOM     21  H11 UNL     1      -5.027   1.436   2.386  1.00  0.00     0.274 HD
ENDBRANCH  17  18
ENDBRANCH  16  17
ENDBRANCH   1  16
TORSDOF 5
