REMARK  3 active torsions:
REMARK  status: ('A' for Active; 'I' for Inactive)
REMARK    1  A    between atoms: C4_4  and  N1_5 
REMARK    2  A    between atoms: N1_5  and  C5_7 
REMARK    3  A    between atoms: C9_13  and  C10_14 
ROOT
HETATM    1  C5  UNL     1       0.932  -0.046   0.856  1.00  0.00     0.116 A 
HETATM    2  N2  UNL     1       1.875   0.295   1.728  1.00  0.00    -0.352 N 
ATOM      3  H2  UNL     1       2.853   0.281   1.438  1.00  0.00     0.166 HD
HETATM    4  C6  UNL     1       1.566   0.656   2.978  1.00  0.00     0.090 A 
HETATM    5  C7  UNL     1       0.272   0.685   3.398  1.00  0.00     0.018 A 
HETATM    6  C8  UNL     1      -0.704   0.335   2.504  1.00  0.00     0.017 A 
HETATM    7  C9  UNL     1      -0.418  -0.039   1.215  1.00  0.00     0.019 A 
ENDROOT
BRANCH   7   8
HETATM    8  C10 UNL     1      -1.432  -0.476   0.247  1.00  0.00    -0.011 A 
HETATM    9  C11 UNL     1      -1.309  -1.740  -0.337  1.00  0.00     0.013 A 
HETATM   10  C12 UNL     1      -2.243  -2.237  -1.208  1.00  0.00     0.002 A 
HETATM   11  C13 UNL     1      -3.328  -1.452  -1.506  1.00  0.00     0.012 A 
HETATM   12  C14 UNL     1      -3.514  -0.188  -0.966  1.00  0.00    -0.025 A 
HETATM   13  C15 UNL     1      -4.618   0.572  -1.307  1.00  0.00     0.012 A 
HETATM   14  C19 UNL     1      -2.531   0.267  -0.085  1.00  0.00    -0.015 A 
HETATM   15  C16 UNL     1      -4.800   1.831  -0.788  1.00  0.00     0.001 A 
HETATM   16  C17 UNL     1      -3.849   2.303   0.078  1.00  0.00     0.001 A 
HETATM   17  C18 UNL     1      -2.735   1.530   0.420  1.00  0.00     0.013 A 
ENDBRANCH   7   8
BRANCH   1  18
HETATM   18  N1  UNL     1       1.244  -0.387  -0.335  1.00  0.00    -0.342 N 
ATOM     19  H1  UNL     1       0.505  -0.644  -0.989  1.00  0.00     0.167 HD
BRANCH  18  20
HETATM   20  C4  UNL     1       2.597  -0.416  -0.770  1.00  0.00     0.033 A 
HETATM   21  C3  UNL     1       3.439  -1.490  -0.463  1.00  0.00     0.029 A 
HETATM   22  C2  UNL     1       4.748  -1.529  -0.878  1.00  0.00     0.002 A 
HETATM   23  C1  UNL     1       5.281  -0.496  -1.623  1.00  0.00     0.000 A 
HETATM   24  C21 UNL     1       4.443   0.560  -1.923  1.00  0.00     0.002 A 
HETATM   25  C20 UNL     1       3.124   0.618  -1.514  1.00  0.00     0.029 A 
ENDBRANCH  18  20
ENDBRANCH   1  18
TORSDOF 3
