REMARK  4 active torsions:
REMARK  status: ('A' for Active; 'I' for Inactive)
REMARK    1  A    between atoms: N1_1  and  C1_5 
REMARK    2  A    between atoms: C1_5  and  C2_6 
REMARK    3  A    between atoms: C1_5  and  C9_13 
REMARK    4  A    between atoms: C2_6  and  C3_7 
ROOT
HETATM    1  C1  UNL     1      -0.340  -0.270   0.618  1.00  0.00     0.220 C 
ENDROOT
BRANCH   1   2
HETATM    2  N1  UNL     1      -0.063  -1.646   0.874  1.00  0.00    -0.071 N 
ATOM      3  H13 UNL     1      -0.243  -2.217   0.048  1.00  0.00     0.275 HD
ATOM      4  H12 UNL     1       0.940  -1.808   0.969  1.00  0.00     0.275 HD
ATOM      5  H11 UNL     1      -0.572  -2.000   1.684  1.00  0.00     0.275 HD
ENDBRANCH   1   2
BRANCH   1   6
HETATM    6  C2  UNL     1       0.418   0.257  -0.589  1.00  0.00     0.076 C 
BRANCH   6   7
HETATM    7  C3  UNL     1       1.869   0.158  -0.444  1.00  0.00    -0.056 A 
HETATM    8  C4  UNL     1       2.548  -0.959  -0.855  1.00  0.00     0.007 A 
HETATM    9  C5  UNL     1       3.916  -0.990  -0.691  1.00  0.00     0.001 A 
HETATM   10  C6  UNL     1       4.586   0.097  -0.117  1.00  0.00     0.000 A 
HETATM   11  C7  UNL     1       3.895   1.204   0.289  1.00  0.00     0.001 A 
HETATM   12  C8  UNL     1       2.545   1.243   0.130  1.00  0.00     0.007 A 
ENDBRANCH   6   7
ENDBRANCH   1   6
BRANCH   1  13
HETATM   13  C9  UNL     1      -1.784  -0.006   0.355  1.00  0.00    -0.028 A 
HETATM   14  C10 UNL     1      -2.456   1.054   0.933  1.00  0.00     0.009 A 
HETATM   15  C11 UNL     1      -3.799   1.297   0.687  1.00  0.00     0.001 A 
HETATM   16  C12 UNL     1      -4.520   0.480  -0.154  1.00  0.00     0.000 A 
HETATM   17  C13 UNL     1      -3.864  -0.582  -0.739  1.00  0.00     0.001 A 
HETATM   18  C14 UNL     1      -2.526  -0.813  -0.486  1.00  0.00     0.009 A 
ENDBRANCH   1  13
TORSDOF 4
