REMARK  5 active torsions:
REMARK  status: ('A' for Active; 'I' for Inactive)
REMARK       I    between atoms: C1_2  and  N1_3 
REMARK       I    between atoms: C1_2  and  N4_21 
REMARK    1  A    between atoms: N1_3  and  N2_5 
REMARK    2  A    between atoms: N2_5  and  C2_7 
REMARK    3  A    between atoms: C2_7  and  N3_9 
REMARK    4  A    between atoms: N3_9  and  C3_11 
REMARK    5  A    between atoms: N4_21  and  C13_23 
ROOT
HETATM    1  N2  UNL     1       0.904  -1.469  -0.542  1.00  0.00    -0.272 N 
ATOM      2  H2  UNL     1       1.110  -1.629  -1.528  1.00  0.00     0.189 HD
ENDROOT
BRANCH   1   3
HETATM    3  N1  UNL     1       1.853  -1.744   0.410  1.00  0.00    -0.249 N 
HETATM    4  C1  UNL     1       2.977  -0.945   0.610  1.00  0.00     0.335 C 
HETATM    5  O1  UNL     1       3.189   0.119  -0.077  1.00  0.00    -0.246 OA
HETATM    6  N4  UNL     1       3.938  -1.297   1.595  1.00  0.00    -0.337 N 
ATOM      7  H4  UNL     1       3.812  -2.133   2.165  1.00  0.00     0.164 HD
ATOM      8  H1  UNL     1       1.730  -2.569   0.997  1.00  0.00     0.192 HD
BRANCH   6   9
HETATM    9  C13 UNL     1       5.090  -0.459   1.777  1.00  0.00     0.087 C 
HETATM   10  C14 UNL     1       6.100  -0.590   0.679  1.00  0.00     0.035 C 
HETATM   11  C15 UNL     1       7.328   0.196   1.068  1.00  0.00     0.076 C 
HETATM   12  S2  UNL     1       7.215   0.855   2.750  1.00  0.00    -0.169 SA
HETATM   13  C16 UNL     1       5.572   1.607   2.970  1.00  0.00     0.076 C 
HETATM   14  C17 UNL     1       4.684   1.034   1.857  1.00  0.00     0.035 C 
ENDBRANCH   6   9
ENDBRANCH   1   3
BRANCH   1  15
HETATM   15  C2  UNL     1      -0.373  -0.958  -0.153  1.00  0.00     0.187 C 
HETATM   16  S1  UNL     1      -0.726  -0.648   1.398  1.00  0.00    -0.040 SA
BRANCH  15  17
HETATM   17  N3  UNL     1      -1.315  -0.715  -1.167  1.00  0.00    -0.357 N 
ATOM     18  H3  UNL     1      -1.030  -0.916  -2.126  1.00  0.00     0.162 HD
BRANCH  17  19
HETATM   19  C3  UNL     1      -2.635  -0.212  -0.972  1.00  0.00     0.033 C 
HETATM   20  C4  UNL     1      -3.318  -0.120  -2.380  1.00  0.00     0.035 C 
HETATM   21  C5  UNL     1      -4.715   0.352  -2.188  1.00  0.00    -0.012 C 
HETATM   22  C6  UNL     1      -4.771   1.730  -1.594  1.00  0.00     0.009 C 
HETATM   23  C10 UNL     1      -5.517  -0.560  -1.317  1.00  0.00     0.009 C 
HETATM   24  C7  UNL     1      -4.099   1.661  -0.247  1.00  0.00    -0.012 C 
HETATM   25  C8  UNL     1      -4.771   0.703   0.685  1.00  0.00     0.009 C 
HETATM   26  C12 UNL     1      -2.677   1.182  -0.459  1.00  0.00     0.035 C 
HETATM   27  C9  UNL     1      -4.847  -0.656   0.061  1.00  0.00    -0.012 C 
HETATM   28  C11 UNL     1      -3.464  -1.211  -0.222  1.00  0.00     0.035 C 
ENDBRANCH  17  19
ENDBRANCH  15  17
ENDBRANCH   1  15
TORSDOF 5
