REMARK  7 active torsions:
REMARK  status: ('A' for Active; 'I' for Inactive)
REMARK    1  A    between atoms: C3_5  and  N2_6 
REMARK    2  A    between atoms: C4_10  and  C5_11 
REMARK    3  A    between atoms: C5_11  and  C6_12 
REMARK    4  A    between atoms: C6_12  and  N3_13 
REMARK    5  A    between atoms: N4_16  and  C9_17 
REMARK    6  A    between atoms: C9_17  and  C11_19 
REMARK    7  A    between atoms: C11_19  and  C12_20 
ROOT
HETATM    1  N3  UNL     1       2.013  -0.731  -0.731  1.00  0.00    -0.332 N 
HETATM    2  C7  UNL     1       1.721  -1.823   0.174  1.00  0.00     0.147 C 
HETATM    3  C8  UNL     1       0.320  -1.510   0.641  1.00  0.00     0.148 C 
HETATM    4  N4  UNL     1      -0.284  -0.875  -0.504  1.00  0.00    -0.328 N 
HETATM    5  C18 UNL     1       0.760  -0.332  -1.290  1.00  0.00     0.320 C 
HETATM    6  O1  UNL     1       0.669   0.394  -2.325  1.00  0.00    -0.247 OA
ENDROOT
BRANCH   1   7
HETATM    7  C6  UNL     1       3.317  -0.183  -0.993  1.00  0.00     0.133 C 
BRANCH   7   8
HETATM    8  C5  UNL     1       3.536   0.947   0.021  1.00  0.00     0.068 C 
BRANCH   8   9
HETATM    9  C4  UNL     1       4.892   1.549  -0.219  1.00  0.00     0.010 A 
HETATM   10  C2  UNL     1       6.121   1.055   0.115  1.00  0.00     0.020 A 
HETATM   11  C1  UNL     1       6.296  -0.283   0.835  1.00  0.00     0.069 C 
HETATM   12  N1  UNL     1       7.175   1.776  -0.206  1.00  0.00    -0.340 N 
HETATM   13  C3  UNL     1       6.976   2.936  -0.832  1.00  0.00     0.142 A 
ATOM     14  H1  UNL     1       8.117   1.456   0.018  1.00  0.00     0.168 HD
HETATM   15  S1  UNL     1       5.281   3.019  -0.975  1.00  0.00    -0.057 SA
BRANCH  13  16
HETATM   16  N2  UNL     1       7.886   3.797  -1.235  1.00  0.00    -0.380 N 
ATOM     17  H22 UNL     1       8.901   3.747  -1.149  1.00  0.00     0.158 HD
ATOM     18  H21 UNL     1       7.734   4.685  -1.714  1.00  0.00     0.158 HD
ENDBRANCH  13  16
ENDBRANCH   8   9
ENDBRANCH   7   8
ENDBRANCH   1   7
BRANCH   4  19
HETATM   19  C9  UNL     1      -1.740  -0.787  -0.833  1.00  0.00     0.085 C 
HETATM   20  C10 UNL     1      -2.151  -2.230  -0.966  1.00  0.00     0.032 C 
BRANCH  19  21
HETATM   21  C11 UNL     1      -2.432  -0.086   0.284  1.00  0.00     0.029 C 
BRANCH  21  22
HETATM   22  C12 UNL     1      -3.883   0.192   0.195  1.00  0.00    -0.013 C 
HETATM   23  C13 UNL     1      -4.743  -0.989   0.097  1.00  0.00     0.005 C 
HETATM   24  C14 UNL     1      -6.236  -0.641   0.243  1.00  0.00     0.000 C 
HETATM   25  C15 UNL     1      -6.384  -0.023   1.616  1.00  0.00     0.000 C 
HETATM   26  C16 UNL     1      -5.686   1.329   1.521  1.00  0.00     0.000 C 
HETATM   27  C17 UNL     1      -4.226   1.111   1.359  1.00  0.00     0.005 C 
ENDBRANCH  21  22
ENDBRANCH  19  21
ENDBRANCH   4  19
TORSDOF 7
