REMARK  4 active torsions:
REMARK  status: ('A' for Active; 'I' for Inactive)
REMARK    1  A    between atoms: O1_2  and  C2_3 
REMARK    2  A    between atoms: C6_8  and  O3_9 
REMARK    3  A    between atoms: N1_11  and  C7_12 
REMARK    4  A    between atoms: C10_15  and  O4_16 
ROOT
HETATM    1  C2  UNL     1      -2.418   0.797  -0.252  1.00  0.00     0.269 C 
HETATM    2  O2  UNL     1      -2.285   0.594   1.121  1.00  0.00    -0.350 OA
HETATM    3  C3  UNL     1      -1.490  -0.508   1.311  1.00  0.00     0.171 C 
HETATM    4  C4  UNL     1      -0.128  -0.204   0.781  1.00  0.00     0.034 A 
HETATM    5  C5  UNL     1      -0.234  -0.103  -0.594  1.00  0.00     0.016 A 
HETATM    6  C6  UNL     1       1.030   0.178  -1.104  1.00  0.00     0.152 A 
HETATM    7  N1  UNL     1       1.882   0.246  -0.060  1.00  0.00    -0.303 N 
HETATM    8  C10 UNL     1       1.212   0.020   1.085  1.00  0.00     0.154 A 
HETATM    9  C11 UNL     1      -1.655  -0.340  -0.897  1.00  0.00     0.089 C 
HETATM   10  C12 UNL     1      -1.974  -1.417   0.159  1.00  0.00    -0.005 C 
HETATM   11  C13 UNL     1      -1.110  -2.619   0.004  1.00  0.00     0.018 C 
HETATM   12  C14 UNL     1      -3.432  -1.688   0.241  1.00  0.00     0.018 C 
ENDROOT
BRANCH   7  13
HETATM   13  C7  UNL     1       3.284   0.517  -0.161  1.00  0.00     0.086 C 
HETATM   14  C8  UNL     1       4.129  -0.663   0.313  1.00  0.00     0.032 C 
HETATM   15  C9  UNL     1       3.726   1.713   0.645  1.00  0.00     0.032 C 
ENDBRANCH   7  13
BRANCH   6  16
HETATM   16  O3  UNL     1       1.306   0.348  -2.461  1.00  0.00    -0.345 OA
ATOM     17  H3  UNL     1       2.169   0.540  -2.809  1.00  0.00     0.219 HD
ENDBRANCH   6  16
BRANCH   8  18
HETATM   18  O4  UNL     1       1.720   0.001   2.388  1.00  0.00    -0.345 OA
ATOM     19  H4  UNL     1       2.634   0.154   2.595  1.00  0.00     0.219 HD
ENDBRANCH   8  18
BRANCH   1  20
HETATM   20  O1  UNL     1      -1.879   2.031  -0.544  1.00  0.00    -0.365 OA
HETATM   21  C1  UNL     1      -2.854   2.797  -1.174  1.00  0.00     0.204 C 
ENDBRANCH   1  20
TORSDOF 4
