REMARK  4 active torsions:
REMARK  status: ('A' for Active; 'I' for Inactive)
REMARK    1  A    between atoms: C2_2  and  C3_3 
REMARK    2  A    between atoms: C3_3  and  O1_4 
REMARK    3  A    between atoms: O1_4  and  C4_5 
REMARK    4  A    between atoms: C9_10  and  O2_11 
ROOT
HETATM    1  C4  UNL     1       1.628  -0.158  -0.216  1.00  0.00     0.102 A 
HETATM    2  C5  UNL     1       0.514  -0.953   0.001  1.00  0.00     0.047 A 
HETATM    3  C6  UNL     1      -0.639  -0.394   0.526  1.00  0.00    -0.043 A 
HETATM    4  C7  UNL     1      -0.721   0.943   0.845  1.00  0.00    -0.031 A 
HETATM    5  C8  UNL     1       0.397   1.717   0.623  1.00  0.00     0.049 A 
HETATM    6  C9  UNL     1       1.569   1.185   0.097  1.00  0.00     0.102 A 
HETATM    7  C11 UNL     1      -1.839   1.703   1.402  1.00  0.00     0.160 C 
HETATM    8  N1  UNL     1      -3.126   1.336   0.894  1.00  0.00    -0.371 N 
ATOM      9  H1  UNL     1      -3.862   2.012   1.098  1.00  0.00     0.161 HD
HETATM   10  C12 UNL     1      -3.566   0.208   0.161  1.00  0.00     0.110 A 
HETATM   11  N2  UNL     1      -4.721   0.228  -0.552  1.00  0.00    -0.319 N 
ATOM     12  H2  UNL     1      -5.361   1.018  -0.632  1.00  0.00     0.169 HD
HETATM   13  C13 UNL     1      -4.874  -0.974  -1.134  1.00  0.00     0.190 A 
HETATM   14  F1  UNL     1      -5.903  -1.369  -1.938  1.00  0.00    -0.186 F 
HETATM   15  C14 UNL     1      -3.784  -1.767  -0.775  1.00  0.00     0.072 A 
HETATM   16  C15 UNL     1      -2.966  -1.015   0.040  1.00  0.00    -0.006 A 
HETATM   17  C16 UNL     1      -1.689  -1.439   0.666  1.00  0.00     0.082 C 
ENDROOT
BRANCH   1  18
HETATM   18  O1  UNL     1       2.794  -0.699  -0.741  1.00  0.00    -0.345 OA
BRANCH  18  19
HETATM   19  C3  UNL     1       2.845  -2.064  -1.056  1.00  0.00     0.202 C 
BRANCH  19  20
HETATM   20  C2  UNL     1       4.181  -2.387  -1.594  1.00  0.00    -0.011 C 
HETATM   21  C1  UNL     1       5.091  -1.445  -1.707  1.00  0.00     0.009 C 
ENDBRANCH  19  20
ENDBRANCH  18  19
ENDBRANCH   1  18
BRANCH   6  22
HETATM   22  O2  UNL     1       2.697   1.949  -0.131  1.00  0.00    -0.353 OA
HETATM   23  C10 UNL     1       2.716   3.329   0.162  1.00  0.00     0.210 C 
ENDBRANCH   6  22
TORSDOF 4
