REMARK  3 active torsions:
REMARK  status: ('A' for Active; 'I' for Inactive)
REMARK    1  A    between atoms: C10_11  and  C11_12 
REMARK    2  A    between atoms: C14_19  and  C15_20 
REMARK    3  A    between atoms: C15_20  and  C16_21 
ROOT
HETATM    1  C1  UNL     1      -4.194   0.157   0.115  1.00  0.00     0.049 C 
HETATM    2  C2  UNL     1      -2.743  -0.230   0.035  1.00  0.00    -0.052 A 
HETATM    3  C3  UNL     1      -2.337  -1.505   0.366  1.00  0.00     0.015 A 
HETATM    4  C4  UNL     1      -1.041  -1.961   0.361  1.00  0.00    -0.045 A 
HETATM    5  C5  UNL     1      -0.718  -3.346   0.739  1.00  0.00     0.049 C 
HETATM    6  C6  UNL     1      -0.051  -1.040  -0.015  1.00  0.00     0.048 A 
HETATM    7  C7  UNL     1       1.257  -1.426   0.007  1.00  0.00     0.198 A 
HETATM    8  O1  UNL     1       1.585  -2.580   0.312  1.00  0.00    -0.286 OA
HETATM    9  C8  UNL     1       2.270  -0.503  -0.319  1.00  0.00     0.050 A 
HETATM   10  C9  UNL     1       3.606  -0.693  -0.332  1.00  0.00     0.034 A 
HETATM   11  C10 UNL     1       4.393   0.368  -0.658  1.00  0.00    -0.001 A 
HETATM   12  S1  UNL     1       3.253   1.618  -0.950  1.00  0.00    -0.075 SA
HETATM   13  C12 UNL     1       1.826   0.750  -0.645  1.00  0.00     0.089 A 
HETATM   14  N1  UNL     1       0.515   1.100  -0.659  1.00  0.00    -0.348 N 
ATOM     15  H1  UNL     1       0.264   2.055  -0.916  1.00  0.00     0.166 HD
HETATM   16  C13 UNL     1      -0.471   0.229  -0.345  1.00  0.00     0.055 A 
HETATM   17  C14 UNL     1      -1.779   0.657  -0.330  1.00  0.00    -0.015 A 
ENDROOT
BRANCH  17  18
HETATM   18  C15 UNL     1      -2.119   2.050  -0.679  1.00  0.00     0.154 C 
BRANCH  18  19
HETATM   19  C16 UNL     1      -2.246   2.942   0.494  1.00  0.00     0.177 C 
HETATM   20  O2  UNL     1      -3.038   3.914   0.442  1.00  0.00    -0.648 OA
HETATM   21  O3  UNL     1      -1.505   2.736   1.676  1.00  0.00    -0.648 OA
ENDBRANCH  18  19
ENDBRANCH  17  18
BRANCH  11  22
HETATM   22  C11 UNL     1       5.899   0.430  -0.741  1.00  0.00     0.160 C 
HETATM   23 CL1  UNL     1       6.513   0.851   0.891  1.00  0.00    -0.125 Cl
ENDBRANCH  11  22
TORSDOF 3
