REMARK  7 active torsions:
REMARK  status: ('A' for Active; 'I' for Inactive)
REMARK    1  A    between atoms: N1_2  and  S1_4 
REMARK    2  A    between atoms: S1_4  and  C3_7 
REMARK    3  A    between atoms: C6_10  and  S2_11 
REMARK    4  A    between atoms: S2_11  and  N2_14 
REMARK       I    between atoms: C7_16  and  N3_17 
REMARK       I    between atoms: C7_16  and  N4_26 
REMARK    5  A    between atoms: N3_17  and  C8_19 
REMARK    6  A    between atoms: C8_19  and  C9_20 
REMARK       I    between atoms: N4_26  and  C15_28 
REMARK    7  A    between atoms: C15_28  and  C16_30 
ROOT
HETATM    1  N2  UNL     1      -0.364   1.080  -1.695  1.00  0.00    -0.112 N 
ATOM      2  H2  UNL     1      -0.576   2.037  -1.976  1.00  0.00     0.197 HD
HETATM    3  C7  UNL     1      -1.304   0.616  -1.045  1.00  0.00     0.691 C 
HETATM    4  N3  UNL     1      -2.443   1.515  -0.839  1.00  0.00    -0.221 N 
ATOM      5  H3  UNL     1      -2.665   1.892   0.083  1.00  0.00     0.178 HD
HETATM    6  N4  UNL     1      -1.361  -0.699  -0.536  1.00  0.00    -0.155 N 
ATOM      7  H4  UNL     1      -0.580  -1.328  -0.722  1.00  0.00     0.187 HD
HETATM    8  C15 UNL     1      -2.463  -1.187   0.227  1.00  0.00     0.269 C 
HETATM    9  O5  UNL     1      -3.438  -0.431   0.470  1.00  0.00    -0.267 OA
ENDROOT
BRANCH   1  10
HETATM   10  S2  UNL     1       1.139   0.645  -2.260  1.00  0.00     0.276 S 
HETATM   11  O3  UNL     1       1.782   1.774  -3.071  1.00  0.00    -0.200 OA
HETATM   12  O4  UNL     1       1.126  -0.602  -3.135  1.00  0.00    -0.200 OA
BRANCH  10  13
HETATM   13  C6  UNL     1       2.230   0.302  -0.925  1.00  0.00     0.080 A 
HETATM   14  C5  UNL     1       2.440  -1.006  -0.565  1.00  0.00     0.027 A 
HETATM   15  C4  UNL     1       3.289  -1.249   0.504  1.00  0.00     0.026 A 
HETATM   16  C3  UNL     1       3.908  -0.221   1.188  1.00  0.00     0.074 A 
HETATM   17  C23 UNL     1       3.677   1.066   0.801  1.00  0.00     0.026 A 
HETATM   18  C22 UNL     1       2.842   1.329  -0.253  1.00  0.00     0.027 A 
BRANCH  16  19
HETATM   19  S1  UNL     1       4.969  -0.594   2.534  1.00  0.00     0.242 S 
HETATM   20  O1  UNL     1       4.481  -1.854   3.183  1.00  0.00    -0.206 OA
HETATM   21  O2  UNL     1       4.825   0.562   3.508  1.00  0.00    -0.206 OA
BRANCH  19  22
HETATM   22  N1  UNL     1       6.609  -0.712   2.102  1.00  0.00    -0.215 NA
HETATM   23  C1  UNL     1       6.934  -1.730   1.165  1.00  0.00     0.129 C 
HETATM   24  C2  UNL     1       7.228   0.538   1.778  1.00  0.00     0.129 C 
ENDBRANCH  19  22
ENDBRANCH  16  19
ENDBRANCH  10  13
ENDBRANCH   1  10
BRANCH   4  25
HETATM   25  C8  UNL     1      -3.226   1.839  -1.984  1.00  0.00     0.176 C 
BRANCH  25  26
HETATM   26  C9  UNL     1      -4.286   2.822  -1.764  1.00  0.00    -0.040 A 
HETATM   27  C10 UNL     1      -4.570   3.461  -0.581  1.00  0.00     0.009 A 
HETATM   28  C11 UNL     1      -5.604   4.404  -0.495  1.00  0.00     0.001 A 
HETATM   29  C12 UNL     1      -6.378   4.730  -1.589  1.00  0.00     0.000 A 
HETATM   30  C13 UNL     1      -6.096   4.091  -2.778  1.00  0.00     0.001 A 
HETATM   31  C14 UNL     1      -5.073   3.158  -2.860  1.00  0.00     0.009 A 
ENDBRANCH  25  26
ENDBRANCH   4  25
BRANCH   8  32
HETATM   32  C16 UNL     1      -2.518  -2.535   0.748  1.00  0.00     0.032 A 
HETATM   33  C17 UNL     1      -3.296  -2.861   1.855  1.00  0.00     0.017 A 
HETATM   34  C18 UNL     1      -3.386  -4.126   2.382  1.00  0.00     0.001 A 
HETATM   35  C19 UNL     1      -2.651  -5.148   1.770  1.00  0.00     0.000 A 
HETATM   36  C20 UNL     1      -1.866  -4.879   0.669  1.00  0.00     0.001 A 
HETATM   37  C21 UNL     1      -1.822  -3.572   0.187  1.00  0.00     0.017 A 
ENDBRANCH   8  32
TORSDOF 7
