REMARK  2 active torsions:
REMARK  status: ('A' for Active; 'I' for Inactive)
REMARK    1  A    between atoms: C2_2  and  C3_3 
REMARK    2  A    between atoms: C6_12  and  C7_13 
ROOT
HETATM    1  C3  UNL     1      -1.363  -0.877  -0.071  1.00  0.00     0.048 A 
HETATM    2  N1  UNL     1      -2.690  -0.649  -0.150  1.00  0.00    -0.302 N 
ATOM      3  H1  UNL     1      -3.326  -1.406  -0.399  1.00  0.00     0.186 HD
HETATM    4  N2  UNL     1      -3.162   0.563   0.098  1.00  0.00    -0.289 N 
ATOM      5  H2  UNL     1      -4.164   0.747   0.041  1.00  0.00     0.188 HD
HETATM    6  C4  UNL     1      -2.312   1.544   0.424  1.00  0.00     0.092 A 
HETATM    7  C5  UNL     1      -2.784   2.935   0.641  1.00  0.00     0.090 C 
HETATM    8  N3  UNL     1      -0.954   1.331   0.509  1.00  0.00    -0.347 N 
ATOM      9  H3  UNL     1      -0.335   2.101   0.761  1.00  0.00     0.167 HD
HETATM   10  C6  UNL     1      -0.443   0.120   0.263  1.00  0.00     0.039 A 
ENDROOT
BRANCH  10  11
HETATM   11  C7  UNL     1       0.968  -0.141   0.079  1.00  0.00     0.037 C 
HETATM   12  C8  UNL     1       1.877  -0.112   1.280  1.00  0.00     0.011 C 
HETATM   13  C9  UNL     1       3.224  -0.188   0.508  1.00  0.00     0.001 C 
HETATM   14  C10 UNL     1       3.010   0.999  -0.452  1.00  0.00     0.001 C 
HETATM   15  C11 UNL     1       1.555   1.260  -0.512  1.00  0.00     0.011 C 
ENDBRANCH  10  11
BRANCH   1  16
HETATM   16  C2  UNL     1      -0.809  -2.257  -0.146  1.00  0.00     0.056 C 
HETATM   17  C1  UNL     1      -1.881  -3.174  -0.700  1.00  0.00     0.011 C 
ENDBRANCH   1  16
TORSDOF 2
