REMARK  4 active torsions:
REMARK  status: ('A' for Active; 'I' for Inactive)
REMARK    1  A    between atoms: C2_2  and  O1_3 
REMARK    2  A    between atoms: C2_2  and  C5_9 
REMARK    3  A    between atoms: O1_3  and  N1_4 
REMARK    4  A    between atoms: C3_6  and  C4_7 
ROOT
HETATM    1  C1  UNL     1       0.367  -1.755   0.989  1.00  0.00     0.043 C 
HETATM    2  C2  UNL     1       0.489  -0.330   0.428  1.00  0.00     0.156 C 
ENDROOT
BRANCH   2   3
HETATM    3  O1  UNL     1       1.275  -0.442  -0.727  1.00  0.00    -0.275 OA
BRANCH   3   4
HETATM    4  N1  UNL     1       2.522   0.051  -0.883  1.00  0.00    -0.275 N 
HETATM    5  C3  UNL     1       3.581  -0.622  -1.082  1.00  0.00     0.155 C 
ATOM      6  H1  UNL     1       2.624   1.065  -0.836  1.00  0.00     0.193 HD
BRANCH   5   7
HETATM    7  C4  UNL     1       4.859   0.055  -1.231  1.00  0.00     0.277 C 
HETATM    8  O2  UNL     1       4.983   1.304  -1.173  1.00  0.00    -0.301 OA
ENDBRANCH   5   7
ENDBRANCH   3   4
ENDBRANCH   2   3
BRANCH   2   9
HETATM    9  C5  UNL     1      -0.825   0.235   0.265  1.00  0.00    -0.011 C 
HETATM   10  C6  UNL     1      -1.038   1.609  -0.261  1.00  0.00     0.012 C 
HETATM   11  C7  UNL     1      -2.583   1.653  -0.244  1.00  0.00     0.005 C 
HETATM   12  C8  UNL     1      -2.851   0.273   0.282  1.00  0.00    -0.013 C 
HETATM   13  C9  UNL     1      -1.860  -0.557  -0.547  1.00  0.00     0.017 C 
HETATM   14  C10 UNL     1      -1.826   0.157   1.396  1.00  0.00     0.017 C 
ENDBRANCH   2   9
TORSDOF 4
