REMARK  7 active torsions:
REMARK  status: ('A' for Active; 'I' for Inactive)
REMARK    1  A    between atoms: C2_2  and  C5_5 
REMARK    2  A    between atoms: C5_5  and  C6_6 
REMARK    3  A    between atoms: C6_6  and  N1_7 
REMARK    4  A    between atoms: N1_7  and  C7_9 
REMARK    5  A    between atoms: C9_15  and  O1_16 
REMARK    6  A    between atoms: O1_16  and  C10_17 
REMARK    7  A    between atoms: C21_33  and  O3_35 
ROOT
HETATM    1  C7  UNL     1      -0.475   0.081  -1.092  1.00  0.00     0.144 A 
HETATM    2  N2  UNL     1       0.449  -0.067  -0.133  1.00  0.00    -0.324 N 
ATOM      3  H2  UNL     1       0.233  -0.281   0.841  1.00  0.00     0.169 HD
HETATM    4  C8  UNL     1       1.694   0.100  -0.610  1.00  0.00     0.139 A 
HETATM    5  N3  UNL     1       2.934   0.063  -0.101  1.00  0.00    -0.319 N 
ATOM      6  H3  UNL     1       3.056  -0.136   0.892  1.00  0.00     0.169 HD
HETATM    7  C9  UNL     1       4.016   0.279  -0.857  1.00  0.00     0.182 A 
HETATM    8  C15 UNL     1       3.842   0.546  -2.191  1.00  0.00     0.166 A 
HETATM    9  C16 UNL     1       4.964   0.789  -3.066  1.00  0.00     0.122 C 
HETATM   10  N4  UNL     1       5.869   0.993  -3.749  1.00  0.00    -0.190 NA
HETATM   11  N5  UNL     1       2.620   0.594  -2.744  1.00  0.00    -0.339 N 
ATOM     12  H5  UNL     1       2.503   0.794  -3.737  1.00  0.00     0.167 HD
HETATM   13  C17 UNL     1       1.552   0.371  -1.954  1.00  0.00     0.121 A 
HETATM   14  C18 UNL     1       0.208   0.361  -2.257  1.00  0.00     0.190 A 
HETATM   15  F1  UNL     1      -0.388   0.573  -3.439  1.00  0.00    -0.200 F 
ENDROOT
BRANCH   7  16
HETATM   16  O1  UNL     1       5.311   0.249  -0.372  1.00  0.00    -0.328 OA
BRANCH  16  17
HETATM   17  C10 UNL     1       5.677  -0.004   0.947  1.00  0.00     0.134 C 
HETATM   18  C11 UNL     1       6.443   1.140   1.577  1.00  0.00     0.059 C 
HETATM   19  C12 UNL     1       7.758   1.338   0.878  1.00  0.00     0.170 C 
HETATM   20  O2  UNL     1       8.160   0.259   0.126  1.00  0.00    -0.391 OA
HETATM   21  C13 UNL     1       7.995  -0.956   0.763  1.00  0.00     0.170 C 
HETATM   22  C14 UNL     1       6.552  -1.240   1.084  1.00  0.00     0.059 C 
ENDBRANCH  16  17
ENDBRANCH   7  16
BRANCH   1  23
HETATM   23  N1  UNL     1      -1.883  -0.037  -0.895  1.00  0.00    -0.373 N 
ATOM     24  H1  UNL     1      -2.536   0.087  -1.668  1.00  0.00     0.161 HD
BRANCH  23  25
HETATM   25  C6  UNL     1      -2.341  -0.332   0.408  1.00  0.00     0.134 C 
BRANCH  25  26
HETATM   26  C5  UNL     1      -3.831  -0.362   0.645  1.00  0.00     0.013 A 
HETATM   27  C19 UNL     1      -4.020  -0.799   2.111  1.00  0.00     0.018 A 
HETATM   28  C20 UNL     1      -4.660  -2.088   1.704  1.00  0.00     0.039 A 
HETATM   29  C21 UNL     1      -4.412  -1.662   0.251  1.00  0.00     0.064 A 
HETATM   30  C22 UNL     1      -5.676  -1.786  -0.498  1.00  0.00     0.047 C 
BRANCH  26  31
HETATM   31  C2  UNL     1      -4.516   0.899   0.397  1.00  0.00    -0.039 C 
HETATM   32  C1  UNL     1      -3.887   1.936   1.357  1.00  0.00     0.015 C 
HETATM   33  C3  UNL     1      -4.474   1.539  -0.938  1.00  0.00     0.015 C 
HETATM   34  C4  UNL     1      -5.998   0.902   0.803  1.00  0.00     0.015 C 
ENDBRANCH  26  31
BRANCH  29  35
HETATM   35  O3  UNL     1      -3.446  -2.543  -0.295  1.00  0.00    -0.389 OA
ATOM     36  H3  UNL     1      -3.820  -3.379  -0.548  1.00  0.00     0.210 HD
ENDBRANCH  29  35
ENDBRANCH  25  26
ENDBRANCH  23  25
ENDBRANCH   1  23
TORSDOF 7
