REMARK  10 active torsions:
REMARK  status: ('A' for Active; 'I' for Inactive)
REMARK    1  A    between atoms: C5_5  and  C7_7 
REMARK    2  A    between atoms: C7_7  and  O1_8 
REMARK    3  A    between atoms: C11_13  and  O2_14 
REMARK    4  A    between atoms: O2_14  and  O3_15 
REMARK    5  A    between atoms: O3_15  and  C12_16 
REMARK    6  A    between atoms: C12_16  and  C13_17 
REMARK    7  A    between atoms: C12_16  and  C14_19 
REMARK    8  A    between atoms: C14_19  and  C15_21 
REMARK    9  A    between atoms: C15_21  and  N1_22 
REMARK   10  A    between atoms: C15_21  and  O5_26 
ROOT
HETATM    1  C1  UNL     1      -0.909   3.216  -0.658  1.00  0.00     0.015 C 
HETATM    2  C2  UNL     1      -1.631   2.122  -1.424  1.00  0.00     0.011 C 
HETATM    3  C3  UNL     1      -3.107   2.386  -1.518  1.00  0.00     0.010 C 
HETATM    4  C4  UNL     1      -3.729   2.111  -0.191  1.00  0.00     0.016 C 
HETATM    5  C5  UNL     1      -3.608   0.683   0.243  1.00  0.00     0.001 C 
HETATM    6  C6  UNL     1      -3.805   0.678   1.767  1.00  0.00     0.022 C 
HETATM    7  C8  UNL     1      -2.243   0.169  -0.035  1.00  0.00    -0.066 C 
HETATM    8  C9  UNL     1      -1.373   0.827  -0.783  1.00  0.00    -0.070 C 
HETATM    9  C10 UNL     1       0.018   0.399  -1.127  1.00  0.00     0.070 C 
HETATM   10  C11 UNL     1       0.570  -0.578  -0.143  1.00  0.00     0.168 C 
HETATM   11  C16 UNL     1       0.075  -1.969  -0.457  1.00  0.00     0.018 C 
HETATM   12  C17 UNL     1       0.917  -2.932   0.357  1.00  0.00     0.013 C 
HETATM   13  C18 UNL     1      -1.389  -2.153  -0.274  1.00  0.00    -0.008 C 
HETATM   14  C19 UNL     1      -1.693  -3.522   0.305  1.00  0.00     0.011 C 
HETATM   15  C20 UNL     1      -2.021  -1.132   0.641  1.00  0.00     0.040 C 
ENDROOT
BRANCH  10  16
HETATM   16  O2  UNL     1       1.968  -0.614  -0.348  1.00  0.00    -0.234 OA
BRANCH  16  17
HETATM   17  O3  UNL     1       2.621  -0.309   0.725  1.00  0.00    -0.226 OA
BRANCH  17  18
HETATM   18  C12 UNL     1       3.991  -0.329   0.448  1.00  0.00     0.248 C 
BRANCH  18  19
HETATM   19  C13 UNL     1       4.553  -1.435   1.330  1.00  0.00     0.157 C 
HETATM   20 CL1  UNL     1       4.229  -1.085   3.034  1.00  0.00    -0.127 Cl
ENDBRANCH  18  19
BRANCH  18  21
HETATM   21  C14 UNL     1       4.624   0.975   0.721  1.00  0.00     0.215 C 
HETATM   22  O4  UNL     1       3.949   1.850   1.262  1.00  0.00    -0.290 OA
BRANCH  21  23
HETATM   23  C15 UNL     1       6.013   1.291   0.377  1.00  0.00     0.389 C 
BRANCH  23  24
HETATM   24  N1  UNL     1       7.015   0.449   0.959  1.00  0.00    -0.046 N 
ATOM     25  H13 UNL     1       6.906   0.433   1.973  1.00  0.00     0.277 HD
ATOM     26  H12 UNL     1       6.818  -0.527   0.737  1.00  0.00     0.277 HD
ATOM     27  H11 UNL     1       7.982   0.669   0.720  1.00  0.00     0.277 HD
ENDBRANCH  23  24
BRANCH  23  28
HETATM   28  O5  UNL     1       6.308   2.617   0.743  1.00  0.00    -0.364 OA
ATOM     29  H5  UNL     1       7.208   2.822   0.520  1.00  0.00     0.212 HD
ENDBRANCH  23  28
ENDBRANCH  21  23
ENDBRANCH  18  21
ENDBRANCH  17  18
ENDBRANCH  16  17
ENDBRANCH  10  16
BRANCH   5  30
HETATM   30  C7  UNL     1      -4.697  -0.191  -0.316  1.00  0.00     0.177 C 
BRANCH  30  31
HETATM   31  O1  UNL     1      -4.746  -0.249  -1.690  1.00  0.00    -0.400 OA
ATOM     32  H1  UNL     1      -5.434  -0.801  -2.043  1.00  0.00     0.209 HD
ENDBRANCH  30  31
ENDBRANCH   5  30
TORSDOF 10
