REMARK  7 active torsions:
REMARK  status: ('A' for Active; 'I' for Inactive)
REMARK    1  A    between atoms: C4_4  and  C5_5 
REMARK    2  A    between atoms: C8_14  and  C9_15 
REMARK    3  A    between atoms: C11_19  and  N3_20 
REMARK    4  A    between atoms: C16_25  and  O3_26 
REMARK    5  A    between atoms: O3_26  and  C17_27 
REMARK    6  A    between atoms: C17_27  and  C18_28 
REMARK    7  A    between atoms: C18_28  and  O4_30 
ROOT
HETATM    1  C1  UNL     1       0.913  -3.084  -0.122  1.00  0.00     0.051 C 
HETATM    2  C2  UNL     1       0.227  -1.786  -0.070  1.00  0.00    -0.026 A 
HETATM    3  C3  UNL     1      -1.116  -1.722   0.181  1.00  0.00     0.021 A 
HETATM    4  C4  UNL     1      -1.835  -0.537   0.247  1.00  0.00    -0.003 A 
HETATM    5  C10 UNL     1      -1.113   0.615   0.040  1.00  0.00     0.072 A 
HETATM    6 CL1  UNL     1      -1.891   2.206   0.110  1.00  0.00    -0.081 Cl
HETATM    7  C11 UNL     1       0.260   0.588  -0.220  1.00  0.00     0.087 A 
HETATM    8  C16 UNL     1       0.944  -0.601  -0.277  1.00  0.00     0.103 A 
ENDROOT
BRANCH   4   9
HETATM    9  C5  UNL     1      -3.281  -0.493   0.504  1.00  0.00     0.091 C 
HETATM   10  C6  UNL     1      -3.694   0.416   1.626  1.00  0.00     0.047 C 
HETATM   11  N1  UNL     1      -3.868  -1.788   0.713  1.00  0.00    -0.341 N 
HETATM   12  C7  UNL     1      -5.260  -1.615   0.356  1.00  0.00     0.214 C 
ATOM     13  H1  UNL     1      -3.407  -2.638   1.039  1.00  0.00     0.164 HD
HETATM   14  N2  UNL     1      -6.219  -2.441   0.570  1.00  0.00    -0.365 N 
HETATM   15  O1  UNL     1      -5.399  -0.385  -0.272  1.00  0.00    -0.307 OA
ATOM     16  H22 UNL     1      -6.117  -3.345   1.031  1.00  0.00     0.159 HD
ATOM     17  H21 UNL     1      -7.200  -2.319   0.318  1.00  0.00     0.159 HD
HETATM   18  C8  UNL     1      -4.078  -0.056  -0.734  1.00  0.00     0.225 C 
BRANCH  18  19
HETATM   19  C9  UNL     1      -3.778  -0.927  -1.885  1.00  0.00     0.266 C 
HETATM   20  O2  UNL     1      -4.583  -1.732  -2.272  1.00  0.00    -0.304 OA
ENDBRANCH  18  19
ENDBRANCH   4   9
BRANCH   7  21
HETATM   21  N3  UNL     1       0.907   1.818  -0.450  1.00  0.00    -0.377 N 
HETATM   22  C12 UNL     1       1.074   2.404  -1.774  1.00  0.00     0.123 C 
HETATM   23  C13 UNL     1       1.355   3.870  -1.545  1.00  0.00     0.021 C 
HETATM   24  C14 UNL     1       1.471   4.077  -0.067  1.00  0.00     0.021 C 
HETATM   25  C15 UNL     1       1.467   2.687   0.550  1.00  0.00     0.123 C 
ENDBRANCH   7  21
BRANCH   8  26
HETATM   26  O3  UNL     1       2.296  -0.731  -0.529  1.00  0.00    -0.346 OA
BRANCH  26  27
HETATM   27  C17 UNL     1       3.199  -0.787   0.548  1.00  0.00     0.207 C 
BRANCH  27  28
HETATM   28  C18 UNL     1       4.640  -0.925   0.039  1.00  0.00     0.138 C 
HETATM   29  C19 UNL     1       5.566  -1.053   1.223  1.00  0.00     0.041 C 
BRANCH  28  30
HETATM   30  O4  UNL     1       4.723  -2.096  -0.700  1.00  0.00    -0.394 OA
ATOM     31  H4  UNL     1       5.615  -2.181  -1.015  1.00  0.00     0.210 HD
ENDBRANCH  28  30
ENDBRANCH  27  28
ENDBRANCH  26  27
ENDBRANCH   8  26
TORSDOF 7
