REMARK  14 active torsions:
REMARK  status: ('A' for Active; 'I' for Inactive)
REMARK    1  A    between atoms: C2_2  and  O1_3 
REMARK    2  A    between atoms: O1_3  and  C3_4 
REMARK    3  A    between atoms: C3_4  and  C4_6 
REMARK    4  A    between atoms: C4_6  and  C5_7 
REMARK    5  A    between atoms: C5_7  and  C6_8 
REMARK    6  A    between atoms: C6_8  and  C7_9 
REMARK    7  A    between atoms: C9_11  and  C10_12 
REMARK    8  A    between atoms: C13_18  and  C14_19 
REMARK    9  A    between atoms: C14_19  and  O6_20 
REMARK   10  A    between atoms: N1_23  and  C16_25 
REMARK   11  A    between atoms: C17_27  and  C18_28 
REMARK   12  A    between atoms: C18_28  and  C19_29 
REMARK   13  A    between atoms: C20_33  and  O8_34 
REMARK   14  A    between atoms: C21_36  and  O9_37 
ROOT
HETATM    1  C7  UNL     1       1.546  -0.037  -0.727  1.00  0.00     0.130 C 
HETATM    2  C8  UNL     1       2.233  -1.365  -0.413  1.00  0.00     0.064 C 
HETATM    3  C9  UNL     1       1.655  -1.826   0.902  1.00  0.00     0.130 C 
HETATM    4  O3  UNL     1       0.301  -1.676   0.949  1.00  0.00    -0.322 OA
HETATM    5  C12 UNL     1      -0.329  -1.300  -0.201  1.00  0.00     0.329 C 
HETATM    6  O4  UNL     1       0.226  -0.307  -0.940  1.00  0.00    -0.322 OA
HETATM    7  O5  UNL     1      -0.709  -2.460  -0.920  1.00  0.00    -0.314 OA
HETATM    8  C13 UNL     1      -1.702  -2.594   0.050  1.00  0.00     0.205 C 
HETATM    9  C15 UNL     1      -1.808  -1.134   0.066  1.00  0.00     0.109 C 
HETATM   10  N1  UNL     1      -2.517  -0.112   0.192  1.00  0.00    -0.359 N 
ATOM     11  H1  UNL     1      -2.026   0.778   0.102  1.00  0.00     0.162 HD
ENDROOT
BRANCH   8  12
HETATM   12  C14 UNL     1      -2.909  -3.371  -0.364  1.00  0.00     0.202 C 
BRANCH  12  13
HETATM   13  O6  UNL     1      -2.477  -4.662  -0.710  1.00  0.00    -0.398 OA
ATOM     14  H6  UNL     1      -3.245  -5.156  -0.973  1.00  0.00     0.209 HD
ENDBRANCH  12  13
ENDBRANCH   8  12
BRANCH  10  15
HETATM   15  C16 UNL     1      -3.893  -0.020   0.440  1.00  0.00     0.253 C 
HETATM   16  O7  UNL     1      -4.204   1.250   0.942  1.00  0.00    -0.356 OA
HETATM   17  C17 UNL     1      -5.531   1.483   0.707  1.00  0.00     0.160 C 
HETATM   18  C20 UNL     1      -6.047   0.459  -0.252  1.00  0.00     0.180 C 
HETATM   19  C21 UNL     1      -4.743  -0.075  -0.811  1.00  0.00     0.198 C 
BRANCH  17  20
HETATM   20  C18 UNL     1      -5.657   2.852   0.044  1.00  0.00     0.078 C 
BRANCH  20  21
HETATM   21  C19 UNL     1      -5.110   3.907   0.934  1.00  0.00     0.055 C 
HETATM   22  N2  UNL     1      -3.876   3.825   1.250  1.00  0.00    -0.411 N 
ATOM     23  H22 UNL     1      -3.302   3.059   0.897  1.00  0.00     0.155 HD
ATOM     24  H21 UNL     1      -3.500   4.550   1.861  1.00  0.00     0.155 HD
ENDBRANCH  20  21
ENDBRANCH  17  20
BRANCH  18  25
HETATM   25  O8  UNL     1      -6.870   0.975  -1.235  1.00  0.00    -0.390 OA
ATOM     26  H8  UNL     1      -7.198   0.324  -1.844  1.00  0.00     0.210 HD
ENDBRANCH  18  25
BRANCH  19  27
HETATM   27  O9  UNL     1      -4.250   0.751  -1.802  1.00  0.00    -0.389 OA
ATOM     28  H9  UNL     1      -4.784   0.716  -2.587  1.00  0.00     0.210 HD
ENDBRANCH  19  27
ENDBRANCH  10  15
BRANCH   3  29
HETATM   29  C10 UNL     1       2.153  -3.198   1.274  1.00  0.00     0.028 C 
HETATM   30  C11 UNL     1       1.811  -4.257   0.277  1.00  0.00     0.007 C 
ENDBRANCH   3  29
BRANCH   1  31
HETATM   31  C6  UNL     1       1.742   0.966   0.358  1.00  0.00     0.033 C 
BRANCH  31  32
HETATM   32  C5  UNL     1       3.170   1.301   0.619  1.00  0.00     0.012 C 
BRANCH  32  33
HETATM   33  C4  UNL     1       3.876   1.883  -0.593  1.00  0.00     0.111 C 
BRANCH  33  34
HETATM   34  C3  UNL     1       5.291   2.187  -0.242  1.00  0.00     0.258 C 
HETATM   35  O2  UNL     1       5.711   1.949   0.919  1.00  0.00    -0.265 OA
BRANCH  34  36
HETATM   36  O1  UNL     1       6.134   2.729  -1.197  1.00  0.00    -0.322 OA
BRANCH  36  37
HETATM   37  C2  UNL     1       7.492   3.017  -0.847  1.00  0.00     0.174 C 
HETATM   38  C1  UNL     1       8.192   1.755  -0.415  1.00  0.00     0.034 C 
ENDBRANCH  36  37
ENDBRANCH  34  36
ENDBRANCH  33  34
ENDBRANCH  32  33
ENDBRANCH  31  32
ENDBRANCH   1  31
TORSDOF 14
