REMARK  9 active torsions:
REMARK  status: ('A' for Active; 'I' for Inactive)
REMARK    1  A    between atoms: C3_3  and  C5_5 
REMARK    2  A    between atoms: C5_5  and  O2_7 
REMARK    3  A    between atoms: O2_7  and  C6_8 
REMARK    4  A    between atoms: C6_8  and  C7_9 
REMARK    5  A    between atoms: C15_17  and  O3_18 
REMARK    6  A    between atoms: C16_20  and  C17_21 
REMARK    7  A    between atoms: C17_21  and  O4_23 
REMARK    8  A    between atoms: C22_30  and  O7_31 
REMARK    9  A    between atoms: C22_30  and  C23_33 
ROOT
HETATM    1  C6  UNL     1       0.700   0.414  -0.184  1.00  0.00     0.238 C 
HETATM    2  O5  UNL     1       0.499   1.103   1.099  1.00  0.00    -0.275 OA
HETATM    3  C19 UNL     1       1.727   1.682   1.378  1.00  0.00     0.268 C 
HETATM    4  O6  UNL     1       2.202   2.000   2.485  1.00  0.00    -0.265 OA
HETATM    5  C20 UNL     1       2.385   1.856   0.067  1.00  0.00     0.121 C 
HETATM    6  C21 UNL     1       3.117   3.112  -0.097  1.00  0.00     0.024 C 
HETATM    7  C22 UNL     1       1.126   1.662  -0.837  1.00  0.00     0.131 C 
ENDROOT
BRANCH   1   8
HETATM    8  O2  UNL     1       1.795  -0.406   0.160  1.00  0.00    -0.271 OA
BRANCH   8   9
HETATM    9  C5  UNL     1       2.450  -1.314  -0.642  1.00  0.00     0.291 C 
HETATM   10  O1  UNL     1       2.094  -1.460  -1.799  1.00  0.00    -0.260 OA
BRANCH   9  11
HETATM   11  C3  UNL     1       3.576  -2.118  -0.136  1.00  0.00     0.009 C 
HETATM   12  C2  UNL     1       3.973  -1.974   1.107  1.00  0.00    -0.018 C 
HETATM   13  C1  UNL     1       5.100  -2.781   1.607  1.00  0.00     0.036 C 
HETATM   14  C4  UNL     1       4.254  -3.086  -1.038  1.00  0.00     0.054 C 
ENDBRANCH   9  11
ENDBRANCH   8   9
ENDBRANCH   1   8
BRANCH   1  15
HETATM   15  C7  UNL     1      -0.528  -0.348  -0.565  1.00  0.00    -0.006 C 
HETATM   16  C8  UNL     1      -1.289   0.286  -1.701  1.00  0.00     0.041 C 
HETATM   17  C9  UNL     1      -2.696   0.682  -1.528  1.00  0.00     0.017 C 
HETATM   18  C10 UNL     1      -3.443  -0.426  -0.936  1.00  0.00    -0.009 C 
HETATM   19  C11 UNL     1      -3.459  -1.674  -1.734  1.00  0.00     0.018 C 
HETATM   20  C12 UNL     1      -4.849   0.076  -0.579  1.00  0.00     0.012 C 
HETATM   21  C15 UNL     1      -2.869  -0.581   0.453  1.00  0.00     0.091 C 
HETATM   22  C13 UNL     1      -4.610   1.001   0.593  1.00  0.00     0.004 C 
HETATM   23  C14 UNL     1      -3.246   0.660   1.154  1.00  0.00     0.043 C 
HETATM   24  C16 UNL     1      -1.397  -0.924   0.493  1.00  0.00    -0.009 C 
BRANCH  21  25
HETATM   25  O3  UNL     1      -3.696  -1.631   0.922  1.00  0.00    -0.384 OA
ATOM     26  H3  UNL     1      -3.335  -1.728   1.795  1.00  0.00     0.211 HD
ENDBRANCH  21  25
BRANCH  24  27
HETATM   27  C17 UNL     1      -1.042  -0.972   1.923  1.00  0.00     0.146 C 
HETATM   28  C18 UNL     1       0.142  -1.735   2.370  1.00  0.00     0.044 C 
BRANCH  27  29
HETATM   29  O4  UNL     1      -2.123  -1.681   2.555  1.00  0.00    -0.391 OA
ATOM     30  H4  UNL     1      -1.894  -1.712   3.477  1.00  0.00     0.210 HD
ENDBRANCH  27  29
ENDBRANCH  24  27
ENDBRANCH   1  15
BRANCH   7  31
HETATM   31  O7  UNL     1       1.643   1.642  -2.078  1.00  0.00    -0.383 OA
ATOM     32  H7  UNL     1       1.918   2.448  -2.500  1.00  0.00     0.210 HD
ENDBRANCH   7  31
BRANCH   7  33
HETATM   33  C23 UNL     1       0.299   2.895  -0.498  1.00  0.00     0.040 C 
HETATM   34  C24 UNL     1       0.668   4.138  -1.211  1.00  0.00     0.008 C 
ENDBRANCH   7  33
TORSDOF 9
