REMARK  9 active torsions:
REMARK  status: ('A' for Active; 'I' for Inactive)
REMARK    1  A    between atoms: C2_2  and  C5_5 
REMARK    2  A    between atoms: C5_5  and  O1_6 
REMARK    3  A    between atoms: O1_6  and  C6_7 
REMARK       I    between atoms: C6_7  and  N1_9 
REMARK    4  A    between atoms: N1_9  and  C7_11 
REMARK    5  A    between atoms: N2_16  and  C11_17 
REMARK    6  A    between atoms: C11_17  and  C12_18 
REMARK    7  A    between atoms: C14_22  and  C15_23 
REMARK       I    between atoms: C15_23  and  N4_25 
REMARK    8  A    between atoms: N4_25  and  C16_27 
REMARK    9  A    between atoms: C19_30  and  O4_31 
ROOT
HETATM    1  C11 UNL     1      -0.584  -1.705   2.361  1.00  0.00     0.190 C 
ENDROOT
BRANCH   1   2
HETATM    2  N2  UNL     1      -1.291  -2.012   1.141  1.00  0.00    -0.342 N 
HETATM    3  C10 UNL     1      -1.285  -3.381   0.665  1.00  0.00     0.163 C 
HETATM    4  C9  UNL     1      -1.169  -3.291  -0.849  1.00  0.00     0.190 C 
HETATM    5  C8  UNL     1      -2.310  -2.562  -1.486  1.00  0.00     0.073 C 
HETATM    6  F1  UNL     1       0.004  -2.657  -1.205  1.00  0.00    -0.248 F 
HETATM    7  C7  UNL     1      -2.999  -1.567  -0.589  1.00  0.00     0.181 C 
HETATM    8  C22 UNL     1      -1.995  -1.044   0.375  1.00  0.00     0.243 C 
HETATM    9  O5  UNL     1      -1.764   0.179   0.524  1.00  0.00    -0.271 OA
BRANCH   7  10
HETATM   10  N1  UNL     1      -3.665  -0.532  -1.307  1.00  0.00    -0.324 N 
HETATM   11  C6  UNL     1      -5.087  -0.338  -1.107  1.00  0.00     0.361 C 
HETATM   12  O2  UNL     1      -5.657  -1.104  -0.302  1.00  0.00    -0.238 OA
ATOM     13  H1  UNL     1      -3.148   0.064  -1.953  1.00  0.00     0.165 HD
BRANCH  11  14
HETATM   14  O1  UNL     1      -5.777   0.622  -1.753  1.00  0.00    -0.303 OA
BRANCH  14  15
HETATM   15  C5  UNL     1      -7.087   0.964  -1.682  1.00  0.00     0.189 C 
BRANCH  15  16
HETATM   16  C2  UNL     1      -7.677   1.577  -0.480  1.00  0.00    -0.029 C 
HETATM   17  C1  UNL     1      -7.666   0.852   0.808  1.00  0.00     0.016 C 
HETATM   18  C3  UNL     1      -9.164   1.845  -0.817  1.00  0.00     0.016 C 
HETATM   19  C4  UNL     1      -7.070   2.977  -0.248  1.00  0.00     0.016 C 
ENDBRANCH  15  16
ENDBRANCH  14  15
ENDBRANCH  11  14
ENDBRANCH   7  10
ENDBRANCH   1   2
BRANCH   1  20
HETATM   20  C12 UNL     1       0.827  -1.346   1.953  1.00  0.00     0.069 A 
HETATM   21  N3  UNL     1       1.303  -0.153   1.627  1.00  0.00    -0.361 N 
HETATM   22  C13 UNL     1       2.550  -0.028   1.300  1.00  0.00     0.113 A 
ATOM     23  H3  UNL     1       0.691   0.663   1.634  1.00  0.00     0.165 HD
HETATM   24  C14 UNL     1       3.331  -1.152   1.306  1.00  0.00     0.089 A 
HETATM   25  S1  UNL     1       2.201  -2.345   1.792  1.00  0.00    -0.068 SA
BRANCH  24  26
HETATM   26  C15 UNL     1       4.759  -1.281   0.979  1.00  0.00     0.260 C 
HETATM   27  O3  UNL     1       5.277  -2.417   1.052  1.00  0.00    -0.267 OA
HETATM   28  N4  UNL     1       5.465  -0.123   0.602  1.00  0.00    -0.352 N 
ATOM     29  H4  UNL     1       4.971   0.769   0.565  1.00  0.00     0.163 HD
BRANCH  28  30
HETATM   30  C16 UNL     1       6.875  -0.163   0.264  1.00  0.00     0.085 C 
HETATM   31  C17 UNL     1       7.699   0.697   1.183  1.00  0.00     0.028 C 
HETATM   32  C18 UNL     1       7.731   2.138   0.724  1.00  0.00     0.034 C 
HETATM   33  C19 UNL     1       8.545   2.194  -0.549  1.00  0.00     0.118 C 
HETATM   34  C20 UNL     1       8.323   0.987  -1.427  1.00  0.00     0.034 C 
HETATM   35  C21 UNL     1       6.994   0.324  -1.164  1.00  0.00     0.028 C 
BRANCH  33  36
HETATM   36  O4  UNL     1       9.885   2.220  -0.183  1.00  0.00    -0.396 OA
ATOM     37  H4  UNL     1      10.396   2.255  -0.983  1.00  0.00     0.210 HD
ENDBRANCH  33  36
ENDBRANCH  28  30
ENDBRANCH  24  26
ENDBRANCH   1  20
TORSDOF 9
