REMARK  7 active torsions:
REMARK  status: ('A' for Active; 'I' for Inactive)
REMARK    1  A    between atoms: C4_5  and  N1_6 
REMARK    2  A    between atoms: N1_6  and  C6_8 
REMARK    3  A    between atoms: C6_8  and  O2_9 
REMARK    4  A    between atoms: C6_8  and  C7_11 
REMARK    5  A    between atoms: C7_11  and  C10_14 
REMARK    6  A    between atoms: N4_27  and  C18_28 
REMARK    7  A    between atoms: C18_28  and  C19_29 
ROOT
HETATM    1  C6  UNL     1       1.079   0.922  -0.048  1.00  0.00     0.230 C 
ENDROOT
BRANCH   1   2
HETATM    2  N1  UNL     1      -0.180   1.382   0.300  1.00  0.00    -0.361 N 
HETATM    3  C5  UNL     1      -0.398   2.436   1.196  1.00  0.00     0.148 C 
BRANCH   2   4
HETATM    4  C4  UNL     1      -1.346   0.929  -0.350  1.00  0.00     0.260 C 
HETATM    5  O1  UNL     1      -1.205   0.037  -1.389  1.00  0.00    -0.360 OA
HETATM    6  C3  UNL     1      -2.317   0.158  -2.213  1.00  0.00     0.196 C 
HETATM    7  C2  UNL     1      -3.626   0.159  -1.463  1.00  0.00     0.108 C 
HETATM    8  C1  UNL     1      -4.284   1.506  -1.613  1.00  0.00     0.035 C 
HETATM    9  N4  UNL     1      -3.489  -0.154  -0.085  1.00  0.00    -0.359 N 
HETATM   10  C17 UNL     1      -2.362   0.325   0.607  1.00  0.00     0.117 C 
BRANCH   9  11
HETATM   11  C18 UNL     1      -3.901  -1.429   0.353  1.00  0.00     0.105 C 
BRANCH  11  12
HETATM   12  C19 UNL     1      -5.328  -1.710   0.440  1.00  0.00     0.015 A 
HETATM   13  C20 UNL     1      -6.412  -0.906   0.261  1.00  0.00     0.032 A 
HETATM   14  C21 UNL     1      -7.551  -1.646   0.518  1.00  0.00     0.090 A 
HETATM   15  N5  UNL     1      -7.146  -2.877   0.847  1.00  0.00    -0.359 N 
HETATM   16  C22 UNL     1      -5.815  -2.963   0.814  1.00  0.00     0.091 A 
ATOM     17  H5  UNL     1      -7.770  -3.646   1.090  1.00  0.00     0.166 HD
HETATM   18 BR1  UNL     1      -4.739  -4.511   1.195  1.00  0.00    -0.030 Br
ENDBRANCH  11  12
ENDBRANCH   9  11
ENDBRANCH   2   4
ENDBRANCH   1   2
BRANCH   1  19
HETATM   19  O2  UNL     1       1.446   1.506  -1.289  1.00  0.00    -0.376 OA
ATOM     20  H2  UNL     1       2.310   1.190  -1.528  1.00  0.00     0.212 HD
ENDBRANCH   1  19
BRANCH   1  21
HETATM   21  C7  UNL     1       2.157   1.175   0.959  1.00  0.00     0.025 C 
HETATM   22  C8  UNL     1       1.795   0.512   2.277  1.00  0.00     0.025 C 
HETATM   23  C9  UNL     1       2.469   2.648   1.124  1.00  0.00     0.025 C 
BRANCH  21  24
HETATM   24  C10 UNL     1       3.468   0.537   0.576  1.00  0.00    -0.028 A 
HETATM   25  C11 UNL     1       4.512   0.778   1.442  1.00  0.00     0.098 A 
HETATM   26  N2  UNL     1       5.757   0.278   1.236  1.00  0.00    -0.344 N 
HETATM   27  C12 UNL     1       5.988  -0.475   0.157  1.00  0.00     0.169 A 
ATOM     28  H2  UNL     1       6.508   0.475   1.898  1.00  0.00     0.167 HD
HETATM   29  C13 UNL     1       4.969  -0.738  -0.732  1.00  0.00     0.080 A 
HETATM   30  O3  UNL     1       7.280  -0.979  -0.034  1.00  0.00    -0.332 OA
HETATM   31  C14 UNL     1       3.685  -0.222  -0.517  1.00  0.00     0.043 A 
HETATM   32  N3  UNL     1       5.278  -1.547  -1.854  1.00  0.00    -0.384 N 
HETATM   33  C15 UNL     1       6.675  -1.795  -2.174  1.00  0.00     0.146 C 
ATOM     34  H3  UNL     1       4.535  -1.948  -2.426  1.00  0.00     0.159 HD
HETATM   35  C16 UNL     1       7.379  -2.141  -0.877  1.00  0.00     0.197 C 
ENDBRANCH  21  24
ENDBRANCH   1  21
TORSDOF 7
