REMARK  15 active torsions:
REMARK  status: ('A' for Active; 'I' for Inactive)
REMARK    1  A    between atoms: C2_2  and  C3_3 
REMARK    2  A    between atoms: C3_3  and  C4_4 
REMARK    3  A    between atoms: C4_4  and  C5_5 
REMARK    4  A    between atoms: C5_5  and  C6_6 
REMARK    5  A    between atoms: C6_6  and  C7_7 
REMARK    6  A    between atoms: C7_7  and  C10_10 
REMARK    7  A    between atoms: C11_13  and  O1_14 
REMARK    8  A    between atoms: C12_16  and  C13_17 
REMARK    9  A    between atoms: C13_17  and  C15_19 
REMARK   10  A    between atoms: C18_23  and  O2_24 
REMARK   11  A    between atoms: C19_26  and  C20_27 
REMARK   12  A    between atoms: C20_27  and  C21_28 
REMARK   13  A    between atoms: C29_40  and  C30_41 
REMARK   14  A    between atoms: C30_41  and  C31_42 
REMARK   15  A    between atoms: C31_42  and  S1_43 
ROOT
HETATM    1  C10 UNL     1      -2.232   0.188  -1.210  1.00  0.00     0.125 C 
HETATM    2  N1  UNL     1      -1.702   0.945  -2.338  1.00  0.00    -0.360 N 
ATOM      3  H1  UNL     1      -1.933   0.523  -3.237  1.00  0.00     0.162 HD
HETATM    4  C11 UNL     1      -0.962   2.098  -2.468  1.00  0.00     0.160 C 
HETATM    5  C12 UNL     1       0.433   2.487  -2.125  1.00  0.00     0.067 C 
HETATM    6  N2  UNL     1       0.668   2.632  -0.728  1.00  0.00    -0.333 N 
HETATM    7  C17 UNL     1       0.382   4.045  -0.254  1.00  0.00     0.158 C 
HETATM    8  C18 UNL     1       1.064   1.818   0.322  1.00  0.00     0.148 C 
HETATM    9  C19 UNL     1       2.153   0.922   0.655  1.00  0.00     0.210 C 
HETATM   10  O5  UNL     1       2.603  -0.053  -0.145  1.00  0.00    -0.306 OA
HETATM   11  C28 UNL     1       2.228  -1.150  -0.782  1.00  0.00     0.282 C 
HETATM   12  O6  UNL     1       2.978  -1.548  -1.748  1.00  0.00    -0.263 OA
HETATM   13  C29 UNL     1       1.040  -2.014  -0.548  1.00  0.00     0.185 C 
HETATM   14  N3  UNL     1       0.327  -2.275  -1.774  1.00  0.00    -0.344 N 
ATOM     15  H3  UNL     1       0.742  -2.976  -2.388  1.00  0.00     0.163 HD
HETATM   16  C33 UNL     1      -0.865  -1.689  -2.233  1.00  0.00     0.246 C 
HETATM   17  O7  UNL     1      -0.933  -1.588  -3.513  1.00  0.00    -0.268 OA
HETATM   18  C34 UNL     1      -1.928  -1.239  -1.318  1.00  0.00     0.007 C 
HETATM   19  C35 UNL     1      -3.074  -2.215  -1.417  1.00  0.00     0.051 C 
ENDROOT
BRANCH   9  20
HETATM   20  C20 UNL     1       3.391   1.721   1.179  1.00  0.00     0.079 C 
BRANCH  20  21
HETATM   21  C21 UNL     1       4.490   0.827   1.519  1.00  0.00    -0.052 A 
HETATM   22  C22 UNL     1       5.440   0.509   0.574  1.00  0.00     0.010 A 
HETATM   23  C23 UNL     1       6.471  -0.349   0.933  1.00  0.00     0.040 A 
HETATM   24  C24 UNL     1       6.567  -0.887   2.202  1.00  0.00     0.105 A 
HETATM   25  C25 UNL     1       5.625  -0.569   3.133  1.00  0.00     0.105 A 
HETATM   26  O4  UNL     1       7.491  -1.761   2.803  1.00  0.00    -0.323 OA
HETATM   27  C26 UNL     1       4.585   0.292   2.783  1.00  0.00     0.047 A 
HETATM   28  O3  UNL     1       5.968  -1.242   4.297  1.00  0.00    -0.323 OA
HETATM   29  C27 UNL     1       7.219  -1.866   4.168  1.00  0.00     0.352 C 
ENDBRANCH  20  21
ENDBRANCH   9  20
BRANCH   8  30
HETATM   30  O2  UNL     1       0.184   1.885   1.316  1.00  0.00    -0.347 OA
ATOM     31  H2  UNL     1       0.455   1.327   2.036  1.00  0.00     0.219 HD
ENDBRANCH   8  30
BRANCH   5  32
HETATM   32  C13 UNL     1       1.450   1.862  -3.020  1.00  0.00     0.036 C 
HETATM   33  C14 UNL     1       2.859   2.292  -2.720  1.00  0.00     0.016 C 
BRANCH  32  34
HETATM   34  C15 UNL     1       1.235   2.373  -4.431  1.00  0.00     0.006 C 
HETATM   35  C16 UNL     1       1.364   3.852  -4.583  1.00  0.00     0.006 C 
ENDBRANCH  32  34
ENDBRANCH   5  32
BRANCH  13  36
HETATM   36  C30 UNL     1       1.496  -3.265   0.153  1.00  0.00     0.045 C 
BRANCH  36  37
HETATM   37  C31 UNL     1       2.476  -4.114  -0.543  1.00  0.00     0.076 C 
BRANCH  37  38
HETATM   38  S1  UNL     1       2.804  -5.561   0.541  1.00  0.00    -0.173 SA
HETATM   39  C32 UNL     1       3.642  -5.055   2.044  1.00  0.00     0.089 C 
ENDBRANCH  37  38
ENDBRANCH  36  37
ENDBRANCH  13  36
BRANCH   4  40
HETATM   40  O1  UNL     1      -1.631   3.088  -3.022  1.00  0.00    -0.345 OA
ATOM     41  H1  UNL     1      -1.120   3.884  -3.112  1.00  0.00     0.219 HD
ENDBRANCH   4  40
BRANCH   1  42
HETATM   42  C7  UNL     1      -3.682   0.602  -1.021  1.00  0.00    -0.023 C 
HETATM   43  C8  UNL     1      -4.472   0.592  -2.297  1.00  0.00     0.017 C 
HETATM   44  C9  UNL     1      -3.599   2.101  -0.642  1.00  0.00     0.017 C 
BRANCH  42  45
HETATM   45  C6  UNL     1      -4.442  -0.018   0.071  1.00  0.00     0.011 C 
BRANCH  45  46
HETATM   46  C5  UNL     1      -3.766  -0.066   1.411  1.00  0.00     0.001 C 
BRANCH  46  47
HETATM   47  C4  UNL     1      -4.695  -0.749   2.387  1.00  0.00     0.000 C 
BRANCH  47  48
HETATM   48  C3  UNL     1      -6.018  -0.033   2.556  1.00  0.00    -0.000 C 
BRANCH  48  49
HETATM   49  C2  UNL     1      -6.904  -0.759   3.551  1.00  0.00    -0.005 C 
HETATM   50  C1  UNL     1      -6.210  -0.826   4.900  1.00  0.00     0.005 C 
ENDBRANCH  48  49
ENDBRANCH  47  48
ENDBRANCH  46  47
ENDBRANCH  45  46
ENDBRANCH  42  45
ENDBRANCH   1  42
TORSDOF 15
