REMARK  3 active torsions:
REMARK  status: ('A' for Active; 'I' for Inactive)
REMARK    1  A    between atoms: S1_2  and  C2_3 
REMARK    2  A    between atoms: C6_8  and  O1_9 
REMARK    3  A    between atoms: C7_11  and  O2_12 
ROOT
HETATM    1  C2  UNL     1       0.931  -0.962   0.424  1.00  0.00     0.140 C 
HETATM    2  S2  UNL     1      -0.253  -1.737  -0.731  1.00  0.00    -0.139 SA
HETATM    3  C3  UNL     1      -1.492  -0.410  -0.512  1.00  0.00     0.030 C 
HETATM    4  C4  UNL     1      -2.181  -0.700   0.795  1.00  0.00     0.029 C 
HETATM    5  C5  UNL     1      -2.465  -0.382  -1.650  1.00  0.00     0.029 C 
HETATM    6  C6  UNL     1      -0.576   0.767  -0.466  1.00  0.00     0.166 C 
HETATM    7  C7  UNL     1       0.676   0.471   0.230  1.00  0.00     0.171 C 
ENDROOT
BRANCH   1   8
HETATM    8  S1  UNL     1       2.573  -1.564   0.130  1.00  0.00    -0.155 SA
HETATM    9  C1  UNL     1       3.865  -0.331   0.204  1.00  0.00     0.091 C 
ENDBRANCH   1   8
BRANCH   7  10
HETATM   10  O2  UNL     1       0.677   1.123   1.474  1.00  0.00    -0.391 OA
ATOM     11  H2  UNL     1       0.512   2.050   1.348  1.00  0.00     0.210 HD
ENDBRANCH   7  10
BRANCH   6  12
HETATM   12  O1  UNL     1      -1.180   1.902   0.100  1.00  0.00    -0.391 OA
ATOM     13  H1  UNL     1      -0.597   2.651   0.129  1.00  0.00     0.210 HD
ENDBRANCH   6  12
TORSDOF 3
