REMARK  8 active torsions:
REMARK  status: ('A' for Active; 'I' for Inactive)
REMARK    1  A    between atoms: C2_2  and  C3_3 
REMARK    2  A    between atoms: C3_3  and  C4_4 
REMARK    3  A    between atoms: C4_4  and  N1_5 
REMARK    4  A    between atoms: C5_6  and  N2_7 
REMARK    5  A    between atoms: C7_13  and  C8_14 
REMARK    6  A    between atoms: C8_14  and  N4_16 
REMARK    7  A    between atoms: C8_14  and  C16_27 
REMARK    8  A    between atoms: N4_16  and  N5_17 
ROOT
HETATM    1  C8  UNL     1      -0.037   0.961   0.442  1.00  0.00     0.147 C 
HETATM    2  C9  UNL     1      -0.014   0.131   1.634  1.00  0.00     0.051 C 
ENDROOT
BRANCH   1   3
HETATM    3  C7  UNL     1       0.989   0.849  -0.594  1.00  0.00     0.118 A 
HETATM    4  N1  UNL     1       2.123   0.213  -0.800  1.00  0.00    -0.315 N 
HETATM    5  C5  UNL     1       2.646   0.551  -2.004  1.00  0.00     0.193 A 
HETATM    6  C6  UNL     1       1.758   1.458  -2.562  1.00  0.00     0.144 A 
HETATM    7  N3  UNL     1       0.781   1.626  -1.719  1.00  0.00    -0.350 N 
ATOM      8  H3  UNL     1      -0.020   2.240  -1.866  1.00  0.00     0.166 HD
BRANCH   4   9
HETATM    9  C4  UNL     1       2.718  -0.698   0.143  1.00  0.00     0.132 C 
BRANCH   9  10
HETATM   10  C3  UNL     1       2.299  -2.125  -0.138  1.00  0.00     0.020 C 
BRANCH  10  11
HETATM   11  C2  UNL     1       2.943  -3.063   0.872  1.00  0.00    -0.003 C 
HETATM   12  C1  UNL     1       4.451  -3.005   0.823  1.00  0.00     0.005 C 
ENDBRANCH  10  11
ENDBRANCH   9  10
ENDBRANCH   4   9
BRANCH   5  13
HETATM   13  N2  UNL     1       3.834   0.101  -2.598  1.00  0.00    -0.096 N 
HETATM   14  O1  UNL     1       4.132   0.557  -3.747  1.00  0.00    -0.530 OA
HETATM   15  O2  UNL     1       4.709  -0.780  -2.071  1.00  0.00    -0.530 OA
ENDBRANCH   5  13
ENDBRANCH   1   3
BRANCH   1  16
HETATM   16  N4  UNL     1      -1.284   0.586  -0.240  1.00  0.00    -0.117 NA
BRANCH  16  17
HETATM   17  N5  UNL     1      -1.266  -0.720  -0.773  1.00  0.00    -0.311 N 
HETATM   18  C10 UNL     1      -2.224  -1.539  -0.526  1.00  0.00     0.000 C 
HETATM   19  C11 UNL     1      -2.175  -2.890  -1.095  1.00  0.00     0.059 C 
HETATM   20  C15 UNL     1      -3.387  -1.164   0.320  1.00  0.00     0.059 C 
HETATM   21  C12 UNL     1      -3.504  -3.364  -1.622  1.00  0.00     0.084 C 
HETATM   22  C13 UNL     1      -4.669  -2.895  -0.814  1.00  0.00     0.244 C 
HETATM   23  F1  UNL     1      -4.814  -3.607   0.373  1.00  0.00    -0.206 F 
HETATM   24  F2  UNL     1      -5.822  -3.158  -1.553  1.00  0.00    -0.206 F 
HETATM   25  C14 UNL     1      -4.633  -1.420  -0.498  1.00  0.00     0.084 C 
ATOM     26  H5  UNL     1      -0.486  -1.016  -1.359  1.00  0.00     0.181 HD
ENDBRANCH  16  17
ENDBRANCH   1  16
BRANCH   1  27
HETATM   27  C16 UNL     1      -0.144   2.431   0.767  1.00  0.00     0.049 A 
HETATM   28  N6  UNL     1      -1.265   3.148   0.648  1.00  0.00    -0.361 N 
HETATM   29  C17 UNL     1      -1.047   4.425   1.024  1.00  0.00     0.006 A 
ATOM     30  H6  UNL     1      -2.159   2.782   0.320  1.00  0.00     0.165 HD
HETATM   31  C18 UNL     1      -2.055   5.541   1.034  1.00  0.00     0.068 C 
HETATM   32  C19 UNL     1       0.277   4.492   1.393  1.00  0.00     0.033 A 
HETATM   33  C20 UNL     1       0.850   3.252   1.236  1.00  0.00    -0.035 A 
HETATM   34  C21 UNL     1       2.246   2.876   1.511  1.00  0.00     0.050 C 
ENDBRANCH   1  27
TORSDOF 8
