REMARK  6 active torsions:
REMARK  status: ('A' for Active; 'I' for Inactive)
REMARK    1  A    between atoms: O1_2  and  C2_3 
REMARK    2  A    between atoms: C2_3  and  C3_4 
REMARK    3  A    between atoms: C4_5  and  C5_6 
REMARK    4  A    between atoms: C5_6  and  O2_9 
REMARK    5  A    between atoms: C10_15  and  O3_16 
REMARK    6  A    between atoms: N3_28  and  C21_29 
ROOT
HETATM    1  C3  UNL     1      -2.755  -0.041   0.578  1.00  0.00     0.068 A 
HETATM    2  C4  UNL     1      -2.352  -1.116   1.384  1.00  0.00     0.070 A 
HETATM    3  N1  UNL     1      -1.056  -1.255   1.163  1.00  0.00    -0.340 N 
ATOM      4  H1  UNL     1      -0.457  -1.955   1.600  1.00  0.00     0.167 HD
HETATM    5  C8  UNL     1      -0.636  -0.304   0.247  1.00  0.00     0.128 A 
HETATM    6  C9  UNL     1       0.752  -0.349  -0.149  1.00  0.00     0.067 A 
HETATM    7  C10 UNL     1       1.088  -1.342  -1.069  1.00  0.00     0.084 A 
HETATM    8  C12 UNL     1       2.384  -1.436  -1.507  1.00  0.00     0.045 A 
HETATM    9  C13 UNL     1       3.392  -0.587  -1.076  1.00  0.00    -0.046 A 
HETATM   10  C14 UNL     1       3.051   0.386  -0.168  1.00  0.00    -0.026 A 
HETATM   11  C15 UNL     1       1.729   0.497   0.291  1.00  0.00     0.070 A 
HETATM   12  N2  UNL     1       1.504   1.518   1.260  1.00  0.00    -0.101 NA
HETATM   13  C16 UNL     1       4.269   1.163   0.149  1.00  0.00     0.050 C 
HETATM   14  C17 UNL     1       5.422   0.277  -0.271  1.00  0.00    -0.040 C 
HETATM   15  C18 UNL     1       5.838  -0.649   0.874  1.00  0.00     0.015 C 
HETATM   16  C19 UNL     1       6.621   1.088  -0.654  1.00  0.00     0.015 C 
HETATM   17  C20 UNL     1       4.835  -0.509  -1.413  1.00  0.00     0.048 C 
HETATM   18  N3  UNL     1      -1.688   0.447  -0.108  1.00  0.00    -0.293 N 
ENDROOT
BRANCH  18  19
HETATM   19  C21 UNL     1      -1.724   1.561  -0.958  1.00  0.00     0.084 A 
HETATM   20  C22 UNL     1      -1.702   2.852  -0.407  1.00  0.00     0.063 A 
HETATM   21 CL1  UNL     1      -1.722   3.048   1.321  1.00  0.00    -0.082 Cl
HETATM   22  C23 UNL     1      -1.719   3.996  -1.158  1.00  0.00     0.026 A 
HETATM   23  C24 UNL     1      -1.762   3.945  -2.528  1.00  0.00     0.003 A 
HETATM   24  C25 UNL     1      -1.786   2.692  -3.092  1.00  0.00     0.026 A 
HETATM   25  C26 UNL     1      -1.769   1.539  -2.335  1.00  0.00     0.063 A 
HETATM   26 CL2  UNL     1      -1.868   0.043  -3.224  1.00  0.00    -0.082 Cl
ENDBRANCH  18  19
BRANCH   2  27
HETATM   27  C5  UNL     1      -3.211  -1.933   2.300  1.00  0.00     0.095 C 
HETATM   28  C6  UNL     1      -4.228  -2.749   1.562  1.00  0.00     0.052 C 
HETATM   29  C7  UNL     1      -2.305  -2.901   3.050  1.00  0.00     0.052 C 
BRANCH  27  30
HETATM   30  O2  UNL     1      -3.790  -1.114   3.279  1.00  0.00    -0.384 OA
ATOM     31  H2  UNL     1      -4.335  -1.632   3.860  1.00  0.00     0.211 HD
ENDBRANCH  27  30
ENDBRANCH   2  27
BRANCH   7  32
HETATM   32  O3  UNL     1       0.162  -2.246  -1.557  1.00  0.00    -0.355 OA
HETATM   33  C11 UNL     1       0.568  -3.225  -2.485  1.00  0.00     0.210 C 
ENDBRANCH   7  32
BRANCH   1  34
HETATM   34  C2  UNL     1      -4.142   0.405   0.520  1.00  0.00     0.226 C 
BRANCH  34  35
HETATM   35  O1  UNL     1      -4.419   1.451  -0.339  1.00  0.00    -0.390 OA
HETATM   36  C1  UNL     1      -5.746   1.796  -0.323  1.00  0.00     0.201 C 
ENDBRANCH  34  35
ENDBRANCH   1  34
TORSDOF 6
