REMARK  8 active torsions:
REMARK  status: ('A' for Active; 'I' for Inactive)
REMARK    1  A    between atoms: O1_2  and  C2_3 
REMARK    2  A    between atoms: C2_3  and  C3_4 
REMARK    3  A    between atoms: C3_4  and  N1_5 
REMARK    4  A    between atoms: N1_5  and  C5_7 
REMARK    5  A    between atoms: C6_10  and  C7_11 
REMARK    6  A    between atoms: C20_26  and  N4_27 
REMARK    7  A    between atoms: N4_27  and  C21_29 
REMARK    8  A    between atoms: C23_31  and  O2_32 
ROOT
HETATM    1  C5  UNL     1      -2.323  -0.812   0.258  1.00  0.00     0.682 A 
HETATM    2  N2  UNL     1      -1.015  -0.654   0.252  1.00  0.00    -0.189 N 
ATOM      3  H2  UNL     1      -0.429  -1.488   0.300  1.00  0.00     0.184 HD
HETATM    4  C6  UNL     1      -0.388   0.586   0.184  1.00  0.00     0.080 A 
HETATM    5  C19 UNL     1      -1.253   1.615   0.124  1.00  0.00     0.081 A 
HETATM    6  C20 UNL     1      -2.659   1.493   0.128  1.00  0.00     0.123 A 
HETATM    7  N5  UNL     1      -3.157   0.263   0.195  1.00  0.00    -0.176 N 
ATOM      8  H5  UNL     1      -4.167   0.123   0.199  1.00  0.00     0.186 HD
ENDROOT
BRANCH   4   9
HETATM    9  C7  UNL     1       1.060   0.510   0.186  1.00  0.00     0.066 A 
HETATM   10  N3  UNL     1       1.625  -0.736   0.255  1.00  0.00    -0.353 N 
HETATM   11  C8  UNL     1       2.941  -0.909   0.254  1.00  0.00     0.049 A 
ATOM     12  H3  UNL     1       1.017  -1.554   0.309  1.00  0.00     0.166 HD
HETATM   13  C9  UNL     1       3.458  -2.210   0.325  1.00  0.00    -0.034 A 
HETATM   14  C15 UNL     1       3.809   0.158   0.183  1.00  0.00    -0.008 A 
HETATM   15  C10 UNL     1       2.506  -3.358   0.403  1.00  0.00     0.050 C 
HETATM   16  C11 UNL     1       4.819  -2.380   0.322  1.00  0.00     0.015 A 
HETATM   17  C12 UNL     1       5.680  -1.296   0.250  1.00  0.00    -0.061 A 
HETATM   18  C13 UNL     1       7.155  -1.503   0.246  1.00  0.00     0.048 C 
HETATM   19  C14 UNL     1       5.163  -0.028   0.181  1.00  0.00     0.020 A 
HETATM   20  C16 UNL     1       3.305   1.437   0.112  1.00  0.00     0.022 A 
HETATM   21  C17 UNL     1       1.895   1.575   0.115  1.00  0.00    -0.032 A 
HETATM   22  C18 UNL     1       1.430   2.977   0.031  1.00  0.00     0.050 C 
ENDBRANCH   4   9
BRANCH   1  23
HETATM   23  N1  UNL     1      -2.873  -2.117   0.335  1.00  0.00    -0.220 N 
HETATM   24  C4  UNL     1      -4.313  -2.308   0.371  1.00  0.00     0.168 C 
BRANCH  23  25
HETATM   25  C3  UNL     1      -2.030  -3.275   0.385  1.00  0.00     0.167 C 
BRANCH  25  26
HETATM   26  C2  UNL     1      -2.174  -4.088  -0.883  1.00  0.00     0.187 C 
BRANCH  26  27
HETATM   27  O1  UNL     1      -1.354  -5.205  -0.824  1.00  0.00    -0.394 OA
HETATM   28  C1  UNL     1      -1.499  -5.940  -1.990  1.00  0.00     0.201 C 
ENDBRANCH  26  27
ENDBRANCH  25  26
ENDBRANCH  23  25
ENDBRANCH   1  23
BRANCH   6  29
HETATM   29  N4  UNL     1      -3.372   2.512   0.076  1.00  0.00    -0.341 N 
ATOM     30  H4  UNL     1      -4.373   2.318   0.082  1.00  0.00     0.167 HD
BRANCH  29  31
HETATM   31  C21 UNL     1      -3.061   3.856   0.012  1.00  0.00     0.058 A 
HETATM   32  C22 UNL     1      -3.220   4.657   1.119  1.00  0.00     0.069 A 
HETATM   33  C23 UNL     1      -2.912   6.022   1.073  1.00  0.00     0.089 A 
HETATM   34  C24 UNL     1      -2.444   6.578  -0.086  1.00  0.00     0.068 A 
HETATM   35 CL1  UNL     1      -2.063   8.290  -0.123  1.00  0.00    -0.081 Cl
HETATM   36  C25 UNL     1      -2.280   5.799  -1.193  1.00  0.00     0.052 A 
HETATM   37  C26 UNL     1      -2.590   4.432  -1.143  1.00  0.00     0.062 A 
HETATM   38 CL2  UNL     1      -2.345   3.520  -2.614  1.00  0.00    -0.082 Cl
BRANCH  33  39
HETATM   39  O2  UNL     1      -3.084   6.807   2.211  1.00  0.00    -0.359 OA
ATOM     40  H2  UNL     1      -2.875   7.733   2.180  1.00  0.00     0.217 HD
ENDBRANCH  33  39
ENDBRANCH  29  31
ENDBRANCH   6  29
TORSDOF 8
