REMARK  2 active torsions:
REMARK  status: ('A' for Active; 'I' for Inactive)
REMARK    1  A    between atoms: C1_2  and  C2_4 
REMARK    2  A    between atoms: C2_4  and  N2_5 
ROOT
HETATM    1  C2  UNL     1       0.008  -0.483  -0.096  1.00  0.00     0.360 C 
HETATM    2  N3  UNL     1       0.466  -0.788   1.227  1.00  0.00    -0.035 NA
HETATM    3  O2  UNL     1      -0.295   0.162   1.809  1.00  0.00    -0.223 OA
HETATM    4  C3  UNL     1      -0.911   0.435   0.572  1.00  0.00     0.200 C 
HETATM    5  N4  UNL     1      -1.874   1.197   0.132  1.00  0.00    -0.378 N 
ATOM      6  H41 UNL     1      -2.516   1.838   0.598  1.00  0.00     0.158 HD
ATOM      7  H42 UNL     1      -2.320   1.395  -0.764  1.00  0.00     0.158 HD
ENDROOT
BRANCH   1   8
HETATM    8  C1  UNL     1       1.168   0.071  -0.869  1.00  0.00     0.295 C 
HETATM    9  N1  UNL     1       1.932   1.065  -0.210  1.00  0.00    -0.058 NA
HETATM   10  O1  UNL     1       1.482  -0.278  -2.008  1.00  0.00    -0.272 OA
ENDBRANCH   1   8
BRANCH   1  11
HETATM   11  N2  UNL     1      -0.572  -1.650  -0.750  1.00  0.00    -0.037 N 
ATOM     12  H23 UNL     1      -0.833  -1.444  -1.714  1.00  0.00     0.278 HD
ATOM     13  H22 UNL     1       0.133  -2.366  -0.925  1.00  0.00     0.278 HD
ATOM     14  H21 UNL     1      -1.361  -2.027  -0.224  1.00  0.00     0.278 HD
ENDBRANCH   1  11
TORSDOF 2
