REMARK  1 active torsions:
REMARK  status: ('A' for Active; 'I' for Inactive)
REMARK       I    between atoms: N1_2  and  C2_4 
REMARK       I    between atoms: N3_6  and  C3_8 
REMARK       I    between atoms: C3_8  and  N4_10 
REMARK    1  A    between atoms: N4_10  and  N5_12 
ROOT
HETATM    1  C1  UNL     1      -2.305   1.734  -0.938  1.00  0.00     0.148 C 
HETATM    2  N1  UNL     1      -1.220   1.628   0.015  1.00  0.00    -0.369 N 
ATOM      3  H1  UNL     1      -0.944   2.468   0.523  1.00  0.00     0.161 HD
HETATM    4  C2  UNL     1      -0.521   0.428   0.283  1.00  0.00     0.191 C 
HETATM    5  N2  UNL     1      -1.192  -0.802   0.206  1.00  0.00    -0.063 NA
HETATM    6  N3  UNL     1       0.723   0.477   0.594  1.00  0.00    -0.282 N 
ATOM      7  H3  UNL     1       1.176   1.390   0.639  1.00  0.00     0.173 HD
HETATM    8  C3  UNL     1       1.500  -0.677   0.878  1.00  0.00     0.340 C 
HETATM    9  O1  UNL     1       1.710  -1.034   2.063  1.00  0.00    -0.245 OA
HETATM   10  N4  UNL     1       2.042  -1.431  -0.192  1.00  0.00    -0.258 N 
ATOM     11  H4  UNL     1       1.861  -1.126  -1.148  1.00  0.00     0.191 HD
ENDROOT
BRANCH  10  12
HETATM   12  N5  UNL     1       2.814  -2.574   0.013  1.00  0.00    -0.341 N 
ATOM     13  H52 UNL     1       2.985  -2.864   0.976  1.00  0.00     0.177 HD
ATOM     14  H51 UNL     1       3.204  -3.117  -0.757  1.00  0.00     0.177 HD
ENDBRANCH  10  12
TORSDOF 1
