REMARK  13 active torsions:
REMARK  status: ('A' for Active; 'I' for Inactive)
REMARK    1  A    between atoms: N1_2  and  C2_4 
REMARK    2  A    between atoms: C2_4  and  C3_8 
REMARK    3  A    between atoms: C6_11  and  C7_12 
REMARK    4  A    between atoms: C8_15  and  C9_16 
REMARK    5  A    between atoms: N4_19  and  C12_20 
REMARK    6  A    between atoms: C15_23  and  C16_24 
REMARK    7  A    between atoms: C16_24  and  N5_25 
REMARK    8  A    between atoms: C16_24  and  C17_29 
REMARK    9  A    between atoms: C17_29  and  C18_30 
REMARK   10  A    between atoms: C18_30  and  C19_31 
REMARK   11  A    between atoms: C19_31  and  C20_32 
REMARK   12  A    between atoms: C20_32  and  C21_33 
REMARK   13  A    between atoms: C21_33  and  N6_34 
ROOT
HETATM    1  C9  UNL     1       1.829  -2.011   1.516  1.00  0.00     0.074 C 
HETATM    2  C10 UNL     1       1.011  -1.892   2.782  1.00  0.00     0.034 C 
HETATM    3  C11 UNL     1      -0.241  -2.680   2.366  1.00  0.00     0.124 C 
HETATM    4  N4  UNL     1      -0.484  -2.111   1.059  1.00  0.00    -0.380 N 
HETATM    5  C24 UNL     1       0.799  -2.035   0.398  1.00  0.00     0.135 C 
ENDROOT
BRANCH   1   6
HETATM    6  C8  UNL     1       2.744  -0.835   1.336  1.00  0.00     0.103 A 
HETATM    7  N3  UNL     1       4.077  -0.857   1.154  1.00  0.00    -0.329 N 
HETATM    8  C7  UNL     1       4.552   0.383   1.026  1.00  0.00     0.131 A 
ATOM      9  H3  UNL     1       4.645  -1.704   1.119  1.00  0.00     0.168 HD
HETATM   10  N8  UNL     1       3.491   1.205   1.130  1.00  0.00    -0.283 N 
HETATM   11  N7  UNL     1       2.404   0.477   1.316  1.00  0.00    -0.287 N 
ATOM     12  H8  UNL     1       3.521   2.223   1.074  1.00  0.00     0.188 HD
ATOM     13  H7  UNL     1       1.459   0.844   1.427  1.00  0.00     0.188 HD
BRANCH   8  14
HETATM   14  C6  UNL     1       5.936   0.821   0.807  1.00  0.00     0.009 A 
HETATM   15  C5  UNL     1       6.242   2.152   0.684  1.00  0.00     0.016 A 
HETATM   16  C4  UNL     1       7.573   2.499   0.471  1.00  0.00     0.016 A 
HETATM   17  C3  UNL     1       8.580   1.565   0.381  1.00  0.00     0.007 A 
HETATM   18  C26 UNL     1       8.229   0.245   0.510  1.00  0.00     0.016 A 
HETATM   19  C25 UNL     1       6.942  -0.141   0.719  1.00  0.00     0.016 A 
BRANCH  17  20
HETATM   20  C2  UNL     1       9.981   1.932   0.154  1.00  0.00     0.104 C 
HETATM   21  N2  UNL     1      10.395   3.125   0.020  1.00  0.00    -0.385 N 
ATOM     22  H22 UNL     1      11.370   3.380  -0.138  1.00  0.00     0.157 HD
ATOM     23  H21 UNL     1       9.698   3.867   0.075  1.00  0.00     0.157 HD
BRANCH  20  24
HETATM   24  N1  UNL     1      10.956   0.894   0.077  1.00  0.00    -0.380 N 
HETATM   25  C1  UNL     1      11.627   0.693  -1.188  1.00  0.00     0.147 C 
ATOM     26  H1  UNL     1      11.173   0.313   0.887  1.00  0.00     0.160 HD
ENDBRANCH  20  24
ENDBRANCH  17  20
ENDBRANCH   8  14
ENDBRANCH   1   6
BRANCH   4  27
HETATM   27  C12 UNL     1      -1.737  -1.715   0.533  1.00  0.00     0.030 A 
HETATM   28  C13 UNL     1      -2.900  -1.940   1.213  1.00  0.00     0.030 A 
HETATM   29  C14 UNL     1      -4.136  -1.536   0.679  1.00  0.00     0.012 A 
HETATM   30  C15 UNL     1      -4.209  -0.909  -0.531  1.00  0.00    -0.024 A 
HETATM   31  C22 UNL     1      -3.035  -0.680  -1.219  1.00  0.00     0.012 A 
HETATM   32  C23 UNL     1      -1.818  -1.074  -0.701  1.00  0.00     0.030 A 
BRANCH  30  33
HETATM   33  C16 UNL     1      -5.516  -0.448  -1.163  1.00  0.00     0.239 C 
BRANCH  33  34
HETATM   34  N5  UNL     1      -5.506  -0.842  -2.582  1.00  0.00    -0.068 N 
ATOM     35  H53 UNL     1      -4.685  -0.497  -3.080  1.00  0.00     0.275 HD
ATOM     36  H52 UNL     1      -5.337  -1.839  -2.712  1.00  0.00     0.275 HD
ATOM     37  H51 UNL     1      -6.381  -0.533  -3.005  1.00  0.00     0.275 HD
ENDBRANCH  33  34
BRANCH  33  38
HETATM   38  C17 UNL     1      -6.664  -1.071  -0.527  1.00  0.00     0.010 C 
BRANCH  38  39
HETATM   39  C18 UNL     1      -8.026  -0.856  -0.964  1.00  0.00    -0.002 C 
BRANCH  39  40
HETATM   40  C19 UNL     1      -8.849   0.317  -0.976  1.00  0.00    -0.003 C 
BRANCH  40  41
HETATM   41  C20 UNL     1      -8.749   1.569  -1.702  1.00  0.00     0.000 C 
BRANCH  41  42
HETATM   42  C21 UNL     1      -7.641   2.510  -1.522  1.00  0.00     0.257 C 
BRANCH  42  43
HETATM   43  N6  UNL     1      -7.442   2.960  -0.164  1.00  0.00    -0.076 N 
ATOM     44  H63 UNL     1      -8.306   3.356   0.207  1.00  0.00     0.274 HD
ATOM     45  H62 UNL     1      -7.332   2.161   0.460  1.00  0.00     0.274 HD
ATOM     46  H61 UNL     1      -6.670   3.615  -0.039  1.00  0.00     0.274 HD
ENDBRANCH  42  43
ENDBRANCH  41  42
ENDBRANCH  40  41
ENDBRANCH  39  40
ENDBRANCH  38  39
ENDBRANCH  33  38
ENDBRANCH  30  33
ENDBRANCH   4  27
TORSDOF 13
