REMARK  16 active torsions:
REMARK  status: ('A' for Active; 'I' for Inactive)
REMARK    1  A    between atoms: C2_2  and  C3_3 
REMARK    2  A    between atoms: C4_4  and  C5_5 
REMARK    3  A    between atoms: C5_5  and  C6_6 
REMARK    4  A    between atoms: C7_7  and  O1_8 
REMARK    5  A    between atoms: C9_11  and  O2_12 
REMARK    6  A    between atoms: C10_14  and  C11_15 
REMARK    7  A    between atoms: C13_17  and  C14_18 
REMARK    8  A    between atoms: C14_18  and  C16_20 
REMARK    9  A    between atoms: C16_20  and  C17_21 
REMARK   10  A    between atoms: C17_21  and  C18_22 
REMARK   11  A    between atoms: C17_21  and  N2_32 
REMARK   12  A    between atoms: C18_22  and  C19_23 
REMARK   13  A    between atoms: C19_23  and  C20_24 
REMARK   14  A    between atoms: C20_24  and  O3_25 
REMARK   15  A    between atoms: C21_27  and  C22_28 
REMARK   16  A    between atoms: N2_32  and  N3_33 
REMARK       I    between atoms: N3_33  and  C25_35 
ROOT
HETATM    1  C22 UNL     1      -6.115  -0.407  -1.977  1.00  0.00     0.013 C 
HETATM    2  C23 UNL     1      -5.994   0.805  -2.471  1.00  0.00     0.093 C 
HETATM    3  C24 UNL     1      -6.638   1.234  -3.673  1.00  0.00     0.087 C 
HETATM    4  N1  UNL     1      -7.166   1.561  -4.656  1.00  0.00    -0.192 NA
ENDROOT
BRANCH   1   5
HETATM    5  C21 UNL     1      -5.450  -0.828  -0.747  1.00  0.00     0.037 C 
HETATM    6  C20 UNL     1      -5.588  -2.033  -0.286  1.00  0.00     0.062 C 
BRANCH   6   7
HETATM    7  C19 UNL     1      -5.034  -2.665   0.893  1.00  0.00     0.017 C 
BRANCH   7   8
HETATM    8  C18 UNL     1      -4.177  -1.949   1.828  1.00  0.00     0.104 C 
BRANCH   8   9
HETATM    9  C17 UNL     1      -2.903  -1.353   1.231  1.00  0.00     0.113 C 
BRANCH   9  10
HETATM   10  C16 UNL     1      -2.187  -2.158   0.274  1.00  0.00     0.049 C 
BRANCH  10  11
HETATM   11  C14 UNL     1      -1.045  -2.040  -0.349  1.00  0.00    -0.059 C 
HETATM   12  C15 UNL     1      -0.712  -3.185  -1.297  1.00  0.00     0.048 C 
BRANCH  11  13
HETATM   13  C13 UNL     1      -0.084  -0.974  -0.242  1.00  0.00     0.009 C 
HETATM   14  C11 UNL     1       1.054  -0.715  -0.792  1.00  0.00    -0.076 C 
HETATM   15  C12 UNL     1       1.677  -1.543  -1.829  1.00  0.00     0.044 C 
BRANCH  14  16
HETATM   16  C10 UNL     1       1.807   0.521  -0.426  1.00  0.00     0.050 C 
HETATM   17  C6  UNL     1       3.068   0.244   0.369  1.00  0.00     0.028 C 
HETATM   18  C7  UNL     1       3.505   1.675   0.706  1.00  0.00     0.125 C 
HETATM   19  C8  UNL     1       2.211   2.367   1.015  1.00  0.00     0.064 C 
HETATM   20  C9  UNL     1       1.092   1.393   0.581  1.00  0.00     0.129 C 
BRANCH  17  21
HETATM   21  C5  UNL     1       4.176  -0.391  -0.389  1.00  0.00     0.035 C 
BRANCH  21  22
HETATM   22  C4  UNL     1       5.399  -0.383   0.489  1.00  0.00    -0.030 C 
HETATM   23  C3  UNL     1       6.532   0.193   0.226  1.00  0.00    -0.031 C 
BRANCH  23  24
HETATM   24  C2  UNL     1       6.919   0.967  -0.955  1.00  0.00     0.022 C 
HETATM   25  C1  UNL     1       7.319   2.399  -0.597  1.00  0.00     0.009 C 
ENDBRANCH  23  24
ENDBRANCH  21  22
ENDBRANCH  17  21
BRANCH  18  26
HETATM   26  O1  UNL     1       4.382   1.705   1.793  1.00  0.00    -0.395 OA
ATOM     27  H1  UNL     1       4.653   2.591   2.002  1.00  0.00     0.210 HD
ENDBRANCH  18  26
BRANCH  20  28
HETATM   28  O2  UNL     1       0.024   2.100   0.071  1.00  0.00    -0.395 OA
ATOM     29  H2  UNL     1      -0.664   1.501  -0.196  1.00  0.00     0.210 HD
ENDBRANCH  20  28
ENDBRANCH  14  16
ENDBRANCH  11  13
ENDBRANCH  10  11
ENDBRANCH   9  10
BRANCH   9  30
HETATM   30  N2  UNL     1      -2.537  -0.286   1.641  1.00  0.00    -0.326 NA
BRANCH  30  31
HETATM   31  N3  UNL     1      -2.452   0.861   2.283  1.00  0.00    -0.187 N 
HETATM   32  C25 UNL     1      -3.250   2.035   2.216  1.00  0.00     0.357 C 
HETATM   33  N4  UNL     1      -2.965   3.152   3.001  1.00  0.00    -0.038 NA
HETATM   34  O4  UNL     1      -4.224   2.066   1.439  1.00  0.00    -0.248 OA
ATOM     35  H3  UNL     1      -1.677   0.916   2.944  1.00  0.00     0.206 HD
ENDBRANCH  30  31
ENDBRANCH   9  30
ENDBRANCH   8   9
ENDBRANCH   7   8
ENDBRANCH   6   7
BRANCH   6  36
HETATM   36  O3  UNL     1      -6.427  -2.880  -1.069  1.00  0.00    -0.361 OA
ATOM     37  H3  UNL     1      -6.790  -2.465  -1.843  1.00  0.00     0.217 HD
ENDBRANCH   6  36
ENDBRANCH   1   5
TORSDOF 16
