REMARK  17 active torsions:
REMARK  status: ('A' for Active; 'I' for Inactive)
REMARK    1  A    between atoms: S1_2  and  N1_5 
REMARK    2  A    between atoms: N1_5  and  C2_7 
REMARK    3  A    between atoms: C2_7  and  C3_8 
REMARK    4  A    between atoms: C3_8  and  C4_9 
REMARK    5  A    between atoms: C8_13  and  C9_14 
REMARK    6  A    between atoms: N2_17  and  C12_18 
REMARK    7  A    between atoms: C12_18  and  C13_19 
REMARK    8  A    between atoms: C13_19  and  C14_20 
REMARK    9  A    between atoms: C14_20  and  N3_21 
REMARK   10  A    between atoms: C17_24  and  C18_25 
REMARK   11  A    between atoms: C18_25  and  C19_26 
REMARK   12  A    between atoms: C20_27  and  C21_28 
REMARK   13  A    between atoms: C24_31  and  C25_32 
REMARK   14  A    between atoms: C25_32  and  C26_33 
REMARK   15  A    between atoms: C29_36  and  C30_37 
REMARK   16  A    between atoms: C30_37  and  C31_38 
REMARK   17  A    between atoms: C39_51  and  O5_52 
ROOT
HETATM    1  C14 UNL     1      -0.786   0.231   2.129  1.00  0.00     0.129 C 
ENDROOT
BRANCH   1   2
HETATM    2  C13 UNL     1      -2.138   0.600   1.634  1.00  0.00     0.040 C 
BRANCH   2   3
HETATM    3  C12 UNL     1      -2.797  -0.519   0.882  1.00  0.00     0.135 C 
BRANCH   3   4
HETATM    4  N2  UNL     1      -4.115  -0.116   0.416  1.00  0.00    -0.310 N 
HETATM    5  C11 UNL     1      -5.202  -0.276   1.160  1.00  0.00     0.098 A 
HETATM    6  C10 UNL     1      -6.463   0.130   0.707  1.00  0.00     0.048 A 
HETATM    7  C9  UNL     1      -6.614   0.704  -0.513  1.00  0.00     0.050 A 
HETATM    8  N5  UNL     1      -5.478   0.854  -1.255  1.00  0.00    -0.308 N 
HETATM    9  C38 UNL     1      -4.289   0.452  -0.786  1.00  0.00     0.326 A 
ATOM     10  H5  UNL     1      -5.535   1.279  -2.181  1.00  0.00     0.170 HD
HETATM   11  O4  UNL     1      -3.246   0.610  -1.513  1.00  0.00    -0.246 OA
BRANCH   7  12
HETATM   12  C8  UNL     1      -7.905   1.117  -1.080  1.00  0.00     0.024 A 
HETATM   13  C7  UNL     1      -8.006   1.359  -2.439  1.00  0.00     0.016 A 
HETATM   14  C6  UNL     1      -9.174   1.807  -3.055  1.00  0.00     0.002 A 
HETATM   15  C5  UNL     1     -10.286   2.023  -2.287  1.00  0.00     0.010 A 
HETATM   16  C4  UNL     1     -10.218   1.790  -0.920  1.00  0.00    -0.022 A 
HETATM   17  C39 UNL     1      -9.032   1.341  -0.325  1.00  0.00     0.084 A 
BRANCH  16  18
HETATM   18  C3  UNL     1     -11.435   2.013  -0.099  1.00  0.00     0.062 C 
BRANCH  18  19
HETATM   19  C2  UNL     1     -12.132   0.730   0.204  1.00  0.00     0.136 C 
BRANCH  19  20
HETATM   20  N1  UNL     1     -13.308   1.026   1.028  1.00  0.00    -0.320 N 
ATOM     21  H1  UNL     1     -13.584   1.960   1.330  1.00  0.00     0.172 HD
BRANCH  20  22
HETATM   22  S1  UNL     1     -14.160  -0.422   1.416  1.00  0.00     0.222 S 
HETATM   23  C1  UNL     1     -14.718  -1.159  -0.112  1.00  0.00     0.185 C 
HETATM   24  O1  UNL     1     -13.268  -1.439   2.077  1.00  0.00    -0.206 OA
HETATM   25  O2  UNL     1     -15.320  -0.112   2.305  1.00  0.00    -0.206 OA
ENDBRANCH  20  22
ENDBRANCH  19  20
ENDBRANCH  18  19
ENDBRANCH  16  18
BRANCH  17  26
HETATM   26  O5  UNL     1      -9.072   1.149   1.035  1.00  0.00    -0.359 OA
ATOM     27  H5  UNL     1      -8.268   0.844   1.439  1.00  0.00     0.217 HD
ENDBRANCH  17  26
ENDBRANCH   7  12
ENDBRANCH   3   4
ENDBRANCH   2   3
ENDBRANCH   1   2
BRANCH   1  28
HETATM   28  N3  UNL     1       0.157  -0.136   1.080  1.00  0.00    -0.366 N 
HETATM   29  C15 UNL     1       0.906   0.814   0.505  1.00  0.00     0.091 A 
HETATM   30  C16 UNL     1       1.794   0.429  -0.478  1.00  0.00     0.025 A 
HETATM   31  C17 UNL     1       1.926  -0.875  -0.871  1.00  0.00    -0.044 A 
HETATM   32  C36 UNL     1       1.135  -1.800  -0.247  1.00  0.00     0.025 A 
HETATM   33  C37 UNL     1       0.235  -1.427   0.744  1.00  0.00     0.091 A 
BRANCH  31  34
HETATM   34  C18 UNL     1       2.876  -1.259  -1.914  1.00  0.00     0.132 C 
BRANCH  34  35
HETATM   35  C19 UNL     1       4.219  -1.544  -1.342  1.00  0.00    -0.097 C 
HETATM   36  C20 UNL     1       5.308  -1.748  -0.868  1.00  0.00    -0.067 C 
BRANCH  36  37
HETATM   37  C21 UNL     1       6.605  -1.960  -0.294  1.00  0.00     0.017 A 
HETATM   38  C22 UNL     1       6.962  -1.347   0.914  1.00  0.00     0.021 A 
HETATM   39  C23 UNL     1       8.207  -1.537   1.468  1.00  0.00     0.009 A 
HETATM   40  C24 UNL     1       9.144  -2.337   0.851  1.00  0.00    -0.054 A 
HETATM   41  C34 UNL     1       8.795  -2.941  -0.335  1.00  0.00     0.009 A 
HETATM   42  C35 UNL     1       7.538  -2.754  -0.901  1.00  0.00     0.021 A 
BRANCH  40  43
HETATM   43  C25 UNL     1      10.515  -2.524   1.467  1.00  0.00     0.077 C 
BRANCH  43  44
HETATM   44  C26 UNL     1      11.422  -1.461   0.933  1.00  0.00    -0.054 A 
HETATM   45  C27 UNL     1      12.191  -1.691  -0.176  1.00  0.00     0.008 A 
HETATM   46  C28 UNL     1      12.999  -0.670  -0.635  1.00  0.00     0.008 A 
HETATM   47  C29 UNL     1      13.058   0.563  -0.023  1.00  0.00    -0.050 A 
HETATM   48  C32 UNL     1      12.262   0.743   1.092  1.00  0.00     0.008 A 
HETATM   49  C33 UNL     1      11.450  -0.251   1.573  1.00  0.00     0.008 A 
BRANCH  47  50
HETATM   50  C30 UNL     1      13.909   1.670  -0.501  1.00  0.00     0.138 C 
BRANCH  50  51
HETATM   51  C31 UNL     1      13.136   2.487  -1.459  1.00  0.00     0.235 C 
HETATM   52  N4  UNL     1      13.712   3.619  -2.073  1.00  0.00    -0.062 NA
HETATM   53  O3  UNL     1      11.956   2.174  -1.731  1.00  0.00    -0.277 OA
ENDBRANCH  50  51
ENDBRANCH  47  50
ENDBRANCH  43  44
ENDBRANCH  40  43
ENDBRANCH  36  37
ENDBRANCH  34  35
ENDBRANCH  31  34
ENDBRANCH   1  28
TORSDOF 17
