REMARK  17 active torsions:
REMARK  status: ('A' for Active; 'I' for Inactive)
REMARK    1  A    between atoms: C2_2  and  C3_3 
REMARK    2  A    between atoms: C4_4  and  O1_5 
REMARK    3  A    between atoms: C6_8  and  C7_9 
REMARK    4  A    between atoms: C7_9  and  C8_10 
REMARK    5  A    between atoms: C8_10  and  C9_11 
REMARK    6  A    between atoms: C9_11  and  C10_12 
REMARK    7  A    between atoms: C10_12  and  C11_13 
REMARK    8  A    between atoms: C11_13  and  C12_14 
REMARK    9  A    between atoms: C12_14  and  C13_15 
REMARK   10  A    between atoms: C13_15  and  C14_16 
REMARK   11  A    between atoms: C15_17  and  C16_18 
REMARK   12  A    between atoms: C16_18  and  C17_19 
REMARK   13  A    between atoms: C18_21  and  C19_22 
REMARK   14  A    between atoms: C19_22  and  O3_23 
REMARK   15  A    between atoms: C20_25  and  O4_26 
REMARK   16  A    between atoms: C21_28  and  O5_29 
REMARK   17  A    between atoms: C22_31  and  O6_32 
ROOT
HETATM    1  C14 UNL     1       2.085  -1.407  -0.342  1.00  0.00    -0.031 C 
HETATM    2  C15 UNL     1       3.387  -1.531  -0.491  1.00  0.00    -0.028 C 
ENDROOT
BRANCH   1   3
HETATM    3  C13 UNL     1       1.380  -0.942   0.874  1.00  0.00     0.027 C 
BRANCH   3   4
HETATM    4  C12 UNL     1       0.561   0.300   0.605  1.00  0.00     0.004 C 
BRANCH   4   5
HETATM    5  C11 UNL     1      -0.479   0.083  -0.455  1.00  0.00     0.000 C 
BRANCH   5   6
HETATM    6  C10 UNL     1      -1.437  -0.987  -0.058  1.00  0.00     0.000 C 
BRANCH   6   7
HETATM    7  C9  UNL     1      -2.512  -1.217  -1.105  1.00  0.00     0.000 C 
BRANCH   7   8
HETATM    8  C8  UNL     1      -3.338   0.026  -1.364  1.00  0.00     0.000 C 
BRANCH   8   9
HETATM    9  C7  UNL     1      -4.032   0.496  -0.126  1.00  0.00     0.005 C 
BRANCH   9  10
HETATM   10  C6  UNL     1      -4.982  -0.470   0.476  1.00  0.00    -0.008 C 
HETATM   11  C5  UNL     1      -5.519   0.259   1.768  1.00  0.00     0.037 C 
HETATM   12  C4  UNL     1      -6.685   1.053   1.293  1.00  0.00     0.126 C 
HETATM   13  C3  UNL     1      -6.902   0.687  -0.154  1.00  0.00     0.040 C 
HETATM   14  C23 UNL     1      -6.276  -0.710  -0.214  1.00  0.00    -0.004 C 
HETATM   15  C24 UNL     1      -6.291  -1.331  -1.545  1.00  0.00     0.011 C 
BRANCH  12  16
HETATM   16  O1  UNL     1      -7.819   0.591   1.999  1.00  0.00    -0.395 OA
ATOM     17  H1  UNL     1      -7.682   0.822   2.910  1.00  0.00     0.210 HD
ENDBRANCH  12  16
BRANCH  13  18
HETATM   18  C2  UNL     1      -8.356   0.616  -0.486  1.00  0.00    -0.029 C 
HETATM   19  C1  UNL     1      -8.802   1.297  -1.526  1.00  0.00     0.007 C 
ENDBRANCH  13  18
ENDBRANCH   9  10
ENDBRANCH   8   9
ENDBRANCH   7   8
ENDBRANCH   6   7
ENDBRANCH   5   6
ENDBRANCH   4   5
ENDBRANCH   3   4
ENDBRANCH   1   3
BRANCH   2  20
HETATM   20  C16 UNL     1       4.317  -1.203   0.582  1.00  0.00     0.061 C 
BRANCH  20  21
HETATM   21  C17 UNL     1       5.298  -0.086   0.183  1.00  0.00     0.157 C 
HETATM   22  O2  UNL     1       6.098   0.116   1.266  1.00  0.00    -0.373 OA
HETATM   23  C18 UNL     1       7.262   0.782   1.090  1.00  0.00     0.176 C 
HETATM   24  C20 UNL     1       7.766   0.918  -0.307  1.00  0.00     0.180 C 
HETATM   25  C21 UNL     1       7.488  -0.419  -1.000  1.00  0.00     0.180 C 
HETATM   26  C22 UNL     1       5.991  -0.550  -1.055  1.00  0.00     0.178 C 
BRANCH  23  27
HETATM   27  C19 UNL     1       7.198   2.152   1.782  1.00  0.00     0.198 C 
BRANCH  27  28
HETATM   28  O3  UNL     1       8.451   2.743   1.532  1.00  0.00    -0.398 OA
ATOM     29  H3  UNL     1       8.411   3.590   1.960  1.00  0.00     0.209 HD
ENDBRANCH  27  28
ENDBRANCH  23  27
BRANCH  24  30
HETATM   30  O4  UNL     1       9.154   1.041  -0.257  1.00  0.00    -0.390 OA
ATOM     31  H4  UNL     1       9.475   1.128  -1.147  1.00  0.00     0.210 HD
ENDBRANCH  24  30
BRANCH  25  32
HETATM   32  O5  UNL     1       7.974  -1.408  -0.147  1.00  0.00    -0.390 OA
ATOM     33  H5  UNL     1       7.802  -2.237  -0.577  1.00  0.00     0.210 HD
ENDBRANCH  25  32
BRANCH  26  34
HETATM   34  O6  UNL     1       5.550   0.247  -2.118  1.00  0.00    -0.390 OA
ATOM     35  H6  UNL     1       5.991  -0.048  -2.906  1.00  0.00     0.210 HD
ENDBRANCH  26  34
ENDBRANCH  20  21
ENDBRANCH   2  20
TORSDOF 17
