REMARK  9 active torsions:
REMARK  status: ('A' for Active; 'I' for Inactive)
REMARK    1  A    between atoms: C2_2  and  C4_4 
REMARK    2  A    between atoms: C2_2  and  C9_14 
REMARK       I    between atoms: C4_4  and  N1_6 
REMARK    3  A    between atoms: N1_6  and  C5_8 
REMARK    4  A    between atoms: C5_8  and  C6_9 
REMARK    5  A    between atoms: C6_9  and  C7_10 
REMARK    6  A    between atoms: C7_10  and  C8_11 
REMARK    7  A    between atoms: C14_19  and  O4_20 
REMARK    8  A    between atoms: C16_23  and  O5_24 
REMARK    9  A    between atoms: C18_27  and  O6_28 
ROOT
HETATM    1  C9  UNL     1      -0.542  -0.663   0.277  1.00  0.00     0.005 C 
HETATM    2  C10 UNL     1      -0.956   0.408   1.229  1.00  0.00     0.007 C 
HETATM    3  C11 UNL     1      -2.393   0.261   1.623  1.00  0.00     0.015 C 
HETATM    4  C12 UNL     1      -3.310  -0.216   0.557  1.00  0.00     0.013 C 
HETATM    5  C13 UNL     1      -3.700  -1.677   0.767  1.00  0.00     0.021 C 
HETATM    6  C14 UNL     1      -4.657   0.520   0.559  1.00  0.00     0.131 C 
HETATM    7  C15 UNL     1      -4.531   1.970   0.286  1.00  0.00     0.064 C 
HETATM    8  C16 UNL     1      -3.374   2.369  -0.539  1.00  0.00     0.123 C 
HETATM    9  C17 UNL     1      -2.726   1.331  -1.348  1.00  0.00     0.070 C 
HETATM   10  C18 UNL     1      -2.744  -0.061  -0.827  1.00  0.00     0.070 C 
HETATM   11  C19 UNL     1      -1.398  -0.740  -0.963  1.00  0.00     0.044 C 
ENDROOT
BRANCH   1  12
HETATM   12  C2  UNL     1       0.877  -0.641  -0.155  1.00  0.00     0.037 C 
HETATM   13  C1  UNL     1       1.047  -1.823  -1.129  1.00  0.00     0.025 C 
HETATM   14  C3  UNL     1       1.283   0.610  -0.885  1.00  0.00     0.025 C 
BRANCH  12  15
HETATM   15  C4  UNL     1       1.878  -0.882   0.908  1.00  0.00     0.226 C 
HETATM   16  O1  UNL     1       1.644  -1.067   2.114  1.00  0.00    -0.273 OA
HETATM   17  N1  UNL     1       3.256  -0.903   0.501  1.00  0.00    -0.360 N 
ATOM     18  H1  UNL     1       3.484  -0.754  -0.482  1.00  0.00     0.162 HD
BRANCH  17  19
HETATM   19  C5  UNL     1       4.326  -1.129   1.442  1.00  0.00     0.123 C 
BRANCH  19  20
HETATM   20  C6  UNL     1       5.676  -1.099   0.764  1.00  0.00     0.030 C 
BRANCH  20  21
HETATM   21  C7  UNL     1       5.965   0.230   0.101  1.00  0.00     0.114 C 
BRANCH  21  22
HETATM   22  C8  UNL     1       7.292   0.220  -0.548  1.00  0.00     0.172 C 
HETATM   23  O2  UNL     1       7.989  -0.821  -0.484  1.00  0.00    -0.648 OA
HETATM   24  O3  UNL     1       7.805   1.310  -1.228  1.00  0.00    -0.648 OA
ENDBRANCH  21  22
ENDBRANCH  20  21
ENDBRANCH  19  20
ENDBRANCH  17  19
ENDBRANCH  12  15
ENDBRANCH   1  12
BRANCH  10  25
HETATM   25  O6  UNL     1      -3.617  -0.796  -1.669  1.00  0.00    -0.389 OA
ATOM     26  H6  UNL     1      -3.259  -0.698  -2.544  1.00  0.00     0.210 HD
ENDBRANCH  10  25
BRANCH   6  27
HETATM   27  O4  UNL     1      -5.365   0.243   1.730  1.00  0.00    -0.395 OA
ATOM     28  H4  UNL     1      -6.199   0.699   1.731  1.00  0.00     0.210 HD
ENDBRANCH   6  27
BRANCH   8  29
HETATM   29  O5  UNL     1      -3.791   3.428  -1.382  1.00  0.00    -0.395 OA
ATOM     30  H5  UNL     1      -3.046   3.685  -1.913  1.00  0.00     0.210 HD
ENDBRANCH   8  29
TORSDOF 9
