REMARK  8 active torsions:
REMARK  status: ('A' for Active; 'I' for Inactive)
REMARK    1  A    between atoms: C3_3  and  C4_4 
REMARK    2  A    between atoms: N2_6  and  O1_8 
REMARK    3  A    between atoms: C7_12  and  C8_13 
REMARK    4  A    between atoms: C8_13  and  C9_14 
REMARK    5  A    between atoms: C12_17  and  C13_18 
REMARK    6  A    between atoms: C13_18  and  C14_20 
REMARK    7  A    between atoms: C14_20  and  C15_21 
REMARK    8  A    between atoms: C15_21  and  C16_22 
ROOT
HETATM    1  C1  UNL     1      -1.478   2.502   0.547  1.00  0.00     0.050 C 
HETATM    2  C2  UNL     1      -2.216   1.217   0.667  1.00  0.00    -0.036 A 
HETATM    3  C3  UNL     1      -3.579   1.222   0.667  1.00  0.00     0.013 A 
HETATM    4  C5  UNL     1      -4.265   0.005   0.620  1.00  0.00     0.016 A 
HETATM    5  C6  UNL     1      -3.555  -1.135   0.580  1.00  0.00     0.009 A 
HETATM    6  C7  UNL     1      -2.139  -1.174   0.586  1.00  0.00    -0.045 A 
HETATM    7  C12 UNL     1      -1.488   0.029   0.634  1.00  0.00    -0.003 A 
ENDROOT
BRANCH   7   8
HETATM    8  C13 UNL     1      -0.065   0.016   0.980  1.00  0.00     0.035 C 
HETATM    9  N3  UNL     1       0.264   1.121   1.851  1.00  0.00    -0.106 NA
BRANCH   8  10
HETATM   10  C14 UNL     1       0.925  -0.354  -0.054  1.00  0.00     0.055 C 
BRANCH  10  11
HETATM   11  C15 UNL     1       2.370  -0.416   0.464  1.00  0.00     0.010 C 
BRANCH  11  12
HETATM   12  C16 UNL     1       3.285  -0.678  -0.711  1.00  0.00    -0.014 C 
HETATM   13  C17 UNL     1       3.250   0.468  -1.706  1.00  0.00     0.010 C 
HETATM   14  C18 UNL     1       3.627   1.779  -0.994  1.00  0.00     0.079 C 
HETATM   15  C19 UNL     1       4.962   1.620  -0.377  1.00  0.00     0.243 C 
HETATM   16  F1  UNL     1       5.238   2.728   0.465  1.00  0.00    -0.206 F 
HETATM   17  F2  UNL     1       5.928   1.670  -1.363  1.00  0.00    -0.206 F 
HETATM   18  C20 UNL     1       5.193   0.402   0.456  1.00  0.00     0.079 C 
HETATM   19  C21 UNL     1       4.700  -0.841  -0.243  1.00  0.00     0.010 C 
ENDBRANCH  11  12
ENDBRANCH  10  11
ENDBRANCH   8  10
ENDBRANCH   7   8
BRANCH   6  20
HETATM   20  C8  UNL     1      -1.567  -2.510   0.546  1.00  0.00     0.044 C 
BRANCH  20  21
HETATM   21  C9  UNL     1      -1.311  -3.115  -0.808  1.00  0.00    -0.010 A 
HETATM   22  C10 UNL     1      -0.747  -4.475  -0.922  1.00  0.00     0.005 A 
HETATM   23  C11 UNL     1      -2.221  -4.278  -1.227  1.00  0.00     0.005 A 
ENDBRANCH  20  21
ENDBRANCH   6  20
BRANCH   3  24
HETATM   24  C4  UNL     1      -4.401   2.400   0.751  1.00  0.00     0.146 C 
HETATM   25  N1  UNL     1      -5.840   2.290   0.733  1.00  0.00    -0.080 NA
HETATM   26  N2  UNL     1      -3.936   3.566   0.845  1.00  0.00    -0.255 N 
ATOM     27  H2  UNL     1      -2.919   3.647   0.863  1.00  0.00     0.195 HD
BRANCH  26  28
HETATM   28  O1  UNL     1      -4.640   4.741   0.926  1.00  0.00    -0.288 OA
ATOM     29  H1  UNL     1      -4.289   5.621   0.997  1.00  0.00     0.244 HD
ENDBRANCH  26  28
ENDBRANCH   3  24
TORSDOF 8
