REMARK  6 active torsions:
REMARK  status: ('A' for Active; 'I' for Inactive)
REMARK    1  A    between atoms: C5_15  and  O1_16 
REMARK    2  A    between atoms: O1_16  and  C6_17 
REMARK    3  A    between atoms: C6_17  and  C7_18 
REMARK    4  A    between atoms: C7_18  and  N5_19 
REMARK    5  A    between atoms: C12_27  and  N7_28 
REMARK    6  A    between atoms: N10_36  and  O3_37 
ROOT
HETATM    1  N1  UNL     1      -1.160   1.005  -1.228  1.00  0.00    -0.383 N 
ATOM      2  H11 UNL     1      -1.248   1.510  -2.110  1.00  0.00     0.157 HD
ATOM      3  H12 UNL     1      -0.415   0.934  -0.535  1.00  0.00     0.157 HD
HETATM    4  C1  UNL     1      -2.208   0.326  -0.948  1.00  0.00     0.148 C 
HETATM    5  C2  UNL     1      -2.083  -0.392   0.307  1.00  0.00     0.106 A 
HETATM    6  C3  UNL     1      -3.045  -0.983   1.129  1.00  0.00     0.138 A 
HETATM    7  N2  UNL     1      -2.622  -1.601   2.250  1.00  0.00    -0.176 N 
ATOM      8  H2  UNL     1      -3.305  -2.040   2.868  1.00  0.00     0.186 HD
HETATM    9  C4  UNL     1      -1.309  -1.649   2.570  1.00  0.00     0.679 A 
HETATM   10  N3  UNL     1      -0.928  -2.258   3.670  1.00  0.00    -0.234 N 
ATOM     11  H31 UNL     1       0.062  -2.294   3.911  1.00  0.00     0.174 HD
ATOM     12  H32 UNL     1      -1.631  -2.690   4.270  1.00  0.00     0.174 HD
HETATM   13  N4  UNL     1      -0.386  -1.082   1.782  1.00  0.00    -0.170 N 
ATOM     14  H4  UNL     1       0.600  -1.128   2.041  1.00  0.00     0.186 HD
HETATM   15  C5  UNL     1      -0.757  -0.444   0.637  1.00  0.00     0.175 A 
HETATM   16  N6  UNL     1      -4.461  -1.096   1.073  1.00  0.00    -0.332 N 
ATOM     17  H6  UNL     1      -4.815  -1.880   1.621  1.00  0.00     0.165 HD
HETATM   18  C12 UNL     1      -5.512  -0.355   0.418  1.00  0.00     0.390 C 
HETATM   19  N8  UNL     1      -5.426  -0.332  -1.020  1.00  0.00    -0.319 N 
ATOM     20  H8  UNL     1      -6.312  -0.646  -1.417  1.00  0.00     0.166 HD
HETATM   21  C13 UNL     1      -4.609  -0.049  -1.972  1.00  0.00     0.219 C 
HETATM   22  N9  UNL     1      -5.124  -0.237  -3.280  1.00  0.00    -0.061 NA
HETATM   23  N10 UNL     1      -3.264   0.427  -1.931  1.00  0.00    -0.177 N 
ENDROOT
BRANCH  15  24
HETATM   24  O1  UNL     1       0.166   0.162  -0.218  1.00  0.00    -0.329 OA
BRANCH  24  25
HETATM   25  C6  UNL     1       1.533   0.042   0.220  1.00  0.00     0.222 C 
BRANCH  25  26
HETATM   26  C7  UNL     1       2.507   0.715  -0.712  1.00  0.00     0.095 C 
BRANCH  26  27
HETATM   27  N5  UNL     1       3.814   0.549  -0.217  1.00  0.00    -0.348 N 
HETATM   28  C8  UNL     1       4.395  -0.725  -0.218  1.00  0.00     0.094 C 
HETATM   29  C9  UNL     1       5.882  -0.740   0.039  1.00  0.00     0.213 C 
HETATM   30  O2  UNL     1       6.421   0.379  -0.605  1.00  0.00    -0.381 OA
HETATM   31  C10 UNL     1       6.056   1.487   0.125  1.00  0.00     0.213 C 
HETATM   32  C11 UNL     1       4.560   1.666   0.176  1.00  0.00     0.094 C 
ENDBRANCH  26  27
ENDBRANCH  25  26
ENDBRANCH  24  25
ENDBRANCH  15  24
BRANCH  23  33
HETATM   33  O3  UNL     1      -2.932   1.098  -3.038  1.00  0.00    -0.279 OA
ATOM     34  H3  UNL     1      -3.626   1.164  -3.684  1.00  0.00     0.245 HD
ENDBRANCH  23  33
BRANCH  18  35
HETATM   35  N7  UNL     1      -5.453   1.047   0.859  1.00  0.00    -0.041 N 
ATOM     36  H73 UNL     1      -5.488   1.137   1.874  1.00  0.00     0.279 HD
ATOM     37  H72 UNL     1      -4.533   1.463   0.711  1.00  0.00     0.279 HD
ATOM     38  H71 UNL     1      -6.196   1.571   0.396  1.00  0.00     0.279 HD
ENDBRANCH  18  35
TORSDOF 6
