REMARK  4 active torsions:
REMARK  status: ('A' for Active; 'I' for Inactive)
REMARK    1  A    between atoms: C3_5  and  C4_6 
REMARK    2  A    between atoms: C4_6  and  C5_7 
REMARK    3  A    between atoms: C10_18  and  N5_19 
REMARK    4  A    between atoms: N5_19  and  C11_21 
ROOT
HETATM    1  C1  UNL     1      -1.858   1.305  -1.615  1.00  0.00     0.045 C 
HETATM    2  C2  UNL     1      -1.068   0.919  -0.614  1.00  0.00     0.051 A 
HETATM    3  N1  UNL     1       0.269   0.795  -0.664  1.00  0.00    -0.354 N 
ATOM      4  H1  UNL     1       0.838   0.986  -1.489  1.00  0.00     0.166 HD
HETATM    5  C3  UNL     1       0.753   0.386   0.519  1.00  0.00     0.044 A 
HETATM    6  C8  UNL     1      -0.335   0.249   1.341  1.00  0.00    -0.006 A 
HETATM    7  C9  UNL     1      -0.357  -0.184   2.774  1.00  0.00     0.053 C 
HETATM    8  C10 UNL     1      -1.496   0.574   0.666  1.00  0.00     0.083 A 
ENDROOT
BRANCH   5   9
HETATM    9  C4  UNL     1       2.019   0.153   0.854  1.00  0.00     0.080 C 
BRANCH   9  10
HETATM   10  C5  UNL     1       3.093   0.336  -0.116  1.00  0.00     0.123 A 
HETATM   11  N2  UNL     1       4.012  -0.585  -0.454  1.00  0.00    -0.330 N 
HETATM   12  C6  UNL     1       4.858  -0.086  -1.381  1.00  0.00     0.093 A 
ATOM     13  H2  UNL     1       4.063  -1.527  -0.066  1.00  0.00     0.168 HD
HETATM   14  C7  UNL     1       6.005  -0.797  -2.004  1.00  0.00     0.090 C 
HETATM   15  N3  UNL     1       4.448   1.169  -1.616  1.00  0.00    -0.288 N 
HETATM   16  N4  UNL     1       3.381   1.425  -0.851  1.00  0.00    -0.284 N 
ATOM     17  H3  UNL     1       4.879   1.821  -2.271  1.00  0.00     0.188 HD
ATOM     18  H4  UNL     1       2.867   2.306  -0.829  1.00  0.00     0.188 HD
ENDBRANCH   9  10
ENDBRANCH   5   9
BRANCH   8  19
HETATM   19  N5  UNL     1      -2.833   0.588   1.077  1.00  0.00    -0.188 N 
ATOM     20  H5  UNL     1      -3.097   1.317   1.740  1.00  0.00     0.184 HD
BRANCH  19  21
HETATM   21  C11 UNL     1      -3.749  -0.203   0.717  1.00  0.00     0.698 A 
HETATM   22  N6  UNL     1      -3.672  -1.235  -0.134  1.00  0.00    -0.185 N 
HETATM   23  C12 UNL     1      -4.892  -1.825  -0.242  1.00  0.00     0.215 A 
ATOM     24  H6  UNL     1      -2.829  -1.532  -0.625  1.00  0.00     0.185 HD
HETATM   25  N7  UNL     1      -5.721  -1.141   0.554  1.00  0.00    -0.281 N 
HETATM   26  N8  UNL     1      -5.025  -0.163   1.130  1.00  0.00    -0.131 N 
ATOM     27  H7  UNL     1      -6.712  -1.335   0.695  1.00  0.00     0.188 HD
ATOM     28  H8  UNL     1      -5.406   0.517   1.788  1.00  0.00     0.205 HD
ENDBRANCH  19  21
ENDBRANCH   8  19
TORSDOF 4
