REMARK  4 active torsions:
REMARK  status: ('A' for Active; 'I' for Inactive)
REMARK    1  A    between atoms: N1_2  and  C3_4 
REMARK    2  A    between atoms: C3_4  and  C4_5 
REMARK    3  A    between atoms: C13_20  and  O1_21 
REMARK    4  A    between atoms: C14_23  and  N4_24 
ROOT
HETATM    1  C4  UNL     1       0.346  -0.411  -0.231  1.00  0.00     0.186 C 
HETATM    2  N2  UNL     1       0.051  -0.246   1.150  1.00  0.00    -0.057 N 
ATOM      3  H21 UNL     1       0.742   0.313   1.650  1.00  0.00     0.278 HD
ATOM      4  H22 UNL     1       0.165  -1.100   1.695  1.00  0.00     0.278 HD
HETATM    5  C5  UNL     1      -1.277   0.298   1.209  1.00  0.00     0.193 C 
HETATM    6  C6  UNL     1      -2.320  -0.727   1.456  1.00  0.00     0.066 C 
HETATM    7  C7  UNL     1      -2.211  -1.972   0.669  1.00  0.00     0.188 C 
HETATM    8  C8  UNL     1      -2.743  -1.931  -0.725  1.00  0.00     0.035 C 
HETATM    9  C9  UNL     1      -1.483  -1.639  -1.554  1.00  0.00     0.038 C 
HETATM   10  C10 UNL     1      -0.338  -1.673  -0.664  1.00  0.00     0.224 C 
HETATM   11  N3  UNL     1      -0.866  -2.451   0.472  1.00  0.00    -0.064 N 
ATOM     12  H31 UNL     1      -0.804  -3.461   0.343  1.00  0.00     0.278 HD
ATOM     13  H32 UNL     1      -0.285  -2.402   1.309  1.00  0.00     0.278 HD
HETATM   14  C11 UNL     1      -1.476   1.083  -0.054  1.00  0.00     0.027 C 
HETATM   15  C12 UNL     1      -1.556   2.591   0.190  1.00  0.00     0.041 C 
HETATM   16  C13 UNL     1      -0.612   3.099  -0.909  1.00  0.00     0.149 C 
HETATM   17  C14 UNL     1       0.535   2.087  -0.683  1.00  0.00     0.219 C 
HETATM   18  C15 UNL     1      -0.212   0.833  -0.838  1.00  0.00     0.065 C 
ENDROOT
BRANCH   1  19
HETATM   19  C3  UNL     1       1.812  -0.518  -0.580  1.00  0.00     0.312 C 
BRANCH  19  20
HETATM   20  N1  UNL     1       2.529  -1.598  -0.001  1.00  0.00     0.082 N 
HETATM   21  C1  UNL     1       3.902  -1.516  -0.556  1.00  0.00     0.309 C 
HETATM   22  C2  UNL     1       2.732  -1.542   1.421  1.00  0.00     0.309 C 
ENDBRANCH  19  20
ENDBRANCH   1  19
BRANCH  17  23
HETATM   23  N4  UNL     1       1.089   2.438   0.565  1.00  0.00    -0.072 N 
ATOM     24  H43 UNL     1       1.380   3.414   0.629  1.00  0.00     0.274 HD
ATOM     25  H42 UNL     1       0.409   2.469   1.325  1.00  0.00     0.274 HD
ATOM     26  H41 UNL     1       1.846   1.770   0.714  1.00  0.00     0.274 HD
ENDBRANCH  17  23
BRANCH  16  27
HETATM   27  O1  UNL     1      -0.196   4.382  -0.692  1.00  0.00    -0.393 OA
ATOM     28  H1  UNL     1       0.388   4.696  -1.372  1.00  0.00     0.210 HD
ENDBRANCH  16  27
TORSDOF 4
