REMARK  4 active torsions:
REMARK  status: ('A' for Active; 'I' for Inactive)
REMARK    1  A    between atoms: N1_1  and  C1_5 
REMARK    2  A    between atoms: C3_7  and  O1_8 
REMARK    3  A    between atoms: N4_19  and  C9_20 
REMARK    4  A    between atoms: C9_20  and  C10_21 
ROOT
HETATM    1  C1  UNL     1      -2.451  -1.671  -0.931  1.00  0.00     0.218 C 
HETATM    2  C2  UNL     1      -3.788  -1.176  -0.500  1.00  0.00     0.069 C 
HETATM    3  C3  UNL     1      -3.777   0.174   0.134  1.00  0.00     0.151 C 
HETATM    4  C4  UNL     1      -2.422   0.604   0.612  1.00  0.00     0.221 C 
HETATM    5  N2  UNL     1      -1.764  -0.583   1.162  1.00  0.00    -0.060 N 
ATOM      6  H21 UNL     1      -2.337  -1.155   1.782  1.00  0.00     0.278 HD
ATOM      7  H22 UNL     1      -1.039  -0.401   1.856  1.00  0.00     0.278 HD
HETATM    8  C5  UNL     1      -1.316  -1.235  -0.053  1.00  0.00     0.236 C 
HETATM    9  C6  UNL     1      -0.600  -0.101  -0.758  1.00  0.00     0.116 C 
HETATM   10  C7  UNL     1      -1.515   1.058  -0.504  1.00  0.00     0.056 C 
HETATM   11  C8  UNL     1      -0.543   2.125  -0.040  1.00  0.00     0.137 C 
HETATM   12  N3  UNL     1       0.660   1.463   0.329  1.00  0.00    -0.164 NA
HETATM   13  N4  UNL     1       0.683   0.195  -0.173  1.00  0.00    -0.223 NA
ENDROOT
BRANCH  13  14
HETATM   14  C9  UNL     1       1.695  -0.109  -1.134  1.00  0.00     0.148 C 
BRANCH  14  15
HETATM   15  C10 UNL     1       3.081   0.131  -0.684  1.00  0.00    -0.044 A 
HETATM   16  C11 UNL     1       3.741  -0.794   0.105  1.00  0.00     0.008 A 
HETATM   17  C12 UNL     1       5.043  -0.579   0.526  1.00  0.00     0.001 A 
HETATM   18  C13 UNL     1       5.699   0.579   0.155  1.00  0.00     0.000 A 
HETATM   19  C14 UNL     1       5.047   1.507  -0.631  1.00  0.00     0.001 A 
HETATM   20  C15 UNL     1       3.754   1.277  -1.041  1.00  0.00     0.008 A 
ENDBRANCH  14  15
ENDBRANCH  13  14
BRANCH   1  21
HETATM   21  N1  UNL     1      -2.414  -3.133  -0.999  1.00  0.00    -0.073 N 
ATOM     22  H13 UNL     1      -2.700  -3.554  -0.115  1.00  0.00     0.274 HD
ATOM     23  H12 UNL     1      -3.156  -3.497  -1.596  1.00  0.00     0.274 HD
ATOM     24  H11 UNL     1      -1.498  -3.472  -1.294  1.00  0.00     0.274 HD
ENDBRANCH   1  21
BRANCH   3  25
HETATM   25  O1  UNL     1      -4.370   1.142  -0.674  1.00  0.00    -0.393 OA
ATOM     26  H1  UNL     1      -4.363   2.002  -0.270  1.00  0.00     0.210 HD
ENDBRANCH   3  25
TORSDOF 4
