REMARK  4 active torsions:
REMARK  status: ('A' for Active; 'I' for Inactive)
REMARK    1  A    between atoms: O1_1  and  C1_3 
REMARK    2  A    between atoms: C5_10  and  C6_11 
REMARK    3  A    between atoms: C6_11  and  C7_12 
REMARK    4  A    between atoms: C13_18  and  O2_19 
ROOT
HETATM    1  C1  UNL     1      -1.968  -1.583   0.572  1.00  0.00     0.149 C 
HETATM    2  C2  UNL     1      -2.460  -1.192  -0.773  1.00  0.00     0.048 C 
HETATM    3  C3  UNL     1      -2.288   0.247  -1.120  1.00  0.00     0.110 C 
HETATM    4  C4  UNL     1      -0.889   0.751  -1.012  1.00  0.00     0.332 C 
HETATM    5  N1  UNL     1       0.114  -0.276  -0.984  1.00  0.00    -0.041 N 
ATOM      6  H11 UNL     1       0.977   0.031  -1.432  1.00  0.00     0.280 HD
ATOM      7  H12 UNL     1      -0.122  -1.046  -1.610  1.00  0.00     0.280 HD
HETATM    8  C5  UNL     1       0.353  -0.742   0.367  1.00  0.00     0.224 C 
HETATM    9  C13 UNL     1      -0.491  -1.988   0.556  1.00  0.00     0.177 C 
HETATM   10  O3  UNL     1      -1.175   1.346   0.217  1.00  0.00    -0.319 OA
HETATM   11  C14 UNL     1      -2.495   1.267  -0.092  1.00  0.00     0.260 A 
HETATM   12  C15 UNL     1      -3.439   2.329  -0.158  1.00  0.00     0.305 A 
HETATM   13  N2  UNL     1      -3.548   1.290   0.846  1.00  0.00    -0.036 N 
ATOM     14  H21 UNL     1      -3.611   1.271   1.864  1.00  0.00     0.281 HD
ATOM     15  H22 UNL     1      -4.275   0.635   1.134  1.00  0.00     0.281 HD
ENDROOT
BRANCH   8  16
HETATM   16  C6  UNL     1       1.816  -1.148   0.550  1.00  0.00     0.074 C 
BRANCH  16  17
HETATM   17  C7  UNL     1       2.714   0.003   0.292  1.00  0.00    -0.056 A 
HETATM   18  C8  UNL     1       3.106   0.872   1.266  1.00  0.00     0.007 A 
HETATM   19  C9  UNL     1       3.950   1.927   0.946  1.00  0.00     0.001 A 
HETATM   20  C10 UNL     1       4.396   2.108  -0.342  1.00  0.00     0.000 A 
HETATM   21  C11 UNL     1       4.008   1.241  -1.330  1.00  0.00     0.001 A 
HETATM   22  C12 UNL     1       3.170   0.199  -0.991  1.00  0.00     0.007 A 
ENDBRANCH  16  17
ENDBRANCH   8  16
BRANCH   9  23
HETATM   23  O2  UNL     1      -0.158  -2.560   1.767  1.00  0.00    -0.391 OA
ATOM     24  H2  UNL     1       0.758  -2.811   1.757  1.00  0.00     0.210 HD
ENDBRANCH   9  23
BRANCH   1  25
HETATM   25  O1  UNL     1      -2.668  -2.738   0.971  1.00  0.00    -0.393 OA
ATOM     26  H1  UNL     1      -2.353  -2.988   1.832  1.00  0.00     0.210 HD
ENDBRANCH   1  25
TORSDOF 4
