REMARK  3 active torsions:
REMARK  status: ('A' for Active; 'I' for Inactive)
REMARK    1  A    between atoms: N1_2  and  C2_4 
REMARK    2  A    between atoms: C2_4  and  C3_5 
REMARK    3  A    between atoms: C14_19  and  O4_20 
ROOT
HETATM    1  C3  UNL     1       2.118  -0.699  -0.129  1.00  0.00    -0.018 C 
HETATM    2  C4  UNL     1       1.981  -0.468   1.144  1.00  0.00    -0.016 C 
HETATM    3  C5  UNL     1       0.816  -0.571   2.024  1.00  0.00     0.028 C 
HETATM    4  C6  UNL     1       0.109   0.762   2.263  1.00  0.00     0.006 C 
HETATM    5  C7  UNL     1      -0.077   1.569   1.029  1.00  0.00     0.038 C 
HETATM    6  C8  UNL     1      -1.311   1.215   0.280  1.00  0.00     0.189 C 
HETATM    7  O1  UNL     1      -2.348   0.973   1.174  1.00  0.00    -0.230 OA
HETATM    8  O2  UNL     1      -2.989  -0.132   0.897  1.00  0.00    -0.201 OA
HETATM    9  C9  UNL     1      -3.411  -0.207  -0.413  1.00  0.00     0.190 C 
HETATM   10  C10 UNL     1      -4.536   0.752  -0.625  1.00  0.00     0.081 C 
HETATM   11  C11 UNL     1      -3.952  -1.601  -0.668  1.00  0.00     0.081 C 
HETATM   12  O3  UNL     1      -2.388  -0.003  -1.354  1.00  0.00    -0.345 OA
HETATM   13  C12 UNL     1      -1.201  -0.029  -0.573  1.00  0.00     0.160 C 
HETATM   14  C13 UNL     1       0.039  -0.079  -1.404  1.00  0.00     0.071 C 
HETATM   15  C14 UNL     1       0.982  -1.171  -1.017  1.00  0.00     0.154 C 
ENDROOT
BRANCH   1  16
HETATM   16  C2  UNL     1       3.423  -0.526  -0.864  1.00  0.00     0.091 C 
BRANCH  16  17
HETATM   17  N1  UNL     1       4.513  -0.016  -0.154  1.00  0.00    -0.403 N 
HETATM   18  C1  UNL     1       4.501   1.366   0.157  1.00  0.00     0.145 C 
ATOM     19  H1  UNL     1       5.288  -0.616   0.130  1.00  0.00     0.158 HD
ENDBRANCH  16  17
ENDBRANCH   1  16
BRANCH  15  20
HETATM   20  O4  UNL     1       0.382  -2.234  -0.380  1.00  0.00    -0.391 OA
ATOM     21  H4  UNL     1      -0.329  -2.530  -0.936  1.00  0.00     0.210 HD
ENDBRANCH  15  20
TORSDOF 3
