REMARK  9 active torsions:
REMARK  status: ('A' for Active; 'I' for Inactive)
REMARK    1  A    between atoms: C8_8  and  O1_11 
REMARK    2  A    between atoms: O1_11  and  C10_12 
REMARK    3  A    between atoms: C10_12  and  C11_13 
REMARK    4  A    between atoms: C11_13  and  C12_14 
REMARK    5  A    between atoms: C12_14  and  C13_15 
REMARK    6  A    between atoms: C13_15  and  C14_16 
REMARK    7  A    between atoms: C14_16  and  N2_17 
REMARK    8  A    between atoms: C15_18  and  O2_19 
REMARK    9  A    between atoms: C18_23  and  O3_24 
ROOT
HETATM    1  C1  UNL     1      -8.273   0.136   0.513  1.00  0.00     0.011 C 
HETATM    2  C2  UNL     1      -6.762   0.118   0.804  1.00  0.00    -0.010 C 
HETATM    3  C3  UNL     1      -6.240  -1.155   0.173  1.00  0.00    -0.010 C 
HETATM    4  C4  UNL     1      -6.556  -0.853  -1.301  1.00  0.00     0.005 C 
HETATM    5  C5  UNL     1      -6.434   0.637  -1.439  1.00  0.00     0.005 C 
HETATM    6  C6  UNL     1      -6.136   1.164  -0.024  1.00  0.00    -0.007 C 
HETATM    7  C7  UNL     1      -4.708   1.440   0.130  1.00  0.00     0.058 C 
HETATM    8  C8  UNL     1      -4.048   0.943   1.378  1.00  0.00     0.149 C 
HETATM    9  C9  UNL     1      -4.626   1.746   2.494  1.00  0.00     0.098 C 
HETATM   10  N1  UNL     1      -5.097   2.367   3.362  1.00  0.00    -0.194 NA
HETATM   11  C26 UNL     1      -4.267  -0.531   1.610  1.00  0.00     0.054 C 
HETATM   12  C27 UNL     1      -4.771  -1.262   0.410  1.00  0.00     0.009 C 
ENDROOT
BRANCH   8  13
HETATM   13  O1  UNL     1      -2.716   1.212   1.433  1.00  0.00    -0.365 OA
BRANCH  13  14
HETATM   14  C10 UNL     1      -1.903   0.707   0.467  1.00  0.00     0.170 C 
BRANCH  14  15
HETATM   15  C11 UNL     1      -0.493   1.153   0.779  1.00  0.00     0.026 C 
BRANCH  15  16
HETATM   16  C12 UNL     1       0.539   0.696  -0.189  1.00  0.00     0.004 C 
BRANCH  16  17
HETATM   17  C13 UNL     1       0.597  -0.806  -0.252  1.00  0.00     0.020 C 
BRANCH  17  18
HETATM   18  C14 UNL     1       1.644  -1.327  -1.213  1.00  0.00     0.133 C 
BRANCH  18  19
HETATM   19  N2  UNL     1       2.983  -0.920  -0.896  1.00  0.00    -0.308 N 
HETATM   20  C15 UNL     1       3.810  -1.605  -0.083  1.00  0.00     0.151 A 
HETATM   21  C16 UNL     1       5.003  -0.949  -0.001  1.00  0.00     0.009 A 
HETATM   22  C17 UNL     1       4.903   0.177  -0.792  1.00  0.00     0.009 A 
HETATM   23  C22 UNL     1       6.367  -0.948   0.589  1.00  0.00     0.032 C 
HETATM   24  C18 UNL     1       3.638   0.172  -1.337  1.00  0.00     0.151 A 
HETATM   25  C19 UNL     1       6.205   0.887  -0.700  1.00  0.00     0.032 C 
HETATM   26  C20 UNL     1       6.314   1.441   0.691  1.00  0.00     0.011 C 
HETATM   27  C23 UNL     1       7.152  -0.321  -0.577  1.00  0.00    -0.032 C 
HETATM   28  C21 UNL     1       6.421   0.188   1.575  1.00  0.00     0.011 C 
HETATM   29  C24 UNL     1       7.122  -1.185  -1.788  1.00  0.00     0.016 C 
HETATM   30  C25 UNL     1       8.524   0.088  -0.175  1.00  0.00     0.016 C 
BRANCH  20  31
HETATM   31  O2  UNL     1       3.541  -2.799   0.594  1.00  0.00    -0.345 OA
ATOM     32  H2  UNL     1       4.124  -3.282   1.167  1.00  0.00     0.219 HD
ENDBRANCH  20  31
BRANCH  24  33
HETATM   33  O3  UNL     1       3.089   1.114  -2.202  1.00  0.00    -0.345 OA
ATOM     34  H3  UNL     1       3.551   1.884  -2.513  1.00  0.00     0.219 HD
ENDBRANCH  24  33
ENDBRANCH  18  19
ENDBRANCH  17  18
ENDBRANCH  16  17
ENDBRANCH  15  16
ENDBRANCH  14  15
ENDBRANCH  13  14
ENDBRANCH   8  13
TORSDOF 9
