REMARK  9 active torsions:
REMARK  status: ('A' for Active; 'I' for Inactive)
REMARK    1  A    between atoms: C4_4  and  C5_5 
REMARK    2  A    between atoms: C5_5  and  C6_6 
REMARK    3  A    between atoms: C6_6  and  C7_7 
REMARK    4  A    between atoms: C9_9  and  C10_10 
REMARK    5  A    between atoms: C10_10  and  C11_11 
REMARK    6  A    between atoms: C12_15  and  C13_16 
REMARK    7  A    between atoms: C13_16  and  C14_18 
REMARK    8  A    between atoms: C24_28  and  O3_29 
REMARK    9  A    between atoms: C27_33  and  O4_34 
ROOT
HETATM    1  C11 UNL     1       1.846  -1.371  -1.727  1.00  0.00     0.115 A 
HETATM    2  O1  UNL     1       1.029  -2.363  -1.517  1.00  0.00    -0.239 OA
HETATM    3  N1  UNL     1      -0.138  -1.940  -1.150  1.00  0.00    -0.255 N 
ATOM      4  H1  UNL     1      -0.926  -2.551  -0.935  1.00  0.00     0.195 HD
HETATM    5  C12 UNL     1      -0.186  -0.593  -1.086  1.00  0.00     0.136 A 
HETATM    6  C27 UNL     1       1.117  -0.232  -1.465  1.00  0.00     0.130 A 
ENDROOT
BRANCH   5   7
HETATM    7  C13 UNL     1      -1.282   0.298  -0.702  1.00  0.00     0.185 C 
HETATM    8  O2  UNL     1      -0.989   1.519  -0.714  1.00  0.00    -0.290 OA
BRANCH   7   9
HETATM    9  C14 UNL     1      -2.547  -0.296  -0.360  1.00  0.00     0.073 C 
HETATM   10  C15 UNL     1      -3.135  -0.958  -1.579  1.00  0.00     0.013 C 
HETATM   11  C16 UNL     1      -3.981  -2.112  -1.116  1.00  0.00     0.002 C 
HETATM   12  C17 UNL     1      -4.364  -1.936   0.333  1.00  0.00     0.010 C 
HETATM   13  C18 UNL     1      -4.710  -0.494   0.679  1.00  0.00    -0.034 C 
HETATM   14  C19 UNL     1      -5.132  -0.514   2.143  1.00  0.00     0.016 C 
HETATM   15  C20 UNL     1      -5.924  -0.150  -0.119  1.00  0.00     0.010 C 
HETATM   16  C25 UNL     1      -3.537   0.452   0.456  1.00  0.00     0.000 C 
HETATM   17  C21 UNL     1      -6.392   1.218   0.237  1.00  0.00     0.007 C 
HETATM   18  C22 UNL     1      -5.331   2.223   0.347  1.00  0.00     0.011 C 
HETATM   19  C23 UNL     1      -5.670   3.388  -0.595  1.00  0.00     0.012 C 
HETATM   20  C24 UNL     1      -3.933   1.804   0.015  1.00  0.00     0.131 C 
HETATM   21  C26 UNL     1      -2.895   0.617   1.847  1.00  0.00     0.019 C 
BRANCH  20  22
HETATM   22  O3  UNL     1      -3.148   2.792   0.670  1.00  0.00    -0.394 OA
ATOM     23  H3  UNL     1      -2.261   2.526   0.459  1.00  0.00     0.210 HD
ENDBRANCH  20  22
ENDBRANCH   7   9
ENDBRANCH   5   7
BRANCH   6  24
HETATM   24  O4  UNL     1       1.569   1.075  -1.554  1.00  0.00    -0.356 OA
ATOM     25  H4  UNL     1       1.066   1.861  -1.373  1.00  0.00     0.218 HD
ENDBRANCH   6  24
BRANCH   1  26
HETATM   26  C10 UNL     1       3.263  -1.437  -2.156  1.00  0.00     0.097 C 
BRANCH  26  27
HETATM   27  C9  UNL     1       4.123  -1.156  -0.942  1.00  0.00    -0.018 C 
HETATM   28  C7  UNL     1       4.985  -2.030  -0.500  1.00  0.00    -0.087 C 
HETATM   29  C8  UNL     1       5.093  -3.357  -1.252  1.00  0.00     0.043 C 
BRANCH  28  30
HETATM   30  C6  UNL     1       5.854  -1.834   0.659  1.00  0.00     0.037 C 
BRANCH  30  31
HETATM   31  C5  UNL     1       5.774  -0.471   1.264  1.00  0.00     0.031 C 
BRANCH  31  32
HETATM   32  C4  UNL     1       6.294   0.617   0.411  1.00  0.00    -0.024 C 
HETATM   33  C2  UNL     1       7.276   1.405   0.856  1.00  0.00    -0.091 C 
HETATM   34  C1  UNL     1       7.823   1.163   2.208  1.00  0.00     0.042 C 
HETATM   35  C3  UNL     1       7.769   2.484  -0.027  1.00  0.00     0.042 C 
ENDBRANCH  31  32
ENDBRANCH  30  31
ENDBRANCH  28  30
ENDBRANCH  26  27
ENDBRANCH   1  26
TORSDOF 9
