REMARK  0 active torsions:
REMARK  status: ('A' for Active; 'I' for Inactive)
ROOT
HETATM    1  C1  UNL     1      -1.701   0.379   0.102  1.00  0.00     0.021 C 
HETATM    2  C2  UNL     1      -0.353   0.028   0.663  1.00  0.00     0.044 C 
HETATM    3  C3  UNL     1       0.545  -0.645  -0.361  1.00  0.00     0.025 C 
HETATM    4  C4  UNL     1       1.793   0.186  -0.212  1.00  0.00     0.075 C 
HETATM    5  S1  UNL     1       0.838   1.375   0.750  1.00  0.00    -0.165 SA
ENDROOT
TORSDOF 0
