REMARK  10 active torsions:
REMARK  status: ('A' for Active; 'I' for Inactive)
REMARK    1  A    between atoms: C4_4  and  N1_5 
REMARK       I    between atoms: N1_5  and  C5_7 
REMARK       I    between atoms: C5_7  and  N2_9 
REMARK    2  A    between atoms: C7_16  and  S1_17 
REMARK    3  A    between atoms: S1_17  and  S2_18 
REMARK    4  A    between atoms: S2_18  and  C8_19 
REMARK    5  A    between atoms: C8_19  and  C9_20 
REMARK    6  A    between atoms: C9_20  and  C10_22 
REMARK    7  A    between atoms: C10_22  and  N5_24 
REMARK    8  A    between atoms: N5_24  and  N6_26 
REMARK       I    between atoms: N6_26  and  C12_28 
REMARK    9  A    between atoms: C14_34  and  O6_35 
REMARK   10  A    between atoms: C17_39  and  O7_40 
ROOT
HETATM    1  N1  UNL     1       4.379  -0.880  -0.012  1.00  0.00    -0.306 N 
ATOM      2  H1  UNL     1       4.546  -1.736   0.517  1.00  0.00     0.171 HD
HETATM    3  C5  UNL     1       3.080  -0.655  -0.471  1.00  0.00     0.326 C 
HETATM    4  O1  UNL     1       2.808   0.396  -1.177  1.00  0.00    -0.247 OA
HETATM    5  N2  UNL     1       2.021  -1.498  -0.212  1.00  0.00    -0.288 N 
ATOM      6  H2  UNL     1       2.239  -2.480  -0.381  1.00  0.00     0.172 HD
HETATM    7  C6  UNL     1       0.833  -1.313   0.192  1.00  0.00     0.201 A 
HETATM    8  N3  UNL     1       0.024  -2.429   0.341  1.00  0.00    -0.278 N 
ATOM      9  H3  UNL     1       0.397  -3.363   0.171  1.00  0.00     0.189 HD
HETATM   10  N4  UNL     1      -1.219  -2.270   0.701  1.00  0.00    -0.271 N 
ATOM     11  H4  UNL     1      -1.793  -3.107   0.802  1.00  0.00     0.189 HD
HETATM   12  C7  UNL     1      -1.799  -1.083   0.949  1.00  0.00     0.216 A 
HETATM   13  O4  UNL     1      -1.004  -0.044   0.804  1.00  0.00    -0.246 OA
HETATM   14  C13 UNL     1       0.247  -0.111   0.449  1.00  0.00     0.336 A 
HETATM   15  O5  UNL     1       0.894   1.002   0.360  1.00  0.00    -0.255 OA
ENDROOT
BRANCH   1  16
HETATM   16  C4  UNL     1       5.498  -0.010  -0.222  1.00  0.00     0.070 A 
HETATM   17  C3  UNL     1       5.352   1.342  -0.520  1.00  0.00     0.042 A 
HETATM   18  C2  UNL     1       6.472   2.157  -0.651  1.00  0.00    -0.026 A 
HETATM   19  C1  UNL     1       6.314   3.606  -0.965  1.00  0.00     0.051 C 
HETATM   20  C17 UNL     1       7.712   1.585  -0.475  1.00  0.00     0.080 A 
HETATM   21  C15 UNL     1       7.867   0.261  -0.181  1.00  0.00     0.007 A 
HETATM   22  C14 UNL     1       6.762  -0.569  -0.046  1.00  0.00     0.101 A 
HETATM   23  C16 UNL     1       9.239  -0.315  -0.028  1.00  0.00     0.054 C 
BRANCH  20  24
HETATM   24  O7  UNL     1       8.804   2.435  -0.616  1.00  0.00    -0.360 OA
ATOM     25  H7  UNL     1       9.660   2.040  -0.495  1.00  0.00     0.217 HD
ENDBRANCH  20  24
BRANCH  22  26
HETATM   26  O6  UNL     1       6.953  -1.921   0.254  1.00  0.00    -0.358 OA
ATOM     27  H6  UNL     1       7.815  -2.302   0.374  1.00  0.00     0.217 HD
ENDBRANCH  22  26
ENDBRANCH   1  16
BRANCH  12  28
HETATM   28  S1  UNL     1      -3.476  -0.805   1.422  1.00  0.00    -0.007 SA
BRANCH  28  29
HETATM   29  S2  UNL     1      -4.679  -2.487   1.624  1.00  0.00    -0.057 SA
BRANCH  29  30
HETATM   30  C8  UNL     1      -5.470  -2.999   0.104  1.00  0.00     0.114 C 
BRANCH  30  31
HETATM   31  C9  UNL     1      -6.345  -2.092  -0.576  1.00  0.00     0.202 C 
HETATM   32  O2  UNL     1      -6.472  -2.141  -1.841  1.00  0.00    -0.286 OA
BRANCH  31  33
HETATM   33  C10 UNL     1      -7.210  -0.989   0.005  1.00  0.00     0.072 C 
HETATM   34  C11 UNL     1      -7.240  -1.058   1.486  1.00  0.00     0.074 C 
BRANCH  33  35
HETATM   35  N5  UNL     1      -7.027   0.166  -0.703  1.00  0.00    -0.298 N 
ATOM     36  H5  UNL     1      -6.318   0.050  -1.427  1.00  0.00     0.187 HD
BRANCH  35  37
HETATM   37  N6  UNL     1      -7.514   1.377  -0.703  1.00  0.00    -0.254 N 
HETATM   38  C12 UNL     1      -8.584   2.032  -0.062  1.00  0.00     0.347 C 
HETATM   39  N7  UNL     1      -8.796   3.426  -0.360  1.00  0.00    -0.038 NA
HETATM   40  O3  UNL     1      -9.326   1.417   0.732  1.00  0.00    -0.249 OA
ATOM     41  H6  UNL     1      -6.992   2.002  -1.317  1.00  0.00     0.191 HD
ENDBRANCH  35  37
ENDBRANCH  33  35
ENDBRANCH  31  33
ENDBRANCH  30  31
ENDBRANCH  29  30
ENDBRANCH  28  29
ENDBRANCH  12  28
TORSDOF 10
