REMARK  5 active torsions:
REMARK  status: ('A' for Active; 'I' for Inactive)
REMARK    1  A    between atoms: N1_1  and  C1_4 
REMARK    2  A    between atoms: N4_11  and  N5_12 
REMARK    3  A    between atoms: N5_12  and  C3_14 
REMARK    4  A    between atoms: C3_14  and  C4_15 
REMARK    5  A    between atoms: C6_17  and  N6_18 
ROOT
HETATM    1  C1  UNL     1      -4.008   0.115  -0.230  1.00  0.00     0.694 A 
HETATM    2  N2  UNL     1      -3.244   0.066  -1.335  1.00  0.00    -0.021 N 
ATOM      3  H2  UNL     1      -3.689  -0.003  -2.250  1.00  0.00     0.203 HD
HETATM    4  C2  UNL     1      -1.899   0.107  -1.252  1.00  0.00     0.716 A 
HETATM    5  N3  UNL     1      -1.165   0.058  -2.327  1.00  0.00    -0.232 N 
ATOM      6  H31 UNL     1      -0.147   0.089  -2.264  1.00  0.00     0.174 HD
ATOM      7  H32 UNL     1      -1.651  -0.011  -3.221  1.00  0.00     0.174 HD
HETATM    8  N4  UNL     1      -1.256   0.198  -0.070  1.00  0.00    -0.031 N 
HETATM    9  C7  UNL     1      -2.028   0.248   1.035  1.00  0.00     0.374 A 
HETATM   10  O4  UNL     1      -1.439   0.335   2.162  1.00  0.00    -0.244 OA
HETATM   11  N8  UNL     1      -3.372   0.207   0.952  1.00  0.00    -0.139 N 
ATOM     12  H8  UNL     1      -3.923   0.247   1.809  1.00  0.00     0.189 HD
ENDROOT
BRANCH   8  13
HETATM   13  N5  UNL     1       0.136   0.242   0.038  1.00  0.00    -0.284 N 
ATOM     14  H5  UNL     1       0.623   1.105  -0.204  1.00  0.00     0.187 HD
BRANCH  13  15
HETATM   15  C3  UNL     1       0.824  -0.774   0.434  1.00  0.00     0.140 C 
BRANCH  15  16
HETATM   16  C4  UNL     1       2.269  -0.747   0.551  1.00  0.00     0.076 A 
HETATM   17  C5  UNL     1       3.065   0.321   0.269  1.00  0.00     0.097 A 
HETATM   18  C6  UNL     1       4.378  -0.077   0.515  1.00  0.00     0.238 A 
HETATM   19  O3  UNL     1       4.323  -1.328   0.923  1.00  0.00    -0.213 OA
HETATM   20  N7  UNL     1       3.079  -1.737   0.949  1.00  0.00    -0.258 N 
ATOM     21  H7  UNL     1       2.773  -2.669   1.230  1.00  0.00     0.195 HD
BRANCH  18  22
HETATM   22  N6  UNL     1       5.529   0.727   0.351  1.00  0.00    -0.088 N 
HETATM   23  O1  UNL     1       5.430   1.892  -0.042  1.00  0.00    -0.530 OA
HETATM   24  O2  UNL     1       6.770   0.216   0.628  1.00  0.00    -0.530 OA
ENDBRANCH  18  22
ENDBRANCH  15  16
ENDBRANCH  13  15
ENDBRANCH   8  13
BRANCH   1  25
HETATM   25  N1  UNL     1      -5.303   0.078  -0.275  1.00  0.00    -0.234 N 
ATOM     26  H12 UNL     1      -5.785   0.008  -1.171  1.00  0.00     0.174 HD
ATOM     27  H11 UNL     1      -5.883   0.115   0.563  1.00  0.00     0.174 HD
ENDBRANCH   1  25
TORSDOF 5
