REMARK  0 active torsions:
REMARK  status: ('A' for Active; 'I' for Inactive)
ROOT
HETATM    1  N1  UNL     1       3.304  -0.325  -0.593  1.00  0.00    -0.195 NA
HETATM    2  C1  UNL     1       2.245  -0.339  -0.127  1.00  0.00     0.095 C 
HETATM    3  C2  UNL     1       0.882  -0.376   0.454  1.00  0.00     0.328 C 
HETATM    4  N2  UNL     1       0.147  -1.440  -0.248  1.00  0.00    -0.030 N 
ATOM      5  H21 UNL     1      -0.215  -2.193   0.337  1.00  0.00     0.280 HD
ATOM      6  H22 UNL     1       0.708  -2.058  -0.835  1.00  0.00     0.280 HD
HETATM    7  C3  UNL     1      -0.858  -0.629  -0.946  1.00  0.00     0.505 C 
HETATM    8  N3  UNL     1      -1.263   0.289  -0.062  1.00  0.00     0.125 N 
HETATM    9  C4  UNL     1      -1.058   1.290   0.786  1.00  0.00     0.314 A 
HETATM   10  C5  UNL     1       0.144   0.894   0.183  1.00  0.00     0.297 A 
ENDROOT
TORSDOF 0
