REMARK  13 active torsions:
REMARK  status: ('A' for Active; 'I' for Inactive)
REMARK    1  A    between atoms: C2_2  and  C3_4 
REMARK    2  A    between atoms: C3_4  and  C4_5 
REMARK    3  A    between atoms: C4_5  and  N1_7 
REMARK       I    between atoms: N1_7  and  C6_9 
REMARK    4  A    between atoms: C6_9  and  C7_11 
REMARK    5  A    between atoms: C9_16  and  C10_17 
REMARK    6  A    between atoms: C10_17  and  C11_18 
REMARK    7  A    between atoms: C15_25  and  C16_26 
REMARK    8  A    between atoms: C20_33  and  C21_34 
REMARK    9  A    between atoms: C25_41  and  C26_42 
REMARK   10  A    between atoms: C26_42  and  C27_43 
REMARK   11  A    between atoms: C30_46  and  O7_47 
REMARK   12  A    between atoms: C31_51  and  C32_52 
REMARK   13  A    between atoms: C32_52  and  C33_53 
ROOT
HETATM    1  C7  UNL     1       1.850   0.645  -0.457  1.00  0.00     0.192 C 
HETATM    2  C8  UNL     1       1.129   1.213   0.660  1.00  0.00     0.233 C 
HETATM    3  O3  UNL     1       0.945   0.505   1.695  1.00  0.00    -0.273 OA
HETATM    4  N2  UNL     1       0.593   2.523   0.716  1.00  0.00    -0.347 N 
ATOM      5  H2  UNL     1       0.818   3.088   1.535  1.00  0.00     0.163 HD
HETATM    6  C9  UNL     1      -0.262   3.132  -0.314  1.00  0.00     0.177 C 
HETATM    7  C14 UNL     1      -1.319   3.848   0.495  1.00  0.00     0.241 C 
HETATM    8  O4  UNL     1      -0.963   4.966   0.978  1.00  0.00    -0.271 OA
HETATM    9  N3  UNL     1      -2.613   3.344   0.722  1.00  0.00    -0.346 N 
ATOM     10  H3  UNL     1      -3.396   3.953   0.486  1.00  0.00     0.163 HD
HETATM   11  C15 UNL     1      -2.933   2.039   1.260  1.00  0.00     0.180 C 
HETATM   12  C19 UNL     1      -4.281   1.656   0.780  1.00  0.00     0.241 C 
HETATM   13  O5  UNL     1      -5.261   2.328   1.194  1.00  0.00    -0.271 OA
HETATM   14  N4  UNL     1      -4.529   0.596  -0.104  1.00  0.00    -0.346 N 
ATOM     15  H4  UNL     1      -5.289   0.714  -0.773  1.00  0.00     0.163 HD
HETATM   16  C20 UNL     1      -3.796  -0.652  -0.146  1.00  0.00     0.180 C 
HETATM   17  C24 UNL     1      -2.725  -0.582  -1.165  1.00  0.00     0.241 C 
HETATM   18  O6  UNL     1      -2.664   0.478  -1.880  1.00  0.00    -0.271 OA
HETATM   19  N5  UNL     1      -1.776  -1.620  -1.385  1.00  0.00    -0.347 N 
ATOM     20  H5  UNL     1      -1.355  -1.694  -2.311  1.00  0.00     0.163 HD
HETATM   21  C25 UNL     1      -1.368  -2.583  -0.372  1.00  0.00     0.159 C 
HETATM   22  C30 UNL     1      -0.100  -2.280   0.299  1.00  0.00     0.135 C 
HETATM   23  N6  UNL     1       1.078  -1.698  -0.141  1.00  0.00    -0.367 N 
ATOM     24  H6  UNL     1       1.915  -2.103   0.279  1.00  0.00     0.161 HD
HETATM   25  C31 UNL     1       1.355  -0.648  -1.062  1.00  0.00     0.105 C 
ENDROOT
BRANCH   1  26
HETATM   26  C6  UNL     1       3.323   0.606  -0.138  1.00  0.00     0.233 C 
HETATM   27  N1  UNL     1       3.814  -0.069   1.019  1.00  0.00    -0.356 N 
ATOM     28  H1  UNL     1       3.144  -0.530   1.634  1.00  0.00     0.162 HD
HETATM   29  O2  UNL     1       4.190   1.162  -0.870  1.00  0.00    -0.273 OA
BRANCH  27  30
HETATM   30  C4  UNL     1       5.205  -0.129   1.356  1.00  0.00     0.087 C 
HETATM   31  C5  UNL     1       5.714  -1.543   1.366  1.00  0.00     0.032 C 
BRANCH  30  32
HETATM   32  C3  UNL     1       5.510   0.518   2.689  1.00  0.00     0.102 C 
BRANCH  32  33
HETATM   33  C2  UNL     1       6.985   0.502   2.887  1.00  0.00     0.125 C 
HETATM   34  C1  UNL     1       7.611   1.072   4.122  1.00  0.00     0.091 C 
HETATM   35  O1  UNL     1       7.737   0.026   2.053  1.00  0.00    -0.298 OA
ENDBRANCH  32  33
ENDBRANCH  30  32
ENDBRANCH  27  30
ENDBRANCH   1  26
BRANCH  25  36
HETATM   36  C32 UNL     1       2.572  -1.108  -1.894  1.00  0.00     0.030 C 
BRANCH  36  37
HETATM   37  C33 UNL     1       2.392  -2.364  -2.644  1.00  0.00    -0.021 C 
HETATM   38  C34 UNL     1       1.301  -2.303  -3.660  1.00  0.00     0.009 C 
HETATM   39  C35 UNL     1       3.703  -2.575  -3.426  1.00  0.00     0.009 C 
ENDBRANCH  36  37
ENDBRANCH  25  36
BRANCH   6  40
HETATM   40  C10 UNL     1       0.547   4.145  -1.079  1.00  0.00     0.038 C 
BRANCH  40  41
HETATM   41  C11 UNL     1      -0.090   4.838  -2.205  1.00  0.00    -0.020 C 
HETATM   42  C12 UNL     1      -1.291   5.668  -1.964  1.00  0.00     0.009 C 
HETATM   43  C13 UNL     1       1.005   5.623  -2.933  1.00  0.00     0.009 C 
ENDBRANCH  40  41
ENDBRANCH   6  40
BRANCH  22  44
HETATM   44  O7  UNL     1      -0.077  -2.629   1.556  1.00  0.00    -0.348 OA
ATOM     45  H7  UNL     1       0.745  -2.433   1.991  1.00  0.00     0.219 HD
ENDBRANCH  22  44
BRANCH  21  46
HETATM   46  C26 UNL     1      -1.509  -3.929  -0.968  1.00  0.00     0.037 C 
BRANCH  46  47
HETATM   47  C27 UNL     1      -1.184  -5.131  -0.197  1.00  0.00    -0.020 C 
HETATM   48  C28 UNL     1      -1.956  -5.333   1.067  1.00  0.00     0.009 C 
HETATM   49  C29 UNL     1       0.286  -5.343  -0.036  1.00  0.00     0.009 C 
ENDBRANCH  46  47
ENDBRANCH  21  46
BRANCH  11  50
HETATM   50  C16 UNL     1      -2.926   2.188   2.773  1.00  0.00     0.009 C 
HETATM   51  C17 UNL     1      -3.924   3.188   3.250  1.00  0.00     0.012 C 
HETATM   52  C18 UNL     1      -3.126   0.867   3.442  1.00  0.00     0.012 C 
ENDBRANCH  11  50
BRANCH  16  53
HETATM   53  C21 UNL     1      -4.824  -1.741  -0.467  1.00  0.00     0.009 C 
HETATM   54  C22 UNL     1      -5.449  -1.414  -1.803  1.00  0.00     0.012 C 
HETATM   55  C23 UNL     1      -5.925  -1.578   0.577  1.00  0.00     0.012 C 
ENDBRANCH  16  53
TORSDOF 13
