REMARK  13 active torsions:
REMARK  status: ('A' for Active; 'I' for Inactive)
REMARK    1  A    between atoms: C2_2  and  C4_4 
REMARK    2  A    between atoms: C4_4  and  C5_5 
REMARK    3  A    between atoms: C7_10  and  C8_11 
REMARK    4  A    between atoms: C8_11  and  C9_12 
REMARK    5  A    between atoms: C9_12  and  C10_13 
REMARK    6  A    between atoms: C10_13  and  C11_14 
REMARK    7  A    between atoms: C11_14  and  N2_15 
REMARK    8  A    between atoms: C13_23  and  C14_24 
REMARK    9  A    between atoms: C19_32  and  C20_33 
REMARK   10  A    between atoms: C20_33  and  C21_34 
REMARK   11  A    between atoms: C25_41  and  C26_42 
REMARK   12  A    between atoms: C30_49  and  C31_50 
REMARK   13  A    between atoms: C31_50  and  C32_51 
ROOT
HETATM    1  C5  UNL     1       2.012   0.929  -1.251  1.00  0.00     0.177 C 
HETATM    2  N1  UNL     1       2.027   0.771   0.187  1.00  0.00    -0.346 N 
ATOM      3  H1  UNL     1       2.410   1.559   0.710  1.00  0.00     0.163 HD
HETATM    4  C6  UNL     1       1.594  -0.302   0.957  1.00  0.00     0.241 C 
HETATM    5  O1  UNL     1       0.692  -0.032   1.842  1.00  0.00    -0.271 OA
HETATM    6  C7  UNL     1       2.042  -1.716   0.884  1.00  0.00     0.176 C 
HETATM    7  N3  UNL     1       2.116  -2.267  -0.435  1.00  0.00    -0.347 N 
ATOM      8  H3  UNL     1       3.003  -2.088  -0.906  1.00  0.00     0.163 HD
HETATM    9  C12 UNL     1       1.209  -3.003  -1.202  1.00  0.00     0.224 C 
HETATM   10  O2  UNL     1       1.559  -4.205  -1.543  1.00  0.00    -0.273 OA
HETATM   11  C13 UNL     1      -0.120  -2.651  -1.717  1.00  0.00     0.100 C 
HETATM   12  C17 UNL     1      -1.068  -1.968  -0.812  1.00  0.00     0.137 C 
HETATM   13  N4  UNL     1      -1.311  -2.702   0.409  1.00  0.00    -0.358 N 
ATOM     14  H4  UNL     1      -0.779  -3.557   0.570  1.00  0.00     0.162 HD
HETATM   15  C18 UNL     1      -2.238  -2.305   1.387  1.00  0.00     0.240 C 
HETATM   16  O3  UNL     1      -2.260  -2.933   2.475  1.00  0.00    -0.271 OA
HETATM   17  C19 UNL     1      -3.196  -1.166   1.176  1.00  0.00     0.177 C 
HETATM   18  N5  UNL     1      -2.859  -0.050   2.038  1.00  0.00    -0.346 N 
ATOM     19  H5  UNL     1      -2.474  -0.282   2.954  1.00  0.00     0.163 HD
HETATM   20  C24 UNL     1      -3.005   1.306   1.749  1.00  0.00     0.241 C 
HETATM   21  O4  UNL     1      -3.383   2.069   2.698  1.00  0.00    -0.271 OA
HETATM   22  C25 UNL     1      -2.768   1.975   0.445  1.00  0.00     0.180 C 
HETATM   23  N6  UNL     1      -2.389   3.376   0.639  1.00  0.00    -0.346 N 
ATOM     24  H6  UNL     1      -2.993   3.945   1.232  1.00  0.00     0.163 HD
HETATM   25  C29 UNL     1      -1.269   3.999   0.080  1.00  0.00     0.241 C 
HETATM   26  O5  UNL     1      -1.393   5.162  -0.386  1.00  0.00    -0.271 OA
HETATM   27  C30 UNL     1       0.107   3.390  -0.018  1.00  0.00     0.177 C 
HETATM   28  N7  UNL     1       0.355   2.906  -1.355  1.00  0.00    -0.346 N 
ATOM     29  H7  UNL     1       0.175   3.570  -2.108  1.00  0.00     0.163 HD
HETATM   30  C35 UNL     1       0.811   1.643  -1.753  1.00  0.00     0.241 C 
HETATM   31  O6  UNL     1       0.136   1.018  -2.649  1.00  0.00    -0.271 OA
ENDROOT
BRANCH   6  32
HETATM   32  C8  UNL     1       3.441  -1.814   1.569  1.00  0.00     0.035 C 
BRANCH  32  33
HETATM   33  C9  UNL     1       3.923  -3.233   1.512  1.00  0.00     0.004 C 
BRANCH  33  34
HETATM   34  C10 UNL     1       5.250  -3.487   2.117  1.00  0.00     0.027 C 
BRANCH  34  35
HETATM   35  C11 UNL     1       5.224  -3.116   3.579  1.00  0.00     0.229 C 
BRANCH  35  36
HETATM   36  N2  UNL     1       6.537  -3.378   4.172  1.00  0.00    -0.079 N 
ATOM     37  H23 UNL     1       6.842  -4.340   4.024  1.00  0.00     0.274 HD
ATOM     38  H22 UNL     1       7.289  -2.907   3.668  1.00  0.00     0.274 HD
ATOM     39  H21 UNL     1       6.519  -3.127   5.161  1.00  0.00     0.274 HD
ENDBRANCH  35  36
ENDBRANCH  34  35
ENDBRANCH  33  34
ENDBRANCH  32  33
ENDBRANCH   6  32
BRANCH   1  40
HETATM   40  C4  UNL     1       3.291   1.689  -1.648  1.00  0.00     0.038 C 
BRANCH  40  41
HETATM   41  C2  UNL     1       3.371   1.904  -3.128  1.00  0.00    -0.020 C 
HETATM   42  C1  UNL     1       3.373   0.540  -3.791  1.00  0.00     0.009 C 
HETATM   43  C3  UNL     1       4.670   2.626  -3.409  1.00  0.00     0.009 C 
ENDBRANCH  40  41
ENDBRANCH   1  40
BRANCH  11  44
HETATM   44  C14 UNL     1      -0.826  -3.907  -2.227  1.00  0.00     0.000 A 
HETATM   45  C15 UNL     1      -0.201  -4.679  -3.332  1.00  0.00     0.006 A 
HETATM   46  C16 UNL     1      -1.461  -3.866  -3.542  1.00  0.00     0.006 A 
ENDBRANCH  11  44
BRANCH  27  47
HETATM   47  C31 UNL     1       1.141   4.463   0.363  1.00  0.00     0.038 C 
BRANCH  47  48
HETATM   48  C32 UNL     1       0.820   4.892   1.797  1.00  0.00    -0.020 C 
HETATM   49  C33 UNL     1       1.810   5.960   2.241  1.00  0.00     0.009 C 
HETATM   50  C34 UNL     1       0.856   3.700   2.730  1.00  0.00     0.009 C 
ENDBRANCH  47  48
ENDBRANCH  27  47
BRANCH  17  51
HETATM   51  C20 UNL     1      -4.583  -1.607   1.562  1.00  0.00     0.038 C 
BRANCH  51  52
HETATM   52  C21 UNL     1      -5.079  -2.778   0.756  1.00  0.00    -0.020 C 
HETATM   53  C22 UNL     1      -5.143  -2.504  -0.709  1.00  0.00     0.009 C 
HETATM   54  C23 UNL     1      -6.484  -3.085   1.247  1.00  0.00     0.009 C 
ENDBRANCH  51  52
ENDBRANCH  17  51
BRANCH  22  55
HETATM   55  C26 UNL     1      -3.965   1.976  -0.463  1.00  0.00     0.009 C 
HETATM   56  C27 UNL     1      -3.548   2.691  -1.737  1.00  0.00     0.012 C 
HETATM   57  C28 UNL     1      -5.139   2.741   0.106  1.00  0.00     0.012 C 
ENDBRANCH  22  55
TORSDOF 13
