REMARK  12 active torsions:
REMARK  status: ('A' for Active; 'I' for Inactive)
REMARK    1  A    between atoms: C2_2  and  C3_3 
REMARK    2  A    between atoms: C3_3  and  C4_4 
REMARK    3  A    between atoms: C4_4  and  N1_5 
REMARK    4  A    between atoms: C6_8  and  N3_9 
REMARK    5  A    between atoms: N3_9  and  C7_10 
REMARK    6  A    between atoms: N3_9  and  C17_20 
REMARK    7  A    between atoms: C7_10  and  C8_11 
REMARK    8  A    between atoms: C8_11  and  C9_12 
REMARK    9  A    between atoms: C9_12  and  C10_13 
REMARK   10  A    between atoms: C10_13  and  C11_14 
REMARK   11  A    between atoms: C17_20  and  O1_21 
REMARK   12  A    between atoms: C20_27  and  C21_28 
REMARK       I    between atoms: C21_28  and  N5_30 
ROOT
HETATM    1  N3  UNL     1      -0.918   1.937  -0.712  1.00  0.00    -0.319 N 
ENDROOT
BRANCH   1   2
HETATM    2  C6  UNL     1      -0.690   3.362  -0.408  1.00  0.00     0.147 A 
HETATM    3  C5  UNL     1       0.373   3.819   0.296  1.00  0.00     0.155 A 
HETATM    4  N1  UNL     1       0.440   5.167   0.495  1.00  0.00    -0.285 N 
HETATM    5  N2  UNL     1       1.357   2.949   0.794  1.00  0.00    -0.080 NA
HETATM    6  C27 UNL     1      -0.488   6.017   0.027  1.00  0.00     0.330 A 
HETATM    7  N7  UNL     1      -1.542   5.539  -0.674  1.00  0.00    -0.273 N 
HETATM    8  O5  UNL     1      -0.415   7.268   0.217  1.00  0.00    -0.246 OA
HETATM    9  C26 UNL     1      -1.670   4.221  -0.906  1.00  0.00     0.279 A 
ATOM     10  H7  UNL     1      -2.246   6.185  -1.030  1.00  0.00     0.173 HD
HETATM   11  O4  UNL     1      -2.634   3.748  -1.551  1.00  0.00    -0.265 OA
BRANCH   4  12
HETATM   12  C4  UNL     1       1.549   5.703   1.235  1.00  0.00     0.135 C 
BRANCH  12  13
HETATM   13  C3  UNL     1       2.727   6.061   0.361  1.00  0.00     0.020 C 
BRANCH  13  14
HETATM   14  C2  UNL     1       3.805   6.609   1.288  1.00  0.00    -0.003 C 
HETATM   15  C1  UNL     1       5.051   7.007   0.505  1.00  0.00     0.005 C 
ENDBRANCH  13  14
ENDBRANCH  12  13
ENDBRANCH   4  12
ENDBRANCH   1   2
BRANCH   1  16
HETATM   16  C7  UNL     1      -0.484   1.518  -1.993  1.00  0.00     0.131 C 
BRANCH  16  17
HETATM   17  C8  UNL     1       0.920   1.141  -2.207  1.00  0.00     0.020 C 
BRANCH  17  18
HETATM   18  C9  UNL     1       1.550   0.002  -1.548  1.00  0.00     0.002 C 
BRANCH  18  19
HETATM   19  C10 UNL     1       1.047  -1.370  -1.920  1.00  0.00     0.005 C 
BRANCH  19  20
HETATM   20  C11 UNL     1       1.749  -2.464  -1.157  1.00  0.00    -0.014 C 
HETATM   21  C12 UNL     1       1.588  -2.367   0.329  1.00  0.00     0.004 C 
HETATM   22  C13 UNL     1       1.979  -3.742   0.890  1.00  0.00     0.000 C 
HETATM   23  C14 UNL     1       3.383  -4.100   0.517  1.00  0.00     0.000 C 
HETATM   24  C15 UNL     1       3.729  -3.868  -0.912  1.00  0.00     0.000 C 
HETATM   25  C16 UNL     1       3.208  -2.566  -1.471  1.00  0.00     0.004 C 
ENDBRANCH  19  20
ENDBRANCH  18  19
ENDBRANCH  17  18
ENDBRANCH  16  17
ENDBRANCH   1  16
BRANCH   1  26
HETATM   26  C17 UNL     1      -1.473   1.224   0.341  1.00  0.00     0.172 C 
HETATM   27  C18 UNL     1      -2.111  -0.070   0.417  1.00  0.00     0.101 A 
HETATM   28  C19 UNL     1      -2.540  -0.629   1.631  1.00  0.00     0.123 A 
HETATM   29  N6  UNL     1      -2.435  -1.003  -0.465  1.00  0.00    -0.333 N 
HETATM   30  N4  UNL     1      -3.076  -1.829   1.385  1.00  0.00    -0.345 N 
HETATM   31  C20 UNL     1      -3.019  -2.081   0.076  1.00  0.00     0.175 A 
ATOM     32  H4  UNL     1      -3.468  -2.455   2.089  1.00  0.00     0.167 HD
ATOM     33  H6  UNL     1      -2.256  -0.910  -1.465  1.00  0.00     0.168 HD
BRANCH  26  34
HETATM   34  O1  UNL     1      -1.403   1.866   1.484  1.00  0.00    -0.344 OA
ATOM     35  H1  UNL     1      -1.783   1.378   2.205  1.00  0.00     0.219 HD
ENDBRANCH  26  34
BRANCH  31  36
HETATM   36  C21 UNL     1      -3.492  -3.285  -0.626  1.00  0.00     0.287 C 
HETATM   37  O2  UNL     1      -3.330  -3.320  -1.889  1.00  0.00    -0.264 OA
HETATM   38  N5  UNL     1      -4.098  -4.372   0.012  1.00  0.00    -0.342 N 
HETATM   39  C22 UNL     1      -4.306  -4.375   1.443  1.00  0.00     0.152 C 
HETATM   40  C25 UNL     1      -4.517  -5.509  -0.776  1.00  0.00     0.152 C 
HETATM   41  C23 UNL     1      -5.096  -5.612   1.861  1.00  0.00     0.187 C 
HETATM   42  O3  UNL     1      -6.153  -5.774   0.965  1.00  0.00    -0.388 OA
HETATM   43  C24 UNL     1      -5.638  -6.300  -0.206  1.00  0.00     0.187 C 
ENDBRANCH  31  36
ENDBRANCH   1  26
TORSDOF 12
