REMARK  15 active torsions:
REMARK  status: ('A' for Active; 'I' for Inactive)
REMARK    1  A    between atoms: C2_2  and  C3_3 
REMARK    2  A    between atoms: C3_3  and  C5_5 
REMARK    3  A    between atoms: C6_8  and  O1_9 
REMARK    4  A    between atoms: N2_11  and  C7_12 
REMARK    5  A    between atoms: C7_12  and  C9_14 
REMARK       I    between atoms: C9_14  and  N3_15 
REMARK    6  A    between atoms: C11_21  and  C12_22 
REMARK    7  A    between atoms: C12_22  and  C13_23 
REMARK    8  A    between atoms: C16_28  and  O4_29 
REMARK    9  A    between atoms: C17_31  and  C18_32 
REMARK   10  A    between atoms: C18_32  and  C19_33 
REMARK   11  A    between atoms: C23_40  and  C24_41 
REMARK   12  A    between atoms: C24_41  and  C25_42 
REMARK   13  A    between atoms: C29_49  and  C30_50 
REMARK   14  A    between atoms: C30_50  and  C31_51 
REMARK   15  A    between atoms: C34_56  and  O7_57 
ROOT
HETATM    1  C5  UNL     1      -0.413  -2.336  -0.874  1.00  0.00     0.163 C 
HETATM    2  N1  UNL     1       0.626  -1.485  -1.365  1.00  0.00    -0.344 N 
ATOM      3  H1  UNL     1       0.297  -0.594  -1.736  1.00  0.00     0.164 HD
HETATM    4  C6  UNL     1       2.027  -1.658  -1.428  1.00  0.00     0.223 C 
HETATM    5  N2  UNL     1       3.016  -1.745  -0.408  1.00  0.00    -0.269 N 
HETATM    6  C10 UNL     1       3.286  -0.671   0.555  1.00  0.00     0.250 C 
HETATM    7  O3  UNL     1       3.431  -1.066   1.741  1.00  0.00    -0.271 OA
HETATM    8  C11 UNL     1       3.389   0.745   0.257  1.00  0.00     0.176 C 
HETATM    9  N4  UNL     1       2.811   1.604   1.296  1.00  0.00    -0.359 N 
ATOM     10  H4  UNL     1       3.525   2.070   1.856  1.00  0.00     0.162 HD
HETATM   11  C16 UNL     1       1.557   1.927   1.690  1.00  0.00     0.135 C 
HETATM   12  C17 UNL     1       0.354   2.544   1.072  1.00  0.00     0.159 C 
HETATM   13  N5  UNL     1      -0.816   1.832   1.507  1.00  0.00    -0.347 N 
ATOM     14  H5  UNL     1      -0.622   0.908   1.892  1.00  0.00     0.163 HD
HETATM   15  C22 UNL     1      -2.175   2.174   1.500  1.00  0.00     0.241 C 
HETATM   16  O5  UNL     1      -2.773   2.025   2.639  1.00  0.00    -0.271 OA
HETATM   17  C23 UNL     1      -3.008   2.665   0.412  1.00  0.00     0.177 C 
HETATM   18  N6  UNL     1      -3.117   1.816  -0.726  1.00  0.00    -0.346 N 
ATOM     19  H6  UNL     1      -3.337   2.289  -1.603  1.00  0.00     0.163 HD
HETATM   20  C28 UNL     1      -2.964   0.410  -0.818  1.00  0.00     0.241 C 
HETATM   21  O6  UNL     1      -2.496   0.025  -1.915  1.00  0.00    -0.271 OA
HETATM   22  C29 UNL     1      -3.285  -0.608   0.187  1.00  0.00     0.175 C 
HETATM   23  N7  UNL     1      -2.266  -1.423   0.727  1.00  0.00    -0.359 N 
ATOM     24  H7  UNL     1      -2.555  -1.823   1.620  1.00  0.00     0.162 HD
HETATM   25  C34 UNL     1      -0.989  -1.835   0.394  1.00  0.00     0.135 C 
ENDROOT
BRANCH   5  26
HETATM   26  C7  UNL     1       3.752  -3.000  -0.281  1.00  0.00     0.184 C 
HETATM   27  C8  UNL     1       3.775  -3.600   1.070  1.00  0.00     0.043 C 
BRANCH  26  28
HETATM   28  C9  UNL     1       5.138  -2.969  -0.825  1.00  0.00     0.238 C 
HETATM   29  N3  UNL     1       5.760  -2.010  -1.592  1.00  0.00    -0.368 N 
ATOM     30  H32 UNL     1       5.220  -1.182  -1.842  1.00  0.00     0.159 HD
ATOM     31  H31 UNL     1       6.709  -1.989  -1.965  1.00  0.00     0.159 HD
HETATM   32  O2  UNL     1       5.817  -4.011  -0.510  1.00  0.00    -0.271 OA
ENDBRANCH  26  28
ENDBRANCH   5  26
BRANCH   4  33
HETATM   33  O1  UNL     1       2.566  -1.762  -2.632  1.00  0.00    -0.332 OA
ATOM     34  H1  UNL     1       3.508  -1.878  -2.674  1.00  0.00     0.220 HD
ENDBRANCH   4  33
BRANCH   8  35
HETATM   35  C12 UNL     1       4.757   1.284  -0.039  1.00  0.00     0.038 C 
BRANCH  35  36
HETATM   36  C13 UNL     1       5.807   1.295   0.976  1.00  0.00    -0.020 C 
HETATM   37  C14 UNL     1       7.072   1.926   0.289  1.00  0.00     0.009 C 
HETATM   38  C15 UNL     1       6.313   0.064   1.619  1.00  0.00     0.009 C 
ENDBRANCH  35  36
ENDBRANCH   8  35
BRANCH   1  39
HETATM   39  C3  UNL     1      -0.040  -3.775  -0.620  1.00  0.00     0.012 C 
HETATM   40  C4  UNL     1      -1.267  -4.522  -0.120  1.00  0.00     0.012 C 
BRANCH  39  41
HETATM   41  C2  UNL     1       0.401  -4.515  -1.844  1.00  0.00     0.002 C 
HETATM   42  C1  UNL     1       0.729  -5.956  -1.470  1.00  0.00     0.005 C 
ENDBRANCH  39  41
ENDBRANCH   1  39
BRANCH  25  43
HETATM   43  O7  UNL     1      -0.067  -1.810   1.320  1.00  0.00    -0.348 OA
ATOM     44  H7  UNL     1      -0.437  -1.488   2.134  1.00  0.00     0.219 HD
ENDBRANCH  25  43
BRANCH  11  45
HETATM   45  O4  UNL     1       1.277   1.641   2.941  1.00  0.00    -0.348 OA
ATOM     46  H4  UNL     1       0.397   1.868   3.218  1.00  0.00     0.219 HD
ENDBRANCH  11  45
BRANCH  12  47
HETATM   47  C18 UNL     1       0.433   2.845  -0.371  1.00  0.00     0.037 C 
BRANCH  47  48
HETATM   48  C19 UNL     1       1.517   3.862  -0.730  1.00  0.00    -0.020 C 
HETATM   49  C20 UNL     1       1.225   5.162  -0.012  1.00  0.00     0.009 C 
HETATM   50  C21 UNL     1       1.459   4.136  -2.223  1.00  0.00     0.009 C 
ENDBRANCH  47  48
ENDBRANCH  12  47
BRANCH  22  51
HETATM   51  C30 UNL     1      -4.339  -1.581  -0.403  1.00  0.00     0.038 C 
BRANCH  51  52
HETATM   52  C31 UNL     1      -4.681  -2.589   0.648  1.00  0.00    -0.020 C 
HETATM   53  C32 UNL     1      -5.722  -3.579   0.087  1.00  0.00     0.009 C 
HETATM   54  C33 UNL     1      -5.380  -1.895   1.814  1.00  0.00     0.009 C 
ENDBRANCH  51  52
ENDBRANCH  22  51
BRANCH  17  55
HETATM   55  C24 UNL     1      -4.424   2.962   0.885  1.00  0.00     0.038 C 
BRANCH  55  56
HETATM   56  C25 UNL     1      -5.305   3.477  -0.222  1.00  0.00    -0.020 C 
HETATM   57  C26 UNL     1      -4.795   4.756  -0.828  1.00  0.00     0.009 C 
HETATM   58  C27 UNL     1      -6.652   3.816   0.414  1.00  0.00     0.009 C 
ENDBRANCH  55  56
ENDBRANCH  17  55
TORSDOF 15
