REMARK  10 active torsions:
REMARK  status: ('A' for Active; 'I' for Inactive)
REMARK    1  A    between atoms: C5_6  and  C6_7 
REMARK    2  A    between atoms: C5_6  and  C21_28 
REMARK    3  A    between atoms: C6_7  and  O3_9 
REMARK    4  A    between atoms: O3_9  and  C7_10 
REMARK    5  A    between atoms: C10_13  and  C11_14 
REMARK    6  A    between atoms: C11_14  and  O5_16 
REMARK    7  A    between atoms: O5_16  and  C12_17 
REMARK    8  A    between atoms: C12_17  and  C13_18 
REMARK    9  A    between atoms: C13_18  and  C14_19 
REMARK   10  A    between atoms: C14_19  and  N1_20 
ROOT
HETATM    1  C7  UNL     1      -1.073  -0.564   0.085  1.00  0.00     0.132 C 
HETATM    2  C8  UNL     1      -0.231   0.668  -0.098  1.00  0.00     0.033 C 
HETATM    3  C9  UNL     1       1.215   0.226  -0.233  1.00  0.00     0.017 C 
HETATM    4  C10 UNL     1       1.231  -1.127  -0.913  1.00  0.00     0.085 C 
HETATM    5  C19 UNL     1       0.714  -2.210   0.017  1.00  0.00     0.017 C 
HETATM    6  C20 UNL     1      -0.294  -1.529   0.953  1.00  0.00     0.033 C 
ENDROOT
BRANCH   1   7
HETATM    7  O3  UNL     1      -2.362  -0.309   0.560  1.00  0.00    -0.313 OA
BRANCH   7   8
HETATM    8  C6  UNL     1      -3.520  -0.598  -0.148  1.00  0.00     0.306 C 
HETATM    9  O2  UNL     1      -3.354  -1.120  -1.280  1.00  0.00    -0.261 OA
BRANCH   8  10
HETATM   10  C5  UNL     1      -4.891  -0.302   0.414  1.00  0.00     0.277 C 
HETATM   11  O1  UNL     1      -5.791  -0.705  -0.529  1.00  0.00    -0.359 OA
HETATM   12  C4  UNL     1      -7.085  -0.358  -0.360  1.00  0.00     0.178 C 
HETATM   13  C2  UNL     1      -7.322   1.072   0.046  1.00  0.00    -0.023 C 
HETATM   14  C1  UNL     1      -7.323   1.959  -1.188  1.00  0.00     0.017 C 
HETATM   15  C3  UNL     1      -8.743   1.140   0.609  1.00  0.00     0.017 C 
HETATM   16  C23 UNL     1      -6.314   1.598   1.007  1.00  0.00     0.052 C 
HETATM   17  C22 UNL     1      -4.938   1.183   0.619  1.00  0.00     0.225 C 
HETATM   18  F4  UNL     1      -4.045   1.630   1.552  1.00  0.00    -0.245 F 
BRANCH  10  19
HETATM   19  C21 UNL     1      -4.970  -1.084   1.704  1.00  0.00     0.431 C 
HETATM   20  F1  UNL     1      -4.713  -2.420   1.366  1.00  0.00    -0.167 F 
HETATM   21  F2  UNL     1      -3.989  -0.681   2.560  1.00  0.00    -0.167 F 
HETATM   22  F3  UNL     1      -6.176  -1.053   2.308  1.00  0.00    -0.167 F 
ENDBRANCH  10  19
ENDBRANCH   8  10
ENDBRANCH   7   8
ENDBRANCH   1   7
BRANCH   4  23
HETATM   23  C11 UNL     1       2.606  -1.510  -1.297  1.00  0.00     0.263 C 
HETATM   24  O4  UNL     1       2.868  -1.719  -2.504  1.00  0.00    -0.265 OA
BRANCH  23  25
HETATM   25  O5  UNL     1       3.640  -1.654  -0.391  1.00  0.00    -0.321 OA
BRANCH  25  26
HETATM   26  C12 UNL     1       4.962  -2.028  -0.804  1.00  0.00     0.180 C 
BRANCH  26  27
HETATM   27  C13 UNL     1       5.867  -2.103   0.406  1.00  0.00     0.057 C 
BRANCH  27  28
HETATM   28  C14 UNL     1       5.889  -0.754   1.049  1.00  0.00     0.274 C 
BRANCH  28  29
HETATM   29  N1  UNL     1       6.370   0.263   0.174  1.00  0.00     0.092 N 
HETATM   30  C15 UNL     1       6.372   1.579   0.794  1.00  0.00     0.298 C 
HETATM   31  C16 UNL     1       7.150   2.598   0.030  1.00  0.00     0.198 C 
HETATM   32  O6  UNL     1       7.402   2.236  -1.287  1.00  0.00    -0.388 OA
HETATM   33  C17 UNL     1       8.054   1.039  -1.416  1.00  0.00     0.198 C 
HETATM   34  C18 UNL     1       7.689   0.046  -0.331  1.00  0.00     0.298 C 
ENDBRANCH  28  29
ENDBRANCH  27  28
ENDBRANCH  26  27
ENDBRANCH  25  26
ENDBRANCH  23  25
ENDBRANCH   4  23
TORSDOF 10
