REMARK  1 active torsions:
REMARK  status: ('A' for Active; 'I' for Inactive)
REMARK    1  A    between atoms: N3_17  and  C13_18 
ROOT
HETATM    1  C1  UNL     1      -2.026   4.289  -0.275  1.00  0.00     0.002 A 
HETATM    2  C2  UNL     1      -0.669   4.179  -0.487  1.00  0.00     0.002 A 
HETATM    3  C3  UNL     1      -0.101   2.916  -0.421  1.00  0.00     0.032 A 
HETATM    4  C4  UNL     1      -0.838   1.784  -0.155  1.00  0.00     0.067 A 
HETATM    5  C5  UNL     1      -2.183   1.911   0.053  1.00  0.00     0.061 A 
HETATM    6  C6  UNL     1      -2.762   3.156  -0.008  1.00  0.00     0.032 A 
HETATM    7  N1  UNL     1      -2.628   0.686   0.276  1.00  0.00    -0.340 N 
ATOM      8  H1  UNL     1      -3.601   0.445   0.468  1.00  0.00     0.167 HD
HETATM    9  C7  UNL     1      -1.579  -0.230   0.212  1.00  0.00     0.123 A 
HETATM   10  C8  UNL     1      -1.829  -1.616   0.470  1.00  0.00     0.011 A 
HETATM   11  C9  UNL     1      -2.927  -1.916   1.308  1.00  0.00     0.032 A 
HETATM   12  C10 UNL     1      -3.285  -3.219   1.542  1.00  0.00     0.088 A 
HETATM   13  N2  UNL     1      -2.633  -4.266   1.003  1.00  0.00    -0.375 N 
ATOM     14  H2  UNL     1      -2.929  -5.222   1.201  1.00  0.00     0.164 HD
HETATM   15  C11 UNL     1      -1.601  -4.029   0.212  1.00  0.00     0.088 A 
HETATM   16  C12 UNL     1      -1.214  -2.717  -0.044  1.00  0.00     0.032 A 
HETATM   17  N3  UNL     1      -0.469   0.440  -0.050  1.00  0.00    -0.302 N 
ENDROOT
BRANCH  17  18
HETATM   18  C13 UNL     1       0.898   0.076  -0.162  1.00  0.00    -0.004 C 
HETATM   19  C14 UNL     1       1.485  -0.864   0.841  1.00  0.00     0.053 C 
HETATM   20  C15 UNL     1       2.956  -0.436   0.988  1.00  0.00     0.006 C 
HETATM   21  C16 UNL     1       3.658  -0.486  -0.342  1.00  0.00     0.001 C 
HETATM   22  C17 UNL     1       2.920   0.056  -1.501  1.00  0.00     0.006 C 
HETATM   23  C18 UNL     1       1.422  -0.281  -1.514  1.00  0.00     0.053 C 
ENDBRANCH  17  18
TORSDOF 1
