REMARK  8 active torsions:
REMARK  status: ('A' for Active; 'I' for Inactive)
REMARK       I    between atoms: C2_2  and  N1_4 
REMARK    1  A    between atoms: N1_4  and  C3_6 
REMARK    2  A    between atoms: C4_11  and  C5_12 
REMARK    3  A    between atoms: C5_12  and  C6_13 
REMARK    4  A    between atoms: C6_13  and  C7_14 
REMARK    5  A    between atoms: C7_14  and  C8_15 
REMARK    6  A    between atoms: C8_15  and  C9_16 
REMARK       I    between atoms: N6_22  and  C11_24 
REMARK    7  A    between atoms: C11_24  and  C12_26 
REMARK    8  A    between atoms: C12_26  and  N7_29 
REMARK       I    between atoms: N7_29  and  C14_31 
ROOT
HETATM    1  C9  UNL     1       1.243  -0.151   2.089  1.00  0.00     0.069 A 
HETATM    2  N4  UNL     1       1.989  -0.697   3.038  1.00  0.00    -0.296 N 
ATOM      3  H4  UNL     1       1.548  -1.085   3.872  1.00  0.00     0.187 HD
HETATM    4  N5  UNL     1       3.248  -0.739   2.913  1.00  0.00    -0.279 N 
ATOM      5  H5  UNL     1       3.827  -1.158   3.641  1.00  0.00     0.189 HD
HETATM    6  C10 UNL     1       3.806  -0.226   1.813  1.00  0.00     0.167 A 
HETATM    7  N6  UNL     1       5.085  -0.180   1.511  1.00  0.00    -0.303 N 
ATOM      8  H6  UNL     1       5.807  -0.554   2.126  1.00  0.00     0.171 HD
HETATM    9  C11 UNL     1       5.390   0.438   0.247  1.00  0.00     0.263 C 
HETATM   10  O2  UNL     1       5.082   1.621  -0.002  1.00  0.00    -0.269 OA
HETATM   11  S1  UNL     1       2.430   0.326   0.956  1.00  0.00    -0.038 SA
ENDROOT
BRANCH   1  12
HETATM   12  C8  UNL     1      -0.260  -0.004   2.047  1.00  0.00     0.066 C 
BRANCH  12  13
HETATM   13  C7  UNL     1      -0.560   0.688   0.733  1.00  0.00     0.007 C 
BRANCH  13  14
HETATM   14  C6  UNL     1      -2.021   0.917   0.525  1.00  0.00     0.007 C 
BRANCH  14  15
HETATM   15  C5  UNL     1      -2.746  -0.410   0.527  1.00  0.00     0.066 C 
BRANCH  15  16
HETATM   16  C4  UNL     1      -4.223  -0.207   0.317  1.00  0.00     0.069 A 
HETATM   17  N3  UNL     1      -5.174  -0.019   1.219  1.00  0.00    -0.296 N 
HETATM   18  N2  UNL     1      -6.379   0.137   0.861  1.00  0.00    -0.279 N 
ATOM     19  H3  UNL     1      -4.934   0.000   2.210  1.00  0.00     0.187 HD
HETATM   20  C3  UNL     1      -6.669   0.108  -0.444  1.00  0.00     0.167 A 
ATOM     21  H2  UNL     1      -7.113   0.282   1.554  1.00  0.00     0.189 HD
HETATM   22  S2  UNL     1      -5.128  -0.154  -1.137  1.00  0.00    -0.038 SA
BRANCH  20  23
HETATM   23  N1  UNL     1      -7.852   0.250  -1.002  1.00  0.00    -0.306 N 
HETATM   24  C2  UNL     1      -7.949   0.188  -2.416  1.00  0.00     0.219 C 
HETATM   25  C1  UNL     1      -8.289  -1.056  -3.132  1.00  0.00     0.117 C 
HETATM   26  O1  UNL     1      -7.736   1.231  -3.080  1.00  0.00    -0.274 OA
ATOM     27  H1  UNL     1      -8.683   0.402  -0.430  1.00  0.00     0.171 HD
ENDBRANCH  20  23
ENDBRANCH  15  16
ENDBRANCH  14  15
ENDBRANCH  13  14
ENDBRANCH  12  13
ENDBRANCH   1  12
BRANCH   9  28
HETATM   28  C12 UNL     1       6.090  -0.368  -0.773  1.00  0.00     0.170 C 
HETATM   29  C13 UNL     1       7.415  -0.865  -0.230  1.00  0.00     0.062 C 
HETATM   30 BR1  UNL     1       5.009  -1.923  -1.214  1.00  0.00    -0.051 Br
BRANCH  28  31
HETATM   31  N7  UNL     1       6.334   0.437  -1.938  1.00  0.00    -0.321 N 
HETATM   32  C14 UNL     1       7.149   1.591  -1.903  1.00  0.00     0.316 C 
HETATM   33  O3  UNL     1       7.742   2.035  -0.890  1.00  0.00    -0.254 OA
HETATM   34 CL1  UNL     1       7.393   2.531  -3.384  1.00  0.00    -0.020 Cl
ATOM     35  H7  UNL     1       5.903   0.166  -2.822  1.00  0.00     0.165 HD
ENDBRANCH  28  31
ENDBRANCH   9  28
TORSDOF 8
