REMARK  3 active torsions:
REMARK  status: ('A' for Active; 'I' for Inactive)
REMARK    1  A    between atoms: C3_4  and  C4_5 
REMARK    2  A    between atoms: C10_13  and  C11_14 
REMARK    3  A    between atoms: C11_14  and  C12_15 
ROOT
HETATM    1  N1  UNL     1       2.916  -2.474  -0.428  1.00  0.00    -0.101 NA
HETATM    2  C1  UNL     1       2.034  -1.356  -0.133  1.00  0.00     0.061 A 
HETATM    3  C2  UNL     1       0.701  -1.428  -0.158  1.00  0.00     0.042 A 
HETATM    4  C3  UNL     1      -0.006  -0.298   0.139  1.00  0.00    -0.008 A 
HETATM    5  S1  UNL     1       1.216   0.843   0.449  1.00  0.00    -0.096 SA
HETATM    6  C10 UNL     1       2.597  -0.150   0.191  1.00  0.00     0.017 A 
ENDROOT
BRANCH   4   7
HETATM    7  C4  UNL     1      -1.483  -0.127   0.178  1.00  0.00     0.059 C 
HETATM    8  C5  UNL     1      -1.973   0.804  -0.912  1.00  0.00     0.013 C 
HETATM    9  C6  UNL     1      -3.491   0.590  -0.960  1.00  0.00     0.001 C 
HETATM   10  C7  UNL     1      -4.082   1.041   0.369  1.00  0.00     0.003 C 
HETATM   11  C8  UNL     1      -3.503   0.216   1.493  1.00  0.00     0.038 C 
HETATM   12  C9  UNL     1      -1.991   0.428   1.481  1.00  0.00     0.179 C 
HETATM   13  F1  UNL     1      -1.767   1.810   1.563  1.00  0.00    -0.249 F 
ENDBRANCH   4   7
BRANCH   6  14
HETATM   14  C11 UNL     1       4.055   0.215   0.294  1.00  0.00     0.161 C 
BRANCH  14  15
HETATM   15  C12 UNL     1       4.609   0.375  -1.050  1.00  0.00     0.177 C 
HETATM   16  O1  UNL     1       3.878   0.207  -2.051  1.00  0.00    -0.648 OA
HETATM   17  O2  UNL     1       5.942   0.711  -1.268  1.00  0.00    -0.648 OA
ENDBRANCH  14  15
ENDBRANCH   6  14
TORSDOF 3
