REMARK  4 active torsions:
REMARK  status: ('A' for Active; 'I' for Inactive)
REMARK    1  A    between atoms: C2_2  and  N1_4 
REMARK    2  A    between atoms: C2_2  and  C11_18 
REMARK    3  A    between atoms: N1_4  and  C3_6 
REMARK    4  A    between atoms: C3_6  and  C4_7 
ROOT
HETATM    1  C3  UNL     1       0.290  -0.272   0.591  1.00  0.00     0.072 C 
HETATM    2  C8  UNL     1       1.021   0.195   1.904  1.00  0.00     0.037 C 
HETATM    3  C9  UNL     1      -0.110  -0.578   2.604  1.00  0.00     0.006 C 
HETATM    4  C10 UNL     1      -0.022  -1.510   1.379  1.00  0.00     0.037 C 
ENDROOT
BRANCH   1   5
HETATM    5  N1  UNL     1      -0.751   0.615   0.372  1.00  0.00    -0.366 N 
ATOM      6  H1  UNL     1      -0.804   1.437   0.974  1.00  0.00     0.158 HD
BRANCH   5   7
HETATM    7  C2  UNL     1      -1.729   0.472  -0.605  1.00  0.00     0.267 C 
HETATM    8  C1  UNL     1      -2.613  -0.731  -0.395  1.00  0.00     0.086 C 
HETATM    9  F1  UNL     1      -1.166   0.311  -1.886  1.00  0.00    -0.210 F 
BRANCH   7  10
HETATM   10  C11 UNL     1      -2.611   1.736  -0.712  1.00  0.00     0.442 C 
HETATM   11  F2  UNL     1      -3.350   1.917   0.440  1.00  0.00    -0.166 F 
HETATM   12  F3  UNL     1      -3.474   1.587  -1.801  1.00  0.00    -0.166 F 
HETATM   13  F4  UNL     1      -1.807   2.847  -0.855  1.00  0.00    -0.166 F 
ENDBRANCH   7  10
ENDBRANCH   5   7
ENDBRANCH   1   5
BRANCH   1  14
HETATM   14  C4  UNL     1       1.342  -0.424  -0.439  1.00  0.00     0.053 A 
HETATM   15  C5  UNL     1       2.062   0.681  -0.824  1.00  0.00     0.030 A 
HETATM   16  C6  UNL     1       3.073   0.618  -1.767  1.00  0.00     0.021 A 
HETATM   17  C7  UNL     1       3.325  -0.628  -2.308  1.00  0.00     0.107 A 
HETATM   18  N2  UNL     1       2.598  -1.676  -1.903  1.00  0.00    -0.312 N 
HETATM   19  N3  UNL     1       1.629  -1.601  -0.996  1.00  0.00    -0.303 N 
ATOM     20  H2  UNL     1       2.799  -2.587  -2.315  1.00  0.00     0.186 HD
ATOM     21  H3  UNL     1       1.109  -2.437  -0.728  1.00  0.00     0.186 HD
ENDBRANCH   1  14
TORSDOF 4
