REMARK  12 active torsions:
REMARK  status: ('A' for Active; 'I' for Inactive)
REMARK    1  A    between atoms: N1_1  and  C1_5 
REMARK    2  A    between atoms: C3_7  and  O1_8 
REMARK    3  A    between atoms: O1_8  and  C4_9 
REMARK    4  A    between atoms: C4_9  and  C5_10 
REMARK    5  A    between atoms: C5_10  and  N2_11 
REMARK    6  A    between atoms: C5_10  and  C6_15 
REMARK    7  A    between atoms: C6_15  and  O2_16 
REMARK    8  A    between atoms: C6_15  and  C7_18 
REMARK    9  A    between atoms: C7_18  and  C8_19 
REMARK   10  A    between atoms: C7_18  and  O3_26 
REMARK   11  A    between atoms: C8_19  and  C9_20 
REMARK   12  A    between atoms: O3_26  and  C15_27 
ROOT
HETATM    1  C6  UNL     1       0.455  -1.422   1.386  1.00  0.00     0.180 C 
ENDROOT
BRANCH   1   2
HETATM    2  C5  UNL     1       1.826  -0.930   1.040  1.00  0.00     0.238 C 
BRANCH   2   3
HETATM    3  C4  UNL     1       2.098  -0.987  -0.446  1.00  0.00     0.206 C 
BRANCH   3   4
HETATM    4  O1  UNL     1       3.397  -0.650  -0.765  1.00  0.00    -0.359 OA
BRANCH   4   5
HETATM    5  C3  UNL     1       3.792   0.596  -0.405  1.00  0.00     0.266 C 
HETATM    6  C2  UNL     1       5.197   0.779   0.088  1.00  0.00     0.121 C 
HETATM    7  C1  UNL     1       5.443   0.690  -1.403  1.00  0.00     0.325 C 
HETATM    8  O4  UNL     1       4.184   1.314  -1.564  1.00  0.00    -0.329 OA
BRANCH   7   9
HETATM    9  N1  UNL     1       6.565   1.480  -1.803  1.00  0.00    -0.053 N 
ATOM     10  H13 UNL     1       6.464   2.449  -1.500  1.00  0.00     0.277 HD
ATOM     11  H12 UNL     1       7.401   1.233  -1.273  1.00  0.00     0.277 HD
ATOM     12  H11 UNL     1       6.731   1.420  -2.808  1.00  0.00     0.277 HD
ENDBRANCH   7   9
ENDBRANCH   4   5
ENDBRANCH   3   4
ENDBRANCH   2   3
BRANCH   2  13
HETATM   13  N2  UNL     1       2.756  -1.890   1.662  1.00  0.00    -0.070 N 
ATOM     14  H23 UNL     1       2.690  -2.830   1.272  1.00  0.00     0.274 HD
ATOM     15  H22 UNL     1       3.733  -1.724   1.421  1.00  0.00     0.274 HD
ATOM     16  H21 UNL     1       2.572  -1.852   2.665  1.00  0.00     0.274 HD
ENDBRANCH   2  13
ENDBRANCH   1   2
BRANCH   1  17
HETATM   17  O2  UNL     1       0.249  -1.473   2.759  1.00  0.00    -0.391 OA
ATOM     18  H2  UNL     1      -0.621  -1.785   2.979  1.00  0.00     0.210 HD
ENDBRANCH   1  17
BRANCH   1  19
HETATM   19  C7  UNL     1      -0.654  -0.570   0.809  1.00  0.00     0.164 C 
BRANCH  19  20
HETATM   20  C8  UNL     1      -0.646   0.822   1.428  1.00  0.00     0.073 C 
BRANCH  20  21
HETATM   21  C9  UNL     1      -1.753   1.608   0.823  1.00  0.00    -0.056 A 
HETATM   22  C10 UNL     1      -1.546   2.366  -0.334  1.00  0.00     0.007 A 
HETATM   23  C11 UNL     1      -2.553   3.104  -0.916  1.00  0.00     0.001 A 
HETATM   24  C12 UNL     1      -3.806   3.115  -0.367  1.00  0.00     0.000 A 
HETATM   25  C13 UNL     1      -4.054   2.373   0.784  1.00  0.00     0.001 A 
HETATM   26  C14 UNL     1      -3.029   1.645   1.344  1.00  0.00     0.007 A 
ENDBRANCH  20  21
ENDBRANCH  19  20
BRANCH  19  27
HETATM   27  O3  UNL     1      -1.906  -1.130   1.092  1.00  0.00    -0.343 OA
BRANCH  27  28
HETATM   28  C15 UNL     1      -2.876  -1.514   0.188  1.00  0.00     0.069 A 
HETATM   29  C16 UNL     1      -2.723  -1.386  -1.174  1.00  0.00     0.037 A 
HETATM   30  C17 UNL     1      -3.683  -1.765  -2.092  1.00  0.00     0.003 A 
HETATM   31  C18 UNL     1      -4.847  -2.298  -1.589  1.00  0.00     0.000 A 
HETATM   32  C19 UNL     1      -5.021  -2.435  -0.230  1.00  0.00     0.003 A 
HETATM   33  C20 UNL     1      -4.058  -2.053   0.666  1.00  0.00     0.037 A 
ENDBRANCH  27  28
ENDBRANCH  19  27
ENDBRANCH   1  19
TORSDOF 12
