REMARK  8 active torsions:
REMARK  status: ('A' for Active; 'I' for Inactive)
REMARK    1  A    between atoms: C2_2  and  S1_3 
REMARK    2  A    between atoms: S1_3  and  C3_4 
REMARK    3  A    between atoms: C3_4  and  C4_5 
REMARK    4  A    between atoms: C7_11  and  C8_12 
REMARK    5  A    between atoms: C12_18  and  C13_19 
REMARK    6  A    between atoms: C13_19  and  C14_20 
REMARK    7  A    between atoms: C18_27  and  C19_28 
REMARK    8  A    between atoms: C19_28  and  C20_29 
ROOT
HETATM    1  C4  UNL     1       2.059   0.327   0.260  1.00  0.00     0.185 C 
HETATM    2  N1  UNL     1       1.987   1.680   0.697  1.00  0.00    -0.347 N 
ATOM      3  H1  UNL     1       2.073   1.905   1.688  1.00  0.00     0.163 HD
HETATM    4  C5  UNL     1       1.794   2.714  -0.258  1.00  0.00     0.220 C 
HETATM    5  O1  UNL     1       2.338   3.841  -0.173  1.00  0.00    -0.274 OA
HETATM    6  C6  UNL     1       0.897   2.443  -1.423  1.00  0.00     0.128 C 
HETATM    7  C7  UNL     1      -0.544   2.230  -0.928  1.00  0.00     0.095 C 
HETATM    8  N2  UNL     1      -1.215   1.330  -1.839  1.00  0.00    -0.350 N 
HETATM    9  C10 UNL     1      -1.322   1.891  -3.209  1.00  0.00     0.153 C 
HETATM   10  C11 UNL     1      -1.742   0.065  -1.609  1.00  0.00     0.242 C 
HETATM   11  O2  UNL     1      -1.368  -0.838  -2.457  1.00  0.00    -0.271 OA
HETATM   12  C12 UNL     1      -2.648  -0.465  -0.592  1.00  0.00     0.177 C 
HETATM   13  N3  UNL     1      -2.363  -1.870  -0.327  1.00  0.00    -0.346 N 
ATOM     14  H3  UNL     1      -3.016  -2.536  -0.739  1.00  0.00     0.163 HD
HETATM   15  C17 UNL     1      -1.326  -2.426   0.408  1.00  0.00     0.241 C 
HETATM   16  O3  UNL     1      -1.655  -3.323   1.278  1.00  0.00    -0.271 OA
HETATM   17  C18 UNL     1       0.122  -2.185   0.388  1.00  0.00     0.177 C 
HETATM   18  N4  UNL     1       0.602  -1.384   1.502  1.00  0.00    -0.346 N 
ATOM     19  H4  UNL     1       0.088  -1.427   2.382  1.00  0.00     0.163 HD
HETATM   20  C23 UNL     1       1.745  -0.546   1.436  1.00  0.00     0.241 C 
HETATM   21  O4  UNL     1       2.544  -0.516   2.392  1.00  0.00    -0.271 OA
ENDROOT
BRANCH   1  22
HETATM   22  C3  UNL     1       3.326  -0.030  -0.403  1.00  0.00     0.108 C 
BRANCH  22  23
HETATM   23  S1  UNL     1       4.863   0.056   0.406  1.00  0.00    -0.167 SA
BRANCH  23  24
HETATM   24  C2  UNL     1       5.638   1.580   0.815  1.00  0.00     0.069 C 
HETATM   25  C1  UNL     1       5.008   2.333   1.949  1.00  0.00     0.016 C 
ENDBRANCH  23  24
ENDBRANCH  22  23
ENDBRANCH   1  22
BRANCH  17  26
HETATM   26  C19 UNL     1       0.903  -3.512   0.525  1.00  0.00     0.038 C 
BRANCH  26  27
HETATM   27  C20 UNL     1       0.556  -4.440  -0.617  1.00  0.00    -0.020 C 
HETATM   28  C21 UNL     1       1.357  -5.708  -0.410  1.00  0.00     0.009 C 
HETATM   29  C22 UNL     1       0.790  -3.848  -1.965  1.00  0.00     0.009 C 
ENDBRANCH  26  27
ENDBRANCH  17  26
BRANCH   7  30
HETATM   30  C8  UNL     1      -1.319   3.525  -0.971  1.00  0.00     0.021 C 
HETATM   31  C9  UNL     1      -0.770   4.622  -0.141  1.00  0.00     0.007 C 
ENDBRANCH   7  30
BRANCH  12  32
HETATM   32  C13 UNL     1      -2.818   0.347   0.640  1.00  0.00     0.038 C 
BRANCH  32  33
HETATM   33  C14 UNL     1      -3.772  -0.228   1.639  1.00  0.00    -0.020 C 
HETATM   34  C15 UNL     1      -3.864   0.702   2.862  1.00  0.00     0.009 C 
HETATM   35  C16 UNL     1      -5.152  -0.455   1.154  1.00  0.00     0.009 C 
ENDBRANCH  32  33
ENDBRANCH  12  32
TORSDOF 8
