REMARK  2 active torsions:
REMARK  status: ('A' for Active; 'I' for Inactive)
REMARK    1  A    between atoms: C10_10  and  N1_11 
REMARK    2  A    between atoms: N1_11  and  O1_13 
ROOT
HETATM    1  C1  UNL     1       1.945  -1.872   0.260  1.00  0.00     0.016 C 
HETATM    2  C2  UNL     1       0.981  -0.998   0.004  1.00  0.00    -0.064 C 
HETATM    3  C3  UNL     1      -0.094  -1.533  -0.833  1.00  0.00     0.040 C 
HETATM    4  C4  UNL     1      -1.384  -0.784  -0.759  1.00  0.00    -0.011 C 
HETATM    5  C5  UNL     1      -1.196   0.601  -1.339  1.00  0.00     0.005 C 
HETATM    6  C6  UNL     1      -0.761   1.578  -0.311  1.00  0.00     0.007 C 
HETATM    7  C7  UNL     1      -0.086   0.986   0.883  1.00  0.00     0.014 C 
HETATM    8  C8  UNL     1      -0.945  -0.044   1.594  1.00  0.00     0.007 C 
HETATM    9  C9  UNL     1      -1.956  -0.643   0.605  1.00  0.00     0.005 C 
HETATM   10  C10 UNL     1       1.228   0.334   0.639  1.00  0.00     0.138 C 
ENDROOT
BRANCH  10  11
HETATM   11  N1  UNL     1       2.236   1.087   0.004  1.00  0.00    -0.296 N 
ATOM     12  H1  UNL     1       3.059   1.405   0.517  1.00  0.00     0.188 HD
BRANCH  11  13
HETATM   13  O1  UNL     1       2.079   1.369  -1.283  1.00  0.00    -0.294 OA
ATOM     14  H1  UNL     1       2.758   1.877  -1.711  1.00  0.00     0.244 HD
ENDBRANCH  11  13
ENDBRANCH  10  11
TORSDOF 2
