REMARK  1 active torsions:
REMARK  status: ('A' for Active; 'I' for Inactive)
REMARK    1  A    between atoms: O1_1  and  C1_3 
ROOT
HETATM    1  C1  UNL     1      -1.340   0.706  -0.298  1.00  0.00     0.122 C 
HETATM    2  C2  UNL     1      -2.360  -0.307   0.211  1.00  0.00     0.032 C 
HETATM    3  C3  UNL     1      -1.823  -1.691   0.012  1.00  0.00     0.003 C 
HETATM    4  C4  UNL     1      -0.489  -1.897   0.639  1.00  0.00     0.005 C 
HETATM    5  C5  UNL     1       0.455  -0.768   0.526  1.00  0.00    -0.008 C 
HETATM    6  C6  UNL     1       1.194  -0.840  -0.779  1.00  0.00     0.005 C 
HETATM    7  C7  UNL     1       2.323   0.125  -0.739  1.00  0.00     0.000 C 
HETATM    8  C8  UNL     1       1.974   1.506  -0.319  1.00  0.00     0.000 C 
HETATM    9  C9  UNL     1       0.808   1.686   0.550  1.00  0.00     0.007 C 
HETATM   10  C10 UNL     1      -0.156   0.580   0.671  1.00  0.00     0.018 C 
ENDROOT
BRANCH   1  11
HETATM   11  O1  UNL     1      -1.924   1.954  -0.194  1.00  0.00    -0.395 OA
ATOM     12  H1  UNL     1      -1.289   2.585  -0.511  1.00  0.00     0.210 HD
ENDBRANCH   1  11
TORSDOF 1
