REMARK  12 active torsions:
REMARK  status: ('A' for Active; 'I' for Inactive)
REMARK    1  A    between atoms: C2_2  and  C3_3 
REMARK    2  A    between atoms: C3_3  and  C4_4 
REMARK    3  A    between atoms: C4_4  and  C5_5 
REMARK    4  A    between atoms: C5_5  and  N1_6 
REMARK    5  A    between atoms: C5_5  and  C7_10 
REMARK       I    between atoms: C7_10  and  N2_12 
REMARK    6  A    between atoms: C12_17  and  O2_18 
REMARK    7  A    between atoms: O2_18  and  C13_19 
REMARK       I    between atoms: C13_19  and  N3_21 
REMARK    8  A    between atoms: C19_27  and  C20_28 
REMARK       I    between atoms: C20_28  and  N4_30 
REMARK    9  A    between atoms: N4_30  and  C21_32 
REMARK   10  A    between atoms: C27_38  and  O5_39 
REMARK   11  A    between atoms: C28_41  and  C29_42 
REMARK   12  A    between atoms: C29_42  and  C30_43 
ROOT
HETATM    1  C7  UNL     1      -4.782   0.826  -0.822  1.00  0.00     0.251 C 
HETATM    2  O1  UNL     1      -5.738   1.480  -1.382  1.00  0.00    -0.271 OA
HETATM    3  N2  UNL     1      -3.777   1.504  -0.113  1.00  0.00    -0.342 N 
HETATM    4  C8  UNL     1      -2.586   1.075   0.566  1.00  0.00     0.138 C 
HETATM    5  C9  UNL     1      -1.508   2.111   0.212  1.00  0.00     0.004 C 
HETATM    6  C10 UNL     1      -0.671   1.675  -0.922  1.00  0.00     0.016 C 
HETATM    7  C11 UNL     1       0.712   1.181  -0.653  1.00  0.00     0.033 C 
HETATM    8  C12 UNL     1       0.964   0.964   0.830  1.00  0.00     0.133 C 
HETATM    9  C25 UNL     1       0.678   2.280   1.470  1.00  0.00     0.033 C 
HETATM   10  C26 UNL     1      -0.787   2.560   1.423  1.00  0.00     0.016 C 
HETATM   11  C27 UNL     1      -2.359   3.311  -0.267  1.00  0.00     0.151 C 
HETATM   12  C28 UNL     1      -3.803   2.957   0.116  1.00  0.00     0.117 C 
ENDROOT
BRANCH  11  13
HETATM   13  O5  UNL     1      -2.257   3.491  -1.636  1.00  0.00    -0.393 OA
ATOM     14  H5  UNL     1      -2.780   4.228  -1.930  1.00  0.00     0.210 HD
ENDBRANCH  11  13
BRANCH  12  15
HETATM   15  C29 UNL     1      -4.088   3.360   1.512  1.00  0.00     0.032 C 
BRANCH  15  16
HETATM   16  C30 UNL     1      -5.410   2.906   2.011  1.00  0.00    -0.021 C 
HETATM   17  C31 UNL     1      -5.557   3.343   3.482  1.00  0.00     0.009 C 
HETATM   18  C32 UNL     1      -6.566   3.631   1.293  1.00  0.00     0.009 C 
ENDBRANCH  15  16
ENDBRANCH  12  15
BRANCH   1  19
HETATM   19  C5  UNL     1      -4.908  -0.652  -1.022  1.00  0.00     0.276 C 
BRANCH  19  20
HETATM   20  C4  UNL     1      -4.710  -1.024  -2.463  1.00  0.00     0.043 C 
BRANCH  20  21
HETATM   21  C3  UNL     1      -3.340  -0.949  -3.011  1.00  0.00     0.002 C 
BRANCH  21  22
HETATM   22  C2  UNL     1      -2.350  -1.895  -2.377  1.00  0.00    -0.004 C 
HETATM   23  C1  UNL     1      -2.790  -3.338  -2.556  1.00  0.00     0.005 C 
ENDBRANCH  21  22
ENDBRANCH  20  21
ENDBRANCH  19  20
BRANCH  19  24
HETATM   24  N1  UNL     1      -6.377  -0.918  -0.817  1.00  0.00    -0.066 N 
HETATM   25  C6  UNL     1      -6.651  -2.326  -1.034  1.00  0.00     0.267 C 
ATOM     26  H12 UNL     1      -6.702  -0.599   0.096  1.00  0.00     0.277 HD
ATOM     27  H11 UNL     1      -6.962  -0.318  -1.399  1.00  0.00     0.277 HD
ENDBRANCH  19  24
ENDBRANCH   1  19
BRANCH   8  28
HETATM   28  O2  UNL     1       2.231   0.432   1.077  1.00  0.00    -0.298 OA
BRANCH  28  29
HETATM   29  C13 UNL     1       2.470  -0.833   1.609  1.00  0.00     0.363 C 
HETATM   30  O3  UNL     1       1.495  -1.546   1.883  1.00  0.00    -0.238 OA
HETATM   31  N3  UNL     1       3.784  -1.312   1.837  1.00  0.00    -0.315 N 
HETATM   32  C14 UNL     1       3.952  -2.633   2.366  1.00  0.00     0.129 C 
HETATM   33  C19 UNL     1       4.899  -0.484   1.541  1.00  0.00     0.181 C 
HETATM   34  C15 UNL     1       5.187  -2.857   3.173  1.00  0.00     0.024 C 
HETATM   35  C16 UNL     1       6.389  -2.140   2.606  1.00  0.00    -0.015 C 
HETATM   36  C17 UNL     1       7.640  -2.384   3.372  1.00  0.00     0.010 C 
HETATM   37  C18 UNL     1       5.989  -0.660   2.567  1.00  0.00     0.039 C 
BRANCH  33  38
HETATM   38  C20 UNL     1       5.421  -0.583   0.155  1.00  0.00     0.241 C 
HETATM   39  O4  UNL     1       6.423   0.094  -0.196  1.00  0.00    -0.271 OA
HETATM   40  N4  UNL     1       4.849  -1.423  -0.852  1.00  0.00    -0.351 N 
ATOM     41  H4  UNL     1       4.037  -1.991  -0.609  1.00  0.00     0.163 HD
BRANCH  40  42
HETATM   42  C21 UNL     1       5.364  -1.503  -2.184  1.00  0.00     0.022 C 
HETATM   43  C22 UNL     1       5.341  -0.154  -2.889  1.00  0.00     0.037 C 
HETATM   44  C23 UNL     1       6.783  -2.012  -2.269  1.00  0.00     0.037 C 
HETATM   45  C24 UNL     1       4.515  -2.424  -3.038  1.00  0.00     0.037 C 
ENDBRANCH  40  42
ENDBRANCH  33  38
ENDBRANCH  28  29
ENDBRANCH   8  28
TORSDOF 12
