REMARK  3 active torsions:
REMARK  status: ('A' for Active; 'I' for Inactive)
REMARK    1  A    between atoms: C4_9  and  C5_10 
REMARK    2  A    between atoms: N4_17  and  N5_18 
REMARK    3  A    between atoms: N5_18  and  C10_20 
ROOT
HETATM    1  C1  UNL     1       0.544  -3.113   1.600  1.00  0.00     0.091 C 
HETATM    2  C2  UNL     1      -0.652  -2.689   0.790  1.00  0.00     0.099 C 
HETATM    3  N1  UNL     1      -1.373  -3.648   0.315  1.00  0.00    -0.322 N 
ATOM      4  H1  UNL     1      -1.135  -4.625   0.486  1.00  0.00     0.169 HD
HETATM    5  C3  UNL     1      -2.512  -3.288  -0.456  1.00  0.00     0.174 C 
HETATM    6  S1  UNL     1      -3.476  -4.460  -1.093  1.00  0.00    -0.041 SA
HETATM    7  N2  UNL     1      -2.823  -1.916  -0.679  1.00  0.00    -0.340 N 
ATOM      8  H2  UNL     1      -3.357  -1.612  -1.493  1.00  0.00     0.164 HD
HETATM    9  C4  UNL     1      -2.338  -0.972   0.316  1.00  0.00     0.244 C 
HETATM   10  N4  UNL     1      -0.953  -1.321   0.574  1.00  0.00    -0.251 N 
ENDROOT
BRANCH  10  11
HETATM   11  N5  UNL     1       0.076  -0.397   0.618  1.00  0.00    -0.279 N 
ATOM     12  H5  UNL     1       0.077   0.264   1.394  1.00  0.00     0.189 HD
BRANCH  11  13
HETATM   13  C10 UNL     1       1.027  -0.303  -0.235  1.00  0.00     0.131 A 
HETATM   14  N6  UNL     1       1.180  -1.082  -1.307  1.00  0.00    -0.351 N 
HETATM   15  C11 UNL     1       2.206  -0.924  -2.161  1.00  0.00     0.090 A 
ATOM     16  H6  UNL     1       0.498  -1.820  -1.484  1.00  0.00     0.166 HD
HETATM   17  C12 UNL     1       3.156   0.056  -1.970  1.00  0.00     0.029 A 
HETATM   18  C13 UNL     1       3.025   0.885  -0.862  1.00  0.00    -0.021 A 
HETATM   19  C14 UNL     1       3.973   1.876  -0.657  1.00  0.00     0.012 A 
HETATM   20  C18 UNL     1       1.966   0.691  -0.018  1.00  0.00     0.019 A 
HETATM   21  C15 UNL     1       3.869   2.704   0.422  1.00  0.00     0.001 A 
HETATM   22  C16 UNL     1       2.806   2.521   1.285  1.00  0.00     0.001 A 
HETATM   23  C17 UNL     1       1.850   1.530   1.087  1.00  0.00     0.016 A 
ENDBRANCH  11  13
ENDBRANCH  10  11
BRANCH   9  24
HETATM   24  C5  UNL     1      -2.512   0.426  -0.083  1.00  0.00     0.001 A 
HETATM   25  C6  UNL     1      -3.005   1.395   0.781  1.00  0.00     0.014 A 
HETATM   26  C7  UNL     1      -3.163   2.711   0.387  1.00  0.00     0.018 A 
HETATM   27  C8  UNL     1      -2.823   3.085  -0.901  1.00  0.00     0.087 A 
HETATM   28  N3  UNL     1      -2.349   2.154  -1.729  1.00  0.00    -0.375 N 
HETATM   29  C9  UNL     1      -2.188   0.851  -1.356  1.00  0.00     0.098 A 
ATOM     30  H3  UNL     1      -2.097   2.426  -2.679  1.00  0.00     0.164 HD
ENDBRANCH   9  24
TORSDOF 3
