REMARK  2 active torsions:
REMARK  status: ('A' for Active; 'I' for Inactive)
REMARK       I    between atoms: C1_2  and  N1_3 
REMARK    1  A    between atoms: C1_2  and  C16_26 
REMARK    2  A    between atoms: C5_10  and  C6_11 
ROOT
HETATM    1  O1  UNL     1       3.669   0.472   2.044  1.00  0.00    -0.266 OA
HETATM    2  C1  UNL     1       4.198   0.630   0.907  1.00  0.00     0.273 C 
HETATM    3  N1  UNL     1       3.404   0.927  -0.188  1.00  0.00    -0.306 N 
ATOM      4  H1  UNL     1       3.862   1.352  -0.994  1.00  0.00     0.170 HD
HETATM    5  C2  UNL     1       2.148   0.715  -0.276  1.00  0.00     0.128 A 
HETATM    6  C3  UNL     1       1.396   1.045  -1.424  1.00  0.00     0.102 A 
HETATM    7  C4  UNL     1       0.112   0.662  -1.147  1.00  0.00     0.150 A 
HETATM    8  N2  UNL     1      -1.147   0.602  -1.620  1.00  0.00    -0.324 N 
ATOM      9  H2  UNL     1      -1.432   0.934  -2.541  1.00  0.00     0.169 HD
HETATM   10  C5  UNL     1      -1.995   0.038  -0.705  1.00  0.00     0.134 A 
HETATM   11  N3  UNL     1      -1.203  -0.231   0.319  1.00  0.00    -0.262 N 
ATOM     12  H3  UNL     1      -1.518  -0.664   1.187  1.00  0.00     0.191 HD
HETATM   13  N4  UNL     1       0.045   0.128   0.082  1.00  0.00    -0.176 N 
HETATM   14  N5  UNL     1       1.274   0.177   0.569  1.00  0.00    -0.262 N 
ATOM     15  H5  UNL     1       1.525  -0.163   1.497  1.00  0.00     0.191 HD
ENDROOT
BRANCH   2  16
HETATM   16  C16 UNL     1       5.662   0.489   0.799  1.00  0.00     0.100 A 
HETATM   17  C17 UNL     1       6.419   0.199   1.901  1.00  0.00     0.035 A 
HETATM   18  C18 UNL     1       7.797   0.071   1.786  1.00  0.00     0.004 A 
HETATM   19  C19 UNL     1       8.383   0.242   0.538  1.00  0.00     0.017 A 
HETATM   20  C20 UNL     1       7.586   0.532  -0.542  1.00  0.00     0.088 A 
HETATM   21  N6  UNL     1       6.237   0.651  -0.393  1.00  0.00    -0.361 N 
ATOM     22  H6  UNL     1       5.659   0.867  -1.205  1.00  0.00     0.165 HD
ENDBRANCH   2  16
BRANCH  10  23
HETATM   23  C6  UNL     1      -3.421  -0.144  -0.959  1.00  0.00     0.021 A 
HETATM   24  C7  UNL     1      -3.963   0.312  -2.171  1.00  0.00     0.016 A 
HETATM   25  C8  UNL     1      -5.297   0.165  -2.475  1.00  0.00     0.002 A 
HETATM   26  C9  UNL     1      -6.162  -0.437  -1.604  1.00  0.00     0.012 A 
HETATM   27  C10 UNL     1      -5.653  -0.893  -0.406  1.00  0.00    -0.025 A 
HETATM   28  C11 UNL     1      -6.549  -1.498   0.453  1.00  0.00     0.012 A 
HETATM   29  C15 UNL     1      -4.293  -0.746  -0.090  1.00  0.00    -0.012 A 
HETATM   30  C12 UNL     1      -6.082  -1.968   1.657  1.00  0.00     0.001 A 
HETATM   31  C13 UNL     1      -4.767  -1.831   1.974  1.00  0.00     0.001 A 
HETATM   32  C14 UNL     1      -3.856  -1.220   1.108  1.00  0.00     0.013 A 
ENDBRANCH  10  23
TORSDOF 2
