REMARK  13 active torsions:
REMARK  status: ('A' for Active; 'I' for Inactive)
REMARK    1  A    between atoms: N1_1  and  C1_5 
REMARK    2  A    between atoms: C1_5  and  C2_6 
REMARK    3  A    between atoms: C2_6  and  N2_7 
REMARK    4  A    between atoms: N2_7  and  C3_10 
REMARK    5  A    between atoms: C3_10  and  C4_11 
REMARK       I    between atoms: C4_11  and  N3_13 
REMARK    6  A    between atoms: N3_13  and  C5_15 
REMARK    7  A    between atoms: C5_15  and  C6_16 
REMARK       I    between atoms: C6_16  and  N4_18 
REMARK    8  A    between atoms: N4_18  and  C7_20 
REMARK    9  A    between atoms: C8_24  and  N6_25 
REMARK       I    between atoms: N6_25  and  C9_27 
REMARK   10  A    between atoms: C9_27  and  C10_29 
REMARK   11  A    between atoms: C10_29  and  N7_30 
REMARK   12  A    between atoms: C10_29  and  C11_34 
REMARK   13  A    between atoms: C11_34  and  N8_35 
ROOT
HETATM    1  C7  UNL     1       2.334  -3.352   0.883  1.00  0.00     0.339 A 
HETATM    2  N5  UNL     1       2.434  -4.201  -0.258  1.00  0.00    -0.026 N 
ATOM      3  H51 UNL     1       1.737  -4.545  -0.919  1.00  0.00     0.282 HD
ATOM      4  H52 UNL     1       2.619  -5.199  -0.354  1.00  0.00     0.282 HD
HETATM    5  C8  UNL     1       3.295  -3.059  -0.278  1.00  0.00     0.339 A 
ENDROOT
BRANCH   1   6
HETATM    6  N4  UNL     1       1.109  -2.541   0.943  1.00  0.00    -0.329 N 
HETATM    7  C6  UNL     1       0.504  -2.215   2.165  1.00  0.00     0.237 C 
HETATM    8  O2  UNL     1       1.034  -2.635   3.225  1.00  0.00    -0.272 OA
ATOM      9  H4  UNL     1       0.689  -2.208   0.075  1.00  0.00     0.164 HD
BRANCH   7  10
HETATM   10  C5  UNL     1      -0.706  -1.417   2.268  1.00  0.00     0.225 C 
BRANCH  10  11
HETATM   11  N3  UNL     1      -1.294  -0.940   1.064  1.00  0.00    -0.351 N 
HETATM   12  C4  UNL     1      -2.492  -0.157   1.166  1.00  0.00     0.243 C 
HETATM   13  O1  UNL     1      -2.986   0.085   2.307  1.00  0.00    -0.272 OA
ATOM     14  H3  UNL     1      -0.877  -1.148   0.157  1.00  0.00     0.163 HD
BRANCH  12  15
HETATM   15  C3  UNL     1      -3.105   0.340  -0.069  1.00  0.00     0.334 C 
BRANCH  15  16
HETATM   16  N2  UNL     1      -4.278   1.122   0.161  1.00  0.00    -0.065 N 
ATOM     17  H22 UNL     1      -4.964   0.616   0.721  1.00  0.00     0.277 HD
ATOM     18  H21 UNL     1      -4.827   1.236  -0.691  1.00  0.00     0.277 HD
BRANCH  16  19
HETATM   19  C2  UNL     1      -3.947   2.383   0.747  1.00  0.00     0.260 C 
BRANCH  19  20
HETATM   20  C1  UNL     1      -5.213   3.222   0.998  1.00  0.00     0.257 C 
BRANCH  20  21
HETATM   21  N1  UNL     1      -4.752   4.471   1.585  1.00  0.00    -0.078 N 
ATOM     22  H13 UNL     1      -4.176   4.343   2.417  1.00  0.00     0.274 HD
ATOM     23  H12 UNL     1      -4.049   4.951   1.023  1.00  0.00     0.274 HD
ATOM     24  H11 UNL     1      -5.591   5.027   1.751  1.00  0.00     0.274 HD
ENDBRANCH  20  21
ENDBRANCH  19  20
ENDBRANCH  16  19
ENDBRANCH  15  16
ENDBRANCH  12  15
ENDBRANCH  10  11
ENDBRANCH   7  10
ENDBRANCH   1   6
BRANCH   5  25
HETATM   25  N6  UNL     1       3.002  -1.919  -1.114  1.00  0.00    -0.328 N 
HETATM   26  C9  UNL     1       3.987  -1.009  -1.566  1.00  0.00     0.251 C 
HETATM   27  O3  UNL     1       5.178  -1.267  -1.182  1.00  0.00    -0.271 OA
ATOM     28  H6  UNL     1       2.034  -1.761  -1.394  1.00  0.00     0.164 HD
BRANCH  26  29
HETATM   29  C10 UNL     1       3.761   0.158  -2.406  1.00  0.00     0.299 C 
BRANCH  29  30
HETATM   30  N7  UNL     1       5.035   0.777  -2.739  1.00  0.00    -0.065 N 
ATOM     31  H73 UNL     1       5.582   1.002  -1.908  1.00  0.00     0.275 HD
ATOM     32  H72 UNL     1       5.683   0.116  -3.167  1.00  0.00     0.275 HD
ATOM     33  H71 UNL     1       4.877   1.595  -3.328  1.00  0.00     0.275 HD
ENDBRANCH  29  30
BRANCH  29  34
HETATM   34  C11 UNL     1       2.816   1.188  -1.849  1.00  0.00     0.272 C 
BRANCH  34  35
HETATM   35  N8  UNL     1       1.497   0.698  -1.601  1.00  0.00    -0.077 N 
ATOM     36  H83 UNL     1       1.108   0.276  -2.444  1.00  0.00     0.274 HD
ATOM     37  H82 UNL     1       1.529  -0.122  -0.995  1.00  0.00     0.274 HD
ATOM     38  H81 UNL     1       0.856   1.396  -1.223  1.00  0.00     0.274 HD
ENDBRANCH  34  35
ENDBRANCH  29  34
ENDBRANCH  26  29
ENDBRANCH   5  25
TORSDOF 13
