REMARK  15 active torsions:
REMARK  status: ('A' for Active; 'I' for Inactive)
REMARK    1  A    between atoms: C1_4  and  N2_5 
REMARK    2  A    between atoms: N2_5  and  C2_7 
REMARK    3  A    between atoms: C2_7  and  N3_8 
REMARK    4  A    between atoms: N3_8  and  C3_9 
REMARK    5  A    between atoms: N3_8  and  C5_13 
REMARK    6  A    between atoms: C3_9  and  C4_10 
REMARK    7  A    between atoms: C4_10  and  O1_11 
REMARK    8  A    between atoms: C5_13  and  C6_14 
REMARK    9  A    between atoms: C5_13  and  N5_19 
REMARK   10  A    between atoms: C6_14  and  N4_15 
REMARK   11  A    between atoms: C8_21  and  N6_22 
REMARK   12  A    between atoms: C9_26  and  C10_27 
REMARK       I    between atoms: C10_27  and  N7_29 
REMARK   13  A    between atoms: N7_29  and  C11_31 
REMARK   14  A    between atoms: C11_31  and  C12_32 
REMARK   15  A    between atoms: C12_32  and  O3_33 
ROOT
HETATM    1  C5  UNL     1      -0.655  -0.514  -0.676  1.00  0.00     0.351 C 
ENDROOT
BRANCH   1   2
HETATM    2  N3  UNL     1      -2.016  -0.670  -0.381  1.00  0.00    -0.344 N 
BRANCH   2   3
HETATM    3  C2  UNL     1      -2.813   0.422  -0.020  1.00  0.00     0.181 C 
BRANCH   3   4
HETATM    4  N2  UNL     1      -3.559   1.088  -1.035  1.00  0.00    -0.349 N 
ATOM      5  H2  UNL     1      -3.530   0.762  -2.001  1.00  0.00     0.167 HD
BRANCH   4   6
HETATM    6  C1  UNL     1      -4.343   2.215  -0.674  1.00  0.00     0.174 C 
HETATM    7  N1  UNL     1      -3.848   3.374  -0.421  1.00  0.00    -0.395 N 
ATOM      8  H12 UNL     1      -2.835   3.472  -0.488  1.00  0.00     0.156 HD
ATOM      9  H11 UNL     1      -4.411   4.184  -0.162  1.00  0.00     0.156 HD
ENDBRANCH   4   6
ENDBRANCH   3   4
ENDBRANCH   2   3
BRANCH   2  10
HETATM   10  C3  UNL     1      -2.691  -1.725  -1.078  1.00  0.00     0.151 C 
BRANCH  10  11
HETATM   11  C4  UNL     1      -3.672  -2.408  -0.176  1.00  0.00     0.183 C 
BRANCH  11  12
HETATM   12  O1  UNL     1      -3.120  -2.992   0.945  1.00  0.00    -0.399 OA
ATOM     13  H1  UNL     1      -3.742  -3.425   1.517  1.00  0.00     0.209 HD
ENDBRANCH  11  12
ENDBRANCH  10  11
ENDBRANCH   2  10
ENDBRANCH   1   2
BRANCH   1  14
HETATM   14  C6  UNL     1      -0.278   0.305  -1.876  1.00  0.00     0.286 C 
BRANCH  14  15
HETATM   15  N4  UNL     1      -0.686   1.666  -1.862  1.00  0.00    -0.076 N 
ATOM     16  H43 UNL     1      -1.693   1.722  -1.709  1.00  0.00     0.274 HD
ATOM     17  H42 UNL     1      -0.345   2.119  -1.014  1.00  0.00     0.274 HD
ATOM     18  H41 UNL     1      -0.430   2.223  -2.677  1.00  0.00     0.274 HD
ENDBRANCH  14  15
ENDBRANCH   1  14
BRANCH   1  19
HETATM   19  N5  UNL     1       0.017   0.013   0.520  1.00  0.00     0.131 N 
HETATM   20  C7  UNL     1      -0.442  -0.720   1.677  1.00  0.00     0.311 C 
HETATM   21  C8  UNL     1       0.949  -0.487   2.259  1.00  0.00     0.254 C 
HETATM   22  C9  UNL     1       1.323  -0.501   0.781  1.00  0.00     0.348 C 
BRANCH  21  23
HETATM   23  N6  UNL     1       1.488  -1.576   3.026  1.00  0.00    -0.071 N 
ATOM     24  H63 UNL     1       0.838  -1.836   3.768  1.00  0.00     0.274 HD
ATOM     25  H62 UNL     1       1.480  -2.432   2.471  1.00  0.00     0.274 HD
ATOM     26  H61 UNL     1       2.418  -1.420   3.415  1.00  0.00     0.274 HD
ENDBRANCH  21  23
BRANCH  22  27
HETATM   27  C10 UNL     1       2.458   0.435   0.549  1.00  0.00     0.253 C 
HETATM   28  O2  UNL     1       2.252   1.598   0.120  1.00  0.00    -0.271 OA
HETATM   29  N7  UNL     1       3.799   0.050   0.801  1.00  0.00    -0.357 N 
ATOM     30  H7  UNL     1       3.960  -0.894   1.151  1.00  0.00     0.162 HD
BRANCH  29  31
HETATM   31  C11 UNL     1       4.952   0.892   0.600  1.00  0.00     0.148 C 
BRANCH  31  32
HETATM   32  C12 UNL     1       5.157   1.351  -0.806  1.00  0.00     0.183 C 
BRANCH  32  33
HETATM   33  O3  UNL     1       6.291   2.159  -0.921  1.00  0.00    -0.399 OA
ATOM     34  H3  UNL     1       6.421   2.451  -1.816  1.00  0.00     0.209 HD
ENDBRANCH  32  33
ENDBRANCH  31  32
ENDBRANCH  29  31
ENDBRANCH  22  27
ENDBRANCH   1  19
TORSDOF 15
