REMARK  13 active torsions:
REMARK  status: ('A' for Active; 'I' for Inactive)
REMARK    1  A    between atoms: N1_2  and  C2_5 
REMARK    2  A    between atoms: C2_5  and  C3_6 
REMARK    3  A    between atoms: C3_6  and  C4_7 
REMARK    4  A    between atoms: C4_7  and  N2_8 
REMARK    5  A    between atoms: N2_8  and  C5_11 
REMARK    6  A    between atoms: C5_11  and  C6_12 
REMARK       I    between atoms: C6_12  and  N3_14 
REMARK    7  A    between atoms: N3_14  and  C7_16 
REMARK    8  A    between atoms: C7_16  and  C8_17 
REMARK    9  A    between atoms: C9_21  and  N5_22 
REMARK   10  A    between atoms: N5_22  and  C10_24 
REMARK   11  A    between atoms: C10_24  and  C11_28 
REMARK   12  A    between atoms: C11_28  and  N7_29 
REMARK   13  A    between atoms: C11_28  and  C12_33 
ROOT
HETATM    1  C8  UNL     1      -1.851   0.772   1.664  1.00  0.00     0.255 A 
HETATM    2  N4  UNL     1      -2.044   1.419   0.377  1.00  0.00    -0.043 N 
ATOM      3  H41 UNL     1      -1.668   1.264  -0.558  1.00  0.00     0.280 HD
ATOM      4  H42 UNL     1      -1.773   2.323  -0.010  1.00  0.00     0.280 HD
HETATM    5  C9  UNL     1      -3.216   0.933   1.090  1.00  0.00     0.318 A 
ENDROOT
BRANCH   1   6
HETATM    6  C7  UNL     1      -1.186  -0.570   1.640  1.00  0.00     0.159 C 
BRANCH   6   7
HETATM    7  N3  UNL     1       0.145  -0.511   1.062  1.00  0.00    -0.358 N 
HETATM    8  C6  UNL     1       1.135   0.301   1.659  1.00  0.00     0.243 C 
HETATM    9  O1  UNL     1       0.874   0.971   2.687  1.00  0.00    -0.272 OA
ATOM     10  H3  UNL     1       0.364  -1.054   0.227  1.00  0.00     0.162 HD
BRANCH   8  11
HETATM   11  C5  UNL     1       2.519   0.401   1.109  1.00  0.00     0.334 C 
BRANCH  11  12
HETATM   12  N2  UNL     1       2.615  -0.428  -0.063  1.00  0.00    -0.067 N 
ATOM     13  H22 UNL     1       1.894  -0.176  -0.739  1.00  0.00     0.277 HD
ATOM     14  H21 UNL     1       2.326  -1.383   0.150  1.00  0.00     0.277 HD
BRANCH  12  15
HETATM   15  C4  UNL     1       3.912  -0.420  -0.682  1.00  0.00     0.234 C 
BRANCH  15  16
HETATM   16  C3  UNL     1       4.894  -1.103   0.209  1.00  0.00     0.055 C 
BRANCH  16  17
HETATM   17  C2  UNL     1       6.295  -1.132  -0.400  1.00  0.00     0.233 C 
BRANCH  17  18
HETATM   18  N1  UNL     1       6.692   0.249  -0.596  1.00  0.00    -0.079 N 
HETATM   19  C1  UNL     1       7.995   0.389  -1.166  1.00  0.00     0.266 C 
ATOM     20  H12 UNL     1       6.620   0.773   0.276  1.00  0.00     0.276 HD
ATOM     21  H11 UNL     1       5.998   0.750  -1.152  1.00  0.00     0.276 HD
ENDBRANCH  17  18
ENDBRANCH  16  17
ENDBRANCH  15  16
ENDBRANCH  12  15
ENDBRANCH  11  12
ENDBRANCH   8  11
ENDBRANCH   6   7
ENDBRANCH   1   6
BRANCH   5  22
HETATM   22  N5  UNL     1      -3.922  -0.154   0.497  1.00  0.00    -0.349 N 
ATOM     23  H5  UNL     1      -3.495  -1.079   0.449  1.00  0.00     0.163 HD
BRANCH  22  24
HETATM   24  C10 UNL     1      -5.234   0.062  -0.030  1.00  0.00     0.112 C 
HETATM   25  N6  UNL     1      -6.188   0.445   0.742  1.00  0.00    -0.387 N 
ATOM     26  H62 UNL     1      -5.979   0.586   1.730  1.00  0.00     0.157 HD
ATOM     27  H61 UNL     1      -7.124   0.599   0.366  1.00  0.00     0.157 HD
BRANCH  24  28
HETATM   28  C11 UNL     1      -5.538  -0.144  -1.469  1.00  0.00     0.338 C 
BRANCH  28  29
HETATM   29  N7  UNL     1      -4.769   0.711  -2.324  1.00  0.00    -0.060 N 
ATOM     30  H73 UNL     1      -4.884   1.690  -2.062  1.00  0.00     0.275 HD
ATOM     31  H72 UNL     1      -3.771   0.608  -2.142  1.00  0.00     0.275 HD
ATOM     32  H71 UNL     1      -4.978   0.570  -3.312  1.00  0.00     0.275 HD
ENDBRANCH  28  29
BRANCH  28  33
HETATM   33  C12 UNL     1      -6.979   0.090  -1.705  1.00  0.00     0.269 C 
HETATM   34  N8  UNL     1      -7.973  -0.623  -0.983  1.00  0.00    -0.060 NA
HETATM   35  O2  UNL     1      -7.334   0.934  -2.558  1.00  0.00    -0.274 OA
ENDBRANCH  28  33
ENDBRANCH  24  28
ENDBRANCH  22  24
ENDBRANCH   5  22
TORSDOF 13
