REMARK  6 active torsions:
REMARK  status: ('A' for Active; 'I' for Inactive)
REMARK    1  A    between atoms: C2_2  and  C3_4 
REMARK    2  A    between atoms: C3_4  and  C4_5 
REMARK    3  A    between atoms: C4_5  and  C5_6 
REMARK    4  A    between atoms: C5_6  and  O3_8 
REMARK    5  A    between atoms: O3_8  and  C6_9 
REMARK    6  A    between atoms: C6_9  and  C7_10 
ROOT
HETATM    1  C4  UNL     1      -0.548   0.100  -0.141  1.00  0.00     0.061 C 
HETATM    2  C8  UNL     1      -0.668  -0.344  -1.540  1.00  0.00     0.021 C 
HETATM    3  C9  UNL     1      -1.577  -1.511  -1.794  1.00  0.00     0.001 C 
HETATM    4  C10 UNL     1      -1.551  -2.597  -0.796  1.00  0.00     0.001 C 
HETATM    5  C11 UNL     1      -0.634  -2.365   0.370  1.00  0.00     0.010 C 
HETATM    6  C12 UNL     1      -0.925  -0.970   0.873  1.00  0.00    -0.030 C 
HETATM    7  C13 UNL     1      -0.126  -0.781   2.148  1.00  0.00     0.016 C 
HETATM    8  C14 UNL     1      -2.399  -0.922   1.212  1.00  0.00     0.016 C 
ENDROOT
BRANCH   1   9
HETATM    9  C3  UNL     1      -1.281   1.347   0.212  1.00  0.00     0.098 C 
BRANCH   9  10
HETATM   10  C2  UNL     1      -0.924   2.564  -0.510  1.00  0.00     0.124 C 
HETATM   11  C1  UNL     1      -1.559   3.869  -0.186  1.00  0.00     0.091 C 
HETATM   12  O1  UNL     1      -0.098   2.538  -1.396  1.00  0.00    -0.298 OA
ENDBRANCH   9  10
ENDBRANCH   1   9
BRANCH   1  13
HETATM   13  C5  UNL     1       0.911   0.358   0.153  1.00  0.00     0.269 C 
HETATM   14  O2  UNL     1       1.333   1.374   0.728  1.00  0.00    -0.264 OA
BRANCH  13  15
HETATM   15  O3  UNL     1       1.830  -0.591  -0.238  1.00  0.00    -0.312 OA
BRANCH  15  16
HETATM   16  C6  UNL     1       3.203  -0.467  -0.025  1.00  0.00     0.278 C 
BRANCH  16  17
HETATM   17  C7  UNL     1       3.839   0.688  -0.688  1.00  0.00     0.255 C 
HETATM   18  N1  UNL     1       5.235   0.856  -0.466  1.00  0.00    -0.060 NA
HETATM   19  O4  UNL     1       3.218   1.495  -1.410  1.00  0.00    -0.274 OA
ENDBRANCH  16  17
ENDBRANCH  15  16
ENDBRANCH  13  15
ENDBRANCH   1  13
TORSDOF 6
