REMARK  9 active torsions:
REMARK  status: ('A' for Active; 'I' for Inactive)
REMARK    1  A    between atoms: C3_5  and  N2_6 
REMARK    2  A    between atoms: C4_11  and  N4_12 
REMARK    3  A    between atoms: N4_12  and  N5_14 
REMARK    4  A    between atoms: N5_14  and  N6_16 
REMARK    5  A    between atoms: N6_16  and  C5_18 
REMARK    6  A    between atoms: C6_23  and  C7_24 
REMARK    7  A    between atoms: C10_31  and  C11_32 
REMARK    8  A    between atoms: C11_32  and  O1_33 
REMARK    9  A    between atoms: C11_32  and  O2_35 
ROOT
HETATM    1  C5  UNL     1       0.043   0.558   1.161  1.00  0.00     0.713 A 
HETATM    2  N7  UNL     1       0.998   1.477   1.383  1.00  0.00    -0.130 N 
ATOM      3  H7  UNL     1       0.755   2.365   1.823  1.00  0.00     0.205 HD
HETATM    4  N8  UNL     1       2.235   1.240   1.039  1.00  0.00    -0.281 N 
ATOM      5  H8  UNL     1       2.930   1.964   1.223  1.00  0.00     0.188 HD
HETATM    6  C6  UNL     1       2.656   0.082   0.448  1.00  0.00     0.120 A 
HETATM    7  C10 UNL     1       1.714  -0.861   0.216  1.00  0.00     0.112 A 
HETATM    8  N11 UNL     1       0.424  -0.586   0.585  1.00  0.00    -0.185 N 
ATOM      9  H11 UNL     1      -0.287  -1.296   0.410  1.00  0.00     0.184 HD
ENDROOT
BRANCH   1  10
HETATM   10  N6  UNL     1      -1.315   0.781   1.520  1.00  0.00    -0.116 N 
ATOM     11  H6  UNL     1      -1.824   0.101   2.084  1.00  0.00     0.207 HD
BRANCH  10  12
HETATM   12  N5  UNL     1      -1.886   1.862   1.116  1.00  0.00    -0.214 N 
ATOM     13  H5  UNL     1      -1.358   2.528   0.552  1.00  0.00     0.209 HD
BRANCH  12  14
HETATM   14  N4  UNL     1      -3.218   2.136   1.438  1.00  0.00    -0.116 N 
ATOM     15  H4  UNL     1      -3.464   2.728   2.231  1.00  0.00     0.207 HD
BRANCH  14  16
HETATM   16  C4  UNL     1      -4.122   1.606   0.687  1.00  0.00     0.713 A 
HETATM   17  N3  UNL     1      -5.400   1.852   0.974  1.00  0.00    -0.021 N 
HETATM   18  C3  UNL     1      -6.373   1.325   0.225  1.00  0.00     0.691 A 
ATOM     19  H3  UNL     1      -5.637   2.445   1.769  1.00  0.00     0.203 HD
HETATM   20  N1  UNL     1      -6.053   0.538  -0.828  1.00  0.00    -0.180 N 
HETATM   21  C2  UNL     1      -4.777   0.270  -1.144  1.00  0.00     0.109 A 
ATOM     22  H1  UNL     1      -6.800   0.139  -1.396  1.00  0.00     0.185 HD
HETATM   23  C1  UNL     1      -4.417  -0.590  -2.296  1.00  0.00     0.090 C 
HETATM   24  N12 UNL     1      -3.815   0.811  -0.378  1.00  0.00    -0.178 N 
ATOM     25  H12 UNL     1      -2.837   0.624  -0.597  1.00  0.00     0.185 HD
BRANCH  18  26
HETATM   26  N2  UNL     1      -7.594   1.577   0.522  1.00  0.00    -0.234 N 
ATOM     27  H22 UNL     1      -8.337   1.175  -0.050  1.00  0.00     0.174 HD
ATOM     28  H21 UNL     1      -7.835   2.170   1.316  1.00  0.00     0.174 HD
ENDBRANCH  18  26
ENDBRANCH  14  16
ENDBRANCH  12  14
ENDBRANCH  10  12
ENDBRANCH   1  10
BRANCH   7  29
HETATM   29  C11 UNL     1       2.024  -2.162  -0.368  1.00  0.00     0.308 C 
BRANCH  29  30
HETATM   30  O1  UNL     1       3.106  -2.805   0.210  1.00  0.00    -0.366 OA
ATOM     31  H1  UNL     1       3.308  -3.652  -0.170  1.00  0.00     0.213 HD
ENDBRANCH  29  30
BRANCH  29  32
HETATM   32  O2  UNL     1       0.927  -3.017  -0.127  1.00  0.00    -0.366 OA
ATOM     33  H2  UNL     1       1.129  -3.864  -0.507  1.00  0.00     0.213 HD
ENDBRANCH  29  32
ENDBRANCH   7  29
BRANCH   6  34
HETATM   34  C7  UNL     1       4.075  -0.040   0.102  1.00  0.00     0.128 C 
HETATM   35  N9  UNL     1       4.637  -0.618  -0.873  1.00  0.00    -0.373 N 
HETATM   36  C8  UNL     1       6.069  -0.532  -0.892  1.00  0.00     0.141 C 
ATOM     37  H9  UNL     1       4.110  -1.110  -1.594  1.00  0.00     0.161 HD
HETATM   38  C9  UNL     1       6.336   0.514   0.151  1.00  0.00     0.141 C 
HETATM   39  N10 UNL     1       5.100   0.532   0.907  1.00  0.00    -0.373 N 
ATOM     40  H10 UNL     1       4.984   0.893   1.854  1.00  0.00     0.161 HD
ENDBRANCH   6  34
TORSDOF 9
