REMARK  16 active torsions:
REMARK  status: ('A' for Active; 'I' for Inactive)
REMARK    1  A    between atoms: N2_6  and  O1_7 
REMARK    2  A    between atoms: C7_15  and  N5_16 
REMARK    3  A    between atoms: C10_26  and  N8_27 
REMARK    4  A    between atoms: N8_27  and  C11_28 
REMARK    5  A    between atoms: C11_28  and  C12_29 
REMARK    6  A    between atoms: C12_29  and  C13_30 
REMARK    7  A    between atoms: C13_30  and  C14_31 
REMARK    8  A    between atoms: C14_31  and  C15_32 
REMARK    9  A    between atoms: C15_32  and  C16_33 
REMARK   10  A    between atoms: C16_33  and  C17_34 
REMARK   11  A    between atoms: C17_34  and  C18_35 
REMARK   12  A    between atoms: C18_35  and  C19_36 
REMARK   13  A    between atoms: C19_36  and  C20_37 
REMARK   14  A    between atoms: C20_37  and  N9_38 
REMARK   15  A    between atoms: N9_38  and  C21_41 
REMARK   16  A    between atoms: C21_41  and  C22_42 
ROOT
HETATM    1  N1  UNL     1      -1.577   2.333   0.118  1.00  0.00    -0.191 NA
HETATM    2  C1  UNL     1      -2.356   1.879  -0.584  1.00  0.00     0.100 C 
HETATM    3  C2  UNL     1      -3.296   1.397  -1.514  1.00  0.00     0.063 A 
HETATM    4  C3  UNL     1      -3.076   1.694  -2.887  1.00  0.00     0.043 A 
HETATM    5  C4  UNL     1      -4.013   1.430  -3.846  1.00  0.00     0.126 A 
HETATM    6  N2  UNL     1      -5.177   0.875  -3.489  1.00  0.00    -0.218 N 
HETATM    7  C5  UNL     1      -5.418   0.574  -2.179  1.00  0.00     0.149 A 
HETATM    8  N3  UNL     1      -6.623   0.076  -1.917  1.00  0.00    -0.325 N 
ATOM      9  H3  UNL     1      -7.270  -0.089  -2.688  1.00  0.00     0.169 HD
HETATM   10  C6  UNL     1      -7.010  -0.214  -0.673  1.00  0.00     0.140 A 
HETATM   11  N4  UNL     1      -8.261  -0.654  -0.448  1.00  0.00    -0.176 N 
ATOM     12  H4  UNL     1      -8.899  -0.815  -1.228  1.00  0.00     0.186 HD
HETATM   13  C7  UNL     1      -8.659  -0.877   0.806  1.00  0.00     0.679 A 
HETATM   14  N6  UNL     1      -7.862  -0.679   1.850  1.00  0.00    -0.176 N 
ATOM     15  H6  UNL     1      -8.202  -0.859   2.795  1.00  0.00     0.186 HD
HETATM   16  C8  UNL     1      -6.579  -0.232   1.654  1.00  0.00     0.132 A 
HETATM   17  N7  UNL     1      -5.904   0.060   2.692  1.00  0.00    -0.384 N 
ATOM     18  H71 UNL     1      -4.951   0.392   2.546  1.00  0.00     0.157 HD
ATOM     19  H72 UNL     1      -6.245  -0.115   3.637  1.00  0.00     0.157 HD
HETATM   20  C9  UNL     1      -6.122   0.003   0.387  1.00  0.00     0.094 A 
HETATM   21  C10 UNL     1      -4.830   0.518   0.148  1.00  0.00     0.133 A 
HETATM   22  C27 UNL     1      -4.479   0.829  -1.191  1.00  0.00     0.072 A 
ENDROOT
BRANCH  21  23
HETATM   23  N8  UNL     1      -3.945   0.389   0.984  1.00  0.00    -0.446 NA
BRANCH  23  24
HETATM   24  C11 UNL     1      -3.166   0.116   2.046  1.00  0.00     0.218 C 
BRANCH  24  25
HETATM   25  C12 UNL     1      -2.091  -0.990   1.776  1.00  0.00     0.033 C 
BRANCH  25  26
HETATM   26  C13 UNL     1      -1.335  -1.132   3.080  1.00  0.00     0.002 C 
BRANCH  26  27
HETATM   27  C14 UNL     1      -0.254  -2.163   2.999  1.00  0.00     0.000 C 
BRANCH  27  28
HETATM   28  C15 UNL     1       0.782  -1.842   1.938  1.00  0.00     0.000 C 
BRANCH  28  29
HETATM   29  C16 UNL     1       1.451  -0.502   2.236  1.00  0.00     0.000 C 
BRANCH  29  30
HETATM   30  C17 UNL     1       2.470  -0.271   1.121  1.00  0.00     0.000 C 
BRANCH  30  31
HETATM   31  C18 UNL     1       3.194   1.029   1.309  1.00  0.00     0.002 C 
BRANCH  31  32
HETATM   32  C19 UNL     1       4.169   1.239   0.189  1.00  0.00     0.027 C 
BRANCH  32  33
HETATM   33  C20 UNL     1       5.175   0.142   0.159  1.00  0.00     0.232 C 
BRANCH  33  34
HETATM   34  N9  UNL     1       6.104   0.436  -0.950  1.00  0.00    -0.070 N 
ATOM     35  H92 UNL     1       5.633   0.568  -1.845  1.00  0.00     0.277 HD
ATOM     36  H91 UNL     1       6.524   1.364  -0.888  1.00  0.00     0.277 HD
BRANCH  34  37
HETATM   37  C21 UNL     1       7.089  -0.642  -0.970  1.00  0.00     0.289 C 
BRANCH  37  38
HETATM   38  C22 UNL     1       8.027  -0.343  -2.088  1.00  0.00     0.034 A 
HETATM   39  C23 UNL     1       9.127   0.444  -1.763  1.00  0.00     0.027 A 
HETATM   40  C24 UNL     1      10.018   0.736  -2.791  1.00  0.00     0.003 A 
HETATM   41  C25 UNL     1       9.788   0.254  -4.049  1.00  0.00     0.017 A 
HETATM   42  C26 UNL     1       8.695  -0.513  -4.314  1.00  0.00     0.088 A 
HETATM   43  N10 UNL     1       7.810  -0.811  -3.321  1.00  0.00    -0.368 N 
ATOM     44  H10 UNL     1       6.990  -1.385  -3.517  1.00  0.00     0.165 HD
ENDBRANCH  37  38
ENDBRANCH  34  37
ENDBRANCH  33  34
ENDBRANCH  32  33
ENDBRANCH  31  32
ENDBRANCH  30  31
ENDBRANCH  29  30
ENDBRANCH  28  29
ENDBRANCH  27  28
ENDBRANCH  26  27
ENDBRANCH  25  26
ENDBRANCH  24  25
ENDBRANCH  23  24
ENDBRANCH  21  23
BRANCH   6  45
HETATM   45  O1  UNL     1      -6.108   0.620  -4.466  1.00  0.00    -0.282 OA
ATOM     46  H1  UNL     1      -6.934   0.226  -4.213  1.00  0.00     0.245 HD
ENDBRANCH   6  45
BRANCH  13  47
HETATM   47  N5  UNL     1      -9.862  -1.300   0.991  1.00  0.00    -0.234 N 
ATOM     48  H52 UNL     1     -10.474  -1.452   0.189  1.00  0.00     0.174 HD
ATOM     49  H51 UNL     1     -10.166  -1.470   1.950  1.00  0.00     0.174 HD
ENDBRANCH  13  47
TORSDOF 16
