REMARK  9 active torsions:
REMARK  status: ('A' for Active; 'I' for Inactive)
REMARK       I    between atoms: C2_2  and  N1_4 
REMARK    1  A    between atoms: C3_5  and  C4_6 
REMARK    2  A    between atoms: C4_6  and  N3_12 
REMARK    3  A    between atoms: N2_7  and  C5_9 
REMARK    4  A    between atoms: N3_12  and  C8_14 
REMARK    5  A    between atoms: C8_14  and  C11_17 
REMARK    6  A    between atoms: C15_25  and  O3_26 
REMARK    7  A    between atoms: O3_26  and  C16_27 
REMARK    8  A    between atoms: C16_27  and  C17_28 
REMARK    9  A    between atoms: C17_28  and  O4_29 
ROOT
HETATM    1  C1  UNL     1      -0.198   1.114   2.792  1.00  0.00     0.117 C 
HETATM    2  C2  UNL     1       0.677   0.242   1.970  1.00  0.00     0.218 C 
HETATM    3  O1  UNL     1       1.381  -0.575   2.652  1.00  0.00    -0.274 OA
HETATM    4  N1  UNL     1       0.736   0.301   0.561  1.00  0.00    -0.309 N 
HETATM    5  C3  UNL     1      -0.125   1.216  -0.212  1.00  0.00     0.295 C 
HETATM    6  O2  UNL     1       0.491   1.344  -1.472  1.00  0.00    -0.352 OA
HETATM    7  C12 UNL     1       1.700   0.730  -1.441  1.00  0.00     0.150 C 
HETATM    8  C13 UNL     1       2.686   1.651  -0.773  1.00  0.00     0.037 C 
HETATM    9  C14 UNL     1       3.407   0.854   0.297  1.00  0.00     0.036 C 
HETATM   10  C15 UNL     1       3.006  -0.562  -0.030  1.00  0.00     0.147 C 
HETATM   11  C18 UNL     1       1.542  -0.386  -0.394  1.00  0.00     0.148 C 
ENDROOT
BRANCH   5  12
HETATM   12  C4  UNL     1      -1.447   0.647  -0.510  1.00  0.00     0.124 C 
HETATM   13  N2  UNL     1      -2.528   1.230  -0.233  1.00  0.00    -0.372 N 
ATOM     14  H2  UNL     1      -3.358   0.702  -0.503  1.00  0.00     0.161 HD
BRANCH  13  15
HETATM   15  C5  UNL     1      -2.819   2.468   0.376  1.00  0.00     0.074 C 
HETATM   16  C6  UNL     1      -3.997   2.334   1.350  1.00  0.00     0.031 C 
HETATM   17  C7  UNL     1      -3.277   3.514  -0.651  1.00  0.00     0.031 C 
ENDBRANCH  13  15
BRANCH  12  18
HETATM   18  N3  UNL     1      -1.509  -0.598  -1.186  1.00  0.00    -0.359 N 
ATOM     19  H3  UNL     1      -0.844  -0.757  -1.942  1.00  0.00     0.162 HD
BRANCH  18  20
HETATM   20  C8  UNL     1      -2.436  -1.650  -0.887  1.00  0.00     0.122 C 
HETATM   21  C9  UNL     1      -2.189  -2.784  -1.893  1.00  0.00     0.047 C 
HETATM   22  C10 UNL     1      -3.853  -1.174  -1.174  1.00  0.00     0.047 C 
BRANCH  20  23
HETATM   23  C11 UNL     1      -2.353  -2.200   0.508  1.00  0.00     0.411 C 
HETATM   24  F1  UNL     1      -1.130  -2.731   0.805  1.00  0.00    -0.168 F 
HETATM   25  F2  UNL     1      -2.816  -1.285   1.430  1.00  0.00    -0.168 F 
HETATM   26  F3  UNL     1      -3.245  -3.290   0.523  1.00  0.00    -0.168 F 
ENDBRANCH  20  23
ENDBRANCH  18  20
ENDBRANCH  12  18
ENDBRANCH   5  12
BRANCH  10  27
HETATM   27  O3  UNL     1       3.294  -1.510   0.861  1.00  0.00    -0.382 OA
BRANCH  27  28
HETATM   28  C16 UNL     1       4.104  -2.542   0.508  1.00  0.00     0.194 C 
BRANCH  28  29
HETATM   29  C17 UNL     1       5.522  -2.231   0.159  1.00  0.00     0.190 C 
BRANCH  29  30
HETATM   30  O4  UNL     1       5.733  -1.388  -0.899  1.00  0.00    -0.399 OA
ATOM     31  H4  UNL     1       6.635  -1.190  -1.121  1.00  0.00     0.209 HD
ENDBRANCH  29  30
ENDBRANCH  28  29
ENDBRANCH  27  28
ENDBRANCH  10  27
TORSDOF 9
