REMARK  5 active torsions:
REMARK  status: ('A' for Active; 'I' for Inactive)
REMARK    1  A    between atoms: O1_2  and  C2_3 
REMARK       I    between atoms: N1_6  and  C5_7 
REMARK       I    between atoms: C5_7  and  N2_9 
REMARK    2  A    between atoms: N2_9  and  C6_11 
REMARK    3  A    between atoms: C8_15  and  C9_16 
REMARK    4  A    between atoms: C9_16  and  O3_18 
REMARK    5  A    between atoms: C9_16  and  C12_20 
ROOT
HETATM    1  C6  UNL     1      -0.875   0.226   0.112  1.00  0.00     0.073 A 
HETATM    2  C7  UNL     1      -1.617  -0.924   0.095  1.00  0.00     0.119 A 
HETATM    3  N3  UNL     1      -2.988  -0.845   0.049  1.00  0.00    -0.364 N 
ATOM      4  H3  UNL     1      -3.522  -1.714   0.037  1.00  0.00     0.165 HD
HETATM    5  C8  UNL     1      -3.651   0.296   0.020  1.00  0.00     0.054 A 
HETATM    6  C13 UNL     1      -2.929   1.466   0.037  1.00  0.00     0.054 A 
HETATM    7  C14 UNL     1      -1.562   1.427   0.082  1.00  0.00     0.064 A 
HETATM    8 CL1  UNL     1      -0.682   2.919   0.101  1.00  0.00    -0.082 Cl
ENDROOT
BRANCH   1   9
HETATM    9  N2  UNL     1       0.515   0.229   0.179  1.00  0.00    -0.306 N 
HETATM   10  C5  UNL     1       1.369  -0.885   0.181  1.00  0.00     0.323 C 
HETATM   11  N1  UNL     1       2.788  -0.697   0.262  1.00  0.00    -0.334 N 
HETATM   12  O2  UNL     1       1.014  -2.098   0.115  1.00  0.00    -0.247 OA
HETATM   13  C4  UNL     1       3.620  -1.866   0.240  1.00  0.00     0.130 C 
HETATM   14  C15 UNL     1       3.282   0.651   0.375  1.00  0.00     0.130 C 
HETATM   15  C3  UNL     1       5.079  -1.637   0.314  1.00  0.00     0.052 C 
HETATM   16  C2  UNL     1       5.456  -0.274  -0.212  1.00  0.00     0.123 C 
HETATM   17  C16 UNL     1       4.766   0.714   0.697  1.00  0.00     0.052 C 
ATOM     18  H2  UNL     1       0.964   1.143   0.233  1.00  0.00     0.171 HD
BRANCH  16  19
HETATM   19  O1  UNL     1       6.840  -0.120  -0.187  1.00  0.00    -0.391 OA
HETATM   20  C1  UNL     1       7.275   0.112  -1.483  1.00  0.00     0.202 C 
ENDBRANCH  16  19
ENDBRANCH   1   9
BRANCH   5  21
HETATM   21  C9  UNL     1      -5.162   0.299  -0.020  1.00  0.00     0.196 C 
HETATM   22  C10 UNL     1      -5.588   1.418  -0.919  1.00  0.00     0.063 C 
BRANCH  21  23
HETATM   23  O3  UNL     1      -5.608   0.410   1.261  1.00  0.00    -0.370 OA
HETATM   24  C11 UNL     1      -6.940   0.458   1.498  1.00  0.00     0.203 C 
ENDBRANCH  21  23
BRANCH  21  25
HETATM   25  C12 UNL     1      -5.597  -1.019  -0.650  1.00  0.00     0.423 C 
HETATM   26  F1  UNL     1      -5.175  -2.092   0.086  1.00  0.00    -0.167 F 
HETATM   27  F2  UNL     1      -4.985  -1.091  -1.913  1.00  0.00    -0.167 F 
HETATM   28  F3  UNL     1      -6.941  -1.091  -0.876  1.00  0.00    -0.167 F 
ENDBRANCH  21  25
ENDBRANCH   5  21
TORSDOF 5
