REMARK  3 active torsions:
REMARK  status: ('A' for Active; 'I' for Inactive)
REMARK    1  A    between atoms: N1_1  and  N2_4 
REMARK       I    between atoms: N2_4  and  C1_6 
REMARK       I    between atoms: C1_6  and  N3_8 
REMARK    2  A    between atoms: N3_8  and  N4_10 
REMARK    3  A    between atoms: N4_10  and  C2_12 
ROOT
HETATM    1  N4  UNL     1       0.156  -1.609  -0.602  1.00  0.00    -0.127 N 
ATOM      2  H4  UNL     1      -0.033  -2.604  -0.721  1.00  0.00     0.206 HD
ENDROOT
BRANCH   1   3
HETATM    3  N3  UNL     1       1.462  -1.190  -0.494  1.00  0.00    -0.236 N 
HETATM    4  C1  UNL     1       2.070  -1.027   0.775  1.00  0.00     0.353 C 
HETATM    5  N2  UNL     1       3.422  -0.594   0.923  1.00  0.00    -0.257 N 
HETATM    6  O1  UNL     1       1.400  -1.269   1.796  1.00  0.00    -0.244 OA
ATOM      7  H2  UNL     1       3.986  -0.391   0.098  1.00  0.00     0.191 HD
ATOM      8  H3  UNL     1       1.999  -0.994  -1.339  1.00  0.00     0.192 HD
BRANCH   5   9
HETATM    9  N1  UNL     1       3.967  -0.450   2.187  1.00  0.00    -0.341 N 
ATOM     10  H12 UNL     1       3.389  -0.657   3.002  1.00  0.00     0.177 HD
ATOM     11  H11 UNL     1       4.933  -0.141   2.293  1.00  0.00     0.177 HD
ENDBRANCH   5   9
ENDBRANCH   1   3
BRANCH   1  12
HETATM   12  C2  UNL     1      -0.848  -0.781  -0.558  1.00  0.00     0.711 A 
HETATM   13  N5  UNL     1      -2.119  -1.210  -0.665  1.00  0.00    -0.196 N 
HETATM   14  C3  UNL     1      -3.115  -0.339  -0.616  1.00  0.00     0.152 A 
ATOM     15  H5  UNL     1      -2.315  -2.204  -0.784  1.00  0.00     0.183 HD
HETATM   16  C4  UNL     1      -2.841   1.023  -0.453  1.00  0.00     0.147 A 
HETATM   17  N6  UNL     1      -3.863   1.991  -0.395  1.00  0.00    -0.080 NA
HETATM   18  N7  UNL     1      -1.549   1.407  -0.350  1.00  0.00    -0.272 N 
HETATM   19  N8  UNL     1      -0.559   0.530  -0.400  1.00  0.00    -0.129 N 
ATOM     20  H7  UNL     1      -1.332   2.396  -0.231  1.00  0.00     0.189 HD
ATOM     21  H8  UNL     1       0.410   0.839  -0.320  1.00  0.00     0.205 HD
ENDBRANCH   1  12
TORSDOF 3
