REMARK  4 active torsions:
REMARK  status: ('A' for Active; 'I' for Inactive)
REMARK    1  A    between atoms: C4_6  and  N2_7 
REMARK    2  A    between atoms: N2_7  and  C5_9 
REMARK    3  A    between atoms: N3_15  and  C9_16 
REMARK    4  A    between atoms: C9_16  and  C10_17 
ROOT
HETATM    1  C1  UNL     1      -0.711  -2.086  -0.714  1.00  0.00     0.046 C 
HETATM    2  C2  UNL     1      -0.779  -1.015   0.058  1.00  0.00     0.056 A 
HETATM    3  C3  UNL     1       0.354  -0.139   0.479  1.00  0.00     0.083 A 
HETATM    4  N1  UNL     1       1.654  -0.067   0.300  1.00  0.00    -0.334 N 
ATOM      5  H1  UNL     1       2.137  -0.757  -0.275  1.00  0.00     0.168 HD
HETATM    6  C4  UNL     1       2.329   0.921   0.882  1.00  0.00     0.145 A 
HETATM    7  S1  UNL     1       1.108   1.779   1.707  1.00  0.00    -0.046 SA
HETATM    8  C7  UNL     1      -0.237   0.810   1.257  1.00  0.00     0.105 A 
HETATM    9  C8  UNL     1      -1.700   0.599   1.367  1.00  0.00     0.267 A 
HETATM   10  O1  UNL     1      -2.423   1.380   2.049  1.00  0.00    -0.266 OA
HETATM   11  N3  UNL     1      -1.997  -0.535   0.614  1.00  0.00    -0.312 N 
ENDROOT
BRANCH   6  12
HETATM   12  N2  UNL     1       3.598   1.192   0.849  1.00  0.00    -0.371 N 
ATOM     13  H2  UNL     1       3.973   1.996   1.353  1.00  0.00     0.161 HD
BRANCH  12  14
HETATM   14  C5  UNL     1       4.470   0.327   0.081  1.00  0.00     0.117 C 
HETATM   15  C6  UNL     1       5.828   0.943  -0.140  1.00  0.00     0.026 C 
ENDBRANCH  12  14
ENDBRANCH   6  12
BRANCH  11  16
HETATM   16  C9  UNL     1      -3.332  -1.091   0.450  1.00  0.00     0.132 C 
BRANCH  16  17
HETATM   17  C10 UNL     1      -3.964  -0.474  -0.767  1.00  0.00     0.016 C 
HETATM   18  C11 UNL     1      -4.093   1.016  -0.671  1.00  0.00     0.006 C 
ENDBRANCH  16  17
ENDBRANCH  11  16
TORSDOF 4
