REMARK  15 active torsions:
REMARK  status: ('A' for Active; 'I' for Inactive)
REMARK    1  A    between atoms: C3_3  and  C4_4 
REMARK    2  A    between atoms: C4_4  and  C5_5 
REMARK    3  A    between atoms: C5_5  and  C6_6 
REMARK    4  A    between atoms: C6_6  and  C7_7 
REMARK    5  A    between atoms: C7_7  and  C8_8 
REMARK    6  A    between atoms: C8_8  and  N1_9 
REMARK    7  A    between atoms: N1_9  and  C9_11 
REMARK    8  A    between atoms: C10_14  and  N3_15 
REMARK    9  A    between atoms: C12_21  and  S1_22 
REMARK   10  A    between atoms: S1_22  and  C13_23 
REMARK   11  A    between atoms: C13_23  and  C14_24 
REMARK   12  A    between atoms: C14_24  and  N5_25 
REMARK   13  A    between atoms: C16_34  and  N8_35 
REMARK   14  A    between atoms: N8_35  and  C17_37 
REMARK   15  A    between atoms: C17_37  and  C18_38 
ROOT
HETATM    1  C1  UNL     1      -7.243   2.698  -2.490  1.00  0.00     0.012 C 
HETATM    2  C2  UNL     1      -6.162   2.162  -2.608  1.00  0.00    -0.117 C 
HETATM    3  C3  UNL     1      -4.839   1.530  -2.766  1.00  0.00     0.093 C 
ENDROOT
BRANCH   3   4
HETATM    4  C4  UNL     1      -4.134   1.468  -1.379  1.00  0.00     0.012 C 
BRANCH   4   5
HETATM    5  C5  UNL     1      -5.023   0.662  -0.527  1.00  0.00     0.001 C 
BRANCH   5   6
HETATM    6  C6  UNL     1      -4.710   0.410   0.879  1.00  0.00     0.002 C 
BRANCH   6   7
HETATM    7  C7  UNL     1      -3.531  -0.319   1.328  1.00  0.00     0.020 C 
BRANCH   7   8
HETATM    8  C8  UNL     1      -2.174   0.196   1.006  1.00  0.00     0.121 C 
BRANCH   8   9
HETATM    9  N1  UNL     1      -1.138  -0.664   1.615  1.00  0.00    -0.373 N 
ATOM     10  H1  UNL     1      -1.385  -1.329   2.348  1.00  0.00     0.161 HD
BRANCH   9  11
HETATM   11  C9  UNL     1       0.078  -0.563   1.210  1.00  0.00     0.147 C 
HETATM   12  N2  UNL     1       0.365   0.337   0.230  1.00  0.00    -0.324 N 
HETATM   13  C10 UNL     1       1.343   0.339  -0.706  1.00  0.00     0.131 C 
ATOM     14  H2  UNL     1      -0.260   1.143   0.195  1.00  0.00     0.169 HD
HETATM   15  C11 UNL     1       2.504  -0.400  -0.679  1.00  0.00     0.123 A 
HETATM   16  N4  UNL     1       3.518  -0.220  -1.555  1.00  0.00    -0.331 N 
HETATM   17  C15 UNL     1       2.874  -1.415   0.179  1.00  0.00     0.140 A 
HETATM   18  C12 UNL     1       4.506  -1.086  -1.272  1.00  0.00     0.146 A 
ATOM     19  H4  UNL     1       3.531   0.465  -2.311  1.00  0.00     0.168 HD
HETATM   20  N6  UNL     1       4.087  -1.805  -0.209  1.00  0.00    -0.321 N 
ATOM     21  H6  UNL     1       4.627  -2.547   0.237  1.00  0.00     0.169 HD
HETATM   22  N7  UNL     1       2.131  -1.890   1.195  1.00  0.00    -0.323 N 
HETATM   23  C16 UNL     1       1.012  -1.386   1.800  1.00  0.00     0.151 C 
ATOM     24  H7  UNL     1       2.457  -2.777   1.580  1.00  0.00     0.169 HD
BRANCH  13  25
HETATM   25  N3  UNL     1       1.175   1.107  -1.726  1.00  0.00    -0.383 N 
ATOM     26  H32 UNL     1       0.315   1.655  -1.746  1.00  0.00     0.157 HD
ATOM     27  H31 UNL     1       1.912   1.109  -2.431  1.00  0.00     0.157 HD
ENDBRANCH  13  25
BRANCH  18  28
HETATM   28  S1  UNL     1       6.073  -1.253  -2.138  1.00  0.00    -0.092 SA
BRANCH  28  29
HETATM   29  C13 UNL     1       7.279  -0.139  -1.339  1.00  0.00     0.109 C 
BRANCH  29  30
HETATM   30  C14 UNL     1       6.849   1.316  -1.567  1.00  0.00     0.240 C 
BRANCH  30  31
HETATM   31  N5  UNL     1       6.825   1.514  -2.994  1.00  0.00    -0.079 N 
ATOM     32  H53 UNL     1       7.706   1.276  -3.450  1.00  0.00     0.274 HD
ATOM     33  H52 UNL     1       6.241   0.838  -3.486  1.00  0.00     0.274 HD
ATOM     34  H51 UNL     1       6.539   2.481  -3.146  1.00  0.00     0.274 HD
ENDBRANCH  30  31
ENDBRANCH  29  30
ENDBRANCH  28  29
ENDBRANCH  18  28
BRANCH  23  35
HETATM   35  N8  UNL     1       0.865  -1.722   2.982  1.00  0.00    -0.343 N 
ATOM     36  H8  UNL     1       1.629  -2.329   3.279  1.00  0.00     0.167 HD
BRANCH  35  37
HETATM   37  C17 UNL     1      -0.034  -1.518   4.030  1.00  0.00     0.174 C 
BRANCH  37  38
HETATM   38  C18 UNL     1      -1.009  -2.651   4.130  1.00  0.00     0.214 C 
HETATM   39  O1  UNL     1      -1.898  -2.571   5.009  1.00  0.00    -0.643 OA
HETATM   40  O2  UNL     1      -0.967  -3.750   3.313  1.00  0.00    -0.643 OA
ENDBRANCH  37  38
ENDBRANCH  35  37
ENDBRANCH  23  35
ENDBRANCH   9  11
ENDBRANCH   8   9
ENDBRANCH   7   8
ENDBRANCH   6   7
ENDBRANCH   5   6
ENDBRANCH   4   5
ENDBRANCH   3   4
TORSDOF 15
