REMARK  5 active torsions:
REMARK  status: ('A' for Active; 'I' for Inactive)
REMARK    1  A    between atoms: O1_2  and  C2_3 
REMARK    2  A    between atoms: C4_5  and  C5_6 
REMARK    3  A    between atoms: C8_12  and  C9_13 
REMARK    4  A    between atoms: C10_14  and  C11_15 
REMARK    5  A    between atoms: C11_15  and  C13_17 
ROOT
HETATM    1  C2  UNL     1       1.927   0.689   0.110  1.00  0.00     0.058 C 
HETATM    2  C3  UNL     1       2.947   0.021  -0.377  1.00  0.00     0.020 C 
HETATM    3  C4  UNL     1       2.892  -1.449  -0.577  1.00  0.00     0.098 C 
HETATM    4  C6  UNL     1       2.251  -2.028   0.637  1.00  0.00     0.204 C 
HETATM    5  O2  UNL     1       2.647  -3.107   1.142  1.00  0.00    -0.288 OA
HETATM    6  C7  UNL     1       1.139  -1.276   1.210  1.00  0.00     0.209 C 
HETATM    7  O3  UNL     1       0.606  -1.660   2.282  1.00  0.00    -0.288 OA
HETATM    8  C8  UNL     1       0.694  -0.063   0.464  1.00  0.00     0.142 C 
ENDROOT
BRANCH   8   9
HETATM    9  C9  UNL     1      -0.196   0.716   1.357  1.00  0.00    -0.011 C 
HETATM   10  C10 UNL     1      -1.450   1.025   1.125  1.00  0.00    -0.025 C 
BRANCH  10  11
HETATM   11  C11 UNL     1      -2.256   0.674  -0.060  1.00  0.00     0.007 C 
HETATM   12  C12 UNL     1      -2.794   1.964  -0.687  1.00  0.00     0.014 C 
BRANCH  11  13
HETATM   13  C13 UNL     1      -3.472  -0.153   0.289  1.00  0.00    -0.015 C 
HETATM   14  C14 UNL     1      -3.111  -1.451   0.951  1.00  0.00     0.010 C 
HETATM   15  C15 UNL     1      -4.235  -0.451  -0.983  1.00  0.00     0.010 C 
ENDBRANCH  11  13
ENDBRANCH  10  11
ENDBRANCH   8   9
BRANCH   1  16
HETATM   16  O1  UNL     1       2.057   2.061   0.268  1.00  0.00    -0.359 OA
HETATM   17  C1  UNL     1       3.306   2.681   0.329  1.00  0.00     0.209 C 
ENDBRANCH   1  16
BRANCH   3  18
HETATM   18  C5  UNL     1       4.275  -2.052  -0.673  1.00  0.00     0.101 C 
HETATM   19 BR1  UNL     1       5.276  -1.704   0.968  1.00  0.00    -0.095 Br
ENDBRANCH   3  18
TORSDOF 5
