REMARK  6 active torsions:
REMARK  status: ('A' for Active; 'I' for Inactive)
REMARK    1  A    between atoms: C2_2  and  C3_3 
REMARK       I    between atoms: N1_9  and  C9_10 
REMARK    2  A    between atoms: C9_10  and  C10_12 
REMARK       I    between atoms: C10_12  and  N2_14 
REMARK    3  A    between atoms: N2_14  and  C12_16 
REMARK    4  A    between atoms: C12_16  and  C13_17 
REMARK    5  A    between atoms: C13_17  and  S1_18 
REMARK    6  A    between atoms: S1_18  and  C14_19 
ROOT
HETATM    1  C3  UNL     1      -2.831   1.386  -0.826  1.00  0.00     0.087 C 
HETATM    2  C4  UNL     1      -4.243   0.862  -0.888  1.00  0.00     0.025 C 
HETATM    3  C5  UNL     1      -4.354  -0.580  -1.247  1.00  0.00     0.002 C 
HETATM    4  C6  UNL     1      -4.403  -1.524  -0.068  1.00  0.00     0.002 C 
HETATM    5  C7  UNL     1      -2.969  -1.809   0.366  1.00  0.00     0.020 C 
HETATM    6  C8  UNL     1      -2.282  -0.531   0.792  1.00  0.00     0.127 C 
HETATM    7  N1  UNL     1      -1.939   0.317  -0.285  1.00  0.00    -0.339 N 
HETATM    8  C9  UNL     1      -0.725   0.255  -0.971  1.00  0.00     0.312 C 
HETATM    9  O1  UNL     1      -0.558   1.121  -1.919  1.00  0.00    -0.262 OA
ENDROOT
BRANCH   8  10
HETATM   10  C10 UNL     1       0.326  -0.683  -0.701  1.00  0.00     0.311 C 
HETATM   11  O2  UNL     1       0.135  -1.549   0.227  1.00  0.00    -0.262 OA
HETATM   12  N2  UNL     1       1.578  -0.710  -1.408  1.00  0.00    -0.348 N 
HETATM   13  C11 UNL     1       1.824   0.236  -2.442  1.00  0.00     0.153 C 
BRANCH  12  14
HETATM   14  C12 UNL     1       2.472  -1.733  -0.970  1.00  0.00     0.136 C 
BRANCH  14  15
HETATM   15  C13 UNL     1       3.416  -1.455   0.105  1.00  0.00     0.097 C 
BRANCH  15  16
HETATM   16  S1  UNL     1       4.604  -0.153  -0.132  1.00  0.00    -0.125 SA
BRANCH  16  17
HETATM   17  C14 UNL     1       5.639  -0.039   1.363  1.00  0.00     0.144 C 
HETATM   18  C15 UNL     1       4.698   0.426   2.479  1.00  0.00     0.064 C 
HETATM   19  C16 UNL     1       6.189  -1.390   1.764  1.00  0.00     0.064 C 
HETATM   20  F1  UNL     1       6.647   0.885   1.159  1.00  0.00    -0.232 F 
ENDBRANCH  16  17
ENDBRANCH  15  16
ENDBRANCH  14  15
ENDBRANCH  12  14
ENDBRANCH   8  10
BRANCH   1  21
HETATM   21  C2  UNL     1      -2.725   2.615   0.041  1.00  0.00     0.021 C 
HETATM   22  C1  UNL     1      -3.590   3.745  -0.471  1.00  0.00     0.007 C 
ENDBRANCH   1  21
TORSDOF 6
