REMARK  5 active torsions:
REMARK  status: ('A' for Active; 'I' for Inactive)
REMARK    1  A    between atoms: O1_2  and  C2_3 
REMARK    2  A    between atoms: C5_6  and  C6_7 
REMARK    3  A    between atoms: C6_7  and  C7_8 
REMARK    4  A    between atoms: C7_8  and  S1_9 
REMARK    5  A    between atoms: S1_9  and  N1_12 
ROOT
HETATM    1  C6  UNL     1      -0.619   0.676  -0.608  1.00  0.00     0.008 C 
HETATM    2  C10 UNL     1      -0.631   0.923  -2.090  1.00  0.00     0.014 C 
HETATM    3  C11 UNL     1      -0.002   2.248  -2.461  1.00  0.00     0.001 C 
HETATM    4  C12 UNL     1      -0.727   3.401  -1.808  1.00  0.00     0.003 C 
HETATM    5  C13 UNL     1      -1.845   2.856  -0.961  1.00  0.00     0.038 C 
HETATM    6  C14 UNL     1      -1.216   1.900   0.038  1.00  0.00     0.179 C 
HETATM    7  F1  UNL     1      -0.239   2.693   0.659  1.00  0.00    -0.249 F 
ENDROOT
BRANCH   1   8
HETATM    8  C5  UNL     1       0.840   0.621  -0.121  1.00  0.00    -0.002 C 
HETATM    9  C4  UNL     1       1.576  -0.544  -0.709  1.00  0.00     0.008 C 
HETATM   10  C3  UNL     1       3.016  -0.443  -0.245  1.00  0.00     0.032 C 
HETATM   11  C2  UNL     1       3.116  -0.536   1.239  1.00  0.00     0.120 C 
HETATM   12  C16 UNL     1       1.723  -0.684   1.801  1.00  0.00     0.032 C 
HETATM   13  C15 UNL     1       0.943   0.540   1.365  1.00  0.00     0.008 C 
BRANCH  11  14
HETATM   14  O1  UNL     1       3.966  -1.546   1.671  1.00  0.00    -0.391 OA
HETATM   15  C1  UNL     1       5.013  -1.070   2.454  1.00  0.00     0.202 C 
ENDBRANCH  11  14
ENDBRANCH   1   8
BRANCH   1  16
HETATM   16  C7  UNL     1      -1.373  -0.526  -0.186  1.00  0.00     0.170 C 
BRANCH  16  17
HETATM   17  S1  UNL     1      -3.044  -0.665  -0.624  1.00  0.00     0.211 S 
HETATM   18  O2  UNL     1      -3.285  -0.787  -2.097  1.00  0.00    -0.211 OA
HETATM   19  O3  UNL     1      -3.938   0.360   0.027  1.00  0.00    -0.211 OA
BRANCH  17  20
HETATM   20  N1  UNL     1      -3.612  -2.192   0.041  1.00  0.00    -0.219 NA
HETATM   21  C8  UNL     1      -2.848  -3.269  -0.563  1.00  0.00     0.128 C 
HETATM   22  C9  UNL     1      -3.266  -2.189   1.463  1.00  0.00     0.128 C 
ENDBRANCH  17  20
ENDBRANCH  16  17
ENDBRANCH   1  16
TORSDOF 5
