REMARK  6 active torsions:
REMARK  status: ('A' for Active; 'I' for Inactive)
REMARK    1  A    between atoms: N1_1  and  C1_4 
REMARK    2  A    between atoms: C5_15  and  C6_16 
REMARK       I    between atoms: C6_16  and  N5_18 
REMARK    3  A    between atoms: N5_18  and  N6_20 
REMARK    4  A    between atoms: N7_23  and  C7_24 
REMARK    5  A    between atoms: C7_24  and  C8_25 
REMARK    6  A    between atoms: C8_25  and  C9_26 
ROOT
HETATM    1  C1  UNL     1      -3.500  -1.814  -0.100  1.00  0.00     0.134 A 
HETATM    2  N2  UNL     1      -3.078  -3.069  -0.066  1.00  0.00    -0.293 N 
ATOM      3  H2  UNL     1      -3.760  -3.824   0.003  1.00  0.00     0.172 HD
HETATM    4  C2  UNL     1      -1.771  -3.366  -0.120  1.00  0.00     0.327 A 
HETATM    5  O1  UNL     1      -1.445  -4.584  -0.082  1.00  0.00    -0.247 OA
HETATM    6  N3  UNL     1      -0.822  -2.395  -0.212  1.00  0.00    -0.292 N 
ATOM      7  H3  UNL     1       0.167  -2.642  -0.252  1.00  0.00     0.172 HD
HETATM    8  C3  UNL     1      -1.204  -1.108  -0.250  1.00  0.00     0.144 A 
HETATM    9  C4  UNL     1      -2.531  -0.802  -0.195  1.00  0.00     0.123 A 
HETATM   10  N4  UNL     1      -2.598   0.522  -0.250  1.00  0.00    -0.332 N 
ATOM     11  H4  UNL     1      -3.463   1.063  -0.229  1.00  0.00     0.168 HD
HETATM   12  C5  UNL     1      -1.317   1.070  -0.340  1.00  0.00     0.180 A 
HETATM   13  N7  UNL     1      -0.463   0.061  -0.340  1.00  0.00    -0.312 N 
ENDROOT
BRANCH  13  14
HETATM   14  C7  UNL     1       0.972   0.026  -0.438  1.00  0.00     0.140 C 
BRANCH  14  15
HETATM   15  C8  UNL     1       1.665   0.022   0.905  1.00  0.00     0.100 C 
BRANCH  15  16
HETATM   16  C9  UNL     1       3.128  -0.015   0.711  1.00  0.00     0.114 A 
HETATM   17  N8  UNL     1       3.826  -0.042  -0.447  1.00  0.00    -0.272 N 
HETATM   18  N9  UNL     1       5.112  -0.070  -0.157  1.00  0.00    -0.227 N 
ATOM     19  H8  UNL     1       3.426  -0.041  -1.385  1.00  0.00     0.190 HD
HETATM   20  N10 UNL     1       5.273  -0.062   1.153  1.00  0.00    -0.227 N 
ATOM     21  H9  UNL     1       5.868  -0.094  -0.841  1.00  0.00     0.210 HD
HETATM   22  N11 UNL     1       4.061  -0.028   1.675  1.00  0.00    -0.272 N 
ATOM     23  H10 UNL     1       6.157  -0.079   1.661  1.00  0.00     0.210 HD
ATOM     24  H11 UNL     1       3.861  -0.014   2.675  1.00  0.00     0.190 HD
ENDBRANCH  15  16
ENDBRANCH  14  15
ENDBRANCH  13  14
BRANCH  12  25
HETATM   25  C6  UNL     1      -1.125   2.499  -0.441  1.00  0.00     0.303 C 
HETATM   26  O2  UNL     1      -2.191   3.210  -0.654  1.00  0.00    -0.263 OA
HETATM   27  N5  UNL     1       0.080   3.176  -0.329  1.00  0.00    -0.270 N 
ATOM     28  H5  UNL     1       0.948   2.669  -0.156  1.00  0.00     0.189 HD
BRANCH  27  29
HETATM   29  N6  UNL     1       0.081   4.619  -0.463  1.00  0.00    -0.342 N 
ATOM     30  H62 UNL     1      -0.795   5.111  -0.636  1.00  0.00     0.176 HD
ATOM     31  H61 UNL     1       0.967   5.117  -0.381  1.00  0.00     0.176 HD
ENDBRANCH  27  29
ENDBRANCH  12  25
BRANCH   1  32
HETATM   32  N1  UNL     1      -4.729  -1.436  -0.053  1.00  0.00    -0.383 N 
ATOM     33  H12 UNL     1      -5.433  -2.171   0.016  1.00  0.00     0.157 HD
ATOM     34  H11 UNL     1      -5.054  -0.470  -0.079  1.00  0.00     0.157 HD
ENDBRANCH   1  32
TORSDOF 6
