REMARK  7 active torsions:
REMARK  status: ('A' for Active; 'I' for Inactive)
REMARK       I    between atoms: N1_2  and  C2_4 
REMARK    1  A    between atoms: C2_4  and  C3_6 
REMARK    2  A    between atoms: C4_7  and  C5_8 
REMARK    3  A    between atoms: C6_11  and  N3_12 
REMARK       I    between atoms: N3_12  and  C7_14 
REMARK    4  A    between atoms: C9_23  and  O3_24 
REMARK    5  A    between atoms: N9_30  and  C10_31 
REMARK    6  A    between atoms: C10_31  and  C11_32 
REMARK    7  A    between atoms: C12_37  and  S1_38 
ROOT
HETATM    1  C3  UNL     1      -0.106   0.808   0.812  1.00  0.00     0.150 A 
HETATM    2  C4  UNL     1       1.074   0.208   1.075  1.00  0.00     0.113 A 
HETATM    3  N7  UNL     1       1.001   0.001   2.458  1.00  0.00    -0.281 N 
ATOM      4  H7  UNL     1       1.726  -0.442   3.023  1.00  0.00     0.188 HD
HETATM    5  N8  UNL     1      -0.115   0.452   2.910  1.00  0.00    -0.239 N 
ATOM      6  H8  UNL     1      -0.390   0.413   3.892  1.00  0.00     0.208 HD
HETATM    7  N9  UNL     1      -0.852   0.964   1.970  1.00  0.00    -0.263 N 
ENDROOT
BRANCH   2   8
HETATM    8  C5  UNL     1       2.225  -0.239   0.325  1.00  0.00     0.118 A 
HETATM    9  N2  UNL     1       3.190  -0.936   1.034  1.00  0.00    -0.186 N 
HETATM   10  C6  UNL     1       4.332  -1.342   0.475  1.00  0.00     0.688 A 
ATOM     11  H2  UNL     1       3.022  -1.146   2.018  1.00  0.00     0.184 HD
HETATM   12  N6  UNL     1       4.644  -1.114  -0.807  1.00  0.00    -0.153 N 
HETATM   13  C8  UNL     1       3.771  -0.452  -1.549  1.00  0.00     0.295 A 
ATOM     14  H6  UNL     1       5.527  -1.440  -1.199  1.00  0.00     0.187 HD
HETATM   15  O2  UNL     1       4.008  -0.207  -2.759  1.00  0.00    -0.265 OA
HETATM   16  C9  UNL     1       2.566  -0.022  -0.959  1.00  0.00     0.165 A 
BRANCH  10  17
HETATM   17  N3  UNL     1       5.204  -2.001   1.199  1.00  0.00    -0.164 N 
HETATM   18  C7  UNL     1       6.409  -2.427   0.600  1.00  0.00     0.200 C 
HETATM   19  N4  UNL     1       6.447  -3.615   0.104  1.00  0.00    -0.373 N 
HETATM   20  N5  UNL     1       7.579  -1.634   0.508  1.00  0.00    -0.063 NA
ATOM     21  H42 UNL     1       5.604  -4.186   0.170  1.00  0.00     0.158 HD
ATOM     22  H41 UNL     1       7.318  -3.923  -0.329  1.00  0.00     0.158 HD
ATOM     23  H3  UNL     1       5.014  -2.203   2.181  1.00  0.00     0.187 HD
ENDBRANCH  10  17
BRANCH  16  24
HETATM   24  O3  UNL     1       1.745   0.661  -1.808  1.00  0.00    -0.354 OA
ATOM     25  H3  UNL     1       1.986   0.814  -2.714  1.00  0.00     0.218 HD
ENDBRANCH  16  24
ENDBRANCH   2   8
BRANCH   1  26
HETATM   26  C2  UNL     1      -0.712   1.157  -0.444  1.00  0.00     0.271 C 
HETATM   27  N1  UNL     1      -0.905   2.529  -0.808  1.00  0.00    -0.360 N 
HETATM   28  C1  UNL     1      -1.512   2.867  -2.059  1.00  0.00     0.149 C 
ATOM     29  H1  UNL     1      -0.608   3.269  -0.172  1.00  0.00     0.162 HD
HETATM   30  O1  UNL     1      -1.101   0.294  -1.273  1.00  0.00    -0.266 OA
ENDBRANCH   1  26
BRANCH   7  31
HETATM   31  C10 UNL     1      -2.151   1.542   2.115  1.00  0.00     0.229 C 
BRANCH  31  32
HETATM   32  C11 UNL     1      -3.266   0.551   2.033  1.00  0.00     0.120 A 
HETATM   33  N10 UNL     1      -3.464  -0.463   2.930  1.00  0.00    -0.285 N 
HETATM   34  N11 UNL     1      -4.547  -1.106   2.560  1.00  0.00    -0.278 N 
ATOM     35  H10 UNL     1      -2.879  -0.679   3.737  1.00  0.00     0.188 HD
HETATM   36  C12 UNL     1      -5.040  -0.534   1.463  1.00  0.00     0.162 A 
ATOM     37  H11 UNL     1      -4.947  -1.914   3.036  1.00  0.00     0.189 HD
HETATM   38  N12 UNL     1      -4.231   0.494   1.151  1.00  0.00    -0.318 N 
HETATM   39  C14 UNL     1      -4.467   1.388  -0.001  1.00  0.00     0.160 C 
BRANCH  36  40
HETATM   40  S1  UNL     1      -6.505  -1.005   0.535  1.00  0.00    -0.097 SA
HETATM   41  C13 UNL     1      -5.974  -2.208  -0.713  1.00  0.00     0.099 C 
ENDBRANCH  36  40
ENDBRANCH  31  32
ENDBRANCH   7  31
TORSDOF 7
