REMARK  7 active torsions:
REMARK  status: ('A' for Active; 'I' for Inactive)
REMARK       I    between atoms: C1_2  and  N1_3 
REMARK    1  A    between atoms: C1_2  and  C10_22 
REMARK    2  A    between atoms: N1_3  and  C2_5 
REMARK    3  A    between atoms: C2_5  and  C3_6 
REMARK    4  A    between atoms: C2_5  and  C4_8 
REMARK    5  A    between atoms: C4_8  and  N2_9 
REMARK    6  A    between atoms: C4_8  and  C9_19 
REMARK       I    between atoms: N2_9  and  C5_11 
REMARK    7  A    between atoms: C5_11  and  C6_13 
ROOT
HETATM    1  C4  UNL     1      -0.127  -1.114  -0.765  1.00  0.00     0.209 C 
ENDROOT
BRANCH   1   2
HETATM    2  C2  UNL     1      -1.605  -1.159  -0.593  1.00  0.00     0.127 C 
BRANCH   2   3
HETATM    3  N1  UNL     1      -2.225   0.142  -0.520  1.00  0.00    -0.351 N 
HETATM    4  C1  UNL     1      -3.179   0.617  -1.446  1.00  0.00     0.251 C 
HETATM    5  O1  UNL     1      -3.523  -0.117  -2.395  1.00  0.00    -0.271 OA
ATOM      6  H1  UNL     1      -1.957   0.757   0.249  1.00  0.00     0.163 HD
BRANCH   4   7
HETATM    7  C10 UNL     1      -3.798   1.950  -1.351  1.00  0.00     0.269 C 
HETATM    8 CL1  UNL     1      -2.596   3.257  -1.430  1.00  0.00    -0.098 Cl
HETATM    9 CL2  UNL     1      -4.720   2.163   0.151  1.00  0.00    -0.098 Cl
ENDBRANCH   4   7
ENDBRANCH   2   3
BRANCH   2  10
HETATM   10  C3  UNL     1      -2.015  -2.034   0.597  1.00  0.00     0.113 C 
HETATM   11 BR1  UNL     1      -3.935  -2.277   0.616  1.00  0.00    -0.094 Br
ENDBRANCH   2  10
ENDBRANCH   1   2
BRANCH   1  12
HETATM   12  N2  UNL     1       0.564  -0.437   0.308  1.00  0.00    -0.343 N 
HETATM   13  C5  UNL     1       1.397   0.666  -0.018  1.00  0.00     0.249 C 
HETATM   14  O2  UNL     1       1.547   1.062  -1.203  1.00  0.00    -0.271 OA
ATOM     15  H2  UNL     1       0.456  -0.743   1.275  1.00  0.00     0.163 HD
BRANCH  13  16
HETATM   16  C6  UNL     1       2.121   1.383   1.062  1.00  0.00     0.278 A 
HETATM   17  C7  UNL     1       3.387   0.676   1.492  1.00  0.00     0.070 A 
HETATM   18  C8  UNL     1       4.182   1.858   1.000  1.00  0.00     0.236 A 
HETATM   19  N3  UNL     1       2.938   2.487   0.603  1.00  0.00    -0.062 N 
ATOM     20  H32 UNL     1       2.838   2.795  -0.364  1.00  0.00     0.278 HD
ATOM     21  H31 UNL     1       2.733   3.422   0.957  1.00  0.00     0.278 HD
ENDBRANCH  13  16
ENDBRANCH   1  12
BRANCH   1  22
HETATM   22  C9  UNL     1       0.374  -2.518  -0.782  1.00  0.00     0.198 C 
HETATM   23  O3  UNL     1       1.240  -2.946   0.027  1.00  0.00    -0.646 OA
HETATM   24  O4  UNL     1      -0.158  -3.364  -1.744  1.00  0.00    -0.646 OA
ENDBRANCH   1  22
TORSDOF 7
