REMARK  8 active torsions:
REMARK  status: ('A' for Active; 'I' for Inactive)
REMARK    1  A    between atoms: C2_2  and  C4_4 
REMARK       I    between atoms: C4_4  and  N1_6 
REMARK    2  A    between atoms: N1_6  and  C5_8 
REMARK    3  A    between atoms: C5_8  and  C6_9 
REMARK    4  A    between atoms: C5_8  and  C12_21 
REMARK    5  A    between atoms: C6_9  and  C7_10 
REMARK       I    between atoms: C12_21  and  N3_23 
REMARK    6  A    between atoms: N3_23  and  C13_25 
REMARK    7  A    between atoms: C13_25  and  C15_27 
REMARK       I    between atoms: C15_27  and  N4_29 
REMARK    8  A    between atoms: N4_29  and  N5_31 
ROOT
HETATM    1  C5  UNL     1      -0.338   0.110   0.461  1.00  0.00     0.181 C 
ENDROOT
BRANCH   1   2
HETATM    2  N1  UNL     1      -1.467  -0.747   0.300  1.00  0.00    -0.347 N 
HETATM    3  C4  UNL     1      -2.359  -0.889  -0.762  1.00  0.00     0.221 C 
HETATM    4  O1  UNL     1      -2.271  -0.236  -1.811  1.00  0.00    -0.273 OA
ATOM      5  H1  UNL     1      -1.653  -1.358   1.095  1.00  0.00     0.163 HD
BRANCH   3   6
HETATM    6  C2  UNL     1      -3.482  -1.876  -0.631  1.00  0.00     0.070 C 
HETATM    7  C1  UNL     1      -4.383  -1.466   0.534  1.00  0.00     0.019 C 
HETATM    8  C3  UNL     1      -2.844  -3.196  -0.220  1.00  0.00     0.019 C 
ENDBRANCH   3   6
ENDBRANCH   1   2
BRANCH   1   9
HETATM    9  C6  UNL     1      -0.153   1.230  -0.475  1.00  0.00     0.080 C 
BRANCH   9  10
HETATM   10  C7  UNL     1      -1.129   2.301  -0.570  1.00  0.00     0.032 A 
HETATM   11  C8  UNL     1      -1.019   3.117  -1.720  1.00  0.00     0.181 A 
HETATM   12  F1  UNL     1      -0.075   2.889  -2.662  1.00  0.00    -0.201 F 
HETATM   13  C9  UNL     1      -1.873   4.174  -1.915  1.00  0.00     0.230 A 
HETATM   14  F2  UNL     1      -1.762   4.950  -3.013  1.00  0.00    -0.183 F 
HETATM   15  N2  UNL     1      -2.840   4.469  -1.024  1.00  0.00    -0.295 N 
HETATM   16  C10 UNL     1      -2.953   3.708   0.061  1.00  0.00     0.286 A 
ATOM     17  H2  UNL     1      -3.470   5.256  -1.178  1.00  0.00     0.171 HD
HETATM   18  O2  UNL     1      -3.848   3.937   0.942  1.00  0.00    -0.265 OA
HETATM   19  C11 UNL     1      -2.113   2.617   0.316  1.00  0.00     0.193 A 
HETATM   20  F3  UNL     1      -2.354   1.950   1.461  1.00  0.00    -0.200 F 
ENDBRANCH   9  10
ENDBRANCH   1   9
BRANCH   1  21
HETATM   21  C12 UNL     1       0.875  -0.729   0.627  1.00  0.00     0.241 C 
HETATM   22  O3  UNL     1       0.697  -1.978   0.599  1.00  0.00    -0.271 OA
HETATM   23  N3  UNL     1       2.169  -0.198   0.807  1.00  0.00    -0.346 N 
ATOM     24  H3  UNL     1       2.305   0.813   0.833  1.00  0.00     0.163 HD
BRANCH  23  25
HETATM   25  C13 UNL     1       3.302  -1.080   0.955  1.00  0.00     0.174 C 
HETATM   26  C14 UNL     1       3.977  -0.889   2.319  1.00  0.00     0.042 C 
BRANCH  25  27
HETATM   27  C15 UNL     1       4.338  -0.846  -0.060  1.00  0.00     0.258 C 
HETATM   28  O4  UNL     1       4.182   0.047  -0.926  1.00  0.00    -0.270 OA
HETATM   29  N4  UNL     1       5.516  -1.612  -0.086  1.00  0.00    -0.275 N 
ATOM     30  H4  UNL     1       5.636  -2.336   0.623  1.00  0.00     0.189 HD
BRANCH  29  31
HETATM   31  N5  UNL     1       6.533  -1.436  -1.031  1.00  0.00    -0.343 N 
ATOM     32  H52 UNL     1       6.396  -0.708  -1.732  1.00  0.00     0.176 HD
ATOM     33  H51 UNL     1       7.388  -1.992  -1.050  1.00  0.00     0.176 HD
ENDBRANCH  29  31
ENDBRANCH  25  27
ENDBRANCH  23  25
ENDBRANCH   1  21
TORSDOF 8
