REMARK  13 active torsions:
REMARK  status: ('A' for Active; 'I' for Inactive)
REMARK    1  A    between atoms: C2_2  and  C3_3 
REMARK    2  A    between atoms: C3_3  and  C4_4 
REMARK    3  A    between atoms: C4_4  and  C5_5 
REMARK    4  A    between atoms: C5_5  and  C6_6 
REMARK    5  A    between atoms: C6_6  and  C7_7 
REMARK    6  A    between atoms: C7_7  and  S1_8 
REMARK    7  A    between atoms: S1_8  and  N1_11 
REMARK    8  A    between atoms: N1_11  and  C8_13 
REMARK    9  A    between atoms: C8_13  and  C9_14 
REMARK   10  A    between atoms: C9_14  and  C10_15 
REMARK   11  A    between atoms: C10_15  and  C11_16 
REMARK   12  A    between atoms: C16_26  and  N5_27 
REMARK   13  A    between atoms: N7_33  and  N8_35 
ROOT
HETATM    1  C11 UNL     1       4.166   1.009   0.719  1.00  0.00     0.026 A 
HETATM    2  N2  UNL     1       4.518   2.333   0.875  1.00  0.00    -0.350 N 
ATOM      3  H2  UNL     1       3.770   2.993   1.088  1.00  0.00     0.166 HD
HETATM    4  C12 UNL     1       5.739   2.818   0.772  1.00  0.00     0.116 A 
HETATM    5  C13 UNL     1       5.960   4.220   0.959  1.00  0.00     0.117 C 
HETATM    6  N3  UNL     1       6.161   5.362   1.109  1.00  0.00    -0.190 NA
HETATM    7  C14 UNL     1       6.809   2.020   0.489  1.00  0.00     0.072 A 
HETATM    8  C15 UNL     1       6.544   0.677   0.319  1.00  0.00     0.068 A 
HETATM    9  N4  UNL     1       7.536  -0.187   0.057  1.00  0.00    -0.191 N 
ATOM     10  H4  UNL     1       8.492   0.159  -0.031  1.00  0.00     0.184 HD
HETATM   11  C16 UNL     1       7.292  -1.505  -0.092  1.00  0.00     0.678 A 
HETATM   12  N6  UNL     1       6.047  -2.006   0.017  1.00  0.00    -0.175 N 
ATOM     13  H6  UNL     1       5.885  -3.007  -0.097  1.00  0.00     0.186 HD
HETATM   14  C17 UNL     1       5.000  -1.166   0.282  1.00  0.00     0.149 A 
HETATM   15  N7  UNL     1       3.835  -1.658   0.418  1.00  0.00    -0.291 N 
ATOM     16  H7  UNL     1       3.055  -1.031   0.616  1.00  0.00     0.188 HD
HETATM   17  C18 UNL     1       5.231   0.174   0.433  1.00  0.00     0.060 A 
ENDROOT
BRANCH   1  18
HETATM   18  C10 UNL     1       2.774   0.646   0.776  1.00  0.00     0.059 C 
BRANCH  18  19
HETATM   19  C9  UNL     1       2.014   0.661  -0.537  1.00  0.00     0.026 C 
BRANCH  19  20
HETATM   20  C8  UNL     1       0.583   0.231  -0.317  1.00  0.00     0.132 C 
BRANCH  20  21
HETATM   21  N1  UNL     1      -0.110   0.256  -1.565  1.00  0.00    -0.320 N 
ATOM     22  H1  UNL     1       0.342   0.531  -2.437  1.00  0.00     0.172 HD
BRANCH  21  23
HETATM   23  S1  UNL     1      -1.745  -0.207  -1.492  1.00  0.00     0.226 S 
HETATM   24  O1  UNL     1      -2.351  -0.174  -2.866  1.00  0.00    -0.206 OA
HETATM   25  O2  UNL     1      -1.869  -1.631  -0.984  1.00  0.00    -0.206 OA
BRANCH  23  26
HETATM   26  C7  UNL     1      -2.727   0.849  -0.461  1.00  0.00     0.163 C 
BRANCH  26  27
HETATM   27  C6  UNL     1      -4.154   0.288  -0.520  1.00  0.00     0.017 C 
BRANCH  27  28
HETATM   28  C5  UNL     1      -5.027   1.144   0.339  1.00  0.00     0.001 C 
BRANCH  28  29
HETATM   29  C4  UNL     1      -6.454   0.690   0.351  1.00  0.00     0.000 C 
BRANCH  29  30
HETATM   30  C3  UNL     1      -6.599  -0.726   0.873  1.00  0.00    -0.000 C 
BRANCH  30  31
HETATM   31  C2  UNL     1      -8.075  -1.139   0.866  1.00  0.00    -0.005 C 
HETATM   32  C1  UNL     1      -8.613  -1.068  -0.560  1.00  0.00     0.005 C 
ENDBRANCH  30  31
ENDBRANCH  29  30
ENDBRANCH  28  29
ENDBRANCH  27  28
ENDBRANCH  26  27
ENDBRANCH  23  26
ENDBRANCH  21  23
ENDBRANCH  20  21
ENDBRANCH  19  20
ENDBRANCH  18  19
ENDBRANCH   1  18
BRANCH  11  33
HETATM   33  N5  UNL     1       8.249  -2.338  -0.346  1.00  0.00    -0.234 N 
ATOM     34  H52 UNL     1       9.192  -1.958  -0.429  1.00  0.00     0.174 HD
ATOM     35  H51 UNL     1       8.064  -3.335  -0.459  1.00  0.00     0.174 HD
ENDBRANCH  11  33
BRANCH  15  36
HETATM   36  N8  UNL     1       3.589  -3.014   0.307  1.00  0.00    -0.344 N 
ATOM     37  H82 UNL     1       4.380  -3.627   0.109  1.00  0.00     0.176 HD
ATOM     38  H81 UNL     1       2.655  -3.409   0.416  1.00  0.00     0.176 HD
ENDBRANCH  15  36
TORSDOF 13
