REMARK  15 active torsions:
REMARK  status: ('A' for Active; 'I' for Inactive)
REMARK    1  A    between atoms: C2_2  and  C3_3 
REMARK    2  A    between atoms: C3_3  and  N1_4 
REMARK    3  A    between atoms: N1_4  and  C4_6 
REMARK    4  A    between atoms: C5_9  and  N3_10 
REMARK    5  A    between atoms: N3_10  and  C6_12 
REMARK    6  A    between atoms: C6_12  and  C7_13 
REMARK    7  A    between atoms: C7_13  and  C8_14 
REMARK    8  A    between atoms: C8_14  and  C9_15 
REMARK    9  A    between atoms: C9_15  and  C10_16 
REMARK   10  A    between atoms: C10_16  and  C11_17 
REMARK   11  A    between atoms: C11_17  and  C12_18 
REMARK   12  A    between atoms: C16_26  and  N6_27 
REMARK   13  A    between atoms: N7_30  and  C17_31 
REMARK   14  A    between atoms: C19_36  and  C20_37 
REMARK   15  A    between atoms: C20_37  and  O1_38 
ROOT
HETATM    1  C4  UNL     1      -1.439   2.555   0.941  1.00  0.00     0.152 A 
HETATM    2  N2  UNL     1      -0.236   1.893   0.973  1.00  0.00    -0.174 N 
ATOM      3  H2  UNL     1       0.604   2.447   1.138  1.00  0.00     0.186 HD
HETATM    4  C5  UNL     1      -0.087   0.585   0.805  1.00  0.00     0.681 A 
HETATM    5  N4  UNL     1      -1.184  -0.155   0.589  1.00  0.00    -0.173 N 
ATOM      6  H4  UNL     1      -1.082  -1.162   0.459  1.00  0.00     0.186 HD
HETATM    7  C14 UNL     1      -2.414   0.386   0.538  1.00  0.00     0.172 A 
HETATM    8  C15 UNL     1      -2.547   1.769   0.717  1.00  0.00     0.139 A 
HETATM    9  N5  UNL     1      -3.862   2.022   0.617  1.00  0.00    -0.184 N 
ATOM     10  H5  UNL     1      -4.291   2.944   0.702  1.00  0.00     0.184 HD
HETATM   11  C16 UNL     1      -4.535   0.864   0.386  1.00  0.00     0.682 A 
HETATM   12  N7  UNL     1      -3.657  -0.119   0.339  1.00  0.00    -0.137 N 
ENDROOT
BRANCH   4  13
HETATM   13  N3  UNL     1       1.103   0.020   0.849  1.00  0.00    -0.226 N 
ATOM     14  H3  UNL     1       1.923   0.603   1.015  1.00  0.00     0.177 HD
BRANCH  13  15
HETATM   15  C6  UNL     1       1.276  -1.388   0.670  1.00  0.00     0.138 C 
BRANCH  15  16
HETATM   16  C7  UNL     1       2.789  -1.645   0.670  1.00  0.00     0.020 C 
BRANCH  16  17
HETATM   17  C8  UNL     1       3.334  -0.829  -0.497  1.00  0.00     0.002 C 
BRANCH  17  18
HETATM   18  C9  UNL     1       4.826  -1.015  -0.588  1.00  0.00     0.000 C 
BRANCH  18  19
HETATM   19  C10 UNL     1       5.543  -0.575   0.649  1.00  0.00     0.000 C 
BRANCH  19  20
HETATM   20  C11 UNL     1       7.029  -0.776   0.518  1.00  0.00    -0.000 C 
BRANCH  20  21
HETATM   21  C12 UNL     1       7.603   0.013  -0.641  1.00  0.00    -0.005 C 
HETATM   22  C13 UNL     1       9.111  -0.230  -0.719  1.00  0.00     0.005 C 
ENDBRANCH  20  21
ENDBRANCH  19  20
ENDBRANCH  18  19
ENDBRANCH  17  18
ENDBRANCH  16  17
ENDBRANCH  15  16
ENDBRANCH  13  15
ENDBRANCH   4  13
BRANCH   1  23
HETATM   23  N1  UNL     1      -1.485   3.774   1.107  1.00  0.00    -0.350 N 
ATOM     24  H1  UNL     1      -0.527   4.093   1.251  1.00  0.00     0.166 HD
BRANCH  23  25
HETATM   25  C3  UNL     1      -2.290   4.877   1.178  1.00  0.00     0.089 C 
BRANCH  25  26
HETATM   26  C2  UNL     1      -2.496   5.609  -0.121  1.00  0.00     0.007 C 
HETATM   27  C1  UNL     1      -3.722   5.729  -0.578  1.00  0.00     0.012 C 
ENDBRANCH  25  26
ENDBRANCH  23  25
ENDBRANCH   1  23
BRANCH  12  28
HETATM   28  C17 UNL     1      -3.872  -1.523   0.120  1.00  0.00     0.276 C 
HETATM   29  C18 UNL     1      -5.149  -2.079   0.558  1.00  0.00     0.290 C 
HETATM   30  N8  UNL     1      -5.920  -2.236  -0.633  1.00  0.00    -0.043 N 
HETATM   31  C19 UNL     1      -4.916  -2.397  -1.650  1.00  0.00     0.346 C 
ATOM     32  H82 UNL     1      -6.612  -2.984  -0.596  1.00  0.00     0.280 HD
ATOM     33  H81 UNL     1      -6.588  -1.486  -0.809  1.00  0.00     0.280 HD
HETATM   34  O2  UNL     1      -3.781  -1.757  -1.240  1.00  0.00    -0.329 OA
BRANCH  31  35
HETATM   35  C20 UNL     1      -4.697  -3.871  -1.969  1.00  0.00     0.225 C 
BRANCH  35  36
HETATM   36  O1  UNL     1      -4.283  -4.598  -0.878  1.00  0.00    -0.397 OA
ATOM     37  H1  UNL     1      -4.146  -5.517  -1.077  1.00  0.00     0.209 HD
ENDBRANCH  35  36
ENDBRANCH  31  35
ENDBRANCH  12  28
BRANCH  11  38
HETATM   38  N6  UNL     1      -5.791   0.770   0.243  1.00  0.00    -0.234 N 
ATOM     39  H62 UNL     1      -6.470   1.530   0.279  1.00  0.00     0.174 HD
ATOM     40  H61 UNL     1      -6.296  -0.099   0.070  1.00  0.00     0.174 HD
ENDBRANCH  11  38
TORSDOF 15
