REMARK  14 active torsions:
REMARK  status: ('A' for Active; 'I' for Inactive)
REMARK       I    between atoms: C1_4  and  N3_6 
REMARK    1  A    between atoms: N3_6  and  C2_8 
REMARK    2  A    between atoms: C2_8  and  C3_9 
REMARK    3  A    between atoms: C3_9  and  C4_10 
REMARK    4  A    between atoms: C4_10  and  C5_11 
REMARK    5  A    between atoms: C5_11  and  C6_12 
REMARK    6  A    between atoms: C6_12  and  C7_13 
REMARK       I    between atoms: C7_13  and  N4_15 
REMARK    7  A    between atoms: N4_15  and  C8_16 
REMARK    8  A    between atoms: N4_15  and  C15_27 
REMARK    9  A    between atoms: C8_16  and  C9_17 
REMARK   10  A    between atoms: C9_17  and  C10_18 
REMARK   11  A    between atoms: C10_18  and  C11_19 
REMARK   12  A    between atoms: C11_19  and  C12_20 
REMARK   13  A    between atoms: C18_33  and  O2_34 
REMARK   14  A    between atoms: C21_39  and  O4_40 
ROOT
HETATM    1  C7  UNL     1       0.683   0.516  -1.334  1.00  0.00     0.220 C 
HETATM    2  O1  UNL     1       1.083   0.278  -2.496  1.00  0.00    -0.273 OA
HETATM    3  N4  UNL     1      -0.301  -0.379  -0.797  1.00  0.00    -0.343 N 
ENDROOT
BRANCH   3   4
HETATM    4  C8  UNL     1      -0.804  -0.114   0.519  1.00  0.00     0.126 C 
BRANCH   4   5
HETATM    5  C9  UNL     1      -1.986   0.793   0.599  1.00  0.00     0.020 C 
BRANCH   5   6
HETATM    6  C10 UNL     1      -2.390   1.029   2.050  1.00  0.00     0.008 C 
BRANCH   6   7
HETATM    7  C11 UNL     1      -3.557   1.915   2.239  1.00  0.00     0.058 C 
BRANCH   7   8
HETATM    8  C12 UNL     1      -3.357   3.293   1.748  1.00  0.00     0.025 A 
HETATM    9  C13 UNL     1      -4.381   4.239   1.797  1.00  0.00     0.113 A 
HETATM   10  N5  UNL     1      -3.894   5.383   1.303  1.00  0.00    -0.360 N 
HETATM   11  C14 UNL     1      -2.621   5.158   0.960  1.00  0.00     0.180 A 
ATOM     12  H5  UNL     1      -4.400   6.263   1.206  1.00  0.00     0.166 HD
HETATM   13  N6  UNL     1      -2.293   3.888   1.230  1.00  0.00    -0.355 N 
ATOM     14  H6  UNL     1      -1.384   3.455   1.066  1.00  0.00     0.166 HD
ENDBRANCH   7   8
ENDBRANCH   6   7
ENDBRANCH   5   6
ENDBRANCH   4   5
ENDBRANCH   3   4
BRANCH   3  15
HETATM   15  C15 UNL     1      -0.656  -1.531  -1.603  1.00  0.00     0.144 C 
HETATM   16  C16 UNL     1      -0.234  -2.779  -0.875  1.00  0.00     0.261 C 
HETATM   17  N7  UNL     1      -0.706  -3.903  -1.660  1.00  0.00    -0.064 N 
HETATM   18  C17 UNL     1      -2.142  -4.035  -1.618  1.00  0.00     0.247 C 
ATOM     19  H72 UNL     1      -0.369  -3.849  -2.621  1.00  0.00     0.277 HD
ATOM     20  H71 UNL     1      -0.248  -4.769  -1.376  1.00  0.00     0.277 HD
HETATM   21  C18 UNL     1      -2.543  -4.711  -0.350  1.00  0.00     0.175 C 
HETATM   22  C20 UNL     1      -2.860  -2.720  -1.545  1.00  0.00     0.185 C 
HETATM   23  C19 UNL     1      -3.351  -3.693   0.407  1.00  0.00     0.202 C 
HETATM   24  O3  UNL     1      -3.246  -2.493  -0.263  1.00  0.00    -0.378 OA
HETATM   25  C21 UNL     1      -2.052  -1.572  -2.092  1.00  0.00     0.173 C 
BRANCH  21  26
HETATM   26  O2  UNL     1      -3.257  -5.898  -0.555  1.00  0.00    -0.391 OA
ATOM     27  H2  UNL     1      -3.512  -6.328   0.252  1.00  0.00     0.210 HD
ENDBRANCH  21  26
BRANCH  25  28
HETATM   28  O4  UNL     1      -2.083  -1.632  -3.521  1.00  0.00    -0.391 OA
ATOM     29  H4  UNL     1      -2.979  -1.658  -3.835  1.00  0.00     0.210 HD
ENDBRANCH  25  28
ENDBRANCH   3  15
BRANCH   1  30
HETATM   30  C6  UNL     1       1.174   1.640  -0.539  1.00  0.00     0.103 C 
BRANCH  30  31
HETATM   31  C5  UNL     1       2.270   2.429  -1.191  1.00  0.00     0.009 C 
BRANCH  31  32
HETATM   32  C4  UNL     1       3.491   1.620  -1.431  1.00  0.00     0.002 C 
BRANCH  32  33
HETATM   33  C3  UNL     1       4.068   1.058  -0.142  1.00  0.00     0.020 C 
BRANCH  33  34
HETATM   34  C2  UNL     1       5.314   0.252  -0.470  1.00  0.00     0.122 C 
BRANCH  34  35
HETATM   35  N3  UNL     1       5.929  -0.322   0.685  1.00  0.00    -0.365 N 
HETATM   36  C1  UNL     1       6.571   0.404   1.701  1.00  0.00     0.181 C 
HETATM   37  N1  UNL     1       7.049  -0.170   2.751  1.00  0.00    -0.374 N 
HETATM   38  N2  UNL     1       6.717   1.815   1.604  1.00  0.00    -0.064 NA
ATOM     39  H12 UNL     1       7.515   0.357   3.489  1.00  0.00     0.158 HD
ATOM     40  H11 UNL     1       6.944  -1.182   2.821  1.00  0.00     0.158 HD
ATOM     41  H3  UNL     1       5.899  -1.337   0.779  1.00  0.00     0.162 HD
ENDBRANCH  34  35
ENDBRANCH  33  34
ENDBRANCH  32  33
ENDBRANCH  31  32
ENDBRANCH  30  31
ENDBRANCH   1  30
TORSDOF 14
