REMARK  4 active torsions:
REMARK  status: ('A' for Active; 'I' for Inactive)
REMARK    1  A    between atoms: N1_1  and  C1_5 
REMARK    2  A    between atoms: C1_5  and  N2_6 
REMARK    3  A    between atoms: C1_5  and  C2_10 
REMARK       I    between atoms: C2_10  and  N3_12 
REMARK    4  A    between atoms: N3_12  and  C3_14 
ROOT
HETATM    1  C2  UNL     1      -0.999  -0.556  -0.401  1.00  0.00     0.294 C 
HETATM    2  O1  UNL     1      -0.751  -1.639  -0.961  1.00  0.00    -0.268 OA
HETATM    3  N3  UNL     1      -0.102   0.513  -0.538  1.00  0.00    -0.155 N 
ATOM      4  H3  UNL     1      -0.474   1.423  -0.808  1.00  0.00     0.187 HD
ENDROOT
BRANCH   1   5
HETATM    5  C1  UNL     1      -2.223  -0.417   0.394  1.00  0.00     0.469 C 
BRANCH   5   6
HETATM    6  N1  UNL     1      -2.244   0.933   0.919  1.00  0.00    -0.042 N 
ATOM      7  H13 UNL     1      -2.305   1.638   0.185  1.00  0.00     0.277 HD
ATOM      8  H12 UNL     1      -3.117   1.154   1.397  1.00  0.00     0.277 HD
ATOM      9  H11 UNL     1      -1.427   1.059   1.516  1.00  0.00     0.277 HD
ENDBRANCH   5   6
BRANCH   5  10
HETATM   10  N2  UNL     1      -3.401  -0.598  -0.467  1.00  0.00    -0.042 N 
ATOM     11  H23 UNL     1      -4.274  -0.377   0.011  1.00  0.00     0.277 HD
ATOM     12  H22 UNL     1      -3.462   0.107  -1.201  1.00  0.00     0.277 HD
ATOM     13  H21 UNL     1      -3.386  -1.549  -0.837  1.00  0.00     0.277 HD
ENDBRANCH   5  10
ENDBRANCH   1   5
BRANCH   3  14
HETATM   14  C3  UNL     1       1.179   0.406  -0.339  1.00  0.00     0.703 A 
HETATM   15  N4  UNL     1       1.816  -0.728   0.023  1.00  0.00    -0.128 N 
HETATM   16  N5  UNL     1       3.117  -0.447   0.131  1.00  0.00    -0.237 N 
ATOM     17  H4  UNL     1       1.381  -1.636   0.185  1.00  0.00     0.205 HD
HETATM   18  C4  UNL     1       3.311   0.862  -0.160  1.00  0.00     0.353 A 
ATOM     19  H5  UNL     1       3.847  -1.111   0.391  1.00  0.00     0.192 HD
HETATM   20  O2  UNL     1       4.415   1.475  -0.159  1.00  0.00    -0.245 OA
HETATM   21  N6  UNL     1       2.100   1.376  -0.449  1.00  0.00    -0.139 N 
ATOM     22  H6  UNL     1       1.913   2.344  -0.709  1.00  0.00     0.189 HD
ENDBRANCH   3  14
TORSDOF 4
