REMARK  12 active torsions:
REMARK  status: ('A' for Active; 'I' for Inactive)
REMARK    1  A    between atoms: N1_1  and  C1_4 
REMARK    2  A    between atoms: C2_7  and  S1_8 
REMARK    3  A    between atoms: S1_8  and  C3_9 
REMARK    4  A    between atoms: C3_9  and  C4_10 
REMARK    5  A    between atoms: C4_10  and  N3_11 
REMARK    6  A    between atoms: C4_10  and  N7_29 
REMARK    7  A    between atoms: N3_11  and  N4_13 
REMARK    8  A    between atoms: N4_13  and  C5_15 
REMARK    9  A    between atoms: C6_18  and  O1_19 
REMARK   10  A    between atoms: C6_18  and  N6_21 
REMARK   11  A    between atoms: C7_25  and  O5_26 
REMARK       I    between atoms: N7_29  and  C9_31 
REMARK       I    between atoms: C9_31  and  N8_33 
REMARK   12  A    between atoms: N8_33  and  N9_35 
ROOT
HETATM    1  C4  UNL     1       0.869   1.094  -0.626  1.00  0.00     0.130 C 
ENDROOT
BRANCH   1   2
HETATM    2  C3  UNL     1       1.597   1.250  -1.866  1.00  0.00     0.102 C 
BRANCH   2   3
HETATM    3  S1  UNL     1       3.377   1.023  -1.791  1.00  0.00    -0.071 SA
BRANCH   3   4
HETATM    4  C2  UNL     1       3.790  -0.682  -1.398  1.00  0.00     0.148 A 
HETATM    5  N2  UNL     1       4.979  -1.243  -1.255  1.00  0.00    -0.177 N 
HETATM    6  C1  UNL     1       5.062  -2.499  -0.969  1.00  0.00     0.683 A 
ATOM      7  H2  UNL     1       5.826  -0.686  -1.370  1.00  0.00     0.185 HD
HETATM    8  N10 UNL     1       3.922  -3.193  -0.826  1.00  0.00    -0.158 N 
HETATM    9  S2  UNL     1       2.751  -2.016  -1.109  1.00  0.00     0.028 SA
ATOM     10  H10 UNL     1       3.797  -4.180  -0.603  1.00  0.00     0.193 HD
BRANCH   6  11
HETATM   11  N1  UNL     1       6.207  -3.141  -0.808  1.00  0.00    -0.234 N 
ATOM     12  H12 UNL     1       7.073  -2.614  -0.917  1.00  0.00     0.174 HD
ATOM     13  H11 UNL     1       6.273  -4.133  -0.582  1.00  0.00     0.174 HD
ENDBRANCH   6  11
ENDBRANCH   3   4
ENDBRANCH   2   3
ENDBRANCH   1   2
BRANCH   1  14
HETATM   14  N3  UNL     1       0.152   0.008  -0.456  1.00  0.00    -0.284 N 
ATOM     15  H3  UNL     1       0.141  -0.679  -1.210  1.00  0.00     0.188 HD
BRANCH  14  16
HETATM   16  N4  UNL     1      -0.587  -0.264   0.676  1.00  0.00    -0.287 N 
ATOM     17  H4  UNL     1      -0.180  -0.111   1.599  1.00  0.00     0.188 HD
BRANCH  16  18
HETATM   18  C5  UNL     1      -1.903  -0.752   0.561  1.00  0.00     0.102 C 
HETATM   19  N5  UNL     1      -2.223  -1.723  -0.217  1.00  0.00    -0.300 N 
HETATM   20  C6  UNL     1      -3.591  -2.172  -0.285  1.00  0.00     0.399 C 
ATOM     21  H5  UNL     1      -1.509  -2.176  -0.787  1.00  0.00     0.168 HD
HETATM   22  O4  UNL     1      -4.390  -1.036  -0.356  1.00  0.00    -0.285 OA
HETATM   23  C7  UNL     1      -4.344  -0.289   0.816  1.00  0.00     0.271 C 
HETATM   24  C8  UNL     1      -2.973  -0.121   1.374  1.00  0.00     0.138 C 
BRANCH  20  25
HETATM   25  O1  UNL     1      -3.893  -2.985   0.787  1.00  0.00    -0.327 OA
ATOM     26  H1  UNL     1      -4.795  -3.281   0.742  1.00  0.00     0.217 HD
ENDBRANCH  20  25
BRANCH  20  27
HETATM   27  N6  UNL     1      -3.820  -2.910  -1.531  1.00  0.00    -0.063 N 
HETATM   28  O2  UNL     1      -4.190  -4.097  -1.489  1.00  0.00    -0.530 OA
HETATM   29  O3  UNL     1      -3.640  -2.337  -2.765  1.00  0.00    -0.530 OA
ENDBRANCH  20  27
BRANCH  23  30
HETATM   30  O5  UNL     1      -5.173  -0.918   1.747  1.00  0.00    -0.371 OA
ATOM     31  H5  UNL     1      -5.142  -0.408   2.548  1.00  0.00     0.212 HD
ENDBRANCH  23  30
ENDBRANCH  16  18
ENDBRANCH  14  16
ENDBRANCH   1  14
BRANCH   1  32
HETATM   32  N7  UNL     1       0.910   2.029   0.412  1.00  0.00    -0.292 N 
HETATM   33  C9  UNL     1       1.628   3.243   0.352  1.00  0.00     0.340 C 
HETATM   34  O6  UNL     1       2.310   3.641  -0.624  1.00  0.00    -0.245 OA
HETATM   35  N8  UNL     1       1.613   4.146   1.481  1.00  0.00    -0.258 N 
ATOM     36  H8  UNL     1       1.075   3.880   2.306  1.00  0.00     0.191 HD
ATOM     37  H7  UNL     1       0.390   1.822   1.264  1.00  0.00     0.172 HD
BRANCH  35  38
HETATM   38  N9  UNL     1       2.288   5.347   1.499  1.00  0.00    -0.341 N 
ATOM     39  H92 UNL     1       2.820   5.597   0.666  1.00  0.00     0.177 HD
ATOM     40  H91 UNL     1       2.277   5.984   2.296  1.00  0.00     0.177 HD
ENDBRANCH  35  38
ENDBRANCH   1  32
TORSDOF 12
