REMARK  5 active torsions:
REMARK  status: ('A' for Active; 'I' for Inactive)
REMARK    1  A    between atoms: C3_3  and  O1_4 
REMARK    2  A    between atoms: O1_4  and  S1_5 
REMARK    3  A    between atoms: C17_21  and  O4_22 
REMARK    4  A    between atoms: C19_25  and  C20_26 
REMARK    5  A    between atoms: C20_26  and  O6_27 
ROOT
HETATM    1  C1  UNL     1       4.295  -1.930  -0.534  1.00  0.00     0.017 C 
HETATM    2  C2  UNL     1       3.494  -0.922  -0.319  1.00  0.00    -0.055 C 
HETATM    3  C3  UNL     1       4.023   0.358   0.192  1.00  0.00     0.171 C 
HETATM    4  C5  UNL     1       3.159   0.987   1.250  1.00  0.00     0.038 C 
HETATM    5  C6  UNL     1       1.682   0.874   0.961  1.00  0.00     0.009 C 
HETATM    6  C7  UNL     1       1.344  -0.556   0.691  1.00  0.00    -0.002 C 
HETATM    7  C8  UNL     1       2.047  -1.044  -0.582  1.00  0.00     0.021 C 
HETATM    8  C9  UNL     1       1.621  -0.185  -1.736  1.00  0.00     0.010 C 
HETATM    9  C10 UNL     1       0.142  -0.017  -1.795  1.00  0.00     0.006 C 
HETATM   10  C11 UNL     1      -0.612  -0.931  -0.849  1.00  0.00    -0.005 C 
HETATM   11  C12 UNL     1      -0.107  -0.853   0.562  1.00  0.00    -0.005 C 
HETATM   12  C13 UNL     1      -0.933   0.101   1.398  1.00  0.00     0.006 C 
HETATM   13  C14 UNL     1      -2.369  -0.266   1.441  1.00  0.00     0.015 C 
HETATM   14  C15 UNL     1      -2.878  -0.986   0.234  1.00  0.00     0.010 C 
HETATM   15  C16 UNL     1      -2.799  -2.479   0.471  1.00  0.00     0.020 C 
HETATM   16  C17 UNL     1      -4.318  -0.607  -0.012  1.00  0.00     0.268 C 
HETATM   17  O5  UNL     1      -4.559  -0.172  -1.293  1.00  0.00    -0.353 OA
HETATM   18  C19 UNL     1      -3.839   0.924  -1.685  1.00  0.00     0.148 C 
HETATM   19  C21 UNL     1      -2.362   0.720  -1.542  1.00  0.00     0.040 C 
HETATM   20  C22 UNL     1      -2.069  -0.683  -1.001  1.00  0.00     0.005 C 
ENDROOT
BRANCH   3  21
HETATM   21  O1  UNL     1       5.291   0.157   0.781  1.00  0.00    -0.266 OA
BRANCH  21  22
HETATM   22  S1  UNL     1       6.473   1.073   0.067  1.00  0.00     0.262 S 
HETATM   23  C4  UNL     1       7.782   1.345   1.236  1.00  0.00     0.194 C 
HETATM   24  O2  UNL     1       5.964   2.407  -0.401  1.00  0.00    -0.199 OA
HETATM   25  O3  UNL     1       7.086   0.399  -1.138  1.00  0.00    -0.199 OA
ENDBRANCH  21  22
ENDBRANCH   3  21
BRANCH  16  26
HETATM   26  O4  UNL     1      -5.209  -1.626   0.277  1.00  0.00    -0.365 OA
HETATM   27  C18 UNL     1      -6.126  -1.300   1.261  1.00  0.00     0.204 C 
ENDBRANCH  16  26
BRANCH  18  28
HETATM   28  C20 UNL     1      -4.273   2.201  -0.983  1.00  0.00     0.196 C 
BRANCH  28  29
HETATM   29  O6  UNL     1      -3.497   3.258  -1.436  1.00  0.00    -0.398 OA
ATOM     30  H6  UNL     1      -3.768   4.056  -0.997  1.00  0.00     0.209 HD
ENDBRANCH  28  29
ENDBRANCH  18  28
TORSDOF 5
