REMARK  4 active torsions:
REMARK  status: ('A' for Active; 'I' for Inactive)
REMARK    1  A    between atoms: S1_2  and  C2_3 
REMARK    2  A    between atoms: C4_5  and  O1_6 
REMARK    3  A    between atoms: C5_8  and  O2_9 
REMARK    4  A    between atoms: O2_9  and  C6_10 
ROOT
HETATM    1  C2  UNL     1       1.923  -0.594   0.073  1.00  0.00     0.051 C 
HETATM    2  C3  UNL     1       1.691  -0.971  -1.356  1.00  0.00     0.049 C 
HETATM    3  C4  UNL     1       0.360  -0.338  -1.765  1.00  0.00     0.148 C 
HETATM    4  C5  UNL     1      -0.289  -0.131  -0.417  1.00  0.00     0.151 C 
HETATM    5  C9  UNL     1       0.872   0.461   0.359  1.00  0.00     0.049 C 
ENDROOT
BRANCH   4   6
HETATM    6  O2  UNL     1      -1.404   0.637  -0.433  1.00  0.00    -0.378 OA
BRANCH   6   7
HETATM    7  C6  UNL     1      -2.544   0.037   0.067  1.00  0.00     0.122 A 
HETATM    8  C7  UNL     1      -3.428   0.975   0.874  1.00  0.00     0.034 A 
HETATM    9  C8  UNL     1      -3.838   0.550  -0.510  1.00  0.00     0.034 A 
ENDBRANCH   6   7
ENDBRANCH   4   6
BRANCH   3  10
HETATM   10  O1  UNL     1      -0.406  -1.180  -2.534  1.00  0.00    -0.393 OA
ATOM     11  H1  UNL     1      -1.233  -0.787  -2.788  1.00  0.00     0.210 HD
ENDBRANCH   3  10
BRANCH   1  12
HETATM   12  S1  UNL     1       3.594   0.015   0.372  1.00  0.00    -0.169 SA
HETATM   13  C1  UNL     1       3.755   0.436   2.116  1.00  0.00     0.090 C 
ENDBRANCH   1  12
TORSDOF 4
