REMARK  2 active torsions:
REMARK  status: ('A' for Active; 'I' for Inactive)
REMARK    1  A    between atoms: N1_4  and  C3_5 
REMARK    2  A    between atoms: C3_5  and  C4_6 
ROOT
HETATM    1  C3  UNL     1       0.248  -1.009  -0.446  1.00  0.00     0.308 C 
ENDROOT
BRANCH   1   2
HETATM    2  N1  UNL     1       1.516  -0.357  -0.414  1.00  0.00     0.097 N 
HETATM    3  C2  UNL     1       2.591  -1.389  -0.421  1.00  0.00     0.338 C 
HETATM    4  C1  UNL     1       3.896  -0.823  -0.014  1.00  0.00     0.335 C 
HETATM    5  F1  UNL     1       4.317  -1.310   1.236  1.00  0.00    -0.218 F 
HETATM    6  O1  UNL     1       4.068   0.526  -0.120  1.00  0.00    -0.353 OA
HETATM    7  C11 UNL     1       3.030   1.311   0.280  1.00  0.00     0.201 C 
HETATM    8  C10 UNL     1       1.784   0.518   0.676  1.00  0.00     0.298 C 
ENDBRANCH   1   2
BRANCH   1   9
HETATM    9  C4  UNL     1      -0.858  -0.127  -0.782  1.00  0.00     0.251 C 
HETATM   10  C5  UNL     1      -2.217  -0.830  -0.868  1.00  0.00     0.044 C 
HETATM   11  C6  UNL     1      -3.173   0.284  -0.659  1.00  0.00     0.018 C 
HETATM   12  C7  UNL     1      -3.401   0.363   0.849  1.00  0.00     0.036 C 
HETATM   13  C9  UNL     1      -2.268   1.526  -0.753  1.00  0.00     0.277 C 
HETATM   14  C8  UNL     1      -1.941   0.498   1.281  1.00  0.00     0.273 C 
HETATM   15  N2  UNL     1      -1.195   0.957   0.110  1.00  0.00     0.095 N 
ENDBRANCH   1   9
TORSDOF 2
