REMARK  9 active torsions:
REMARK  status: ('A' for Active; 'I' for Inactive)
REMARK    1  A    between atoms: C2_2  and  C4_4 
REMARK    2  A    between atoms: C5_5  and  C6_6 
REMARK    3  A    between atoms: C7_8  and  N1_9 
REMARK    4  A    between atoms: C8_11  and  C9_12 
REMARK    5  A    between atoms: C9_12  and  C10_13 
REMARK    6  A    between atoms: C10_13  and  O1_14 
REMARK    7  A    between atoms: C10_13  and  N2_16 
REMARK    8  A    between atoms: N2_16  and  O2_18 
REMARK    9  A    between atoms: C11_20  and  C12_21 
REMARK       I    between atoms: C12_21  and  N3_23 
ROOT
HETATM    1  C6  UNL     1      -1.431  -0.073   0.546  1.00  0.00     0.083 A 
HETATM    2  S1  UNL     1      -0.330   1.210   0.675  1.00  0.00    -0.060 SA
HETATM    3  C7  UNL     1       1.095   0.341   0.944  1.00  0.00     0.092 A 
HETATM    4  C11 UNL     1       0.676  -0.989   0.928  1.00  0.00     0.090 A 
HETATM    5  C13 UNL     1      -0.642  -1.182   0.720  1.00  0.00     0.078 A 
HETATM    6 CL2  UNL     1      -1.447  -2.793   0.694  1.00  0.00    -0.081 Cl
ENDROOT
BRANCH   3   7
HETATM    7  N1  UNL     1       2.432   0.848   1.140  1.00  0.00    -0.363 N 
HETATM    8  C8  UNL     1       3.164   1.007   0.109  1.00  0.00     0.070 C 
ATOM      9  H1  UNL     1       2.779   1.072   2.073  1.00  0.00     0.165 HD
BRANCH   8  10
HETATM   10  C9  UNL     1       4.560   1.521   0.164  1.00  0.00     0.130 C 
BRANCH  10  11
HETATM   11  C10 UNL     1       5.450   0.566  -0.513  1.00  0.00     0.140 C 
BRANCH  11  12
HETATM   12  O1  UNL     1       5.546  -0.729  -0.053  1.00  0.00    -0.348 OA
ATOM     13  H1  UNL     1       6.121  -1.346  -0.490  1.00  0.00     0.219 HD
ENDBRANCH  11  12
BRANCH  11  14
HETATM   14  N2  UNL     1       6.145   0.920  -1.535  1.00  0.00    -0.251 N 
ATOM     15  H2  UNL     1       6.758   0.245  -1.993  1.00  0.00     0.196 HD
BRANCH  14  16
HETATM   16  O2  UNL     1       6.062   2.225  -2.017  1.00  0.00    -0.288 OA
ATOM     17  H2  UNL     1       6.576   2.487  -2.772  1.00  0.00     0.244 HD
ENDBRANCH  14  16
ENDBRANCH  11  14
ENDBRANCH  10  11
ENDBRANCH   8  10
ENDBRANCH   3   7
BRANCH   4  18
HETATM   18  C12 UNL     1       1.708  -2.033   1.174  1.00  0.00     0.270 C 
HETATM   19  O3  UNL     1       2.820  -1.706   1.727  1.00  0.00    -0.266 OA
HETATM   20  N3  UNL     1       1.597  -3.391   0.849  1.00  0.00    -0.264 N 
HETATM   21 CL1  UNL     1       2.885  -4.530   1.199  1.00  0.00     0.013 Cl
ATOM     22  H3  UNL     1       0.746  -3.726   0.398  1.00  0.00     0.183 HD
ENDBRANCH   4  18
BRANCH   1  23
HETATM   23  C5  UNL     1      -2.877  -0.026   0.306  1.00  0.00    -0.057 C 
HETATM   24  C4  UNL     1      -4.065   0.037   0.107  1.00  0.00    -0.096 C 
BRANCH  24  25
HETATM   25  C2  UNL     1      -5.508   0.115  -0.108  1.00  0.00     0.057 C 
HETATM   26  C1  UNL     1      -5.945   1.577   0.042  1.00  0.00     0.023 C 
HETATM   27  C3  UNL     1      -5.759  -0.259  -1.556  1.00  0.00     0.023 C 
ENDBRANCH  24  25
ENDBRANCH   1  23
TORSDOF 9
