REMARK  4 active torsions:
REMARK  status: ('A' for Active; 'I' for Inactive)
REMARK    1  A    between atoms: C3_4  and  C4_5 
REMARK       I    between atoms: C4_5  and  N1_7 
REMARK    2  A    between atoms: N1_7  and  C5_9 
REMARK    3  A    between atoms: C5_9  and  C6_10 
REMARK    4  A    between atoms: C5_9  and  C12_16 
ROOT
HETATM    1  C5  UNL     1      -0.536  -0.191  -0.605  1.00  0.00     0.048 C 
ENDROOT
BRANCH   1   2
HETATM    2  N1  UNL     1       0.857  -0.086  -0.360  1.00  0.00    -0.323 N 
HETATM    3  C4  UNL     1       1.588  -0.398   0.802  1.00  0.00     0.279 C 
HETATM    4  O2  UNL     1       1.080  -0.820   1.852  1.00  0.00    -0.265 OA
ATOM      5  H1  UNL     1       1.411   0.268  -1.140  1.00  0.00     0.169 HD
BRANCH   3   6
HETATM    6  C3  UNL     1       3.069  -0.230   0.833  1.00  0.00     0.146 A 
HETATM    7  O1  UNL     1       3.823   0.201  -0.154  1.00  0.00    -0.307 OA
HETATM    8  C2  UNL     1       5.075   0.230   0.199  1.00  0.00     0.088 A 
HETATM    9  C1  UNL     1       6.268   0.649  -0.599  1.00  0.00     0.080 C 
HETATM   10  C17 UNL     1       5.174  -0.206   1.500  1.00  0.00     0.148 A 
HETATM   11  C16 UNL     1       3.888  -0.499   1.901  1.00  0.00     0.087 A 
HETATM   12  F1  UNL     1       6.309  -0.330   2.257  1.00  0.00    -0.203 F 
ENDBRANCH   3   6
ENDBRANCH   1   2
BRANCH   1  13
HETATM   13  C6  UNL     1      -1.363  -1.017   0.306  1.00  0.00     0.036 C 
HETATM   14  C7  UNL     1      -1.049  -2.480   0.341  1.00  0.00     0.010 C 
HETATM   15  C8  UNL     1      -1.737  -3.111   1.537  1.00  0.00     0.001 C 
HETATM   16  C9  UNL     1      -3.031  -2.364   1.842  1.00  0.00     0.000 C 
HETATM   17  C10 UNL     1      -3.649  -1.993   0.535  1.00  0.00     0.001 C 
HETATM   18  C11 UNL     1      -2.835  -0.823  -0.045  1.00  0.00     0.010 C 
ENDBRANCH   1  13
BRANCH   1  19
HETATM   19  C12 UNL     1      -1.215   1.084  -0.948  1.00  0.00     0.306 C 
HETATM   20  O3  UNL     1      -0.671   1.672  -2.118  1.00  0.00    -0.356 OA
HETATM   21  C13 UNL     1      -1.628   2.528  -2.687  1.00  0.00     0.173 C 
HETATM   22  C14 UNL     1      -1.991   3.552  -1.630  1.00  0.00     0.053 C 
HETATM   23  C15 UNL     1      -1.057   3.344  -0.459  1.00  0.00     0.173 C 
HETATM   24  O4  UNL     1      -1.082   2.061   0.037  1.00  0.00    -0.356 OA
ENDBRANCH   1  19
TORSDOF 4
