REMARK  7 active torsions:
REMARK  status: ('A' for Active; 'I' for Inactive)
REMARK    1  A    between atoms: C2_3  and  C3_4 
REMARK    2  A    between atoms: C3_4  and  N2_5 
REMARK    3  A    between atoms: C4_6  and  S1_7 
REMARK    4  A    between atoms: S1_7  and  C5_8 
REMARK    5  A    between atoms: C5_8  and  C6_9 
REMARK       I    between atoms: C6_9  and  N3_11 
REMARK    6  A    between atoms: N3_11  and  C7_13 
REMARK    7  A    between atoms: C13_23  and  C14_24 
ROOT
HETATM    1  N1  UNL     1       4.847  -2.226  -3.968  1.00  0.00    -0.197 NA
HETATM    2  C1  UNL     1       4.572  -2.110  -2.840  1.00  0.00     0.060 C 
HETATM    3  C2  UNL     1       4.235  -1.959  -1.414  1.00  0.00     0.144 C 
ENDROOT
BRANCH   3   4
HETATM    4  C3  UNL     1       3.218  -0.885  -1.201  1.00  0.00     0.147 C 
BRANCH   4   5
HETATM    5  N2  UNL     1       2.910  -0.767   0.201  1.00  0.00    -0.309 N 
HETATM    6  C4  UNL     1       1.856  -1.503   0.697  1.00  0.00     0.163 A 
HETATM    7  N4  UNL     1       1.781  -1.217   1.997  1.00  0.00    -0.278 N 
HETATM    8  N5  UNL     1       2.725  -0.360   2.296  1.00  0.00    -0.282 N 
ATOM      9  H4  UNL     1       1.100  -1.602   2.651  1.00  0.00     0.189 HD
HETATM   10  C13 UNL     1       3.450  -0.064   1.175  1.00  0.00     0.141 A 
ATOM     11  H5  UNL     1       2.894   0.028   3.224  1.00  0.00     0.188 HD
BRANCH   6  12
HETATM   12  S1  UNL     1       0.776  -2.616  -0.185  1.00  0.00    -0.083 SA
BRANCH  12  13
HETATM   13  C5  UNL     1      -0.681  -1.768  -0.832  1.00  0.00     0.185 C 
BRANCH  13  14
HETATM   14  C6  UNL     1      -1.581  -1.301   0.227  1.00  0.00     0.227 C 
HETATM   15  O1  UNL     1      -1.306  -1.511   1.428  1.00  0.00    -0.273 OA
HETATM   16  N3  UNL     1      -2.772  -0.610  -0.098  1.00  0.00    -0.356 N 
ATOM     17  H3  UNL     1      -3.005  -0.431  -1.075  1.00  0.00     0.162 HD
BRANCH  16  18
HETATM   18  C7  UNL     1      -3.666  -0.154   0.958  1.00  0.00     0.084 C 
HETATM   19  C8  UNL     1      -5.034  -0.712   0.677  1.00  0.00     0.025 C 
HETATM   20  C9  UNL     1      -6.075   0.322   0.409  1.00  0.00     0.002 C 
HETATM   21  C10 UNL     1      -5.639   1.475  -0.428  1.00  0.00     0.000 C 
HETATM   22  C11 UNL     1      -4.204   1.858  -0.316  1.00  0.00     0.002 C 
HETATM   23  C12 UNL     1      -3.635   1.340   0.981  1.00  0.00     0.025 C 
ENDBRANCH  16  18
ENDBRANCH  13  14
ENDBRANCH  12  13
ENDBRANCH   6  12
BRANCH  10  24
HETATM   24  C14 UNL     1       4.585   0.865   1.154  1.00  0.00     0.050 A 
HETATM   25  C15 UNL     1       5.476   1.241   0.213  1.00  0.00     0.023 A 
HETATM   26  C16 UNL     1       6.411   2.156   0.540  1.00  0.00     0.009 A 
HETATM   27  C17 UNL     1       6.395   2.646   1.813  1.00  0.00     0.050 A 
HETATM   28  S2  UNL     1       5.088   1.828   2.522  1.00  0.00    -0.098 SA
ENDBRANCH  10  24
ENDBRANCH   4   5
ENDBRANCH   3   4
TORSDOF 7
