REMARK  1 active torsions:
REMARK  status: ('A' for Active; 'I' for Inactive)
REMARK    1  A    between atoms: C2_2  and  C3_3 
ROOT
HETATM    1  C3  UNL     1       0.381  -0.271   0.033  1.00  0.00     0.172 A 
HETATM    2  O1  UNL     1      -0.309  -1.016   1.101  1.00  0.00    -0.372 OA
HETATM    3  C4  UNL     1      -1.016  -0.007   0.311  1.00  0.00     0.151 A 
HETATM    4  C5  UNL     1      -2.157  -0.663  -0.419  1.00  0.00     0.042 C 
ENDROOT
BRANCH   1   5
HETATM    5  C2  UNL     1       1.406   0.666   0.483  1.00  0.00    -0.003 C 
HETATM    6  C1  UNL     1       2.515   0.860  -0.218  1.00  0.00     0.009 C 
ENDBRANCH   1   5
TORSDOF 1
