REMARK  2 active torsions:
REMARK  status: ('A' for Active; 'I' for Inactive)
REMARK    1  A    between atoms: N1_1  and  N2_4 
REMARK    2  A    between atoms: N2_4  and  C1_5 
ROOT
HETATM    1  C1  UNL     1       0.851  -0.537  -0.150  1.00  0.00     0.156 A 
HETATM    2  C2  UNL     1      -0.341  -1.377  -0.166  1.00  0.00     0.049 A 
HETATM    3  C3  UNL     1      -1.558  -0.883  -0.017  1.00  0.00     0.003 A 
HETATM    4  C4  UNL     1      -1.784   0.545   0.174  1.00  0.00     0.002 A 
HETATM    5  C5  UNL     1      -0.751   1.364   0.199  1.00  0.00     0.032 A 
HETATM    6  C6  UNL     1       0.613   0.900   0.043  1.00  0.00     0.069 A 
HETATM    7  N3  UNL     1       1.632   1.718   0.069  1.00  0.00    -0.396 N 
ATOM      8  H31 UNL     1       1.467   2.716   0.203  1.00  0.00     0.156 HD
ATOM      9  H32 UNL     1       2.592   1.391  -0.041  1.00  0.00     0.156 HD
ENDROOT
BRANCH   1  10
HETATM   10  N2  UNL     1       2.013  -0.981  -0.289  1.00  0.00    -0.331 NA
BRANCH  10  11
HETATM   11  N1  UNL     1       3.151  -1.469  -0.120  1.00  0.00    -0.280 N 
ATOM     12  H12 UNL     1       3.005  -1.585   0.883  1.00  0.00     0.191 HD
ATOM     13  H11 UNL     1       4.098  -1.831  -0.233  1.00  0.00     0.191 HD
ENDBRANCH  10  11
ENDBRANCH   1  10
TORSDOF 2
