REMARK  15 active torsions:
REMARK  status: ('A' for Active; 'I' for Inactive)
REMARK    1  A    between atoms: C2_2  and  C3_3 
REMARK    2  A    between atoms: C3_3  and  C4_4 
REMARK    3  A    between atoms: C4_4  and  C5_5 
REMARK    4  A    between atoms: C5_5  and  O1_6 
REMARK    5  A    between atoms: O1_6  and  C6_7 
REMARK    6  A    between atoms: C6_7  and  N1_9 
REMARK    7  A    between atoms: C6_7  and  C8_13 
REMARK    8  A    between atoms: C8_13  and  C9_14 
REMARK    9  A    between atoms: C9_14  and  N2_15 
REMARK   10  A    between atoms: C9_14  and  C18_30 
REMARK       I    between atoms: N2_15  and  C10_17 
REMARK       I    between atoms: N4_19  and  C11_21 
REMARK       I    between atoms: C11_21  and  N5_23 
REMARK   11  A    between atoms: N5_23  and  C12_24 
REMARK   12  A    between atoms: N5_23  and  C14_26 
REMARK   13  A    between atoms: C18_30  and  O3_31 
REMARK   14  A    between atoms: C18_30  and  N6_33 
REMARK   15  A    between atoms: N6_33  and  C19_35 
ROOT
HETATM    1  C9  UNL     1      -0.955  -1.058   0.499  1.00  0.00     0.163 C 
ENDROOT
BRANCH   1   2
HETATM    2  C8  UNL     1      -0.391  -1.349  -0.801  1.00  0.00     0.101 C 
BRANCH   2   3
HETATM    3  C6  UNL     1      -1.147  -1.329  -2.060  1.00  0.00     0.222 C 
HETATM    4  C7  UNL     1      -1.604  -0.113  -2.709  1.00  0.00     0.078 C 
BRANCH   3   5
HETATM    5  O1  UNL     1      -2.222  -2.251  -1.917  1.00  0.00    -0.355 OA
BRANCH   5   6
HETATM    6  C5  UNL     1      -2.789  -2.617  -3.105  1.00  0.00     0.171 C 
BRANCH   6   7
HETATM    7  C4  UNL     1      -3.884  -3.604  -2.924  1.00  0.00     0.026 C 
BRANCH   7   8
HETATM    8  C3  UNL     1      -5.034  -3.108  -2.126  1.00  0.00     0.002 C 
BRANCH   8   9
HETATM    9  C2  UNL     1      -4.694  -2.707  -0.738  1.00  0.00    -0.004 C 
HETATM   10  C1  UNL     1      -6.014  -2.290  -0.064  1.00  0.00     0.005 C 
ENDBRANCH   8   9
ENDBRANCH   7   8
ENDBRANCH   6   7
ENDBRANCH   5   6
ENDBRANCH   3   5
BRANCH   3  11
HETATM   11  N1  UNL     1      -0.204  -1.998  -3.051  1.00  0.00    -0.047 N 
ATOM     12  H13 UNL     1       0.086  -2.938  -2.781  1.00  0.00     0.278 HD
ATOM     13  H12 UNL     1      -0.645  -2.264  -3.931  1.00  0.00     0.278 HD
ATOM     14  H11 UNL     1       0.566  -1.337  -3.153  1.00  0.00     0.278 HD
ENDBRANCH   3  11
ENDBRANCH   2   3
ENDBRANCH   1   2
BRANCH   1  15
HETATM   15  N2  UNL     1       0.089  -1.327   1.568  1.00  0.00    -0.352 N 
HETATM   16  C10 UNL     1       1.263  -0.563   1.495  1.00  0.00     0.192 C 
HETATM   17  N3  UNL     1       1.285   0.709   2.130  1.00  0.00    -0.063 NA
HETATM   18  N4  UNL     1       2.281  -1.038   0.863  1.00  0.00    -0.283 N 
HETATM   19  C11 UNL     1       3.451  -0.230   0.814  1.00  0.00     0.325 C 
ATOM     20  H4  UNL     1       2.249  -1.955   0.417  1.00  0.00     0.173 HD
HETATM   21  O2  UNL     1       3.291   0.991   0.673  1.00  0.00    -0.247 OA
HETATM   22  N5  UNL     1       4.758  -0.775   0.921  1.00  0.00    -0.326 N 
ATOM     23  H2  UNL     1      -0.055  -2.024   2.298  1.00  0.00     0.163 HD
BRANCH  22  24
HETATM   24  C12 UNL     1       4.898  -2.213   1.077  1.00  0.00     0.124 C 
HETATM   25  C13 UNL     1       4.896  -2.614   2.538  1.00  0.00     0.026 C 
ENDBRANCH  22  24
BRANCH  22  26
HETATM   26  C14 UNL     1       5.865   0.128   0.869  1.00  0.00     0.026 C 
HETATM   27  C15 UNL     1       7.203  -0.534   0.993  1.00  0.00     0.037 C 
HETATM   28  C16 UNL     1       5.683   1.134   1.999  1.00  0.00     0.037 C 
HETATM   29  C17 UNL     1       5.831   0.846  -0.465  1.00  0.00     0.037 C 
ENDBRANCH  22  26
ENDBRANCH   1  15
BRANCH   1  30
HETATM   30  C18 UNL     1      -1.415   0.259   0.874  1.00  0.00     0.135 C 
BRANCH  30  31
HETATM   31  O3  UNL     1      -1.678   0.301   2.207  1.00  0.00    -0.348 OA
ATOM     32  H3  UNL     1      -1.981   1.167   2.454  1.00  0.00     0.219 HD
ENDBRANCH  30  31
BRANCH  30  33
HETATM   33  N6  UNL     1      -1.653   1.476   0.262  1.00  0.00    -0.368 N 
ATOM     34  H6  UNL     1      -1.485   1.589  -0.738  1.00  0.00     0.161 HD
BRANCH  33  35
HETATM   35  C19 UNL     1      -2.157   2.623   1.071  1.00  0.00     0.083 C 
HETATM   36  C20 UNL     1      -1.148   3.734   1.107  1.00  0.00     0.025 C 
HETATM   37  C21 UNL     1      -1.901   4.990   1.556  1.00  0.00     0.002 C 
HETATM   38  C22 UNL     1      -2.638   5.496   0.337  1.00  0.00     0.000 C 
HETATM   39  C23 UNL     1      -3.241   4.329  -0.395  1.00  0.00     0.002 C 
HETATM   40  C24 UNL     1      -3.444   3.125   0.514  1.00  0.00     0.025 C 
ENDBRANCH  33  35
ENDBRANCH  30  33
ENDBRANCH   1  30
TORSDOF 15
