REMARK  12 active torsions:
REMARK  status: ('A' for Active; 'I' for Inactive)
REMARK    1  A    between atoms: C2_2  and  C3_3 
REMARK    2  A    between atoms: C3_3  and  C4_4 
REMARK    3  A    between atoms: C3_3  and  C6_6 
REMARK    4  A    between atoms: C3_3  and  C7_9 
REMARK    5  A    between atoms: C7_9  and  C8_10 
REMARK    6  A    between atoms: C7_9  and  N2_16 
REMARK    7  A    between atoms: C8_10  and  C9_11 
REMARK    8  A    between atoms: C9_11  and  C10_12 
REMARK       I    between atoms: N2_16  and  C13_18 
REMARK       I    between atoms: C13_18  and  N3_20 
REMARK    9  A    between atoms: N3_20  and  C14_22 
REMARK   10  A    between atoms: C14_22  and  C15_23 
REMARK   11  A    between atoms: C14_22  and  C22_34 
REMARK       I    between atoms: C15_23  and  N4_25 
REMARK   12  A    between atoms: C20_30  and  C21_31 
ROOT
HETATM    1  N2  UNL     1      -1.321  -0.862  -0.149  1.00  0.00    -0.337 N 
ATOM      2  H2  UNL     1      -1.385  -1.436  -0.990  1.00  0.00     0.164 HD
HETATM    3  C13 UNL     1      -0.055  -0.673   0.428  1.00  0.00     0.317 C 
HETATM    4  O2  UNL     1       0.031   0.050   1.447  1.00  0.00    -0.247 OA
HETATM    5  N3  UNL     1       1.135  -1.250  -0.073  1.00  0.00    -0.330 N 
ATOM      6  H3  UNL     1       1.094  -1.841  -0.903  1.00  0.00     0.165 HD
ENDROOT
BRANCH   1   7
HETATM    7  C7  UNL     1      -2.576  -0.273   0.395  1.00  0.00     0.103 C 
BRANCH   7   8
HETATM    8  C3  UNL     1      -3.583  -1.358   0.591  1.00  0.00     0.058 C 
BRANCH   8   9
HETATM    9  C2  UNL     1      -4.821  -0.905   1.259  1.00  0.00     0.016 C 
HETATM   10  C1  UNL     1      -5.798  -2.065   1.517  1.00  0.00     0.006 C 
ENDBRANCH   8   9
BRANCH   8  11
HETATM   11  C4  UNL     1      -2.908  -2.469   1.447  1.00  0.00     0.016 C 
HETATM   12  C5  UNL     1      -2.549  -2.059   2.807  1.00  0.00     0.006 C 
ENDBRANCH   8  11
BRANCH   8  13
HETATM   13  C6  UNL     1      -3.946  -2.037  -0.680  1.00  0.00     0.241 C 
HETATM   14  N1  UNL     1      -4.675  -1.420  -1.738  1.00  0.00    -0.061 NA
HETATM   15  O1  UNL     1      -3.627  -3.251  -0.930  1.00  0.00    -0.276 OA
ENDBRANCH   8  13
ENDBRANCH   7   8
BRANCH   7  16
HETATM   16  C8  UNL     1      -2.851   0.940  -0.364  1.00  0.00     0.030 C 
BRANCH  16  17
HETATM   17  C9  UNL     1      -3.869   1.899   0.101  1.00  0.00     0.045 C 
BRANCH  17  18
HETATM   18  C10 UNL     1      -3.977   3.099  -0.847  1.00  0.00     0.096 C 
HETATM   19  C11 UNL     1      -2.679   3.827  -0.940  1.00  0.00     0.051 C 
HETATM   20  C12 UNL     1      -4.418   2.706  -2.216  1.00  0.00     0.051 C 
HETATM   21  F1  UNL     1      -4.921   3.944  -0.301  1.00  0.00    -0.244 F 
ENDBRANCH  17  18
ENDBRANCH  16  17
ENDBRANCH   7  16
ENDBRANCH   1   7
BRANCH   5  22
HETATM   22  C14 UNL     1       2.449  -1.010   0.590  1.00  0.00     0.181 C 
BRANCH  22  23
HETATM   23  C15 UNL     1       3.406  -0.481  -0.379  1.00  0.00     0.243 C 
HETATM   24  O3  UNL     1       3.292  -0.937  -1.571  1.00  0.00    -0.271 OA
HETATM   25  N4  UNL     1       4.425   0.457  -0.166  1.00  0.00    -0.336 N 
HETATM   26  C16 UNL     1       4.546   1.132   1.164  1.00  0.00     0.127 C 
HETATM   27  C20 UNL     1       5.421   0.917  -1.081  1.00  0.00     0.188 C 
HETATM   28  C17 UNL     1       4.440   2.627   0.947  1.00  0.00     0.020 C 
HETATM   29  C18 UNL     1       5.097   3.169  -0.258  1.00  0.00     0.004 C 
HETATM   30  C19 UNL     1       4.952   2.318  -1.503  1.00  0.00     0.036 C 
BRANCH  27  31
HETATM   31  C21 UNL     1       5.913   0.080  -2.133  1.00  0.00     0.196 C 
HETATM   32  O4  UNL     1       5.861  -1.145  -2.176  1.00  0.00    -0.646 OA
HETATM   33  O5  UNL     1       6.527   0.716  -3.247  1.00  0.00    -0.646 OA
ENDBRANCH  27  31
ENDBRANCH  22  23
BRANCH  22  34
HETATM   34  C22 UNL     1       2.854  -2.323   1.217  1.00  0.00     0.009 C 
HETATM   35  C23 UNL     1       3.000  -3.446   0.233  1.00  0.00     0.012 C 
HETATM   36  C24 UNL     1       4.082  -2.214   2.047  1.00  0.00     0.012 C 
ENDBRANCH  22  34
ENDBRANCH   5  22
TORSDOF 12
