REMARK  3 active torsions:
REMARK  status: ('A' for Active; 'I' for Inactive)
REMARK    1  A    between atoms: C1_2  and  N1_3 
REMARK    2  A    between atoms: N1_3  and  C2_5 
REMARK    3  A    between atoms: C2_5  and  C3_6 
ROOT
HETATM    1  C2  UNL     1      -0.244   0.103   0.095  1.00  0.00     0.040 C 
HETATM    2  C8  UNL     1      -0.762  -0.501  -1.241  1.00  0.00     0.032 C 
HETATM    3  C9  UNL     1      -2.113  -1.061  -0.888  1.00  0.00     0.002 C 
HETATM    4  C10 UNL     1      -1.898  -1.630   0.462  1.00  0.00     0.002 C 
HETATM    5  C11 UNL     1      -0.599  -1.039   1.020  1.00  0.00     0.032 C 
ENDROOT
BRANCH   1   6
HETATM    6  N1  UNL     1      -1.231   1.124   0.379  1.00  0.00    -0.358 N 
ATOM      7  H1  UNL     1      -1.676   1.062   1.295  1.00  0.00     0.162 HD
BRANCH   6   8
HETATM    8  C1  UNL     1      -1.656   2.174  -0.420  1.00  0.00     0.349 C 
HETATM    9  O1  UNL     1      -1.273   2.460  -1.569  1.00  0.00    -0.284 OA
ENDBRANCH   6   8
ENDBRANCH   1   6
BRANCH   1  10
HETATM   10  C3  UNL     1       1.112   0.433  -0.123  1.00  0.00    -0.006 A 
HETATM   11  C4  UNL     1       1.978  -0.747  -0.411  1.00  0.00     0.050 C 
HETATM   12  C5  UNL     1       2.859  -0.351   0.710  1.00  0.00     0.175 C 
HETATM   13  F1  UNL     1       2.491  -0.496   1.992  1.00  0.00    -0.249 F 
HETATM   14  C6  UNL     1       2.399   0.956   0.153  1.00  0.00     0.031 A 
HETATM   15  C7  UNL     1       1.366   1.753   0.481  1.00  0.00     0.021 A 
ENDBRANCH   1  10
TORSDOF 3
