REMARK  9 active torsions:
REMARK  status: ('A' for Active; 'I' for Inactive)
REMARK    1  A    between atoms: C2_2  and  C3_3 
REMARK    2  A    between atoms: C3_3  and  C4_4 
REMARK    3  A    between atoms: C4_4  and  C5_5 
REMARK    4  A    between atoms: C5_5  and  C6_6 
REMARK    5  A    between atoms: C6_6  and  O1_7 
REMARK    6  A    between atoms: O1_7  and  N1_8 
REMARK    7  A    between atoms: C7_9  and  O2_10 
REMARK    8  A    between atoms: C10_14  and  O3_15 
REMARK    9  A    between atoms: C12_20  and  O5_21 
ROOT
HETATM    1  N1  UNL     1       0.833   0.094   0.032  1.00  0.00    -0.173 N 
HETATM    2  C7  UNL     1       0.373  -1.303  -0.187  1.00  0.00     0.184 A 
HETATM    3  C8  UNL     1      -0.965  -1.254  -0.304  1.00  0.00     0.068 A 
HETATM    4  C9  UNL     1      -1.320   0.089  -0.172  1.00  0.00     0.107 A 
HETATM    5  C10 UNL     1      -0.195   0.810  -0.021  1.00  0.00     0.198 A 
HETATM    6  N2  UNL     1      -2.612   0.544   0.121  1.00  0.00    -0.301 N 
HETATM    7  C11 UNL     1      -2.630   1.744   0.880  1.00  0.00     0.281 C 
HETATM    8  O4  UNL     1      -1.715   1.857   1.760  1.00  0.00    -0.265 OA
HETATM    9  C12 UNL     1      -3.657   2.631   0.628  1.00  0.00     0.132 C 
HETATM   10  C14 UNL     1      -4.569   2.360  -0.317  1.00  0.00     0.018 C 
HETATM   11  C15 UNL     1      -4.492   1.083  -1.121  1.00  0.00     0.057 C 
HETATM   12  C16 UNL     1      -3.960   0.023  -0.152  1.00  0.00     0.116 C 
HETATM   13  C17 UNL     1      -4.058  -1.358  -0.571  1.00  0.00     0.099 C 
HETATM   14  C18 UNL     1      -4.575  -2.226   0.591  1.00  0.00     0.023 C 
HETATM   15  C19 UNL     1      -3.569  -2.376   1.679  1.00  0.00     0.003 C 
HETATM   16  C20 UNL     1      -2.456  -3.313   1.417  1.00  0.00     0.022 C 
HETATM   17  C21 UNL     1      -2.094  -3.536   0.005  1.00  0.00     0.110 C 
HETATM   18  S1  UNL     1      -3.433  -3.729  -1.175  1.00  0.00    -0.067 SA
HETATM   19  N3  UNL     1      -3.068  -1.978  -1.312  1.00  0.00    -0.219 NA
HETATM   20  C22 UNL     1      -1.825  -2.344  -0.770  1.00  0.00     0.031 C 
ENDROOT
BRANCH   1  21
HETATM   21  O1  UNL     1       2.087   0.068   0.398  1.00  0.00    -0.269 OA
BRANCH  21  22
HETATM   22  C6  UNL     1       3.292   0.441  -0.042  1.00  0.00     0.202 C 
BRANCH  22  23
HETATM   23  C5  UNL     1       4.068  -0.947   0.176  1.00  0.00     0.029 C 
BRANCH  23  24
HETATM   24  C4  UNL     1       5.480  -0.655   0.510  1.00  0.00     0.002 C 
BRANCH  24  25
HETATM   25  C3  UNL     1       6.139   0.297  -0.426  1.00  0.00    -0.000 C 
BRANCH  25  26
HETATM   26  C2  UNL     1       7.440   0.710   0.267  1.00  0.00    -0.005 C 
HETATM   27  C1  UNL     1       8.098   1.849  -0.454  1.00  0.00     0.005 C 
ENDBRANCH  25  26
ENDBRANCH  24  25
ENDBRANCH  23  24
ENDBRANCH  22  23
ENDBRANCH  21  22
ENDBRANCH   1  21
BRANCH   2  28
HETATM   28  O2  UNL     1       1.223  -2.373  -0.243  1.00  0.00    -0.344 OA
ATOM     29  H2  UNL     1       0.929  -3.266  -0.383  1.00  0.00     0.219 HD
ENDBRANCH   2  28
BRANCH   5  30
HETATM   30  O3  UNL     1      -0.222   2.203   0.054  1.00  0.00    -0.343 OA
ATOM     31  H3  UNL     1      -1.001   2.745   0.014  1.00  0.00     0.219 HD
ENDBRANCH   5  30
BRANCH   9  32
HETATM   32  O5  UNL     1      -3.795   3.844   1.324  1.00  0.00    -0.351 OA
HETATM   33  C13 UNL     1      -3.831   5.086   0.665  1.00  0.00     0.210 C 
ENDBRANCH   9  32
TORSDOF 9
