REMARK  9 active torsions:
REMARK  status: ('A' for Active; 'I' for Inactive)
REMARK    1  A    between atoms: C2_2  and  C3_3 
REMARK    2  A    between atoms: C3_3  and  C4_4 
REMARK    3  A    between atoms: C4_4  and  N1_5 
REMARK    4  A    between atoms: C5_6  and  S1_7 
REMARK    5  A    between atoms: S1_7  and  C6_8 
REMARK    6  A    between atoms: C6_8  and  C7_9 
REMARK    7  A    between atoms: C14_23  and  C15_24 
REMARK    8  A    between atoms: C20_32  and  C21_33 
REMARK    9  A    between atoms: C21_33  and  O1_35 
ROOT
HETATM    1  N1  UNL     1      -1.371   0.770  -1.193  1.00  0.00    -0.323 N 
HETATM    2  C5  UNL     1      -0.678  -0.264  -1.804  1.00  0.00     0.148 A 
HETATM    3  N5  UNL     1      -1.257  -1.385  -1.342  1.00  0.00    -0.335 N 
ATOM      4  H5  UNL     1      -0.964  -2.325  -1.608  1.00  0.00     0.168 HD
HETATM    5  C14 UNL     1      -2.276  -1.127  -0.480  1.00  0.00     0.066 A 
HETATM    6  C20 UNL     1      -2.327   0.270  -0.423  1.00  0.00     0.070 A 
ENDROOT
BRANCH   2   7
HETATM    7  S1  UNL     1       0.614  -0.222  -2.986  1.00  0.00    -0.086 SA
BRANCH   7   8
HETATM    8  C6  UNL     1       2.269  -0.510  -2.717  1.00  0.00     0.160 C 
BRANCH   8   9
HETATM    9  C7  UNL     1       3.036   0.421  -1.881  1.00  0.00     0.109 A 
HETATM   10  N2  UNL     1       3.485   1.671  -2.234  1.00  0.00    -0.287 N 
HETATM   11  N3  UNL     1       4.168   2.202  -1.244  1.00  0.00    -0.287 N 
ATOM     12  H2  UNL     1       3.313   2.121  -3.133  1.00  0.00     0.188 HD
HETATM   13  C8  UNL     1       4.177   1.325  -0.248  1.00  0.00     0.099 A 
ATOM     14  H3  UNL     1       4.611   3.121  -1.242  1.00  0.00     0.188 HD
HETATM   15  N4  UNL     1       3.483   0.232  -0.641  1.00  0.00    -0.323 N 
HETATM   16  C13 UNL     1       4.859   1.554   1.077  1.00  0.00     0.078 C 
HETATM   17  C9  UNL     1       3.292  -0.982   0.149  1.00  0.00     0.131 C 
HETATM   18  C10 UNL     1       4.674  -1.673   0.208  1.00  0.00     0.020 C 
HETATM   19  C11 UNL     1       5.751  -0.608   0.199  1.00  0.00     0.002 C 
HETATM   20  C12 UNL     1       5.674   0.308   1.371  1.00  0.00     0.007 C 
ENDBRANCH   8   9
ENDBRANCH   7   8
ENDBRANCH   2   7
BRANCH   1  21
HETATM   21  C4  UNL     1      -0.897   2.153  -1.383  1.00  0.00     0.158 C 
BRANCH  21  22
HETATM   22  C3  UNL     1       0.162   2.527  -0.424  1.00  0.00    -0.011 C 
BRANCH  22  23
HETATM   23  C2  UNL     1       0.044   2.645   1.019  1.00  0.00    -0.033 C 
HETATM   24  C1  UNL     1      -0.756   3.696   1.662  1.00  0.00     0.036 C 
ENDBRANCH  22  23
ENDBRANCH  21  22
ENDBRANCH   1  21
BRANCH   6  25
HETATM   25  C21 UNL     1      -3.461   0.988   0.259  1.00  0.00     0.166 C 
HETATM   26  C22 UNL     1      -3.700   2.390  -0.213  1.00  0.00     0.046 C 
BRANCH  25  27
HETATM   27  O1  UNL     1      -4.644   0.306  -0.209  1.00  0.00    -0.390 OA
ATOM     28  H1  UNL     1      -5.360   0.759   0.221  1.00  0.00     0.210 HD
ENDBRANCH  25  27
ENDBRANCH   6  25
BRANCH   5  29
HETATM   29  C15 UNL     1      -3.021  -2.161   0.195  1.00  0.00    -0.030 C 
HETATM   30  C16 UNL     1      -2.851  -3.433  -0.307  1.00  0.00     0.010 C 
HETATM   31  C17 UNL     1      -3.595  -4.507   0.357  1.00  0.00     0.260 C 
HETATM   32  N6  UNL     1      -4.966  -4.222   0.650  1.00  0.00    -0.072 N 
HETATM   33  C18 UNL     1      -5.179  -2.883   1.149  1.00  0.00     0.237 C 
ATOM     34  H62 UNL     1      -5.555  -4.403  -0.163  1.00  0.00     0.277 HD
ATOM     35  H61 UNL     1      -5.350  -4.914   1.294  1.00  0.00     0.277 HD
HETATM   36  C19 UNL     1      -3.849  -2.174   1.396  1.00  0.00     0.068 C 
ENDBRANCH   5  29
TORSDOF 9
