REMARK  7 active torsions:
REMARK  status: ('A' for Active; 'I' for Inactive)
REMARK    1  A    between atoms: C2_2  and  C3_3 
REMARK    2  A    between atoms: C7_7  and  C8_8 
REMARK    3  A    between atoms: N1_9  and  O1_11 
REMARK    4  A    between atoms: O1_11  and  C9_12 
REMARK    5  A    between atoms: C9_12  and  C10_14 
REMARK    6  A    between atoms: C10_14  and  C11_15 
REMARK    7  A    between atoms: C11_15  and  O3_16 
ROOT
HETATM    1  C3  UNL     1      -2.593   0.122   0.399  1.00  0.00     0.085 C 
HETATM    2  C4  UNL     1      -2.199  -0.527   1.746  1.00  0.00     0.074 C 
HETATM    3  C5  UNL     1      -0.716  -0.230   1.728  1.00  0.00    -0.072 C 
HETATM    4  C6  UNL     1       0.085  -0.075   2.986  1.00  0.00     0.044 C 
HETATM    5  C7  UNL     1      -0.281  -0.139   0.488  1.00  0.00    -0.027 C 
HETATM    6  C12 UNL     1      -1.434  -0.371  -0.431  1.00  0.00     0.017 C 
HETATM    7  C13 UNL     1      -1.220   0.478  -1.665  1.00  0.00     0.023 C 
HETATM    8  C14 UNL     1      -1.491  -1.830  -0.738  1.00  0.00     0.027 C 
HETATM    9  C15 UNL     1      -2.837  -2.386  -1.042  1.00  0.00     0.112 C 
HETATM   10  C16 UNL     1      -3.974  -1.570  -0.624  1.00  0.00     0.259 C 
HETATM   11  O4  UNL     1      -5.135  -2.014  -0.786  1.00  0.00    -0.265 OA
HETATM   12  O5  UNL     1      -3.841  -0.310  -0.043  1.00  0.00    -0.309 OA
ENDROOT
BRANCH   5  13
HETATM   13  C8  UNL     1       1.106   0.144   0.091  1.00  0.00     0.122 C 
HETATM   14  N1  UNL     1       2.043   0.351   0.909  1.00  0.00    -0.268 N 
ATOM     15  H1  UNL     1       1.730   0.302   1.878  1.00  0.00     0.194 HD
BRANCH  14  16
HETATM   16  O1  UNL     1       3.329   0.615   0.811  1.00  0.00    -0.200 OA
BRANCH  16  17
HETATM   17  C9  UNL     1       3.984   0.919  -0.348  1.00  0.00     0.283 C 
HETATM   18  O2  UNL     1       3.437   0.977  -1.460  1.00  0.00    -0.263 OA
BRANCH  17  19
HETATM   19  C10 UNL     1       5.457   1.193  -0.232  1.00  0.00     0.139 C 
BRANCH  19  20
HETATM   20  C11 UNL     1       6.211  -0.116  -0.041  1.00  0.00     0.174 C 
BRANCH  20  21
HETATM   21  O3  UNL     1       6.023  -1.011  -1.074  1.00  0.00    -0.400 OA
ATOM     22  H3  UNL     1       6.493  -1.828  -0.955  1.00  0.00     0.209 HD
ENDBRANCH  20  21
ENDBRANCH  19  20
ENDBRANCH  17  19
ENDBRANCH  16  17
ENDBRANCH  14  16
ENDBRANCH   5  13
BRANCH   1  23
HETATM   23  C2  UNL     1      -2.524   1.614   0.539  1.00  0.00     0.035 C 
HETATM   24  C1  UNL     1      -3.501   2.016   1.644  1.00  0.00     0.008 C 
ENDBRANCH   1  23
TORSDOF 7
