REMARK  2 active torsions:
REMARK  status: ('A' for Active; 'I' for Inactive)
REMARK    1  A    between atoms: N2_5  and  C4_6 
REMARK    2  A    between atoms: C5_10  and  C6_11 
ROOT
HETATM    1  C4  UNL     1       0.223  -0.359  -1.023  1.00  0.00     0.702 A 
HETATM    2  N3  UNL     1      -0.267  -0.566  -2.257  1.00  0.00    -0.089 N 
ATOM      3  H3  UNL     1       0.278  -0.776  -3.093  1.00  0.00     0.213 HD
HETATM    4  O1  UNL     1      -1.573  -0.449  -2.192  1.00  0.00    -0.209 OA
HETATM    5  C5  UNL     1      -1.949  -0.174  -0.965  1.00  0.00     0.169 A 
HETATM    6  N4  UNL     1      -0.836  -0.117  -0.233  1.00  0.00    -0.170 N 
ATOM      7  H4  UNL     1      -0.795   0.079   0.767  1.00  0.00     0.186 HD
ENDROOT
BRANCH   1   8
HETATM    8  N2  UNL     1       1.597  -0.392  -0.634  1.00  0.00    -0.213 N 
HETATM    9  C3  UNL     1       1.995  -0.150   0.737  1.00  0.00     0.171 C 
HETATM   10  C2  UNL     1       3.322  -0.876   0.978  1.00  0.00     0.292 C 
HETATM   11  N1  UNL     1       4.349  -0.440   0.084  1.00  0.00     0.087 N 
HETATM   12  C1  UNL     1       5.370   0.366   0.723  1.00  0.00     0.310 C 
HETATM   13  C12 UNL     1       3.865   0.142  -1.134  1.00  0.00     0.292 C 
HETATM   14  C11 UNL     1       2.655  -0.667  -1.586  1.00  0.00     0.171 C 
ENDBRANCH   1   8
BRANCH   5  15
HETATM   15  C6  UNL     1      -3.337   0.025  -0.525  1.00  0.00     0.097 C 
HETATM   16  C7  UNL     1      -3.552   1.421   0.078  1.00  0.00     0.016 C 
HETATM   17  C8  UNL     1      -4.970   1.224   0.632  1.00  0.00     0.004 C 
HETATM   18  C9  UNL     1      -4.780  -0.061   1.415  1.00  0.00     0.038 C 
HETATM   19  C10 UNL     1      -3.744  -0.854   0.620  1.00  0.00     0.182 C 
HETATM   20  F1  UNL     1      -4.410  -1.952   0.102  1.00  0.00    -0.249 F 
ENDBRANCH   5  15
TORSDOF 2
