REMARK  8 active torsions:
REMARK  status: ('A' for Active; 'I' for Inactive)
REMARK    1  A    between atoms: C3_3  and  C4_4 
REMARK    2  A    between atoms: C4_4  and  O1_5 
REMARK    3  A    between atoms: O1_5  and  C5_6 
REMARK    4  A    between atoms: C5_6  and  C6_8 
REMARK    5  A    between atoms: C13_17  and  C14_18 
REMARK    6  A    between atoms: C14_18  and  O6_20 
REMARK    7  A    between atoms: O6_20  and  C15_21 
REMARK    8  A    between atoms: C15_21  and  C16_22 
ROOT
HETATM    1  C6  UNL     1       2.331  -1.990  -0.443  1.00  0.00     0.186 C 
HETATM    2  C7  UNL     1       2.460  -3.079   0.565  1.00  0.00     0.145 C 
HETATM    3  O3  UNL     1       3.442  -3.645   0.994  1.00  0.00    -0.297 OA
HETATM    4  C8  UNL     1       1.085  -3.412   1.021  1.00  0.00     0.090 C 
HETATM    5  C9  UNL     1       0.189  -2.321   0.476  1.00  0.00     0.044 C 
HETATM    6  C10 UNL     1       0.878  -1.948  -0.758  1.00  0.00    -0.031 C 
HETATM    7  C11 UNL     1       0.399  -1.622  -1.952  1.00  0.00     0.139 C 
HETATM    8  O4  UNL     1      -0.915  -1.542  -2.384  1.00  0.00    -0.362 OA
HETATM    9  C12 UNL     1      -2.004  -2.311  -1.920  1.00  0.00     0.190 C 
HETATM   10  C13 UNL     1      -2.168  -2.049  -0.459  1.00  0.00     0.129 C 
HETATM   11  C22 UNL     1      -1.200  -2.721   0.443  1.00  0.00     0.106 C 
HETATM   12 CL2  UNL     1      -1.322  -4.479   0.135  1.00  0.00    -0.123 Cl
ENDROOT
BRANCH  10  13
HETATM   13  C14 UNL     1      -2.283  -0.579  -0.210  1.00  0.00     0.266 C 
HETATM   14  O5  UNL     1      -2.240   0.238  -1.165  1.00  0.00    -0.265 OA
BRANCH  13  15
HETATM   15  O6  UNL     1      -2.439  -0.057   1.061  1.00  0.00    -0.316 OA
BRANCH  15  16
HETATM   16  C15 UNL     1      -2.558   1.309   1.386  1.00  0.00     0.217 C 
BRANCH  16  17
HETATM   17  C16 UNL     1      -3.759   1.867   0.722  1.00  0.00    -0.032 A 
HETATM   18  C17 UNL     1      -4.814   1.097   0.293  1.00  0.00     0.009 A 
HETATM   19  C18 UNL     1      -5.934   1.612  -0.329  1.00  0.00     0.002 A 
HETATM   20  C19 UNL     1      -6.016   2.970  -0.539  1.00  0.00     0.024 A 
HETATM   21  C20 UNL     1      -4.973   3.765  -0.119  1.00  0.00     0.034 A 
HETATM   22 CL1  UNL     1      -5.122   5.488  -0.407  1.00  0.00    -0.084 Cl
HETATM   23  C21 UNL     1      -3.857   3.244   0.502  1.00  0.00     0.033 A 
ENDBRANCH  16  17
ENDBRANCH  15  16
ENDBRANCH  13  15
ENDBRANCH  10  13
BRANCH   1  24
HETATM   24  C5  UNL     1       2.844  -0.707   0.069  1.00  0.00     0.274 C 
HETATM   25  O2  UNL     1       2.175   0.333   0.189  1.00  0.00    -0.264 OA
BRANCH  24  26
HETATM   26  O1  UNL     1       4.178  -0.663   0.446  1.00  0.00    -0.317 OA
BRANCH  26  27
HETATM   27  C4  UNL     1       4.838   0.457   0.951  1.00  0.00     0.206 C 
BRANCH  27  28
HETATM   28  C3  UNL     1       4.851   1.618   0.024  1.00  0.00    -0.005 C 
HETATM   29  C2  UNL     1       5.979   2.140  -0.416  1.00  0.00    -0.033 C 
HETATM   30  C1  UNL     1       5.968   3.296  -1.338  1.00  0.00     0.036 C 
ENDBRANCH  27  28
ENDBRANCH  26  27
ENDBRANCH  24  26
ENDBRANCH   1  24
TORSDOF 8
