REMARK  8 active torsions:
REMARK  status: ('A' for Active; 'I' for Inactive)
REMARK    1  A    between atoms: C2_2  and  O1_4 
REMARK    2  A    between atoms: O1_4  and  C4_5 
REMARK       I    between atoms: N1_9  and  C7_10 
REMARK    3  A    between atoms: C7_10  and  C8_12 
REMARK    4  A    between atoms: C12_16  and  C13_17 
REMARK    5  A    between atoms: C13_17  and  O4_19 
REMARK    6  A    between atoms: O4_19  and  C14_20 
REMARK    7  A    between atoms: C17_23  and  O5_24 
REMARK    8  A    between atoms: O5_24  and  C18_25 
ROOT
HETATM    1  C8  UNL     1       0.520   1.872  -1.099  1.00  0.00     0.092 C 
HETATM    2  C9  UNL     1       1.110   2.519  -2.335  1.00  0.00     0.015 C 
HETATM    3  C10 UNL     1       1.543   1.430  -3.266  1.00  0.00     0.002 C 
HETATM    4  C11 UNL     1       1.135   0.153  -2.612  1.00  0.00     0.015 C 
HETATM    5  C12 UNL     1       1.014   0.440  -1.119  1.00  0.00     0.099 C 
ENDROOT
BRANCH   1   6
HETATM    6  C7  UNL     1      -0.959   1.952  -1.198  1.00  0.00     0.234 C 
HETATM    7  N1  UNL     1      -1.842   1.581  -0.148  1.00  0.00    -0.291 N 
HETATM    8  S1  UNL     1      -1.018   1.031   1.310  1.00  0.00    -0.051 SA
HETATM    9  C21 UNL     1      -3.257   1.701  -0.407  1.00  0.00     0.142 C 
HETATM   10  C6  UNL     1      -2.206   0.020   2.270  1.00  0.00     0.100 C 
HETATM   11  C5  UNL     1      -2.953  -0.941   1.396  1.00  0.00     0.044 C 
HETATM   12  C4  UNL     1      -4.170  -0.291   0.786  1.00  0.00     0.124 C 
HETATM   13  C22 UNL     1      -3.837   0.304  -0.559  1.00  0.00     0.053 C 
HETATM   14  O2  UNL     1      -1.495   2.373  -2.277  1.00  0.00    -0.272 OA
BRANCH  12  15
HETATM   15  O1  UNL     1      -5.285  -1.092   0.769  1.00  0.00    -0.381 OA
BRANCH  15  16
HETATM   16  C2  UNL     1      -6.333  -0.606   1.537  1.00  0.00     0.113 C 
HETATM   17  C1  UNL     1      -6.700  -1.716   2.527  1.00  0.00     0.039 C 
HETATM   18  C3  UNL     1      -7.537  -0.406   0.640  1.00  0.00     0.039 C 
ENDBRANCH  15  16
ENDBRANCH  12  15
ENDBRANCH   1   6
BRANCH   5  19
HETATM   19  C13 UNL     1       2.400   0.351  -0.574  1.00  0.00     0.269 C 
HETATM   20  O3  UNL     1       2.949   1.412  -0.182  1.00  0.00    -0.264 OA
BRANCH  19  21
HETATM   21  O4  UNL     1       3.102  -0.821  -0.478  1.00  0.00    -0.279 OA
BRANCH  21  22
HETATM   22  C14 UNL     1       4.375  -0.951   0.014  1.00  0.00     0.079 A 
HETATM   23  C15 UNL     1       5.471  -0.842  -0.795  1.00  0.00     0.040 A 
HETATM   24  C16 UNL     1       6.774  -0.975  -0.296  1.00  0.00     0.040 A 
HETATM   25  C17 UNL     1       6.974  -1.219   1.029  1.00  0.00     0.075 A 
HETATM   26  C19 UNL     1       5.846  -1.333   1.871  1.00  0.00     0.040 A 
HETATM   27  C20 UNL     1       4.577  -1.197   1.348  1.00  0.00     0.040 A 
BRANCH  25  28
HETATM   28  O5  UNL     1       8.233  -1.358   1.570  1.00  0.00    -0.290 OA
BRANCH  28  29
HETATM   29  C18 UNL     1       9.443  -1.278   0.906  1.00  0.00     0.505 C 
HETATM   30  F1  UNL     1      10.188  -2.441   1.116  1.00  0.00    -0.184 F 
HETATM   31  F2  UNL     1      10.247  -0.259   1.429  1.00  0.00    -0.184 F 
ENDBRANCH  28  29
ENDBRANCH  25  28
ENDBRANCH  21  22
ENDBRANCH  19  21
ENDBRANCH   5  19
TORSDOF 8
