REMARK  13 active torsions:
REMARK  status: ('A' for Active; 'I' for Inactive)
REMARK    1  A    between atoms: C7_7  and  O1_8 
REMARK    2  A    between atoms: O1_8  and  C8_9 
REMARK    3  A    between atoms: C9_12  and  N2_13 
REMARK    4  A    between atoms: N2_13  and  C10_15 
REMARK    5  A    between atoms: C15_20  and  C16_21 
REMARK    6  A    between atoms: C16_21  and  N3_22 
REMARK    7  A    between atoms: N3_22  and  C17_24 
REMARK    8  A    between atoms: C20_31  and  O2_32 
REMARK    9  A    between atoms: O2_32  and  C21_33 
REMARK   10  A    between atoms: C21_33  and  C22_34 
REMARK   11  A    between atoms: C28_41  and  N6_42 
REMARK   12  A    between atoms: N6_42  and  C29_44 
REMARK   13  A    between atoms: N7_47  and  C32_48 
ROOT
HETATM    1  C32 UNL     1      -4.464   5.963  -2.513  1.00  0.00     0.252 C 
HETATM    2  C33 UNL     1      -5.816   5.599  -2.877  1.00  0.00     0.079 C 
HETATM    3  N8  UNL     1      -6.893   5.303  -3.163  1.00  0.00    -0.196 NA
ENDROOT
BRANCH   1   4
HETATM    4  N7  UNL     1      -3.915   5.009  -1.540  1.00  0.00    -0.340 N 
HETATM    5  C31 UNL     1      -4.051   5.205  -0.220  1.00  0.00     0.096 A 
HETATM    6  C30 UNL     1      -3.522   4.289   0.689  1.00  0.00     0.066 A 
HETATM    7  C29 UNL     1      -2.850   3.164   0.260  1.00  0.00     0.108 A 
HETATM    8  N9  UNL     1      -2.736   3.006  -1.070  1.00  0.00    -0.338 N 
HETATM    9  C34 UNL     1      -3.257   3.908  -1.943  1.00  0.00     0.185 A 
ATOM     10  H9  UNL     1      -2.246   2.188  -1.433  1.00  0.00     0.168 HD
BRANCH   7  11
HETATM   11  N6  UNL     1      -2.379   2.355   1.122  1.00  0.00    -0.326 N 
ATOM     12  H6  UNL     1      -2.523   2.580   2.106  1.00  0.00     0.169 HD
BRANCH  11  13
HETATM   13  C28 UNL     1      -1.672   1.169   0.822  1.00  0.00     0.147 A 
HETATM   14  C20 UNL     1      -0.415   1.315   0.196  1.00  0.00     0.158 A 
HETATM   15  C9  UNL     1       0.341   0.225  -0.145  1.00  0.00     0.146 A 
HETATM   16  N1  UNL     1      -0.181  -1.008   0.152  1.00  0.00    -0.305 N 
HETATM   17  C8  UNL     1      -1.373  -1.148   0.747  1.00  0.00     0.232 A 
ATOM     18  H1  UNL     1       0.354  -1.843  -0.087  1.00  0.00     0.171 HD
HETATM   19  N10 UNL     1      -2.092  -0.055   1.069  1.00  0.00    -0.305 N 
ATOM     20  H10 UNL     1      -2.997  -0.180   1.522  1.00  0.00     0.171 HD
BRANCH  14  21
HETATM   21  O2  UNL     1       0.063   2.582  -0.070  1.00  0.00    -0.340 OA
BRANCH  21  22
HETATM   22  C21 UNL     1       0.650   3.382   0.895  1.00  0.00     0.214 C 
BRANCH  22  23
HETATM   23  C22 UNL     1       1.820   2.919   1.618  1.00  0.00    -0.031 A 
HETATM   24  C23 UNL     1       1.712   2.012   2.678  1.00  0.00     0.009 A 
HETATM   25  C24 UNL     1       2.792   1.623   3.404  1.00  0.00     0.004 A 
HETATM   26  C25 UNL     1       4.059   2.105   3.130  1.00  0.00     0.042 A 
HETATM   27  C26 UNL     1       4.145   3.001   2.076  1.00  0.00     0.117 A 
HETATM   28  F1  UNL     1       5.399   3.484   1.799  1.00  0.00    -0.206 F 
HETATM   29  C27 UNL     1       3.067   3.413   1.324  1.00  0.00     0.051 A 
ENDBRANCH  22  23
ENDBRANCH  21  22
ENDBRANCH  14  21
BRANCH  15  30
HETATM   30  N2  UNL     1       1.455   0.272  -0.795  1.00  0.00    -0.340 N 
ATOM     31  H2  UNL     1       1.870   1.175  -1.025  1.00  0.00     0.167 HD
BRANCH  30  32
HETATM   32  C10 UNL     1       2.103  -0.919  -1.189  1.00  0.00     0.041 A 
HETATM   33  C11 UNL     1       1.450  -1.910  -1.932  1.00  0.00     0.030 A 
HETATM   34  C12 UNL     1       2.087  -3.061  -2.319  1.00  0.00     0.002 A 
HETATM   35  C13 UNL     1       3.395  -3.290  -1.995  1.00  0.00     0.001 A 
HETATM   36  C14 UNL     1       4.081  -2.342  -1.264  1.00  0.00     0.011 A 
HETATM   37  C15 UNL     1       3.407  -1.182  -0.885  1.00  0.00    -0.013 A 
BRANCH  37  38
HETATM   38  C16 UNL     1       4.175  -0.186  -0.114  1.00  0.00     0.178 C 
BRANCH  38  39
HETATM   39  N3  UNL     1       5.530  -0.546   0.155  1.00  0.00    -0.222 N 
ATOM     40  H3  UNL     1       6.222  -0.225  -0.522  1.00  0.00     0.178 HD
BRANCH  39  41
HETATM   41  C17 UNL     1       5.979  -1.219   1.137  1.00  0.00     0.678 A 
HETATM   42  N4  UNL     1       7.263  -1.531   1.344  1.00  0.00    -0.201 N 
HETATM   43  C18 UNL     1       7.388  -2.247   2.473  1.00  0.00     0.123 A 
ATOM     44  H4  UNL     1       8.035  -1.264   0.733  1.00  0.00     0.183 HD
HETATM   45  C19 UNL     1       6.118  -2.388   2.992  1.00  0.00     0.123 A 
HETATM   46  N5  UNL     1       5.278  -1.745   2.147  1.00  0.00    -0.201 N 
ATOM     47  H5  UNL     1       4.267  -1.673   2.263  1.00  0.00     0.183 HD
ENDBRANCH  39  41
ENDBRANCH  38  39
ENDBRANCH  37  38
ENDBRANCH  30  32
ENDBRANCH  15  30
BRANCH  17  48
HETATM   48  O1  UNL     1      -1.893  -2.423   1.046  1.00  0.00    -0.279 OA
BRANCH  48  49
HETATM   49  C7  UNL     1      -2.784  -3.045   0.183  1.00  0.00     0.080 A 
HETATM   50  C6  UNL     1      -4.156  -2.853   0.324  1.00  0.00     0.044 A 
HETATM   51  C4  UNL     1      -5.053  -3.472  -0.534  1.00  0.00    -0.059 A 
HETATM   52  C3  UNL     1      -4.605  -4.291  -1.547  1.00  0.00     0.013 A 
HETATM   53  C5  UNL     1      -6.501  -3.242  -0.350  1.00  0.00     0.048 C 
HETATM   54  C2  UNL     1      -3.251  -4.476  -1.683  1.00  0.00    -0.059 A 
HETATM   55  C1  UNL     1      -2.775  -5.360  -2.774  1.00  0.00     0.048 C 
HETATM   56  C35 UNL     1      -2.347  -3.852  -0.817  1.00  0.00     0.044 A 
ENDBRANCH  48  49
ENDBRANCH  17  48
ENDBRANCH  11  13
ENDBRANCH   7  11
ENDBRANCH   1   4
TORSDOF 13
