REMARK  8 active torsions:
REMARK  status: ('A' for Active; 'I' for Inactive)
REMARK    1  A    between atoms: C2_2  and  C3_4 
REMARK    2  A    between atoms: C3_4  and  N1_6 
REMARK    3  A    between atoms: N1_6  and  C4_8 
REMARK    4  A    between atoms: C6_11  and  C7_12 
REMARK    5  A    between atoms: C7_12  and  N2_13 
REMARK    6  A    between atoms: N2_13  and  C8_15 
REMARK    7  A    between atoms: C8_15  and  N3_17 
REMARK    8  A    between atoms: N3_17  and  N4_19 
ROOT
HETATM    1  C7  UNL     1       0.698  -1.539  -1.363  1.00  0.00     0.179 C 
ENDROOT
BRANCH   1   2
HETATM    2  C6  UNL     1       1.863  -1.125  -0.464  1.00  0.00     0.037 A 
HETATM    3  C5  UNL     1       1.663  -1.101   0.889  1.00  0.00     0.080 A 
HETATM    4  S2  UNL     1       3.178  -0.591   1.475  1.00  0.00    -0.064 SA
HETATM    5  C4  UNL     1       3.983  -0.436  -0.015  1.00  0.00     0.151 A 
HETATM    6  N6  UNL     1       3.056  -0.781  -0.907  1.00  0.00    -0.333 N 
HETATM    7  C14 UNL     1       3.373  -0.777  -2.374  1.00  0.00     0.158 C 
BRANCH   5   8
HETATM    8  N1  UNL     1       5.228  -0.064  -0.268  1.00  0.00    -0.330 N 
ATOM      9  H1  UNL     1       5.600  -0.009  -1.216  1.00  0.00     0.168 HD
BRANCH   8  10
HETATM   10  C3  UNL     1       6.010   0.253   0.877  1.00  0.00     0.097 C 
HETATM   11  S1  UNL     1       6.319  -0.899   1.966  1.00  0.00    -0.064 SA
BRANCH  10  12
HETATM   12  C2  UNL     1       6.530   1.614   1.068  1.00  0.00     0.139 C 
HETATM   13  C1  UNL     1       7.437   1.974  -0.111  1.00  0.00     0.034 C 
HETATM   14 CL1  UNL     1       7.453   1.707   2.579  1.00  0.00    -0.118 Cl
ENDBRANCH  10  12
ENDBRANCH   8  10
ENDBRANCH   5   8
ENDBRANCH   1   2
BRANCH   1  15
HETATM   15  N2  UNL     1      -0.554  -1.226  -0.742  1.00  0.00    -0.361 N 
ATOM     16  H2  UNL     1      -1.202  -1.981  -0.517  1.00  0.00     0.162 HD
BRANCH  15  17
HETATM   17  C8  UNL     1      -0.912   0.111  -0.433  1.00  0.00     0.182 C 
HETATM   18  S3  UNL     1       0.112   1.331  -0.796  1.00  0.00    -0.040 SA
BRANCH  17  19
HETATM   19  N3  UNL     1      -2.153   0.432   0.187  1.00  0.00    -0.295 N 
ATOM     20  H3  UNL     1      -2.373   1.406   0.393  1.00  0.00     0.183 HD
BRANCH  19  21
HETATM   21  N4  UNL     1      -3.071  -0.561   0.517  1.00  0.00    -0.226 NA
HETATM   22  C9  UNL     1      -3.818  -0.258   1.699  1.00  0.00     0.144 C 
HETATM   23  C10 UNL     1      -4.899   0.777   1.477  1.00  0.00     0.288 C 
HETATM   24  N5  UNL     1      -5.431   0.624   0.138  1.00  0.00     0.086 N 
HETATM   25  C11 UNL     1      -6.762   1.144  -0.003  1.00  0.00     0.310 C 
HETATM   26  C12 UNL     1      -5.321  -0.760  -0.288  1.00  0.00     0.288 C 
HETATM   27  C13 UNL     1      -3.858  -1.019  -0.583  1.00  0.00     0.144 C 
ENDBRANCH  19  21
ENDBRANCH  17  19
ENDBRANCH  15  17
ENDBRANCH   1  15
TORSDOF 8
