REMARK  5 active torsions:
REMARK  status: ('A' for Active; 'I' for Inactive)
REMARK    1  A    between atoms: N1_2  and  C2_4 
REMARK    2  A    between atoms: C6_13  and  C7_14 
REMARK    3  A    between atoms: C8_17  and  N5_18 
REMARK    4  A    between atoms: N5_18  and  C9_20 
REMARK    5  A    between atoms: C17_31  and  C18_32 
ROOT
HETATM    1  C7  UNL     1      -1.895  -0.249  -0.277  1.00  0.00     0.073 A 
HETATM    2  N4  UNL     1      -0.734  -0.922  -0.484  1.00  0.00    -0.190 N 
ATOM      3  H4  UNL     1      -0.774  -1.923  -0.676  1.00  0.00     0.184 HD
HETATM    4  C8  UNL     1       0.459  -0.320  -0.445  1.00  0.00     0.678 A 
HETATM    5  N7  UNL     1       0.497   0.996  -0.191  1.00  0.00    -0.201 N 
ATOM      6  H7  UNL     1       1.403   1.464  -0.158  1.00  0.00     0.183 HD
HETATM    7  C16 UNL     1      -0.634   1.733   0.026  1.00  0.00     0.116 A 
HETATM    8  C17 UNL     1      -1.862   1.106  -0.015  1.00  0.00    -0.010 A 
ENDROOT
BRANCH   1   9
HETATM    9  C6  UNL     1      -3.205  -0.892  -0.318  1.00  0.00     0.058 A 
HETATM   10  C2  UNL     1      -3.707  -1.429   0.856  1.00  0.00     0.117 A 
HETATM   11  N2  UNL     1      -4.897  -2.035   0.911  1.00  0.00    -0.318 N 
HETATM   12  C3  UNL     1      -5.623  -2.118  -0.230  1.00  0.00     0.180 A 
ATOM     13  H2  UNL     1      -5.248  -2.424   1.786  1.00  0.00     0.170 HD
HETATM   14 CL1  UNL     1      -7.187  -2.922  -0.127  1.00  0.00    -0.045 Cl
HETATM   15  N3  UNL     1      -5.151  -1.603  -1.370  1.00  0.00    -0.336 N 
HETATM   16  C4  UNL     1      -3.959  -0.989  -1.458  1.00  0.00     0.024 A 
ATOM     17  H3  UNL     1      -5.722  -1.680  -2.212  1.00  0.00     0.168 HD
HETATM   18  C5  UNL     1      -3.453  -0.427  -2.726  1.00  0.00     0.069 C 
BRANCH  10  19
HETATM   19  N1  UNL     1      -2.996  -1.344   1.951  1.00  0.00    -0.380 N 
HETATM   20  C1  UNL     1      -3.441  -1.872   3.203  1.00  0.00     0.147 C 
ATOM     21  H1  UNL     1      -2.087  -0.882   1.910  1.00  0.00     0.160 HD
ENDBRANCH  10  19
ENDBRANCH   1   9
BRANCH   8  22
HETATM   22  C18 UNL     1      -3.086   1.888   0.217  1.00  0.00     0.022 A 
HETATM   23  C19 UNL     1      -3.057   3.333   0.439  1.00  0.00     0.010 A 
HETATM   24  C20 UNL     1      -3.385   2.414   1.597  1.00  0.00     0.010 A 
ENDBRANCH   8  22
BRANCH   4  25
HETATM   25  N5  UNL     1       1.575  -0.928  -0.637  1.00  0.00    -0.221 N 
ATOM     26  H5  UNL     1       1.535  -1.929  -0.829  1.00  0.00     0.178 HD
BRANCH  25  27
HETATM   27  C9  UNL     1       2.860  -0.322  -0.604  1.00  0.00     0.106 C 
HETATM   28  C10 UNL     1       3.253   0.517  -1.794  1.00  0.00     0.033 C 
HETATM   29  C11 UNL     1       4.574  -0.224  -1.809  1.00  0.00     0.024 C 
HETATM   30  C12 UNL     1       5.658   0.496  -1.051  1.00  0.00     0.277 C 
HETATM   31  C15 UNL     1       4.036  -1.225  -0.813  1.00  0.00     0.043 C 
HETATM   32  N6  UNL     1       6.116  -0.397  -0.016  1.00  0.00     0.085 N 
HETATM   33  C13 UNL     1       6.646   0.283   1.140  1.00  0.00     0.309 C 
HETATM   34  C14 UNL     1       5.031  -1.289   0.299  1.00  0.00     0.279 C 
ENDBRANCH  25  27
ENDBRANCH   4  25
TORSDOF 5
