REMARK  2 active torsions:
REMARK  status: ('A' for Active; 'I' for Inactive)
REMARK    1  A    between atoms: C4_5  and  C5_6 
REMARK    2  A    between atoms: N2_14  and  C11_15 
ROOT
HETATM    1  C11 UNL     1      -0.562  -0.352  -0.184  1.00  0.00     0.151 C 
HETATM    2  N3  UNL     1      -0.869  -1.389  -0.899  1.00  0.00    -0.263 N 
ATOM      3  H3  UNL     1      -0.215  -2.170  -0.847  1.00  0.00     0.180 HD
HETATM    4  S1  UNL     1      -2.241  -1.628  -1.931  1.00  0.00     0.265 S 
HETATM    5  O2  UNL     1      -1.975  -0.896  -3.210  1.00  0.00    -0.200 OA
HETATM    6  O3  UNL     1      -2.461  -3.072  -2.235  1.00  0.00    -0.200 OA
HETATM    7  C12 UNL     1      -3.667  -0.967  -1.164  1.00  0.00     0.090 A 
HETATM    8  C13 UNL     1      -4.757  -1.755  -1.297  1.00  0.00     0.026 A 
HETATM    9  C14 UNL     1      -5.931  -1.360  -0.687  1.00  0.00     0.002 A 
HETATM   10  C15 UNL     1      -6.006  -0.196   0.041  1.00  0.00     0.001 A 
HETATM   11  C16 UNL     1      -4.882   0.627   0.185  1.00  0.00     0.014 A 
HETATM   12  C17 UNL     1      -3.726   0.229  -0.424  1.00  0.00    -0.002 A 
HETATM   13  C18 UNL     1      -2.657   1.187  -0.215  1.00  0.00    -0.010 A 
HETATM   14  C19 UNL     1      -3.151   2.462  -0.127  1.00  0.00     0.013 A 
HETATM   15  C20 UNL     1      -2.265   3.509   0.099  1.00  0.00     0.001 A 
HETATM   16  C21 UNL     1      -0.899   3.240   0.230  1.00  0.00     0.001 A 
HETATM   17  C22 UNL     1      -0.446   1.942   0.133  1.00  0.00     0.016 A 
HETATM   18  C23 UNL     1      -1.312   0.877  -0.093  1.00  0.00     0.022 A 
ENDROOT
BRANCH   1  19
HETATM   19  N2  UNL     1       0.628  -0.385   0.593  1.00  0.00    -0.202 N 
HETATM   20  C1  UNL     1       0.521  -0.290   1.931  1.00  0.00     0.268 A 
HETATM   21  O1  UNL     1      -0.635  -0.175   2.439  1.00  0.00    -0.266 OA
HETATM   22  C2  UNL     1       1.625  -0.314   2.763  1.00  0.00     0.079 A 
HETATM   23  C3  UNL     1       2.860  -0.444   2.115  1.00  0.00     0.037 A 
HETATM   24  C4  UNL     1       2.963  -0.541   0.745  1.00  0.00     0.059 A 
HETATM   25  N1  UNL     1       1.816  -0.506   0.032  1.00  0.00    -0.289 N 
ATOM     26  H1  UNL     1       1.871  -0.576  -0.984  1.00  0.00     0.188 HD
BRANCH  24  27
HETATM   27  C5  UNL     1       4.262  -0.675   0.097  1.00  0.00    -0.008 A 
HETATM   28  C6  UNL     1       5.464  -0.717   0.760  1.00  0.00     0.014 A 
HETATM   29  C7  UNL     1       6.678  -0.848   0.077  1.00  0.00     0.001 A 
HETATM   30  C8  UNL     1       6.711  -0.940  -1.296  1.00  0.00     0.000 A 
HETATM   31  C9  UNL     1       5.509  -0.898  -1.968  1.00  0.00     0.001 A 
HETATM   32  C10 UNL     1       4.314  -0.769  -1.291  1.00  0.00     0.014 A 
ENDBRANCH  24  27
ENDBRANCH   1  19
TORSDOF 2
