REMARK  3 active torsions:
REMARK  status: ('A' for Active; 'I' for Inactive)
REMARK    1  A    between atoms: N1_1  and  C1_4 
REMARK    2  A    between atoms: C2_7  and  S1_8 
REMARK    3  A    between atoms: S1_8  and  N3_9 
ROOT
HETATM    1  C1  UNL     1       1.965   0.277   0.274  1.00  0.00     0.683 A 
HETATM    2  N2  UNL     1       0.749   0.443   0.696  1.00  0.00    -0.171 N 
ATOM      3  H2  UNL     1       0.529   1.193   1.352  1.00  0.00     0.185 HD
HETATM    4  C2  UNL     1      -0.203  -0.370   0.267  1.00  0.00     0.222 A 
HETATM    5  S2  UNL     1       0.674  -1.403  -0.775  1.00  0.00     0.034 SA
HETATM    6  N4  UNL     1       2.199  -0.719  -0.585  1.00  0.00    -0.158 N 
ATOM      7  H4  UNL     1       3.081  -0.995  -1.017  1.00  0.00     0.193 HD
ENDROOT
BRANCH   4   8
HETATM    8  S1  UNL     1      -1.924  -0.378   0.668  1.00  0.00     0.281 S 
HETATM    9  O1  UNL     1      -2.113   0.033   2.097  1.00  0.00    -0.199 OA
HETATM   10  O2  UNL     1      -2.390  -1.811   0.506  1.00  0.00    -0.199 OA
BRANCH   8  11
HETATM   11  N3  UNL     1      -2.812   0.608  -0.419  1.00  0.00    -0.323 N 
ATOM     12  H32 UNL     1      -2.388   1.124  -1.190  1.00  0.00     0.169 HD
ATOM     13  H31 UNL     1      -3.805   0.603  -0.188  1.00  0.00     0.169 HD
ENDBRANCH   8  11
ENDBRANCH   4   8
BRANCH   1  14
HETATM   14  N1  UNL     1       2.946   1.064   0.676  1.00  0.00    -0.234 N 
ATOM     15  H12 UNL     1       2.767   1.824   1.332  1.00  0.00     0.174 HD
ATOM     16  H11 UNL     1       3.902   0.934   0.344  1.00  0.00     0.174 HD
ENDBRANCH   1  14
TORSDOF 3
