REMARK  3 active torsions:
REMARK  status: ('A' for Active; 'I' for Inactive)
REMARK    1  A    between atoms: N1_1  and  N2_4 
REMARK    2  A    between atoms: N2_4  and  C1_6 
REMARK    3  A    between atoms: C1_6  and  C2_8 
ROOT
HETATM    1  C2  UNL     1       0.115  -0.548  -0.390  1.00  0.00     0.156 A 
HETATM    2  N3  UNL     1       0.729  -0.242  -1.548  1.00  0.00    -0.292 N 
ATOM      3  H3  UNL     1       0.209  -0.313  -2.423  1.00  0.00     0.187 HD
HETATM    4  N4  UNL     1       1.995   0.150  -1.576  1.00  0.00    -0.295 N 
ATOM      5  H4  UNL     1       2.434   0.374  -2.469  1.00  0.00     0.187 HD
HETATM    6  C3  UNL     1       2.707   0.255  -0.439  1.00  0.00     0.200 A 
HETATM    7  N5  UNL     1       2.150  -0.035   0.750  1.00  0.00    -0.317 N 
ATOM      8  H5  UNL     1       2.691   0.047   1.611  1.00  0.00     0.170 HD
HETATM    9  C4  UNL     1       0.865  -0.435   0.782  1.00  0.00     0.277 A 
HETATM   10  O1  UNL     1       0.308  -0.715   1.867  1.00  0.00    -0.265 OA
ENDROOT
BRANCH   1  11
HETATM   11  C1  UNL     1      -1.272  -0.983  -0.308  1.00  0.00     0.148 C 
HETATM   12  S1  UNL     1      -1.572  -2.583  -0.392  1.00  0.00    -0.056 SA
BRANCH  11  13
HETATM   13  N2  UNL     1      -2.335  -0.029  -0.159  1.00  0.00    -0.295 N 
ATOM     14  H2  UNL     1      -3.294  -0.371  -0.105  1.00  0.00     0.187 HD
BRANCH  13  15
HETATM   15  N1  UNL     1      -2.113   1.333  -0.086  1.00  0.00    -0.344 N 
ATOM     16  H12 UNL     1      -1.148   1.658  -0.142  1.00  0.00     0.176 HD
ATOM     17  H11 UNL     1      -2.868   2.011   0.020  1.00  0.00     0.176 HD
ENDBRANCH  13  15
ENDBRANCH  11  13
ENDBRANCH   1  11
TORSDOF 3
