REMARK  4 active torsions:
REMARK  status: ('A' for Active; 'I' for Inactive)
REMARK    1  A    between atoms: N1_2  and  N2_4 
REMARK    2  A    between atoms: C2_6  and  N3_7 
REMARK    3  A    between atoms: N3_7  and  C3_9 
REMARK    4  A    between atoms: C3_9  and  C4_10 
ROOT
HETATM    1  N2  UNL     1      -2.383   1.178   0.201  1.00  0.00    -0.301 N 
ATOM      2  H2  UNL     1      -2.980   1.973   0.431  1.00  0.00     0.187 HD
HETATM    3  C2  UNL     1      -1.223   1.160   0.721  1.00  0.00     0.192 C 
ENDROOT
BRANCH   3   4
HETATM    4  N3  UNL     1      -0.238   0.166   0.544  1.00  0.00    -0.385 N 
ATOM      5  H3  UNL     1      -0.492  -0.820   0.488  1.00  0.00     0.160 HD
BRANCH   4   6
HETATM    6  C3  UNL     1       1.136   0.584   0.444  1.00  0.00     0.125 C 
BRANCH   6   7
HETATM    7  C4  UNL     1       2.118  -0.536   0.340  1.00  0.00     0.003 A 
HETATM    8  C5  UNL     1       3.557  -0.168   0.234  1.00  0.00     0.007 A 
HETATM    9  C6  UNL     1       2.847  -0.669  -0.966  1.00  0.00     0.007 A 
ENDBRANCH   6   7
ENDBRANCH   4   6
ENDBRANCH   3   4
BRANCH   1  10
HETATM   10  N1  UNL     1      -2.911   0.226  -0.644  1.00  0.00    -0.340 N 
HETATM   11  C1  UNL     1      -4.093  -0.525  -0.281  1.00  0.00     0.167 C 
ATOM     12  H1  UNL     1      -2.460   0.048  -1.541  1.00  0.00     0.179 HD
ENDBRANCH   1  10
TORSDOF 4
