REMARK  3 active torsions:
REMARK  status: ('A' for Active; 'I' for Inactive)
REMARK    1  A    between atoms: C2_2  and  C3_3 
REMARK    2  A    between atoms: C3_3  and  N1_4 
REMARK    3  A    between atoms: N1_4  and  C4_6 
ROOT
HETATM    1  C4  UNL     1       0.795  -0.066   0.516  1.00  0.00     0.171 C 
HETATM    2  N2  UNL     1       1.230   1.034   0.030  1.00  0.00    -0.361 N 
ATOM      3  H2  UNL     1       0.651   1.817  -0.273  1.00  0.00     0.162 HD
HETATM    4  C5  UNL     1       2.662   0.991  -0.021  1.00  0.00     0.142 C 
HETATM    5  C6  UNL     1       2.932  -0.491  -0.093  1.00  0.00     0.142 C 
HETATM    6  N3  UNL     1       1.877  -0.953   0.827  1.00  0.00    -0.361 N 
ATOM      7  H3  UNL     1       1.909  -1.710   1.510  1.00  0.00     0.162 HD
ENDROOT
BRANCH   1   8
HETATM    8  N1  UNL     1      -0.586  -0.385   0.720  1.00  0.00    -0.359 N 
ATOM      9  H1  UNL     1      -0.893  -0.893   1.549  1.00  0.00     0.162 HD
BRANCH   8  10
HETATM   10  C3  UNL     1      -1.536   0.041  -0.296  1.00  0.00     0.149 C 
BRANCH  10  11
HETATM   11  C2  UNL     1      -2.911  -0.379   0.088  1.00  0.00    -0.018 C 
HETATM   12  C1  UNL     1      -3.876   0.493   0.268  1.00  0.00     0.008 C 
ENDBRANCH  10  11
ENDBRANCH   8  10
ENDBRANCH   1   8
TORSDOF 3
