REMARK  2 active torsions:
REMARK  status: ('A' for Active; 'I' for Inactive)
REMARK    1  A    between atoms: C4_4  and  C5_5 
REMARK       I    between atoms: C5_5  and  N1_7 
REMARK    2  A    between atoms: N1_7  and  N2_9 
ROOT
HETATM    1  C1  UNL     1      -2.050  -1.923   1.792  1.00  0.00     0.016 C 
HETATM    2  C2  UNL     1      -1.569  -0.638   1.140  1.00  0.00    -0.026 A 
HETATM    3  C3  UNL     1      -1.555   0.551   2.062  1.00  0.00     0.016 C 
HETATM    4  C4  UNL     1      -0.436  -0.839   0.139  1.00  0.00     0.097 A 
HETATM    5  C10 UNL     1      -1.778  -0.422  -0.309  1.00  0.00    -0.020 A 
HETATM    6  C11 UNL     1      -2.541  -1.455  -1.125  1.00  0.00     0.011 C 
HETATM    7  C12 UNL     1      -3.994  -1.165  -1.255  1.00  0.00     0.001 C 
HETATM    8  C13 UNL     1      -4.197   0.210  -1.816  1.00  0.00     0.000 C 
HETATM    9  C14 UNL     1      -3.585   1.187  -0.820  1.00  0.00     0.001 C 
HETATM   10  C15 UNL     1      -2.086   0.917  -0.846  1.00  0.00     0.011 C 
ENDROOT
BRANCH   4  11
HETATM   11  C5  UNL     1       0.712   0.077   0.289  1.00  0.00     0.237 C 
HETATM   12  O1  UNL     1       0.602   1.293   0.581  1.00  0.00    -0.272 OA
HETATM   13  N1  UNL     1       2.017  -0.426   0.097  1.00  0.00    -0.289 N 
ATOM     14  H1  UNL     1       2.131  -1.410  -0.147  1.00  0.00     0.184 HD
BRANCH  13  15
HETATM   15  N2  UNL     1       3.140   0.356   0.225  1.00  0.00    -0.225 NA
HETATM   16  C6  UNL     1       3.289   1.436  -0.681  1.00  0.00     0.140 C 
HETATM   17  C7  UNL     1       4.657   2.085  -0.388  1.00  0.00     0.183 C 
HETATM   18  O2  UNL     1       5.586   1.186  -0.913  1.00  0.00    -0.389 OA
HETATM   19  C8  UNL     1       5.614   0.105  -0.050  1.00  0.00     0.183 C 
HETATM   20  C9  UNL     1       4.337  -0.447   0.392  1.00  0.00     0.140 C 
ENDBRANCH  13  15
ENDBRANCH   4  11
TORSDOF 2
