REMARK  12 active torsions:
REMARK  status: ('A' for Active; 'I' for Inactive)
REMARK       I    between atoms: C2_2  and  N1_4 
REMARK    1  A    between atoms: C3_6  and  S1_7 
REMARK    2  A    between atoms: C3_6  and  C7_14 
REMARK    3  A    between atoms: S1_7  and  C4_8 
REMARK    4  A    between atoms: C4_8  and  C5_9 
REMARK    5  A    between atoms: C5_9  and  C6_11 
REMARK    6  A    between atoms: C7_14  and  C21_28 
REMARK    7  A    between atoms: C8_15  and  C9_16 
REMARK    8  A    between atoms: C9_16  and  C10_17 
REMARK    9  A    between atoms: C10_17  and  C12_19 
REMARK   10  A    between atoms: C13_20  and  C14_21 
REMARK   11  A    between atoms: C21_28  and  C22_29 
REMARK   12  A    between atoms: C22_29  and  C23_30 
ROOT
HETATM    1  C7  UNL     1       2.143  -0.046   0.915  1.00  0.00    -0.028 C 
HETATM    2  C8  UNL     1       1.278  -0.951   0.543  1.00  0.00    -0.016 C 
ENDROOT
BRANCH   1   3
HETATM    3  C3  UNL     1       3.573  -0.085   0.668  1.00  0.00     0.078 C 
HETATM    4  N1  UNL     1       4.226   0.980   1.141  1.00  0.00    -0.321 N 
HETATM    5  C2  UNL     1       5.610   1.136   0.987  1.00  0.00     0.218 C 
ATOM      6  H1  UNL     1       3.700   1.704   1.631  1.00  0.00     0.169 HD
HETATM    7  C1  UNL     1       6.575   0.648   1.991  1.00  0.00     0.117 C 
HETATM    8  O1  UNL     1       6.043   1.708  -0.037  1.00  0.00    -0.274 OA
BRANCH   3   9
HETATM    9  S1  UNL     1       4.583  -1.232  -0.138  1.00  0.00    -0.104 SA
BRANCH   9  10
HETATM   10  C4  UNL     1       3.855  -2.647  -0.873  1.00  0.00     0.171 C 
BRANCH  10  11
HETATM   11  C5  UNL     1       4.893  -3.506  -1.569  1.00  0.00     0.234 C 
HETATM   12  O2  UNL     1       5.387  -4.456  -0.918  1.00  0.00    -0.285 OA
BRANCH  11  13
HETATM   13  C6  UNL     1       5.265  -3.197  -2.935  1.00  0.00     0.247 C 
HETATM   14  O3  UNL     1       4.726  -2.221  -3.510  1.00  0.00    -0.642 OA
HETATM   15  O4  UNL     1       6.193  -3.924  -3.650  1.00  0.00    -0.642 OA
ENDBRANCH  11  13
ENDBRANCH  10  11
ENDBRANCH   9  10
ENDBRANCH   3   9
ENDBRANCH   1   3
BRANCH   1  16
HETATM   16  C21 UNL     1       1.550   1.167   1.589  1.00  0.00     0.051 C 
BRANCH  16  17
HETATM   17  C22 UNL     1       1.960   1.257   3.012  1.00  0.00     0.118 C 
BRANCH  17  18
HETATM   18  C23 UNL     1       1.355   2.470   3.650  1.00  0.00     0.172 C 
HETATM   19  O5  UNL     1       0.632   3.256   2.998  1.00  0.00    -0.648 OA
HETATM   20  O6  UNL     1       1.640   2.667   4.995  1.00  0.00    -0.648 OA
ENDBRANCH  17  18
ENDBRANCH  16  17
ENDBRANCH   1  16
BRANCH   2  21
HETATM   21  C9  UNL     1      -0.170  -0.946   0.776  1.00  0.00     0.036 C 
BRANCH  21  22
HETATM   22  C10 UNL     1      -0.874  -0.920  -0.568  1.00  0.00     0.007 C 
HETATM   23  C11 UNL     1      -0.571  -2.099  -1.434  1.00  0.00     0.014 C 
BRANCH  22  24
HETATM   24  C12 UNL     1      -2.322  -0.698  -0.490  1.00  0.00    -0.022 C 
HETATM   25  C13 UNL     1      -2.923   0.408  -0.878  1.00  0.00     0.004 C 
BRANCH  25  26
HETATM   26  C14 UNL     1      -4.350   0.653  -0.814  1.00  0.00    -0.056 C 
HETATM   27  C15 UNL     1      -4.833   1.814  -1.234  1.00  0.00    -0.077 C 
HETATM   28  C16 UNL     1      -3.900   2.848  -1.768  1.00  0.00     0.044 C 
HETATM   29  C17 UNL     1      -6.279   2.145  -1.199  1.00  0.00     0.034 C 
HETATM   30  C18 UNL     1      -7.087   1.171  -0.398  1.00  0.00     0.005 C 
HETATM   31  C19 UNL     1      -6.655  -0.230  -0.681  1.00  0.00     0.005 C 
HETATM   32  C20 UNL     1      -5.202  -0.427  -0.276  1.00  0.00     0.039 C 
ENDBRANCH  25  26
ENDBRANCH  22  24
ENDBRANCH  21  22
ENDBRANCH   2  21
TORSDOF 12
