REMARK  12 active torsions:
REMARK  status: ('A' for Active; 'I' for Inactive)
REMARK    1  A    between atoms: C2_2  and  C3_3 
REMARK    2  A    between atoms: C2_2  and  C26_31 
REMARK    3  A    between atoms: C3_3  and  C4_4 
REMARK    4  A    between atoms: C5_5  and  C6_6 
REMARK    5  A    between atoms: C8_8  and  O1_9 
REMARK    6  A    between atoms: C11_14  and  C12_15 
REMARK    7  A    between atoms: C12_15  and  C13_16 
REMARK    8  A    between atoms: C13_16  and  C14_17 
REMARK    9  A    between atoms: C14_17  and  C15_19 
REMARK   10  A    between atoms: C16_20  and  C17_21 
REMARK   11  A    between atoms: C17_21  and  C18_23 
REMARK   12  A    between atoms: C26_31  and  C27_32 
ROOT
HETATM    1  C6  UNL     1      -3.397  -1.188  -1.224  1.00  0.00     0.021 C 
HETATM    2  C7  UNL     1      -4.157  -0.222  -2.020  1.00  0.00     0.041 C 
HETATM    3  C8  UNL     1      -3.599  -0.004  -3.419  1.00  0.00     0.125 C 
HETATM    4  C9  UNL     1      -2.113  -0.182  -3.400  1.00  0.00     0.110 C 
HETATM    5  C10 UNL     1      -1.604   0.177  -2.058  1.00  0.00     0.134 C 
HETATM    6  O2  UNL     1      -0.910   1.154  -1.923  1.00  0.00    -0.297 OA
HETATM    7  C11 UNL     1      -1.967  -0.670  -0.919  1.00  0.00     0.063 C 
ENDROOT
BRANCH   7   8
HETATM    8  C12 UNL     1      -1.100  -1.860  -0.753  1.00  0.00     0.020 C 
BRANCH   8   9
HETATM    9  C13 UNL     1       0.330  -1.674  -0.425  1.00  0.00     0.084 C 
BRANCH   9  10
HETATM   10  C14 UNL     1       1.242  -1.087  -1.381  1.00  0.00     0.149 C 
HETATM   11  O3  UNL     1       1.058  -1.341  -2.611  1.00  0.00    -0.293 OA
BRANCH  10  12
HETATM   12  C15 UNL     1       2.362  -0.216  -0.997  1.00  0.00     0.054 C 
HETATM   13  C16 UNL     1       2.689   0.132   0.207  1.00  0.00     0.054 C 
BRANCH  13  14
HETATM   14  C17 UNL     1       3.768   0.973   0.637  1.00  0.00     0.153 C 
HETATM   15  O4  UNL     1       3.921   1.251   1.877  1.00  0.00    -0.293 OA
BRANCH  14  16
HETATM   16  C18 UNL     1       4.771   1.564  -0.312  1.00  0.00     0.064 C 
HETATM   17  C19 UNL     1       5.551   2.644   0.392  1.00  0.00     0.017 C 
HETATM   18  C20 UNL     1       6.968   2.358   0.698  1.00  0.00     0.034 C 
HETATM   19  C21 UNL     1       7.268   0.922   0.873  1.00  0.00    -0.082 C 
HETATM   20  C22 UNL     1       8.276   0.515   1.876  1.00  0.00     0.043 C 
HETATM   21  C23 UNL     1       6.637   0.053   0.135  1.00  0.00    -0.081 C 
HETATM   22  C24 UNL     1       6.939  -1.388   0.313  1.00  0.00     0.043 C 
HETATM   23  C25 UNL     1       5.642   0.484  -0.878  1.00  0.00     0.046 C 
ENDBRANCH  14  16
ENDBRANCH  13  14
ENDBRANCH  10  12
ENDBRANCH   9  10
ENDBRANCH   8   9
ENDBRANCH   7   8
BRANCH   1  24
HETATM   24  C5  UNL     1      -4.009  -1.650   0.019  1.00  0.00    -0.025 C 
HETATM   25  C4  UNL     1      -5.045  -1.330   0.711  1.00  0.00    -0.026 C 
BRANCH  25  26
HETATM   26  C3  UNL     1      -6.105  -0.328   0.555  1.00  0.00     0.060 C 
BRANCH  26  27
HETATM   27  C2  UNL     1      -6.117   0.626   1.723  1.00  0.00    -0.076 C 
HETATM   28  C1  UNL     1      -5.944   1.911   1.469  1.00  0.00     0.015 C 
BRANCH  27  29
HETATM   29  C26 UNL     1      -6.287   0.190   3.125  1.00  0.00     0.146 C 
BRANCH  29  30
HETATM   30  C27 UNL     1      -7.575  -0.433   3.431  1.00  0.00     0.176 C 
HETATM   31  O5  UNL     1      -8.457  -0.543   2.556  1.00  0.00    -0.648 OA
HETATM   32  O6  UNL     1      -7.836  -0.914   4.699  1.00  0.00    -0.648 OA
ENDBRANCH  29  30
ENDBRANCH  27  29
ENDBRANCH  26  27
ENDBRANCH  25  26
ENDBRANCH   1  24
BRANCH   3  33
HETATM   33  O1  UNL     1      -3.861   1.323  -3.769  1.00  0.00    -0.395 OA
ATOM     34  H1  UNL     1      -3.513   1.459  -4.642  1.00  0.00     0.210 HD
ENDBRANCH   3  33
TORSDOF 12
