REMARK  16 active torsions:
REMARK  status: ('A' for Active; 'I' for Inactive)
REMARK    1  A    between atoms: N1_1  and  C1_4 
REMARK    2  A    between atoms: N3_8  and  C3_10 
REMARK    3  A    between atoms: C3_10  and  C4_11 
REMARK    4  A    between atoms: C5_12  and  C6_13 
REMARK    5  A    between atoms: C6_13  and  N4_14 
REMARK    6  A    between atoms: N4_14  and  C7_17 
REMARK    7  A    between atoms: C7_17  and  C8_18 
REMARK    8  A    between atoms: C8_18  and  C9_19 
REMARK    9  A    between atoms: C9_19  and  C10_20 
REMARK   10  A    between atoms: C10_20  and  C11_21 
REMARK   11  A    between atoms: C11_21  and  C12_22 
REMARK   12  A    between atoms: N7_32  and  C16_33 
REMARK   13  A    between atoms: C16_33  and  C17_34 
REMARK   14  A    between atoms: C17_34  and  C18_35 
REMARK   15  A    between atoms: C18_35  and  C19_36 
REMARK   16  A    between atoms: C19_36  and  O3_37 
ROOT
HETATM    1  C1  UNL     1      -0.761  -0.032   3.918  1.00  0.00     0.145 A 
HETATM    2  N2  UNL     1      -0.101  -0.928   3.173  1.00  0.00    -0.175 N 
ATOM      3  H2  UNL     1       0.424  -1.672   3.633  1.00  0.00     0.186 HD
HETATM    4  C2  UNL     1      -0.117  -0.866   1.828  1.00  0.00     0.681 A 
HETATM    5  N3  UNL     1       0.553  -1.776   1.187  1.00  0.00    -0.223 N 
ATOM      6  H3  UNL     1       1.055  -2.486   1.720  1.00  0.00     0.178 HD
HETATM    7  N5  UNL     1      -0.787   0.084   1.158  1.00  0.00    -0.174 N 
ATOM      8  H5  UNL     1      -0.777   0.100   0.138  1.00  0.00     0.186 HD
HETATM    9  C13 UNL     1      -1.484   1.031   1.858  1.00  0.00     0.155 A 
HETATM   10  C14 UNL     1      -1.464   0.963   3.245  1.00  0.00     0.123 A 
HETATM   11  N6  UNL     1      -2.193   1.981   3.671  1.00  0.00    -0.346 N 
ATOM     12  H6  UNL     1      -2.372   2.206   4.650  1.00  0.00     0.167 HD
HETATM   13  C15 UNL     1      -2.658   2.668   2.630  1.00  0.00     0.185 A 
HETATM   14  N7  UNL     1      -2.226   2.087   1.515  1.00  0.00    -0.327 N 
ENDROOT
BRANCH   5  15
HETATM   15  C3  UNL     1       0.611  -1.816  -0.269  1.00  0.00     0.165 C 
BRANCH  15  16
HETATM   16  C4  UNL     1       1.463  -2.946  -0.639  1.00  0.00    -0.009 C 
HETATM   17  C5  UNL     1       2.559  -2.837  -1.344  1.00  0.00    -0.002 C 
BRANCH  17  18
HETATM   18  C6  UNL     1       3.132  -1.621  -1.884  1.00  0.00     0.259 C 
BRANCH  18  19
HETATM   19  N4  UNL     1       4.473  -1.345  -1.348  1.00  0.00    -0.072 N 
ATOM     20  H42 UNL     1       4.773  -0.390  -1.543  1.00  0.00     0.277 HD
ATOM     21  H41 UNL     1       4.474  -1.297  -0.329  1.00  0.00     0.277 HD
BRANCH  19  22
HETATM   22  C7  UNL     1       5.390  -2.291  -1.830  1.00  0.00     0.232 C 
BRANCH  22  23
HETATM   23  C8  UNL     1       6.817  -2.197  -1.407  1.00  0.00     0.027 C 
BRANCH  23  24
HETATM   24  C9  UNL     1       7.608  -1.024  -1.779  1.00  0.00     0.002 C 
BRANCH  24  25
HETATM   25  C10 UNL     1       7.225   0.328  -1.321  1.00  0.00     0.010 C 
BRANCH  25  26
HETATM   26  C11 UNL     1       7.140   0.505   0.173  1.00  0.00     0.113 C 
BRANCH  26  27
HETATM   27  C12 UNL     1       6.748   1.901   0.466  1.00  0.00     0.172 C 
HETATM   28  O1  UNL     1       6.551   2.689  -0.486  1.00  0.00    -0.648 OA
HETATM   29  O2  UNL     1       6.586   2.382   1.759  1.00  0.00    -0.648 OA
ENDBRANCH  26  27
ENDBRANCH  25  26
ENDBRANCH  24  25
ENDBRANCH  23  24
ENDBRANCH  22  23
ENDBRANCH  19  22
ENDBRANCH  18  19
ENDBRANCH  17  18
ENDBRANCH  15  16
ENDBRANCH   5  15
BRANCH   1  30
HETATM   30  N1  UNL     1      -0.763  -0.068   5.192  1.00  0.00    -0.383 N 
ATOM     31  H12 UNL     1      -0.248  -0.797   5.685  1.00  0.00     0.157 HD
ATOM     32  H11 UNL     1      -1.266   0.614   5.759  1.00  0.00     0.157 HD
ENDBRANCH   1  30
BRANCH  14  33
HETATM   33  C16 UNL     1      -2.495   2.466   0.136  1.00  0.00     0.131 C 
BRANCH  33  34
HETATM   34  C17 UNL     1      -3.789   1.938  -0.408  1.00  0.00     0.023 C 
BRANCH  34  35
HETATM   35  C18 UNL     1      -3.824   0.467  -0.368  1.00  0.00     0.039 C 
BRANCH  35  36
HETATM   36  C19 UNL     1      -5.106  -0.138  -0.923  1.00  0.00     0.058 C 
HETATM   37  C20 UNL     1      -5.266   0.078  -2.379  1.00  0.00     0.038 C 
HETATM   38  C21 UNL     1      -6.256   1.115  -2.794  1.00  0.00     0.003 C 
HETATM   39  C22 UNL     1      -7.508   1.099  -1.943  1.00  0.00     0.000 C 
HETATM   40  C23 UNL     1      -7.197   1.233  -0.480  1.00  0.00     0.003 C 
HETATM   41  C24 UNL     1      -6.258   0.178  -0.049  1.00  0.00     0.038 C 
BRANCH  36  42
HETATM   42  O3  UNL     1      -4.879  -1.538  -0.768  1.00  0.00    -0.390 OA
ATOM     43  H3  UNL     1      -5.679  -1.916  -1.114  1.00  0.00     0.210 HD
ENDBRANCH  36  42
ENDBRANCH  35  36
ENDBRANCH  34  35
ENDBRANCH  33  34
ENDBRANCH  14  33
TORSDOF 16
