REMARK  15 active torsions:
REMARK  status: ('A' for Active; 'I' for Inactive)
REMARK    1  A    between atoms: C2_2  and  C3_3 
REMARK    2  A    between atoms: C3_3  and  C4_4 
REMARK    3  A    between atoms: C4_4  and  C5_5 
REMARK    4  A    between atoms: C5_5  and  C6_6 
REMARK    5  A    between atoms: C6_6  and  C7_7 
REMARK    6  A    between atoms: C7_7  and  C8_8 
REMARK    7  A    between atoms: C8_8  and  C9_9 
REMARK    8  A    between atoms: C9_9  and  C10_10 
REMARK    9  A    between atoms: C10_10  and  C11_11 
REMARK   10  A    between atoms: C11_11  and  C12_12 
REMARK   11  A    between atoms: C12_12  and  C13_13 
REMARK       I    between atoms: C13_13  and  N1_15 
REMARK   12  A    between atoms: N1_15  and  C14_17 
REMARK   13  A    between atoms: C15_18  and  O2_19 
REMARK   14  A    between atoms: C18_24  and  O4_25 
REMARK   15  A    between atoms: C22_32  and  O5_33 
ROOT
HETATM    1  C14 UNL     1      -3.756  -0.022   0.869  1.00  0.00     0.144 C 
HETATM    2  C15 UNL     1      -4.386  -1.197   1.536  1.00  0.00     0.167 C 
HETATM    3  C16 UNL     1      -5.262  -2.046   0.689  1.00  0.00     0.205 C 
HETATM    4  O3  UNL     1      -5.610  -1.358  -0.446  1.00  0.00    -0.347 OA
HETATM    5  C17 UNL     1      -6.478  -0.344  -0.240  1.00  0.00     0.304 A 
HETATM    6  C18 UNL     1      -7.640  -0.357  -1.205  1.00  0.00     0.236 A 
HETATM    7  C19 UNL     1      -8.496  -0.432   0.043  1.00  0.00     0.370 A 
HETATM    8  N2  UNL     1      -9.224   0.808   0.228  1.00  0.00    -0.107 NA
HETATM    9  N3  UNL     1      -8.261   1.758   0.581  1.00  0.00    -0.109 NA
HETATM   10  C20 UNL     1      -7.103   1.063   1.044  1.00  0.00     0.348 C 
HETATM   11  C21 UNL     1      -5.945   0.984   0.041  1.00  0.00     0.137 C 
HETATM   12  C22 UNL     1      -4.656   1.158   0.682  1.00  0.00     0.155 C 
HETATM   13  N4  UNL     1      -7.344  -0.360   0.890  1.00  0.00     0.172 N 
ENDROOT
BRANCH   1  14
HETATM   14  N1  UNL     1      -2.975  -0.349  -0.308  1.00  0.00    -0.351 N 
HETATM   15  C13 UNL     1      -1.536  -0.199  -0.320  1.00  0.00     0.218 C 
HETATM   16  O1  UNL     1      -0.993   0.223   0.725  1.00  0.00    -0.274 OA
ATOM     17  H1  UNL     1      -3.449  -0.691  -1.144  1.00  0.00     0.163 HD
BRANCH  15  18
HETATM   18  C12 UNL     1      -0.730  -0.521  -1.490  1.00  0.00     0.103 C 
BRANCH  18  19
HETATM   19  C11 UNL     1       0.741  -0.395  -1.354  1.00  0.00     0.009 C 
BRANCH  19  20
HETATM   20  C10 UNL     1       1.399  -1.259  -0.343  1.00  0.00     0.000 C 
BRANCH  20  21
HETATM   21  C9  UNL     1       2.902  -1.066  -0.292  1.00  0.00     0.000 C 
BRANCH  21  22
HETATM   22  C8  UNL     1       3.281   0.341   0.058  1.00  0.00     0.000 C 
BRANCH  22  23
HETATM   23  C7  UNL     1       4.758   0.516   0.123  1.00  0.00     0.000 C 
BRANCH  23  24
HETATM   24  C6  UNL     1       5.479   0.224  -1.149  1.00  0.00     0.000 C 
BRANCH  24  25
HETATM   25  C5  UNL     1       6.970   0.431  -1.048  1.00  0.00     0.000 C 
BRANCH  25  26
HETATM   26  C4  UNL     1       7.582  -0.451  -0.016  1.00  0.00     0.000 C 
BRANCH  26  27
HETATM   27  C3  UNL     1       9.078  -0.245   0.063  1.00  0.00    -0.000 C 
BRANCH  27  28
HETATM   28  C2  UNL     1       9.400   1.169   0.422  1.00  0.00    -0.005 C 
HETATM   29  C1  UNL     1      10.917   1.293   0.489  1.00  0.00     0.005 C 
ENDBRANCH  27  28
ENDBRANCH  26  27
ENDBRANCH  25  26
ENDBRANCH  24  25
ENDBRANCH  23  24
ENDBRANCH  22  23
ENDBRANCH  21  22
ENDBRANCH  20  21
ENDBRANCH  19  20
ENDBRANCH  18  19
ENDBRANCH  15  18
ENDBRANCH   1  14
BRANCH   2  30
HETATM   30  O2  UNL     1      -4.978  -0.755   2.712  1.00  0.00    -0.391 OA
ATOM     31  H2  UNL     1      -5.379  -1.504   3.137  1.00  0.00     0.210 HD
ENDBRANCH   2  30
BRANCH  12  32
HETATM   32  O5  UNL     1      -4.830   1.763   1.949  1.00  0.00    -0.393 OA
ATOM     33  H5  UNL     1      -5.402   2.512   1.830  1.00  0.00     0.210 HD
ENDBRANCH  12  32
BRANCH   6  34
HETATM   34  O4  UNL     1      -7.718  -1.509  -1.985  1.00  0.00    -0.387 OA
ATOM     35  H4  UNL     1      -8.449  -1.517  -2.592  1.00  0.00     0.210 HD
ENDBRANCH   6  34
TORSDOF 15
