REMARK  13 active torsions:
REMARK  status: ('A' for Active; 'I' for Inactive)
REMARK    1  A    between atoms: N3_4  and  C2_6 
REMARK    2  A    between atoms: C2_6  and  C3_7 
REMARK    3  A    between atoms: C3_7  and  C4_8 
REMARK    4  A    between atoms: C4_8  and  N4_9 
REMARK    5  A    between atoms: N4_9  and  C5_12 
REMARK    6  A    between atoms: C5_12  and  C6_13 
REMARK    7  A    between atoms: C6_13  and  C7_14 
REMARK    8  A    between atoms: C7_14  and  N5_15 
REMARK    9  A    between atoms: N5_15  and  C8_18 
REMARK   10  A    between atoms: C8_18  and  C9_19 
REMARK   11  A    between atoms: C9_19  and  C10_20 
REMARK   12  A    between atoms: C10_20  and  N6_21 
REMARK   13  A    between atoms: N6_21  and  C11_23 
ROOT
HETATM    1  C10 UNL     1       1.169  -1.528   1.004  1.00  0.00     0.139 C 
ENDROOT
BRANCH   1   2
HETATM    2  C9  UNL     1      -0.303  -1.641   0.582  1.00  0.00     0.048 C 
BRANCH   2   3
HETATM    3  C8  UNL     1      -0.301  -1.582  -0.913  1.00  0.00     0.234 C 
BRANCH   3   4
HETATM    4  N5  UNL     1      -1.643  -1.652  -1.419  1.00  0.00    -0.075 N 
ATOM      5  H52 UNL     1      -2.114  -2.495  -1.092  1.00  0.00     0.277 HD
ATOM      6  H51 UNL     1      -1.647  -1.839  -2.422  1.00  0.00     0.277 HD
BRANCH   4   7
HETATM    7  C7  UNL     1      -2.416  -0.475  -1.110  1.00  0.00     0.233 C 
BRANCH   7   8
HETATM    8  C6  UNL     1      -3.750  -0.572  -1.788  1.00  0.00     0.055 C 
BRANCH   8   9
HETATM    9  C5  UNL     1      -4.565  -1.737  -1.362  1.00  0.00     0.233 C 
BRANCH   9  10
HETATM   10  N4  UNL     1      -4.906  -1.777   0.027  1.00  0.00    -0.075 N 
ATOM     11  H42 UNL     1      -4.080  -1.776   0.625  1.00  0.00     0.277 HD
ATOM     12  H41 UNL     1      -5.287  -2.682   0.302  1.00  0.00     0.277 HD
BRANCH  10  13
HETATM   13  C4  UNL     1      -5.796  -0.703   0.339  1.00  0.00     0.234 C 
BRANCH  13  14
HETATM   14  C3  UNL     1      -7.161  -0.810  -0.289  1.00  0.00     0.047 C 
BRANCH  14  15
HETATM   15  C2  UNL     1      -7.929   0.417   0.160  1.00  0.00     0.123 C 
BRANCH  15  16
HETATM   16  N3  UNL     1      -9.268   0.484  -0.363  1.00  0.00    -0.367 N 
HETATM   17  C1  UNL     1     -10.168   1.102   0.292  1.00  0.00     0.196 C 
HETATM   18  N1  UNL     1      -9.861   1.717   1.522  1.00  0.00    -0.067 NA
HETATM   19  N2  UNL     1     -11.484   1.176  -0.212  1.00  0.00    -0.067 NA
ATOM     20  H3  UNL     1      -9.495   0.039  -1.253  1.00  0.00     0.161 HD
ENDBRANCH  15  16
ENDBRANCH  14  15
ENDBRANCH  13  14
ENDBRANCH  10  13
ENDBRANCH   9  10
ENDBRANCH   8   9
ENDBRANCH   7   8
ENDBRANCH   4   7
ENDBRANCH   3   4
ENDBRANCH   2   3
ENDBRANCH   1   2
BRANCH   1  21
HETATM   21  N6  UNL     1       1.723  -0.281   0.548  1.00  0.00    -0.226 N 
ATOM     22  H6  UNL     1       1.094   0.462   0.244  1.00  0.00     0.177 HD
BRANCH  21  23
HETATM   23  C11 UNL     1       2.980  -0.084   0.515  1.00  0.00     0.681 A 
HETATM   24  N7  UNL     1       3.888  -0.988   0.889  1.00  0.00    -0.155 N 
HETATM   25  C12 UNL     1       5.209  -0.811   0.860  1.00  0.00     0.273 A 
ATOM     26  H7  UNL     1       3.543  -1.887   1.224  1.00  0.00     0.187 HD
HETATM   27  O1  UNL     1       5.915  -1.770   1.247  1.00  0.00    -0.267 OA
HETATM   28  C13 UNL     1       5.751   0.409   0.409  1.00  0.00     0.074 A 
HETATM   29  C14 UNL     1       7.051   0.770   0.308  1.00  0.00    -0.025 A 
HETATM   30  C16 UNL     1       4.819   1.335   0.026  1.00  0.00     0.107 A 
HETATM   31  C15 UNL     1       7.315   2.027  -0.171  1.00  0.00    -0.006 A 
HETATM   32  C20 UNL     1       8.189  -0.152   0.715  1.00  0.00     0.060 C 
HETATM   33  S1  UNL     1       5.764   2.663  -0.461  1.00  0.00    -0.075 SA
HETATM   34  C17 UNL     1       8.605   2.742  -0.422  1.00  0.00     0.066 C 
HETATM   35  C18 UNL     1       9.529   1.768  -1.071  1.00  0.00     0.118 C 
HETATM   36  N9  UNL     1      10.226   1.060  -0.035  1.00  0.00    -0.421 N 
HETATM   37  C19 UNL     1       9.435   0.624   1.048  1.00  0.00     0.118 C 
ATOM     38  H9  UNL     1      11.230   0.883  -0.079  1.00  0.00     0.153 HD
HETATM   39  N8  UNL     1       3.483   1.110   0.072  1.00  0.00    -0.184 N 
ATOM     40  H8  UNL     1       2.841   1.843  -0.229  1.00  0.00     0.185 HD
ENDBRANCH  21  23
ENDBRANCH   1  21
TORSDOF 13
