REMARK  8 active torsions:
REMARK  status: ('A' for Active; 'I' for Inactive)
REMARK    1  A    between atoms: C3_5  and  N2_6 
REMARK    2  A    between atoms: C4_9  and  C5_10 
REMARK    3  A    between atoms: C7_12  and  N3_13 
REMARK       I    between atoms: N3_13  and  C8_15 
REMARK       I    between atoms: C8_15  and  N4_17 
REMARK    4  A    between atoms: N5_21  and  C12_22 
REMARK    5  A    between atoms: C12_22  and  C13_23 
REMARK    6  A    between atoms: C15_26  and  C16_27 
REMARK    7  A    between atoms: C19_30  and  C20_31 
REMARK    8  A    between atoms: C20_31  and  N6_32 
ROOT
HETATM    1  C1  UNL     1      -3.808  -2.937  -0.074  1.00  0.00     0.069 C 
HETATM    2  C2  UNL     1      -2.451  -2.442  -0.121  1.00  0.00     0.017 A 
HETATM    3  N1  UNL     1      -1.498  -3.382  -0.422  1.00  0.00    -0.345 N 
ATOM      4  H1  UNL     1      -1.808  -4.344  -0.557  1.00  0.00     0.167 HD
HETATM    5  C3  UNL     1      -0.178  -3.124  -0.552  1.00  0.00     0.111 A 
HETATM    6  C4  UNL     1       0.276  -1.865  -0.381  1.00  0.00     0.035 A 
HETATM    7  C14 UNL     1      -0.691  -0.889  -0.072  1.00  0.00     0.031 A 
HETATM    8  C15 UNL     1      -2.067  -1.173   0.062  1.00  0.00    -0.011 A 
ENDROOT
BRANCH   6   9
HETATM    9  C5  UNL     1       1.635  -1.380  -0.528  1.00  0.00     0.050 A 
HETATM   10  C6  UNL     1       2.054  -0.269   0.250  1.00  0.00     0.061 A 
HETATM   11  C7  UNL     1       3.315   0.118  -0.101  1.00  0.00     0.054 A 
HETATM   12  C11 UNL     1       3.679  -0.736  -1.089  1.00  0.00     0.121 A 
HETATM   13  N5  UNL     1       2.645  -1.628  -1.325  1.00  0.00    -0.351 N 
BRANCH  11  14
HETATM   14  N3  UNL     1       4.074   1.218   0.440  1.00  0.00    -0.307 N 
HETATM   15  C8  UNL     1       5.448   1.102   0.715  1.00  0.00     0.322 C 
HETATM   16  O1  UNL     1       5.992  -0.040   0.475  1.00  0.00    -0.247 OA
HETATM   17  N4  UNL     1       6.261   2.137   1.231  1.00  0.00    -0.343 N 
HETATM   18  C9  UNL     1       5.753   3.454   1.513  1.00  0.00     0.154 C 
HETATM   19  C10 UNL     1       7.659   1.864   1.492  1.00  0.00     0.154 C 
ATOM     20  H3  UNL     1       3.602   2.103   0.628  1.00  0.00     0.170 HD
ENDBRANCH  11  14
BRANCH  13  21
HETATM   21  C12 UNL     1       2.872  -2.619  -2.343  1.00  0.00     0.160 C 
BRANCH  21  22
HETATM   22  C13 UNL     1       3.827  -3.677  -1.816  1.00  0.00     0.242 C 
HETATM   23  F1  UNL     1       5.066  -3.112  -1.491  1.00  0.00    -0.254 F 
ENDBRANCH  21  22
ENDBRANCH  13  21
ENDBRANCH   6   9
BRANCH   5  24
HETATM   24  N2  UNL     1       0.601  -4.152  -0.764  1.00  0.00    -0.385 N 
ATOM     25  H22 UNL     1       0.258  -5.104  -0.893  1.00  0.00     0.157 HD
ATOM     26  H21 UNL     1       1.597  -3.957  -0.862  1.00  0.00     0.157 HD
ENDBRANCH   5  24
BRANCH   8  27
HETATM   27  C16 UNL     1      -2.916  -0.084   0.565  1.00  0.00    -0.068 C 
HETATM   28  C17 UNL     1      -2.548   1.266  -0.022  1.00  0.00     0.035 C 
HETATM   29  C18 UNL     1      -3.747   2.088  -0.414  1.00  0.00     0.010 C 
HETATM   30  C19 UNL     1      -4.888   2.029   0.559  1.00  0.00     0.011 C 
HETATM   31  C21 UNL     1      -5.341   0.567   0.532  1.00  0.00     0.010 C 
HETATM   32  C22 UNL     1      -4.205  -0.259   1.141  1.00  0.00     0.035 C 
BRANCH  30  33
HETATM   33  C20 UNL     1      -6.041   2.851   0.053  1.00  0.00     0.234 C 
BRANCH  33  34
HETATM   34  N6  UNL     1      -5.721   4.254  -0.129  1.00  0.00    -0.079 N 
ATOM     35  H63 UNL     1      -5.345   4.652   0.732  1.00  0.00     0.274 HD
ATOM     36  H62 UNL     1      -4.908   4.362  -0.736  1.00  0.00     0.274 HD
ATOM     37  H61 UNL     1      -6.503   4.812  -0.472  1.00  0.00     0.274 HD
ENDBRANCH  33  34
ENDBRANCH  30  33
ENDBRANCH   8  27
TORSDOF 8
