REMARK  8 active torsions:
REMARK  status: ('A' for Active; 'I' for Inactive)
REMARK    1  A    between atoms: N1_1  and  C1_4 
REMARK    2  A    between atoms: C2_7  and  N3_8 
REMARK    3  A    between atoms: N4_11  and  S1_12 
REMARK    4  A    between atoms: S1_12  and  C3_15 
REMARK    5  A    between atoms: C6_18  and  O3_19 
REMARK    6  A    between atoms: O3_19  and  C7_20 
REMARK    7  A    between atoms: C8_23  and  N6_24 
REMARK    8  A    between atoms: C9_27  and  N7_28 
ROOT
HETATM    1  C3  UNL     1      -1.009  -0.367   1.347  1.00  0.00     0.081 A 
HETATM    2  C4  UNL     1       0.053   0.460   1.155  1.00  0.00     0.028 A 
HETATM    3  C5  UNL     1       1.289   0.006   0.700  1.00  0.00     0.039 A 
HETATM    4  C6  UNL     1       1.498  -1.328   0.419  1.00  0.00     0.079 A 
HETATM    5  C10 UNL     1       0.434  -2.183   0.606  1.00  0.00     0.039 A 
HETATM    6  C11 UNL     1      -0.784  -1.721   1.057  1.00  0.00     0.028 A 
ENDROOT
BRANCH   1   7
HETATM    7  S1  UNL     1      -2.549   0.196   1.912  1.00  0.00     0.287 S 
HETATM    8  O1  UNL     1      -2.287   1.556   2.550  1.00  0.00    -0.199 OA
HETATM    9  O2  UNL     1      -3.008  -0.688   3.067  1.00  0.00    -0.199 OA
BRANCH   7  10
HETATM   10  N4  UNL     1      -3.776   0.303   0.747  1.00  0.00    -0.012 N 
HETATM   11  C2  UNL     1      -3.776   1.091  -0.331  1.00  0.00     0.711 A 
HETATM   12  N2  UNL     1      -4.808   1.049  -1.241  1.00  0.00    -0.021 N 
HETATM   13  C1  UNL     1      -5.851   0.230  -1.095  1.00  0.00     0.694 A 
ATOM     14  H2  UNL     1      -4.774   1.664  -2.054  1.00  0.00     0.203 HD
HETATM   15  N10 UNL     1      -5.863  -0.560  -0.020  1.00  0.00    -0.140 N 
HETATM   16  C12 UNL     1      -4.865  -0.530   0.871  1.00  0.00     0.369 A 
ATOM     17  H10 UNL     1      -6.646  -1.197   0.125  1.00  0.00     0.189 HD
HETATM   18  O6  UNL     1      -4.926  -1.301   1.873  1.00  0.00    -0.244 OA
BRANCH  11  19
HETATM   19  N3  UNL     1      -2.853   1.924  -0.538  1.00  0.00    -0.233 N 
ATOM     20  H32 UNL     1      -2.853   2.526  -1.361  1.00  0.00     0.174 HD
ATOM     21  H31 UNL     1      -2.088   1.955   0.136  1.00  0.00     0.174 HD
ENDBRANCH  11  19
BRANCH  13  22
HETATM   22  N1  UNL     1      -6.818   0.188  -1.944  1.00  0.00    -0.234 N 
ATOM     23  H12 UNL     1      -6.809   0.792  -2.766  1.00  0.00     0.174 HD
ATOM     24  H11 UNL     1      -7.615  -0.438  -1.832  1.00  0.00     0.174 HD
ENDBRANCH  13  22
ENDBRANCH   7  10
ENDBRANCH   1   7
BRANCH   4  25
HETATM   25  O3  UNL     1       2.712  -1.823  -0.036  1.00  0.00    -0.278 OA
BRANCH  25  26
HETATM   26  C7  UNL     1       3.819  -1.021  -0.245  1.00  0.00     0.245 A 
HETATM   27  N5  UNL     1       4.087  -0.533  -1.479  1.00  0.00    -0.304 N 
HETATM   28  C8  UNL     1       5.165   0.250  -1.693  1.00  0.00     0.154 A 
ATOM     29  H5  UNL     1       3.467  -0.760  -2.256  1.00  0.00     0.171 HD
HETATM   30  C9  UNL     1       5.970   0.527  -0.610  1.00  0.00     0.232 A 
HETATM   31  N8  UNL     1       5.672   0.026   0.599  1.00  0.00    -0.274 N 
HETATM   32  N9  UNL     1       4.611  -0.744   0.802  1.00  0.00    -0.263 N 
ATOM     33  H8  UNL     1       6.281   0.244   1.387  1.00  0.00     0.189 HD
ATOM     34  H9  UNL     1       4.403  -1.115   1.729  1.00  0.00     0.190 HD
BRANCH  28  35
HETATM   35  N6  UNL     1       5.484   0.750  -2.837  1.00  0.00    -0.382 N 
ATOM     36  H62 UNL     1       4.888   0.545  -3.639  1.00  0.00     0.157 HD
ATOM     37  H61 UNL     1       6.299   1.342  -2.999  1.00  0.00     0.157 HD
ENDBRANCH  28  35
BRANCH  30  38
HETATM   38  N7  UNL     1       7.111   1.337  -0.755  1.00  0.00    -0.093 N 
HETATM   39  O4  UNL     1       8.071   1.172   0.031  1.00  0.00    -0.530 OA
HETATM   40  O5  UNL     1       7.237   2.310  -1.721  1.00  0.00    -0.530 OA
ENDBRANCH  30  38
ENDBRANCH  25  26
ENDBRANCH   4  25
TORSDOF 8
