REMARK  10 active torsions:
REMARK  status: ('A' for Active; 'I' for Inactive)
REMARK    1  A    between atoms: C2_2  and  S1_3 
REMARK    2  A    between atoms: S1_3  and  C3_4 
REMARK    3  A    between atoms: C5_9  and  C6_10 
REMARK    4  A    between atoms: C7_11  and  C8_12 
REMARK    5  A    between atoms: C8_12  and  O2_13 
REMARK    6  A    between atoms: C8_12  and  C9_15 
REMARK    7  A    between atoms: C9_15  and  C11_17 
REMARK    8  A    between atoms: C13_19  and  S2_20 
REMARK    9  A    between atoms: S2_20  and  C14_21 
REMARK   10  A    between atoms: C14_21  and  C15_22 
ROOT
HETATM    1  C3  UNL     1      -2.966   1.820   1.309  1.00  0.00     0.147 A 
HETATM    2  N1  UNL     1      -2.136   2.471   2.147  1.00  0.00    -0.302 N 
ATOM      3  H1  UNL     1      -2.516   3.138   2.819  1.00  0.00     0.171 HD
HETATM    4  C4  UNL     1      -0.813   2.249   2.105  1.00  0.00     0.269 A 
HETATM    5  O1  UNL     1      -0.046   2.860   2.890  1.00  0.00    -0.266 OA
HETATM    6  C5  UNL     1      -0.287   1.333   1.183  1.00  0.00     0.119 A 
HETATM    7  C13 UNL     1      -1.149   0.680   0.338  1.00  0.00     0.096 A 
HETATM    8  N2  UNL     1      -2.492   0.940   0.418  1.00  0.00    -0.330 N 
ATOM      9  H2  UNL     1      -3.137   0.458  -0.208  1.00  0.00     0.168 HD
ENDROOT
BRANCH   6  10
HETATM   10  C6  UNL     1       1.135   1.105   1.133  1.00  0.00    -0.056 C 
HETATM   11  C7  UNL     1       2.352   0.944   1.111  1.00  0.00    -0.069 C 
BRANCH  11  12
HETATM   12  C8  UNL     1       3.803   0.789   1.108  1.00  0.00     0.200 C 
BRANCH  12  13
HETATM   13  O2  UNL     1       4.445   2.044   1.220  1.00  0.00    -0.383 OA
ATOM     14  H2  UNL     1       5.390   1.943   1.218  1.00  0.00     0.211 HD
ENDBRANCH  12  13
BRANCH  12  15
HETATM   15  C9  UNL     1       4.217   0.204  -0.198  1.00  0.00     0.022 C 
HETATM   16  C10 UNL     1       5.753   0.084  -0.133  1.00  0.00     0.013 C 
BRANCH  15  17
HETATM   17  C11 UNL     1       3.662  -1.199  -0.340  1.00  0.00     0.003 C 
HETATM   18  C12 UNL     1       4.058  -1.830  -1.653  1.00  0.00     0.005 C 
ENDBRANCH  15  17
ENDBRANCH  12  15
ENDBRANCH  11  12
ENDBRANCH   6  10
BRANCH   7  19
HETATM   19  S2  UNL     1      -0.494  -0.472  -0.825  1.00  0.00    -0.110 SA
BRANCH  19  20
HETATM   20  C14 UNL     1      -0.404  -2.158  -0.265  1.00  0.00     0.084 C 
BRANCH  20  21
HETATM   21  C15 UNL     1      -1.701  -2.849  -0.021  1.00  0.00    -0.013 C 
HETATM   22  C16 UNL     1      -2.572  -2.923  -1.258  1.00  0.00     0.010 C 
HETATM   23  C17 UNL     1      -2.511  -2.357   1.120  1.00  0.00     0.010 C 
ENDBRANCH  20  21
ENDBRANCH  19  20
ENDBRANCH   7  19
BRANCH   1  24
HETATM   24  S1  UNL     1      -4.736   2.124   1.373  1.00  0.00    -0.094 SA
BRANCH  24  25
HETATM   25  C2  UNL     1      -5.173   3.481   0.261  1.00  0.00     0.078 C 
HETATM   26  C1  UNL     1      -4.936   3.092  -1.174  1.00  0.00     0.016 C 
ENDBRANCH  24  25
ENDBRANCH   1  24
TORSDOF 10
