REMARK  8 active torsions:
REMARK  status: ('A' for Active; 'I' for Inactive)
REMARK    1  A    between atoms: C2_2  and  C3_3 
REMARK    2  A    between atoms: C3_3  and  C13_18 
REMARK    3  A    between atoms: N1_4  and  C4_6 
REMARK    4  A    between atoms: C6_8  and  O1_9 
REMARK    5  A    between atoms: C8_11  and  O2_12 
REMARK    6  A    between atoms: C10_14  and  O3_15 
REMARK    7  A    between atoms: C18_25  and  C19_26 
REMARK    8  A    between atoms: C20_27  and  N3_28 
ROOT
HETATM    1  C3  UNL     1      -1.168  -0.718   0.191  1.00  0.00     0.023 C 
HETATM    2  N1  UNL     1      -0.496   0.246  -0.399  1.00  0.00    -0.359 N 
ATOM      3  H1  UNL     1      -1.027   0.938  -0.928  1.00  0.00     0.166 HD
ENDROOT
BRANCH   1   4
HETATM    4  C2  UNL     1      -0.350  -1.679   0.933  1.00  0.00     0.053 C 
HETATM    5  C1  UNL     1      -0.525  -1.658   2.421  1.00  0.00     0.011 C 
ENDBRANCH   1   4
BRANCH   1   6
HETATM    6  C13 UNL     1      -2.597  -0.691   0.079  1.00  0.00     0.029 A 
HETATM    7  C14 UNL     1      -3.585  -1.540   0.555  1.00  0.00     0.019 A 
HETATM    8  C15 UNL     1      -3.418  -2.788   1.311  1.00  0.00     0.069 C 
HETATM    9  N2  UNL     1      -4.823  -1.058   0.200  1.00  0.00    -0.361 N 
HETATM   10  C16 UNL     1      -4.670   0.054  -0.480  1.00  0.00     0.025 A 
ATOM     11  H2  UNL     1      -5.716  -1.494   0.428  1.00  0.00     0.165 HD
HETATM   12  C17 UNL     1      -5.714   0.958  -1.087  1.00  0.00     0.070 C 
HETATM   13  C18 UNL     1      -3.321   0.314  -0.577  1.00  0.00     0.055 A 
BRANCH  13  14
HETATM   14  C19 UNL     1      -2.724   1.440  -1.244  1.00  0.00    -0.041 C 
HETATM   15  C20 UNL     1      -2.245   2.413  -1.822  1.00  0.00     0.009 C 
BRANCH  15  16
HETATM   16  N3  UNL     1      -1.717   3.513  -2.498  1.00  0.00    -0.359 N 
ATOM     17  H32 UNL     1      -2.428   2.804  -2.680  1.00  0.00     0.166 HD
ATOM     18  H31 UNL     1      -1.319   4.321  -2.978  1.00  0.00     0.166 HD
ENDBRANCH  15  16
ENDBRANCH  13  14
ENDBRANCH   1   6
BRANCH   2  19
HETATM   19  C4  UNL     1       0.891   0.391  -0.354  1.00  0.00     0.037 A 
HETATM   20  C5  UNL     1       1.513   1.027   0.711  1.00  0.00     0.069 A 
HETATM   21  C6  UNL     1       2.885   1.164   0.741  1.00  0.00     0.106 A 
HETATM   22  C8  UNL     1       3.657   0.669  -0.291  1.00  0.00     0.135 A 
HETATM   23  C10 UNL     1       3.017   0.036  -1.347  1.00  0.00     0.106 A 
HETATM   24  C12 UNL     1       1.649  -0.118  -1.409  1.00  0.00     0.069 A 
BRANCH  21  25
HETATM   25  O1  UNL     1       3.504   1.800   1.809  1.00  0.00    -0.353 OA
HETATM   26  C7  UNL     1       2.711   2.311   2.872  1.00  0.00     0.210 C 
ENDBRANCH  21  25
BRANCH  22  27
HETATM   27  O2  UNL     1       5.016   0.830  -0.215  1.00  0.00    -0.351 OA
HETATM   28  C9  UNL     1       5.927  -0.045   0.362  1.00  0.00     0.210 C 
ENDBRANCH  22  27
BRANCH  23  29
HETATM   29  O3  UNL     1       3.815  -0.448  -2.364  1.00  0.00    -0.353 OA
HETATM   30  C11 UNL     1       3.271  -1.111  -3.492  1.00  0.00     0.210 C 
ENDBRANCH  23  29
ENDBRANCH   2  19
TORSDOF 8
