REMARK  10 active torsions:
REMARK  status: ('A' for Active; 'I' for Inactive)
REMARK    1  A    between atoms: C5_5  and  C6_6 
REMARK    2  A    between atoms: C6_6  and  C8_8 
REMARK    3  A    between atoms: C8_8  and  C9_9 
REMARK    4  A    between atoms: C9_9  and  C10_10 
REMARK    5  A    between atoms: C11_11  and  C12_12 
REMARK    6  A    between atoms: C13_13  and  C14_14 
REMARK    7  A    between atoms: C19_20  and  C20_21 
REMARK    8  A    between atoms: C20_21  and  O2_22 
REMARK    9  A    between atoms: C29_33  and  C30_34 
REMARK   10  A    between atoms: C30_34  and  O4_35 
ROOT
HETATM    1  C1  UNL     1      -1.558  -5.864   0.451  1.00  0.00     0.102 C 
HETATM    2  C2  UNL     1      -2.173  -5.176  -0.355  1.00  0.00    -0.154 C 
HETATM    3  C3  UNL     1      -2.891  -4.390  -1.314  1.00  0.00    -0.025 C 
HETATM    4  C4  UNL     1      -3.232  -5.029  -2.618  1.00  0.00     0.057 C 
HETATM    5  C5  UNL     1      -3.227  -3.147  -1.029  1.00  0.00    -0.008 C 
ENDROOT
BRANCH   5   6
HETATM    6  C6  UNL     1      -2.853  -2.590   0.280  1.00  0.00     0.005 C 
HETATM    7  C7  UNL     1      -4.131  -2.191   0.991  1.00  0.00     0.014 C 
BRANCH   6   8
HETATM    8  C8  UNL     1      -1.941  -1.351   0.095  1.00  0.00     0.009 C 
BRANCH   8   9
HETATM    9  C9  UNL     1      -1.622  -0.869   1.444  1.00  0.00     0.009 C 
BRANCH   9  10
HETATM   10  C10 UNL     1      -0.805   0.301   1.687  1.00  0.00     0.031 C 
HETATM   11  C11 UNL     1       0.610   0.377   1.228  1.00  0.00     0.015 C 
HETATM   12  C22 UNL     1       0.974   1.836   1.628  1.00  0.00     0.017 C 
HETATM   13  C23 UNL     1      -0.291   2.618   1.513  1.00  0.00     0.031 C 
HETATM   14  C24 UNL     1      -0.183   3.567   0.344  1.00  0.00     0.037 C 
HETATM   15  C31 UNL     1      -1.410   1.627   1.281  1.00  0.00     0.101 C 
HETATM   16  C25 UNL     1       0.379   4.900   0.748  1.00  0.00     0.013 C 
HETATM   17  C29 UNL     1      -1.492   3.888  -0.291  1.00  0.00     0.144 C 
HETATM   18  C26 UNL     1      -0.795   5.802   0.980  1.00  0.00     0.037 C 
HETATM   19  C27 UNL     1      -1.979   5.120   0.390  1.00  0.00    -0.050 C 
HETATM   20  C28 UNL     1      -3.215   5.572   0.484  1.00  0.00     0.017 C 
HETATM   21  O5  UNL     1      -2.418   2.851  -0.199  1.00  0.00    -0.222 OA
HETATM   22  O6  UNL     1      -1.787   1.710  -0.029  1.00  0.00    -0.228 OA
HETATM   23  C32 UNL     1      -2.523   1.993   2.247  1.00  0.00     0.050 C 
BRANCH  11  24
HETATM   24  C12 UNL     1       0.894   0.165  -0.175  1.00  0.00    -0.024 C 
HETATM   25  C13 UNL     1       1.746  -0.674  -0.661  1.00  0.00    -0.013 C 
BRANCH  25  26
HETATM   26  C14 UNL     1       2.655  -1.632  -0.014  1.00  0.00     0.035 C 
HETATM   27  C15 UNL     1       2.029  -2.550   0.988  1.00  0.00     0.028 C 
HETATM   28  C16 UNL     1       3.792  -0.881   0.640  1.00  0.00     0.028 C 
HETATM   29  C17 UNL     1       4.495  -0.051  -0.423  1.00  0.00     0.080 C 
HETATM   30  C18 UNL     1       5.237  -1.015  -1.278  1.00  0.00     0.140 C 
HETATM   31  O1  UNL     1       6.386  -0.787  -1.597  1.00  0.00    -0.297 OA
HETATM   32  C19 UNL     1       4.559  -2.238  -1.725  1.00  0.00     0.149 C 
HETATM   33  C21 UNL     1       3.297  -2.530  -1.043  1.00  0.00     0.152 C 
HETATM   34  O3  UNL     1       2.716  -3.562  -1.315  1.00  0.00    -0.296 OA
BRANCH  32  35
HETATM   35  C20 UNL     1       5.514  -3.437  -1.734  1.00  0.00     0.184 C 
BRANCH  35  36
HETATM   36  O2  UNL     1       6.037  -3.704  -0.495  1.00  0.00    -0.400 OA
ATOM     37  H2  UNL     1       6.629  -4.447  -0.501  1.00  0.00     0.209 HD
ENDBRANCH  35  36
ENDBRANCH  32  35
ENDBRANCH  25  26
ENDBRANCH  11  24
BRANCH  17  38
HETATM   38  C30 UNL     1      -1.302   4.213  -1.746  1.00  0.00     0.210 C 
BRANCH  38  39
HETATM   39  O4  UNL     1      -2.532   4.602  -2.280  1.00  0.00    -0.397 OA
ATOM     40  H4  UNL     1      -2.412   4.807  -3.200  1.00  0.00     0.209 HD
ENDBRANCH  38  39
ENDBRANCH  17  38
ENDBRANCH   9  10
ENDBRANCH   8   9
ENDBRANCH   6   8
ENDBRANCH   5   6
TORSDOF 10
