REMARK  11 active torsions:
REMARK  status: ('A' for Active; 'I' for Inactive)
REMARK    1  A    between atoms: C2_2  and  C3_3 
REMARK    2  A    between atoms: C3_3  and  C4_4 
REMARK    3  A    between atoms: C3_3  and  C27_34 
REMARK    4  A    between atoms: C4_4  and  C5_5 
REMARK    5  A    between atoms: C5_5  and  C6_6 
REMARK    6  A    between atoms: C6_6  and  C7_8 
REMARK    7  A    between atoms: C12_13  and  O2_14 
REMARK    8  A    between atoms: C14_17  and  O3_18 
REMARK    9  A    between atoms: C17_22  and  O4_23 
REMARK   10  A    between atoms: O4_23  and  C18_24 
REMARK   11  A    between atoms: C18_24  and  C19_26 
ROOT
HETATM    1  C7  UNL     1       0.680   0.428  -0.453  1.00  0.00     0.064 C 
HETATM    2  C8  UNL     1       0.879   1.762  -1.206  1.00  0.00     0.013 C 
HETATM    3  C9  UNL     1      -0.579   1.855  -1.732  1.00  0.00     0.007 C 
HETATM    4  C10 UNL     1      -1.310   1.727  -0.431  1.00  0.00     0.002 C 
HETATM    5  C11 UNL     1      -2.739   1.705  -0.396  1.00  0.00     0.032 C 
HETATM    6  C12 UNL     1      -3.284   2.851  -1.254  1.00  0.00     0.126 C 
HETATM    7  C13 UNL     1      -4.769   2.700  -1.004  1.00  0.00     0.064 C 
HETATM    8  C14 UNL     1      -4.967   1.296  -0.461  1.00  0.00     0.131 C 
HETATM    9  C15 UNL     1      -3.618   0.593  -0.745  1.00  0.00     0.015 C 
HETATM   10  C16 UNL     1      -3.730   0.187  -2.166  1.00  0.00     0.021 C 
HETATM   11  C17 UNL     1      -3.581  -0.590   0.185  1.00  0.00     0.143 C 
HETATM   12  C23 UNL     1      -2.570  -0.438   1.290  1.00  0.00     0.034 C 
HETATM   13  C24 UNL     1      -1.210  -0.567   0.637  1.00  0.00     0.013 C 
HETATM   14  C25 UNL     1      -0.521   0.740   0.387  1.00  0.00    -0.029 C 
HETATM   15  C26 UNL     1      -0.125   1.310   1.728  1.00  0.00     0.016 C 
ENDROOT
BRANCH   1  16
HETATM   16  C6  UNL     1       1.929   0.136   0.243  1.00  0.00     0.131 C 
HETATM   17  O1  UNL     1       1.996  -0.017   1.430  1.00  0.00    -0.298 OA
BRANCH  16  18
HETATM   18  C5  UNL     1       3.153   0.037  -0.638  1.00  0.00     0.079 C 
BRANCH  18  19
HETATM   19  C4  UNL     1       4.377  -0.262   0.147  1.00  0.00     0.018 C 
BRANCH  19  20
HETATM   20  C3  UNL     1       5.550  -0.362  -0.818  1.00  0.00     0.041 C 
BRANCH  20  21
HETATM   21  C2  UNL     1       5.800   0.859  -1.586  1.00  0.00    -0.030 C 
HETATM   22  C1  UNL     1       6.907   1.527  -1.752  1.00  0.00     0.007 C 
ENDBRANCH  20  21
BRANCH  20  23
HETATM   23  C27 UNL     1       6.794  -0.832  -0.116  1.00  0.00     0.233 C 
HETATM   24  C28 UNL     1       7.353   0.126   0.881  1.00  0.00     0.063 C 
HETATM   25  C29 UNL     1       7.347  -0.408   2.282  1.00  0.00    -0.027 C 
HETATM   26  C30 UNL     1       7.551  -1.691   2.477  1.00  0.00    -0.001 C 
HETATM   27  C31 UNL     1       7.773  -2.502   1.224  1.00  0.00     0.299 C 
HETATM   28  N1  UNL     1       6.645  -2.185   0.377  1.00  0.00     0.093 N 
HETATM   29  C32 UNL     1       6.663  -3.078  -0.754  1.00  0.00     0.310 C 
ENDBRANCH  20  23
ENDBRANCH  19  20
ENDBRANCH  18  19
ENDBRANCH  16  18
ENDBRANCH   1  16
BRANCH   6  30
HETATM   30  O2  UNL     1      -3.057   2.703  -2.592  1.00  0.00    -0.395 OA
ATOM     31  H2  UNL     1      -3.395   3.414  -3.124  1.00  0.00     0.210 HD
ENDBRANCH   6  30
BRANCH  11  32
HETATM   32  O4  UNL     1      -4.845  -1.011   0.624  1.00  0.00    -0.312 OA
BRANCH  32  33
HETATM   33  C18 UNL     1      -5.437  -2.198   0.348  1.00  0.00     0.283 C 
HETATM   34  O5  UNL     1      -4.786  -2.998  -0.377  1.00  0.00    -0.260 OA
BRANCH  33  35
HETATM   35  C19 UNL     1      -6.741  -2.562   0.842  1.00  0.00     0.084 C 
HETATM   36  C20 UNL     1      -7.531  -1.860   1.605  1.00  0.00    -0.082 C 
HETATM   37  C21 UNL     1      -7.221  -0.515   2.121  1.00  0.00     0.043 C 
HETATM   38  C22 UNL     1      -8.860  -2.436   2.000  1.00  0.00     0.043 C 
ENDBRANCH  33  35
ENDBRANCH  32  33
ENDBRANCH  11  32
BRANCH   8  39
HETATM   39  O3  UNL     1      -5.985   0.715  -1.209  1.00  0.00    -0.395 OA
ATOM     40  H3  UNL     1      -6.109  -0.163  -0.869  1.00  0.00     0.210 HD
ENDBRANCH   8  39
TORSDOF 11
