REMARK  5 active torsions:
REMARK  status: ('A' for Active; 'I' for Inactive)
REMARK    1  A    between atoms: O1_2  and  C2_3 
REMARK    2  A    between atoms: C7_8  and  C8_9 
REMARK    3  A    between atoms: C8_9  and  C12_15 
REMARK    4  A    between atoms: C15_18  and  S1_19 
REMARK    5  A    between atoms: S1_19  and  N3_22 
ROOT
HETATM    1  C8  UNL     1      -0.114  -1.260  -0.281  1.00  0.00     0.018 C 
HETATM    2  C9  UNL     1      -0.088  -2.619  -0.195  1.00  0.00     0.136 C 
HETATM    3  C10 UNL     1      -1.302  -3.384  -0.126  1.00  0.00     0.111 C 
HETATM    4  N1  UNL     1      -2.293  -3.991  -0.084  1.00  0.00    -0.191 NA
HETATM    5  C11 UNL     1       1.150  -3.312  -0.193  1.00  0.00     0.111 C 
HETATM    6  N2  UNL     1       2.166  -3.901  -0.181  1.00  0.00    -0.191 NA
ENDROOT
BRANCH   1   7
HETATM    7  C7  UNL     1      -1.432  -0.636  -0.301  1.00  0.00     0.011 A 
HETATM    8  C2  UNL     1      -1.937   0.092  -1.327  1.00  0.00     0.080 A 
HETATM    9  C3  UNL     1      -3.209   0.671  -1.179  1.00  0.00     0.050 A 
HETATM   10  C4  UNL     1      -3.938   0.509  -0.024  1.00  0.00    -0.012 A 
HETATM   11  C5  UNL     1      -3.448  -0.225   1.034  1.00  0.00    -0.045 A 
HETATM   12  C24 UNL     1      -5.310   1.030   0.110  1.00  0.00     0.039 A 
HETATM   13  C6  UNL     1      -2.186  -0.796   0.876  1.00  0.00     0.023 A 
HETATM   14  C20 UNL     1      -4.160  -0.358   2.318  1.00  0.00     0.045 C 
HETATM   15  C21 UNL     1      -5.613  -0.125   2.283  1.00  0.00     0.064 C 
HETATM   16  C22 UNL     1      -6.062   0.780   1.229  1.00  0.00     0.040 A 
HETATM   17  N4  UNL     1      -7.247   1.462   1.084  1.00  0.00    -0.303 N 
HETATM   18  N5  UNL     1      -7.211   2.088  -0.066  1.00  0.00    -0.289 N 
ATOM     19  H4  UNL     1      -8.017   1.478   1.753  1.00  0.00     0.186 HD
HETATM   20  C23 UNL     1      -6.038   1.860  -0.717  1.00  0.00     0.131 A 
ATOM     21  H5  UNL     1      -7.966   2.672  -0.427  1.00  0.00     0.188 HD
HETATM   22 CL1  UNL     1      -5.598   2.513  -2.272  1.00  0.00    -0.062 Cl
BRANCH   8  23
HETATM   23  O1  UNL     1      -1.243   0.276  -2.510  1.00  0.00    -0.355 OA
HETATM   24  C1  UNL     1      -1.746   1.030  -3.590  1.00  0.00     0.210 C 
ENDBRANCH   8  23
ENDBRANCH   1   7
BRANCH   1  25
HETATM   25  C12 UNL     1       1.177  -0.627  -0.183  1.00  0.00    -0.023 A 
HETATM   26  C13 UNL     1       1.763   0.228  -1.052  1.00  0.00     0.014 A 
HETATM   27  C14 UNL     1       3.014   0.799  -0.796  1.00  0.00     0.025 A 
HETATM   28  C15 UNL     1       3.704   0.519   0.347  1.00  0.00     0.074 A 
HETATM   29  C18 UNL     1       3.123  -0.357   1.255  1.00  0.00     0.025 A 
HETATM   30  C19 UNL     1       1.899  -0.909   0.993  1.00  0.00     0.014 A 
BRANCH  28  31
HETATM   31  S1  UNL     1       5.261   1.266   0.605  1.00  0.00     0.242 S 
HETATM   32  O2  UNL     1       5.445   1.542   2.076  1.00  0.00    -0.206 OA
HETATM   33  O3  UNL     1       5.213   2.620  -0.069  1.00  0.00    -0.206 OA
BRANCH  31  34
HETATM   34  N3  UNL     1       6.560   0.322   0.015  1.00  0.00    -0.215 NA
HETATM   35  C16 UNL     1       6.603  -0.938   0.699  1.00  0.00     0.129 C 
HETATM   36  C17 UNL     1       7.794   1.031   0.255  1.00  0.00     0.129 C 
ENDBRANCH  31  34
ENDBRANCH  28  31
ENDBRANCH   1  25
TORSDOF 5
