REMARK  5 active torsions:
REMARK  status: ('A' for Active; 'I' for Inactive)
REMARK    1  A    between atoms: C2_2  and  C3_3 
REMARK    2  A    between atoms: C3_3  and  N1_4 
REMARK       I    between atoms: N1_4  and  C4_6 
REMARK    3  A    between atoms: C4_6  and  C5_8 
REMARK    4  A    between atoms: C5_8  and  C6_9 
REMARK    5  A    between atoms: C6_9  and  C7_10 
REMARK       I    between atoms: C7_10  and  N2_12 
ROOT
HETATM    1  C7  UNL     1       2.060   0.596  -0.491  1.00  0.00     0.220 C 
HETATM    2  O2  UNL     1       2.397   1.283   0.504  1.00  0.00    -0.273 OA
HETATM    3  N2  UNL     1       0.756   0.057  -0.608  1.00  0.00    -0.351 N 
HETATM    4  C8  UNL     1       0.295  -0.734  -1.707  1.00  0.00     0.126 C 
HETATM    5  C9  UNL     1      -1.154  -0.419  -1.753  1.00  0.00     0.032 C 
HETATM    6  C10 UNL     1      -1.621   0.107  -0.445  1.00  0.00    -0.015 C 
HETATM    7  C11 UNL     1      -2.106   1.509  -0.584  1.00  0.00     0.016 C 
HETATM    8  C12 UNL     1      -3.536   1.768  -0.724  1.00  0.00    -0.013 C 
HETATM    9  C13 UNL     1      -4.337   0.799  -1.517  1.00  0.00     0.009 C 
HETATM   10  C14 UNL     1      -4.820  -0.354  -0.738  1.00  0.00    -0.013 C 
HETATM   11  C15 UNL     1      -5.407  -0.002   0.614  1.00  0.00     0.009 C 
HETATM   12  C16 UNL     1      -4.302   0.714   1.367  1.00  0.00    -0.013 C 
HETATM   13  C17 UNL     1      -4.119   2.040   0.662  1.00  0.00     0.009 C 
HETATM   14  C18 UNL     1      -3.060  -0.073   1.515  1.00  0.00     0.014 C 
HETATM   15  C19 UNL     1      -2.561  -0.797   0.308  1.00  0.00    -0.034 C 
HETATM   16  C20 UNL     1      -1.835  -2.040   0.800  1.00  0.00     0.016 C 
HETATM   17  C21 UNL     1      -3.708  -1.327  -0.467  1.00  0.00     0.014 C 
HETATM   18  C22 UNL     1      -0.318   0.213   0.355  1.00  0.00     0.136 C 
ENDROOT
BRANCH   1  19
HETATM   19  C6  UNL     1       3.037   0.341  -1.570  1.00  0.00     0.112 C 
BRANCH  19  20
HETATM   20  C5  UNL     1       4.416   0.834  -1.318  1.00  0.00     0.112 C 
BRANCH  20  21
HETATM   21  C4  UNL     1       5.086   0.243  -0.147  1.00  0.00     0.218 C 
HETATM   22  N1  UNL     1       6.382   0.675   0.222  1.00  0.00    -0.358 N 
ATOM     23  H1  UNL     1       6.817   1.405  -0.342  1.00  0.00     0.162 HD
HETATM   24  O1  UNL     1       4.494  -0.644   0.514  1.00  0.00    -0.274 OA
BRANCH  22  25
HETATM   25  C3  UNL     1       7.128   0.156   1.336  1.00  0.00     0.149 C 
BRANCH  25  26
HETATM   26  C2  UNL     1       7.484  -1.260   1.187  1.00  0.00    -0.018 C 
HETATM   27  C1  UNL     1       7.240  -1.989   0.137  1.00  0.00     0.008 C 
ENDBRANCH  25  26
ENDBRANCH  22  25
ENDBRANCH  20  21
ENDBRANCH  19  20
ENDBRANCH   1  19
TORSDOF 5
