REMARK  4 active torsions:
REMARK  status: ('A' for Active; 'I' for Inactive)
REMARK    1  A    between atoms: C7_7  and  C9_9 
REMARK    2  A    between atoms: C9_9  and  N1_10 
REMARK    3  A    between atoms: N1_10  and  S1_12 
REMARK    4  A    between atoms: S1_12  and  N2_15 
ROOT
HETATM    1  C1  UNL     1      -0.927   1.766   1.011  1.00  0.00     0.015 C 
HETATM    2  C2  UNL     1      -1.496   0.908   0.259  1.00  0.00    -0.076 C 
HETATM    3  C3  UNL     1      -2.493   1.285  -0.771  1.00  0.00     0.019 C 
HETATM    4  C4  UNL     1      -1.949   0.864  -2.088  1.00  0.00     0.014 C 
HETATM    5  C5  UNL     1      -0.917  -0.247  -2.033  1.00  0.00    -0.012 C 
HETATM    6  C6  UNL     1       0.454   0.129  -1.651  1.00  0.00     0.015 C 
HETATM    7  C7  UNL     1       1.024  -0.519  -0.426  1.00  0.00    -0.026 C 
HETATM    8  C8  UNL     1       1.677  -1.858  -0.829  1.00  0.00     0.017 C 
HETATM    9  C12 UNL     1       0.094  -0.799   0.695  1.00  0.00     0.024 C 
HETATM   10  C13 UNL     1      -1.288  -0.548   0.304  1.00  0.00    -0.016 C 
HETATM   11  C14 UNL     1      -1.454  -1.225  -1.045  1.00  0.00     0.019 C 
HETATM   12  C15 UNL     1      -2.432  -1.033   1.124  1.00  0.00     0.018 C 
HETATM   13  C16 UNL     1      -3.709  -0.604   0.456  1.00  0.00    -0.013 C 
HETATM   14  C17 UNL     1      -4.737  -0.544   1.609  1.00  0.00     0.010 C 
HETATM   15  C18 UNL     1      -3.758   0.664  -0.282  1.00  0.00    -0.007 C 
HETATM   16  C19 UNL     1      -4.847   0.580  -1.351  1.00  0.00     0.011 C 
ENDROOT
BRANCH   7  17
HETATM   17  C9  UNL     1       2.181   0.355   0.008  1.00  0.00     0.142 C 
BRANCH  17  18
HETATM   18  N1  UNL     1       2.872  -0.097   1.179  1.00  0.00    -0.306 N 
ATOM     19  H1  UNL     1       2.662  -0.928   1.732  1.00  0.00     0.173 HD
BRANCH  18  20
HETATM   20  S1  UNL     1       4.145   1.062   1.468  1.00  0.00     0.298 S 
HETATM   21  O1  UNL     1       4.418   1.177   2.941  1.00  0.00    -0.188 OA
HETATM   22  O2  UNL     1       3.625   2.392   1.008  1.00  0.00    -0.188 OA
BRANCH  20  23
HETATM   23  N2  UNL     1       5.515   0.534   0.591  1.00  0.00    -0.202 NA
HETATM   24  C10 UNL     1       5.591   1.044  -0.740  1.00  0.00     0.130 C 
HETATM   25  C11 UNL     1       5.634  -0.888   0.700  1.00  0.00     0.130 C 
ENDBRANCH  20  23
ENDBRANCH  18  20
ENDBRANCH  17  18
ENDBRANCH   7  17
TORSDOF 4
