REMARK  3 active torsions:
REMARK  status: ('A' for Active; 'I' for Inactive)
REMARK    1  A    between atoms: S1_2  and  C2_3 
REMARK    2  A    between atoms: C2_3  and  N1_5 
REMARK    3  A    between atoms: C6_8  and  O1_9 
ROOT
HETATM    1  N1  UNL     1       0.014  -0.014   0.117  1.00  0.00    -0.379 N 
HETATM    2  C4  UNL     1       0.981  -0.814   0.825  1.00  0.00     0.125 C 
HETATM    3  C5  UNL     1       2.341  -0.790   0.163  1.00  0.00     0.051 C 
HETATM    4  C6  UNL     1       2.870   0.612   0.011  1.00  0.00     0.121 C 
HETATM    5  C7  UNL     1       1.804   1.653   0.079  1.00  0.00     0.051 C 
HETATM    6  C8  UNL     1       0.490   1.188  -0.538  1.00  0.00     0.125 C 
ENDROOT
BRANCH   1   7
HETATM    7  C2  UNL     1      -1.357  -0.396   0.068  1.00  0.00     0.040 C 
HETATM    8  C3  UNL     1      -1.789  -1.633   0.755  1.00  0.00     0.076 C 
BRANCH   7   9
HETATM    9  S1  UNL     1      -2.455   0.494  -0.725  1.00  0.00    -0.122 SA
HETATM   10  C1  UNL     1      -4.192  -0.062  -0.742  1.00  0.00     0.097 C 
ENDBRANCH   7   9
ENDBRANCH   1   7
BRANCH   4  11
HETATM   11  O1  UNL     1       3.648   0.766  -1.135  1.00  0.00    -0.395 OA
ATOM     12  H1  UNL     1       3.982   1.650  -1.231  1.00  0.00     0.210 HD
ENDBRANCH   4  11
TORSDOF 3
