REMARK  7 active torsions:
REMARK  status: ('A' for Active; 'I' for Inactive)
REMARK    1  A    between atoms: N1_2  and  C2_5 
REMARK       I    between atoms: N2_11  and  C8_12 
REMARK    2  A    between atoms: C8_12  and  C9_14 
REMARK    3  A    between atoms: C9_14  and  C10_15 
REMARK    4  A    between atoms: C9_14  and  C16_21 
REMARK    5  A    between atoms: C10_15  and  C11_16 
REMARK    6  A    between atoms: C18_23  and  O2_24 
REMARK    7  A    between atoms: C19_26  and  N3_27 
ROOT
HETATM    1  C9  UNL     1      -0.425  -0.832   0.266  1.00  0.00     0.082 C 
ENDROOT
BRANCH   1   2
HETATM    2  C8  UNL     1       0.815  -1.026  -0.518  1.00  0.00     0.224 C 
HETATM    3  N2  UNL     1       2.039  -0.335  -0.218  1.00  0.00    -0.347 N 
HETATM    4  C4  UNL     1       3.262  -0.484  -0.957  1.00  0.00     0.095 C 
HETATM    5  C7  UNL     1       2.316   0.602   0.832  1.00  0.00     0.127 C 
HETATM    6  C3  UNL     1       3.704   0.777  -1.682  1.00  0.00     0.059 C 
HETATM    7  C5  UNL     1       4.407  -0.278   0.005  1.00  0.00     0.041 C 
HETATM    8  C2  UNL     1       5.002   0.700  -0.944  1.00  0.00     0.193 C 
HETATM    9  C6  UNL     1       3.753   0.279   1.233  1.00  0.00     0.029 C 
HETATM   10  O1  UNL     1       0.776  -1.829  -1.481  1.00  0.00    -0.273 OA
BRANCH   8  11
HETATM   11  N1  UNL     1       5.495   1.933  -0.378  1.00  0.00    -0.074 N 
HETATM   12  C1  UNL     1       5.741   2.852  -1.493  1.00  0.00     0.267 C 
ATOM     13  H12 UNL     1       6.312   1.801   0.219  1.00  0.00     0.277 HD
ATOM     14  H11 UNL     1       4.875   2.323   0.332  1.00  0.00     0.277 HD
ENDBRANCH   8  11
ENDBRANCH   1   2
BRANCH   1  15
HETATM   15  C10 UNL     1      -1.406  -1.908  -0.071  1.00  0.00     0.019 C 
BRANCH  15  16
HETATM   16  C11 UNL     1      -0.955  -3.302   0.224  1.00  0.00    -0.014 C 
HETATM   17  C12 UNL     1      -0.639  -3.513   1.691  1.00  0.00     0.005 C 
HETATM   18  C13 UNL     1      -0.960  -4.953   1.932  1.00  0.00     0.000 C 
HETATM   19  C14 UNL     1      -1.793  -5.442   0.795  1.00  0.00     0.000 C 
HETATM   20  C15 UNL     1      -2.217  -4.178   0.082  1.00  0.00     0.005 C 
ENDBRANCH  15  16
ENDBRANCH   1  15
BRANCH   1  21
HETATM   21  C16 UNL     1      -0.944   0.543  -0.068  1.00  0.00     0.003 C 
HETATM   22  C17 UNL     1      -1.262   0.726  -1.515  1.00  0.00     0.039 C 
HETATM   23  C18 UNL     1      -2.108   2.016  -1.436  1.00  0.00     0.142 C 
HETATM   24  C19 UNL     1      -3.108   1.590  -0.411  1.00  0.00     0.124 C 
HETATM   25  C23 UNL     1      -2.190   0.943   0.639  1.00  0.00     0.034 C 
BRANCH  23  26
HETATM   26  O2  UNL     1      -1.304   3.062  -1.005  1.00  0.00    -0.393 OA
ATOM     27  H2  UNL     1      -1.824   3.855  -0.956  1.00  0.00     0.210 HD
ENDBRANCH  23  26
BRANCH  24  28
HETATM   28  N3  UNL     1      -3.909   2.621   0.155  1.00  0.00    -0.290 N 
HETATM   29  C20 UNL     1      -4.390   2.612   1.412  1.00  0.00     0.232 A 
HETATM   30  F1  UNL     1      -4.233   1.669   2.372  1.00  0.00    -0.182 F 
HETATM   31  C21 UNL     1      -5.115   3.771   1.597  1.00  0.00     0.162 A 
HETATM   32 CL1  UNL     1      -5.944   4.220   3.087  1.00  0.00    -0.059 Cl
HETATM   33  N4  UNL     1      -5.074   4.476   0.467  1.00  0.00    -0.320 N 
HETATM   34  C22 UNL     1      -4.327   3.747  -0.403  1.00  0.00     0.182 A 
ATOM     35  H4  UNL     1      -5.514   5.379   0.291  1.00  0.00     0.169 HD
HETATM   36  S1  UNL     1      -4.048   4.286  -1.912  1.00  0.00    -0.040 SA
ENDBRANCH  24  28
ENDBRANCH   1  21
TORSDOF 7
