REMARK  10 active torsions:
REMARK  status: ('A' for Active; 'I' for Inactive)
REMARK    1  A    between atoms: C2_2  and  C3_3 
REMARK    2  A    between atoms: C3_3  and  N1_4 
REMARK    3  A    between atoms: C4_5  and  O1_6 
REMARK    4  A    between atoms: C5_8  and  O2_9 
REMARK    5  A    between atoms: C6_11  and  C7_12 
REMARK    6  A    between atoms: C7_12  and  O3_13 
REMARK    7  A    between atoms: C7_12  and  C8_15 
REMARK    8  A    between atoms: C15_23  and  C16_24 
REMARK    9  A    between atoms: C16_24  and  O4_25 
REMARK   10  A    between atoms: C17_27  and  C18_28 
ROOT
HETATM    1  N1  UNL     1       0.473   2.079  -1.169  1.00  0.00    -0.324 N 
HETATM    2  C4  UNL     1      -0.205   2.384  -2.327  1.00  0.00     0.177 A 
HETATM    3  C5  UNL     1      -0.900   1.278  -2.753  1.00  0.00     0.128 A 
HETATM    4  C6  UNL     1      -0.622   0.268  -1.804  1.00  0.00     0.041 A 
HETATM    5  C17 UNL     1       0.220   0.772  -0.864  1.00  0.00     0.066 A 
ENDROOT
BRANCH   4   6
HETATM    6  C7  UNL     1      -1.365  -1.033  -1.741  1.00  0.00     0.190 C 
BRANCH   6   7
HETATM    7  O3  UNL     1      -0.610  -2.000  -2.304  1.00  0.00    -0.386 OA
ATOM      8  H3  UNL     1      -1.081  -2.824  -2.264  1.00  0.00     0.210 HD
ENDBRANCH   6   7
BRANCH   6   9
HETATM    9  C8  UNL     1      -2.062  -1.375  -0.481  1.00  0.00    -0.010 A 
HETATM   10  C9  UNL     1      -1.974  -2.653   0.030  1.00  0.00    -0.051 A 
HETATM   11  C10 UNL     1      -1.455  -3.870  -0.688  1.00  0.00     0.049 C 
HETATM   12  C11 UNL     1      -2.588  -2.967   1.271  1.00  0.00     0.027 A 
HETATM   13  C12 UNL     1      -3.268  -2.040   1.979  1.00  0.00     0.018 A 
HETATM   14 BR1  UNL     1      -4.076  -2.457   3.656  1.00  0.00    -0.051 Br
HETATM   15  C13 UNL     1      -3.350  -0.804   1.461  1.00  0.00    -0.036 A 
HETATM   16  C14 UNL     1      -3.944   0.249   2.381  1.00  0.00     0.050 C 
HETATM   17  C15 UNL     1      -2.786  -0.400   0.240  1.00  0.00    -0.018 A 
BRANCH  17  18
HETATM   18  C16 UNL     1      -3.044   0.962  -0.219  1.00  0.00     0.204 C 
BRANCH  18  19
HETATM   19  O4  UNL     1      -4.510   1.067  -0.456  1.00  0.00    -0.396 OA
ATOM     20  H4  UNL     1      -4.678   1.953  -0.755  1.00  0.00     0.209 HD
ENDBRANCH  18  19
ENDBRANCH  17  18
ENDBRANCH   6   9
ENDBRANCH   4   6
BRANCH   3  21
HETATM   21  O2  UNL     1      -1.714   1.136  -3.867  1.00  0.00    -0.356 OA
ATOM     22  H2  UNL     1      -2.195   0.371  -4.162  1.00  0.00     0.218 HD
ENDBRANCH   3  21
BRANCH   5  23
HETATM   23  C18 UNL     1       1.079   0.005   0.126  1.00  0.00     0.033 A 
HETATM   24  C19 UNL     1       1.999  -0.947  -0.383  1.00  0.00     0.029 A 
HETATM   25  C20 UNL     1       2.815  -1.485   0.540  1.00  0.00    -0.044 A 
HETATM   26  C21 UNL     1       2.694  -1.092   1.823  1.00  0.00    -0.010 A 
HETATM   27  C24 UNL     1       3.972  -2.493   0.433  1.00  0.00     0.040 C 
HETATM   28  S1  UNL     1       1.410   0.071   1.748  1.00  0.00    -0.092 SA
HETATM   29  C22 UNL     1       3.702  -1.845   2.709  1.00  0.00     0.047 C 
HETATM   30  C23 UNL     1       4.752  -2.252   1.672  1.00  0.00     0.010 C 
ENDBRANCH   5  23
BRANCH   2  31
HETATM   31  O1  UNL     1      -0.172   3.615  -2.933  1.00  0.00    -0.344 OA
ATOM     32  H1  UNL     1      -0.640   3.826  -3.732  1.00  0.00     0.219 HD
ENDBRANCH   2  31
BRANCH   1  33
HETATM   33  C3  UNL     1       1.041   3.088  -0.331  1.00  0.00     0.131 C 
BRANCH  33  34
HETATM   34  C2  UNL     1       2.353   3.691  -0.644  1.00  0.00     0.016 C 
HETATM   35  C1  UNL     1       2.547   4.827   0.438  1.00  0.00     0.006 C 
ENDBRANCH  33  34
ENDBRANCH   1  33
TORSDOF 10
