REMARK  9 active torsions:
REMARK  status: ('A' for Active; 'I' for Inactive)
REMARK    1  A    between atoms: O1_2  and  C2_3 
REMARK    2  A    between atoms: C5_6  and  N1_7 
REMARK    3  A    between atoms: C7_12  and  N3_13 
REMARK    4  A    between atoms: N3_13  and  N4_15 
REMARK    5  A    between atoms: C8_17  and  C9_18 
REMARK    6  A    between atoms: C9_18  and  C10_19 
REMARK    7  A    between atoms: C13_24  and  N5_25 
REMARK    8  A    between atoms: N5_25  and  C14_27 
REMARK    9  A    between atoms: C17_30  and  C18_31 
ROOT
HETATM    1  N1  UNL     1       2.670   3.512   0.086  1.00  0.00    -0.192 N 
ATOM      2  H1  UNL     1       3.689   3.534   0.037  1.00  0.00     0.184 HD
HETATM    3  C6  UNL     1       2.043   2.343   0.129  1.00  0.00     0.686 A 
HETATM    4  N2  UNL     1       2.869   1.298   0.098  1.00  0.00    -0.168 N 
ATOM      5  H2  UNL     1       3.870   1.489   0.049  1.00  0.00     0.186 HD
HETATM    6  C7  UNL     1       2.476  -0.007   0.127  1.00  0.00     0.181 A 
HETATM    7  S1  UNL     1       0.799  -0.233   0.209  1.00  0.00    -0.015 SA
HETATM    8  C13 UNL     1      -0.078   1.228   0.238  1.00  0.00     0.167 A 
HETATM    9  N6  UNL     1       0.720   2.336   0.192  1.00  0.00    -0.170 N 
ATOM     10  H6  UNL     1       0.253   3.243   0.208  1.00  0.00     0.186 HD
ENDROOT
BRANCH   8  11
HETATM   11  N5  UNL     1      -1.350   1.380   0.235  1.00  0.00    -0.336 N 
ATOM     12  H5  UNL     1      -1.703   2.337   0.261  1.00  0.00     0.168 HD
BRANCH  11  13
HETATM   13  C14 UNL     1      -2.292   0.360   0.200  1.00  0.00     0.034 A 
HETATM   14  C15 UNL     1      -2.904   0.128  -1.048  1.00  0.00     0.030 A 
HETATM   15  C16 UNL     1      -3.854  -0.840  -1.192  1.00  0.00     0.010 A 
HETATM   16  C17 UNL     1      -4.214  -1.599  -0.093  1.00  0.00    -0.051 A 
HETATM   17  C22 UNL     1      -3.616  -1.375   1.131  1.00  0.00     0.010 A 
HETATM   18  C23 UNL     1      -2.645  -0.389   1.288  1.00  0.00     0.030 A 
BRANCH  16  19
HETATM   19  C18 UNL     1      -5.240  -2.620  -0.300  1.00  0.00    -0.024 C 
HETATM   20  C19 UNL     1      -6.471  -1.941  -0.887  1.00  0.00     0.019 C 
HETATM   21  C20 UNL     1      -5.600  -3.341   0.989  1.00  0.00     0.019 C 
HETATM   22  C21 UNL     1      -4.687  -3.667  -1.254  1.00  0.00     0.019 C 
ENDBRANCH  16  19
ENDBRANCH  11  13
ENDBRANCH   8  11
BRANCH   6  23
HETATM   23  N3  UNL     1       3.376  -0.905   0.060  1.00  0.00    -0.280 N 
ATOM     24  H3  UNL     1       4.354  -0.627  -0.020  1.00  0.00     0.189 HD
BRANCH  23  25
HETATM   25  N4  UNL     1       3.053  -2.254   0.094  1.00  0.00    -0.314 N 
HETATM   26  C8  UNL     1       3.968  -3.169   0.226  1.00  0.00     0.083 C 
ATOM     27  H4  UNL     1       2.076  -2.535   0.014  1.00  0.00     0.185 HD
BRANCH  26  28
HETATM   28  C9  UNL     1       3.708  -4.601   0.270  1.00  0.00     0.088 C 
BRANCH  28  29
HETATM   29  C10 UNL     1       4.793  -5.411  -0.423  1.00  0.00     0.100 C 
HETATM   30  C11 UNL     1       4.916  -5.026  -1.880  1.00  0.00     0.051 C 
HETATM   31  C12 UNL     1       6.128  -5.089   0.248  1.00  0.00     0.051 C 
HETATM   32  F1  UNL     1       4.606  -6.767  -0.284  1.00  0.00    -0.243 F 
ENDBRANCH  28  29
ENDBRANCH  26  28
ENDBRANCH  23  25
ENDBRANCH   6  23
BRANCH   1  33
HETATM   33  C5  UNL     1       1.937   4.744   0.108  1.00  0.00     0.049 A 
HETATM   34  C4  UNL     1       1.401   5.293  -1.018  1.00  0.00     0.033 A 
HETATM   35  C3  UNL     1       0.721   6.474  -0.965  1.00  0.00     0.039 A 
HETATM   36  C2  UNL     1       0.560   7.143   0.254  1.00  0.00     0.068 A 
HETATM   37  C25 UNL     1       1.102   6.574   1.366  1.00  0.00     0.039 A 
HETATM   38  C24 UNL     1       1.790   5.383   1.315  1.00  0.00     0.033 A 
BRANCH  36  39
HETATM   39  O1  UNL     1      -0.118   8.314   0.272  1.00  0.00    -0.356 OA
HETATM   40  C1  UNL     1      -0.322   9.053   1.441  1.00  0.00     0.210 C 
ENDBRANCH  36  39
ENDBRANCH   1  33
TORSDOF 9
