REMARK  8 active torsions:
REMARK  status: ('A' for Active; 'I' for Inactive)
REMARK    1  A    between atoms: C7_8  and  S1_9 
REMARK    2  A    between atoms: S1_9  and  C8_10 
REMARK    3  A    between atoms: C8_10  and  C9_11 
REMARK    4  A    between atoms: C9_11  and  O1_12 
REMARK    5  A    between atoms: C9_11  and  C10_14 
REMARK    6  A    between atoms: C10_14  and  N2_15 
REMARK    7  A    between atoms: C12_17  and  C13_18 
REMARK    8  A    between atoms: C17_23  and  C18_24 
ROOT
HETATM    1  C10 UNL     1       0.402  -0.750   2.474  1.00  0.00     0.182 C 
ENDROOT
BRANCH   1   2
HETATM    2  C9  UNL     1       1.306   0.427   2.244  1.00  0.00     0.147 C 
BRANCH   2   3
HETATM    3  C8  UNL     1       1.308   0.793   0.796  1.00  0.00     0.113 C 
BRANCH   3   4
HETATM    4  S1  UNL     1       1.950  -0.627  -0.151  1.00  0.00    -0.125 SA
BRANCH   4   5
HETATM    5  C7  UNL     1       3.649  -0.876   0.262  1.00  0.00     0.028 A 
HETATM    6  C6  UNL     1       4.733  -0.290  -0.392  1.00  0.00     0.011 A 
HETATM    7  C5  UNL     1       4.843   0.582  -1.459  1.00  0.00     0.041 A 
HETATM    8  C23 UNL     1       5.841  -0.774   0.271  1.00  0.00     0.049 A 
HETATM    9  C4  UNL     1       6.101   0.999  -1.894  1.00  0.00     0.047 A 
HETATM   10  C3  UNL     1       7.217   0.518  -1.233  1.00  0.00     0.035 A 
HETATM   11  N1  UNL     1       6.265   1.889  -2.980  1.00  0.00    -0.102 NA
HETATM   12  C2  UNL     1       7.091  -0.351  -0.172  1.00  0.00    -0.033 A 
HETATM   13  C1  UNL     1       8.298  -0.840   0.503  1.00  0.00     0.050 C 
HETATM   14  N5  UNL     1       5.441  -1.599   1.261  1.00  0.00    -0.363 N 
HETATM   15  C22 UNL     1       4.111  -1.690   1.291  1.00  0.00     0.107 A 
ATOM     16  H5  UNL     1       6.070  -2.086   1.899  1.00  0.00     0.165 HD
ENDBRANCH   4   5
ENDBRANCH   3   4
ENDBRANCH   2   3
BRANCH   2  17
HETATM   17  O1  UNL     1       0.831   1.501   3.026  1.00  0.00    -0.393 OA
ATOM     18  H1  UNL     1       0.830   1.268   3.947  1.00  0.00     0.210 HD
ENDBRANCH   2  17
ENDBRANCH   1   2
BRANCH   1  19
HETATM   19  N2  UNL     1      -0.971  -0.489   2.112  1.00  0.00    -0.284 N 
HETATM   20  C11 UNL     1      -1.561  -0.703   0.931  1.00  0.00     0.143 A 
HETATM   21  C12 UNL     1      -2.900  -0.303   1.009  1.00  0.00     0.076 A 
HETATM   22  N3  UNL     1      -3.066   0.144   2.260  1.00  0.00    -0.284 N 
HETATM   23  N4  UNL     1      -1.925   0.033   2.907  1.00  0.00    -0.240 N 
ATOM     24  H3  UNL     1      -3.935   0.511   2.648  1.00  0.00     0.188 HD
ATOM     25  H4  UNL     1      -1.782   0.306   3.880  1.00  0.00     0.208 HD
BRANCH  21  26
HETATM   26  C13 UNL     1      -3.870  -0.380  -0.077  1.00  0.00    -0.005 A 
HETATM   27  C14 UNL     1      -3.548  -0.870  -1.322  1.00  0.00     0.033 A 
HETATM   28  C15 UNL     1      -4.482  -0.937  -2.347  1.00  0.00     0.012 A 
HETATM   29 BR1  UNL     1      -4.043  -1.611  -4.067  1.00  0.00    -0.051 Br
HETATM   30  C16 UNL     1      -5.774  -0.505  -2.125  1.00  0.00     0.026 A 
HETATM   31  C17 UNL     1      -6.112  -0.012  -0.879  1.00  0.00    -0.053 A 
HETATM   32  C21 UNL     1      -5.161   0.048   0.136  1.00  0.00     0.021 A 
BRANCH  31  33
HETATM   33  C18 UNL     1      -7.473   0.466  -0.573  1.00  0.00     0.010 C 
HETATM   34  C19 UNL     1      -7.999  -0.351   0.589  1.00  0.00     0.015 C 
HETATM   35  C20 UNL     1      -7.490   1.944  -0.221  1.00  0.00     0.015 C 
ENDBRANCH  31  33
ENDBRANCH  21  26
ENDBRANCH   1  19
TORSDOF 8
