REMARK  14 active torsions:
REMARK  status: ('A' for Active; 'I' for Inactive)
REMARK    1  A    between atoms: C2_2  and  O1_3 
REMARK    2  A    between atoms: C2_2  and  C3_5 
REMARK    3  A    between atoms: C2_2  and  C10_14 
REMARK    4  A    between atoms: C4_6  and  C5_7 
REMARK    5  A    between atoms: C9_11  and  O2_12 
REMARK    6  A    between atoms: C14_19  and  C15_20 
REMARK    7  A    between atoms: C14_19  and  C23_30 
REMARK    8  A    between atoms: C16_21  and  C17_22 
REMARK    9  A    between atoms: C17_22  and  C18_23 
REMARK   10  A    between atoms: C18_23  and  C19_24 
REMARK   11  A    between atoms: C19_24  and  C20_25 
REMARK   12  A    between atoms: C20_25  and  C21_26 
REMARK   13  A    between atoms: C21_26  and  C22_27 
REMARK   14  A    between atoms: C24_32  and  O6_34 
ROOT
HETATM    1  C10 UNL     1      -2.219  -1.365  -1.851  1.00  0.00    -0.016 A 
HETATM    2  C11 UNL     1      -2.134  -1.657  -0.590  1.00  0.00    -0.008 A 
HETATM    3  C12 UNL     1      -1.191  -2.606  -0.008  1.00  0.00     0.043 A 
HETATM    4  C13 UNL     1      -0.489  -1.993   1.211  1.00  0.00     0.179 C 
HETATM    5  O3  UNL     1       0.366  -2.985   1.674  1.00  0.00    -0.362 OA
HETATM    6  C14 UNL     1       1.491  -3.008   0.841  1.00  0.00     0.167 C 
HETATM    7  C24 UNL     1       1.176  -3.349  -0.558  1.00  0.00     0.105 C 
HETATM    8  C25 UNL     1       1.738  -4.706  -0.999  1.00  0.00     0.051 C 
HETATM    9  C26 UNL     1      -0.297  -3.282  -0.945  1.00  0.00     0.056 A 
HETATM   10  C27 UNL     1      -0.447  -2.904  -2.352  1.00  0.00    -0.018 A 
HETATM   11  C28 UNL     1      -1.318  -2.034  -2.775  1.00  0.00     0.007 A 
ENDROOT
BRANCH   1  12
HETATM   12  C2  UNL     1      -3.202  -0.385  -2.399  1.00  0.00     0.144 C 
HETATM   13  C1  UNL     1      -2.542   0.767  -3.099  1.00  0.00     0.066 C 
BRANCH  12  14
HETATM   14  O1  UNL     1      -3.966  -1.065  -3.345  1.00  0.00    -0.373 OA
ATOM     15  H1  UNL     1      -4.384  -1.794  -2.902  1.00  0.00     0.212 HD
ENDBRANCH  12  14
BRANCH  12  16
HETATM   16  C3  UNL     1      -4.087   0.047  -1.326  1.00  0.00    -0.063 C 
HETATM   17  C4  UNL     1      -4.847   0.424  -0.442  1.00  0.00    -0.096 C 
BRANCH  17  18
HETATM   18  C5  UNL     1      -5.771   0.876   0.591  1.00  0.00     0.094 C 
HETATM   19  C6  UNL     1      -6.942   1.623   0.023  1.00  0.00     0.020 C 
HETATM   20  C7  UNL     1      -6.611   3.062   0.342  1.00  0.00     0.004 C 
HETATM   21  C8  UNL     1      -6.050   2.965   1.744  1.00  0.00     0.033 C 
HETATM   22  C9  UNL     1      -5.084   1.787   1.578  1.00  0.00     0.133 C 
BRANCH  22  23
HETATM   23  O2  UNL     1      -3.859   2.249   1.120  1.00  0.00    -0.394 OA
ATOM     24  H2  UNL     1      -3.426   2.823   1.742  1.00  0.00     0.210 HD
ENDBRANCH  22  23
ENDBRANCH  17  18
ENDBRANCH  12  16
ENDBRANCH   1  12
BRANCH   7  25
HETATM   25  O6  UNL     1       1.814  -2.416  -1.417  1.00  0.00    -0.385 OA
ATOM     26  H6  UNL     1       1.611  -2.636  -2.319  1.00  0.00     0.210 HD
ENDBRANCH   7  25
BRANCH   6  27
HETATM   27  C15 UNL     1       2.097  -1.650   0.863  1.00  0.00    -0.064 C 
HETATM   28  C16 UNL     1       2.603  -0.556   0.865  1.00  0.00    -0.103 C 
BRANCH  28  29
HETATM   29  C17 UNL     1       3.212   0.798   0.843  1.00  0.00     0.094 C 
BRANCH  29  30
HETATM   30  C18 UNL     1       4.439   0.839   1.718  1.00  0.00     0.012 C 
BRANCH  30  31
HETATM   31  C19 UNL     1       5.123   2.163   1.767  1.00  0.00     0.001 C 
BRANCH  31  32
HETATM   32  C20 UNL     1       5.576   2.562   0.388  1.00  0.00     0.010 C 
BRANCH  32  33
HETATM   33  C21 UNL     1       6.276   3.908   0.367  1.00  0.00     0.113 C 
BRANCH  33  34
HETATM   34  C22 UNL     1       7.459   3.831   1.233  1.00  0.00     0.172 C 
HETATM   35  O4  UNL     1       7.407   4.034   2.466  1.00  0.00    -0.648 OA
HETATM   36  O5  UNL     1       8.675   3.516   0.614  1.00  0.00    -0.648 OA
ENDBRANCH  33  34
ENDBRANCH  32  33
ENDBRANCH  31  32
ENDBRANCH  30  31
ENDBRANCH  29  30
ENDBRANCH  28  29
ENDBRANCH   6  27
BRANCH   6  37
HETATM   37  C23 UNL     1       2.448  -3.983   1.500  1.00  0.00     0.169 C 
HETATM   38 CL1  UNL     1       3.968  -4.189   0.660  1.00  0.00    -0.126 Cl
ENDBRANCH   6  37
TORSDOF 14
