REMARK  11 active torsions:
REMARK  status: ('A' for Active; 'I' for Inactive)
REMARK    1  A    between atoms: C10_11  and  C11_12 
REMARK    2  A    between atoms: C11_12  and  O1_13 
REMARK    3  A    between atoms: C11_12  and  C12_15 
REMARK    4  A    between atoms: C12_15  and  C13_16 
REMARK    5  A    between atoms: C12_15  and  C14_19 
REMARK    6  A    between atoms: C13_16  and  O2_17 
REMARK    7  A    between atoms: C14_19  and  C15_20 
REMARK    8  A    between atoms: C15_20  and  C16_21 
REMARK    9  A    between atoms: C16_21  and  C17_22 
REMARK   10  A    between atoms: C27_36  and  O3_37 
REMARK   11  A    between atoms: C29_40  and  O4_41 
ROOT
HETATM    1  C1  UNL     1      -5.873   0.027   1.634  1.00  0.00     0.023 C 
HETATM    2  C2  UNL     1      -5.268  -0.086   0.228  1.00  0.00     0.011 C 
HETATM    3  C3  UNL     1      -5.382   1.176  -0.523  1.00  0.00    -0.053 C 
HETATM    4  C4  UNL     1      -4.566   2.174  -0.160  1.00  0.00    -0.008 C 
HETATM    5 BR1  UNL     1      -4.665   3.847  -1.101  1.00  0.00    -0.056 Br
HETATM    6  C5  UNL     1      -3.595   2.047   0.931  1.00  0.00     0.052 C 
HETATM    7  C6  UNL     1      -3.262   0.661   1.349  1.00  0.00    -0.000 C 
HETATM    8  C7  UNL     1      -1.786   0.534   1.517  1.00  0.00    -0.005 C 
HETATM    9  C8  UNL     1      -1.348  -0.708   2.243  1.00  0.00     0.006 C 
HETATM   10  C9  UNL     1      -0.030  -1.147   1.568  1.00  0.00     0.008 C 
HETATM   11  C10 UNL     1       0.333   0.008   0.746  1.00  0.00     0.019 C 
HETATM   12  C22 UNL     1      -1.043   0.480   0.227  1.00  0.00    -0.004 C 
HETATM   13  C23 UNL     1      -1.607  -0.392  -0.814  1.00  0.00     0.006 C 
HETATM   14  C24 UNL     1      -3.063  -0.663  -0.787  1.00  0.00     0.006 C 
HETATM   15  C25 UNL     1      -3.783  -0.414   0.475  1.00  0.00     0.005 C 
HETATM   16  C26 UNL     1      -6.318   1.436  -1.638  1.00  0.00     0.068 C 
HETATM   17  C27 UNL     1      -7.135   0.271  -2.066  1.00  0.00     0.124 C 
HETATM   18  C28 UNL     1      -7.276  -0.763  -0.998  1.00  0.00     0.065 C 
HETATM   19  C29 UNL     1      -5.945  -1.227  -0.456  1.00  0.00     0.133 C 
ENDROOT
BRANCH  11  20
HETATM   20  C11 UNL     1       1.313  -0.072  -0.333  1.00  0.00     0.128 C 
BRANCH  20  21
HETATM   21  O1  UNL     1       1.456   1.212  -0.971  1.00  0.00    -0.395 OA
ATOM     22  H1  UNL     1       2.094   1.160  -1.673  1.00  0.00     0.210 HD
ENDBRANCH  20  21
BRANCH  20  23
HETATM   23  C12 UNL     1       2.599  -0.745  -0.201  1.00  0.00     0.038 C 
BRANCH  23  24
HETATM   24  C13 UNL     1       2.542  -2.217   0.079  1.00  0.00     0.171 C 
BRANCH  24  25
HETATM   25  O2  UNL     1       3.843  -2.764   0.160  1.00  0.00    -0.400 OA
ATOM     26  H2  UNL     1       3.807  -3.697   0.337  1.00  0.00     0.209 HD
ENDBRANCH  24  25
ENDBRANCH  23  24
BRANCH  23  27
HETATM   27  C14 UNL     1       3.531  -0.179   0.844  1.00  0.00     0.010 C 
BRANCH  27  28
HETATM   28  C15 UNL     1       3.957   1.218   0.683  1.00  0.00     0.008 C 
BRANCH  28  29
HETATM   29  C16 UNL     1       4.761   1.601  -0.505  1.00  0.00     0.076 C 
BRANCH  29  30
HETATM   30  C17 UNL     1       6.089   0.962  -0.609  1.00  0.00     0.072 C 
HETATM   31  N1  UNL     1       7.110   1.753  -0.408  1.00  0.00    -0.380 N 
HETATM   32  C18 UNL     1       8.533   1.549  -0.414  1.00  0.00     0.121 C 
ATOM     33  H1  UNL     1       6.841   2.716  -0.204  1.00  0.00     0.160 HD
HETATM   34  C19 UNL     1       8.895   0.206   0.215  1.00  0.00     0.021 C 
HETATM   35  C20 UNL     1       8.621  -0.898  -0.759  1.00  0.00     0.021 C 
HETATM   36  C21 UNL     1       7.211  -1.400  -0.529  1.00  0.00     0.121 C 
HETATM   37  N2  UNL     1       6.224  -0.412  -0.902  1.00  0.00    -0.380 N 
ATOM     38  H2  UNL     1       5.479  -0.780  -1.493  1.00  0.00     0.160 HD
ENDBRANCH  29  30
ENDBRANCH  28  29
ENDBRANCH  27  28
ENDBRANCH  23  27
ENDBRANCH  20  23
ENDBRANCH  11  20
BRANCH  19  39
HETATM   39  O4  UNL     1      -6.182  -2.265   0.424  1.00  0.00    -0.394 OA
ATOM     40  H4  UNL     1      -6.613  -2.991  -0.011  1.00  0.00     0.210 HD
ENDBRANCH  19  39
BRANCH  17  41
HETATM   41  O3  UNL     1      -8.437   0.699  -2.400  1.00  0.00    -0.395 OA
ATOM     42  H3  UNL     1      -8.959  -0.046  -2.674  1.00  0.00     0.210 HD
ENDBRANCH  17  41
TORSDOF 11
