REMARK  12 active torsions:
REMARK  status: ('A' for Active; 'I' for Inactive)
REMARK    1  A    between atoms: C2_2  and  C4_4 
REMARK    2  A    between atoms: C4_4  and  C5_5 
REMARK    3  A    between atoms: C4_4  and  C29_39 
REMARK    4  A    between atoms: C5_5  and  C6_6 
REMARK    5  A    between atoms: C6_6  and  C7_7 
REMARK    6  A    between atoms: C7_7  and  C8_9 
REMARK    7  A    between atoms: C13_14  and  O1_15 
REMARK    8  A    between atoms: C20_23  and  O2_24 
REMARK    9  A    between atoms: C21_26  and  O3_27 
REMARK   10  A    between atoms: C28_36  and  O5_37 
REMARK   11  A    between atoms: C29_39  and  C30_40 
REMARK   12  A    between atoms: C30_40  and  O6_43 
ROOT
HETATM    1  C8  UNL     1      -1.068  -0.625   0.345  1.00  0.00     0.055 C 
HETATM    2  C9  UNL     1      -1.185   0.204   1.586  1.00  0.00     0.011 C 
HETATM    3  C10 UNL     1       0.262   0.504   2.035  1.00  0.00     0.016 C 
HETATM    4  C11 UNL     1       0.936   0.690   0.710  1.00  0.00     0.019 C 
HETATM    5  C12 UNL     1       0.391   1.996   0.175  1.00  0.00     0.021 C 
HETATM    6  C13 UNL     1       0.355  -0.545   0.041  1.00  0.00     0.074 C 
HETATM    7  C14 UNL     1       0.894  -0.610  -1.315  1.00  0.00     0.040 C 
HETATM    8  C15 UNL     1       2.391  -0.916  -1.215  1.00  0.00     0.011 C 
HETATM    9  C16 UNL     1       3.067  -0.416   0.001  1.00  0.00     0.030 C 
HETATM   10  C17 UNL     1       4.546  -0.225  -0.306  1.00  0.00    -0.024 C 
HETATM   11  C18 UNL     1       4.896  -1.595  -0.906  1.00  0.00     0.016 C 
HETATM   12  C19 UNL     1       4.928   0.804  -1.273  1.00  0.00     0.044 C 
HETATM   13  C20 UNL     1       6.400   0.498  -1.643  1.00  0.00     0.148 C 
HETATM   14  C21 UNL     1       7.230   0.721  -0.447  1.00  0.00     0.155 C 
HETATM   15  C22 UNL     1       6.733   0.195   0.865  1.00  0.00    -0.008 C 
HETATM   16  C23 UNL     1       7.411  -1.152   1.172  1.00  0.00     0.018 C 
HETATM   17  C24 UNL     1       7.322   1.138   1.932  1.00  0.00     0.018 C 
HETATM   18  C25 UNL     1       5.271   0.041   0.990  1.00  0.00     0.074 C 
HETATM   19  C26 UNL     1       4.556   1.153   1.667  1.00  0.00     0.135 C 
HETATM   20  O4  UNL     1       4.996   2.222   1.971  1.00  0.00    -0.297 OA
HETATM   21  C27 UNL     1       3.101   0.903   2.009  1.00  0.00     0.117 C 
HETATM   22  C28 UNL     1       2.409   0.738   0.672  1.00  0.00     0.079 C 
ENDROOT
BRANCH   1  23
HETATM   23  C7  UNL     1      -2.064  -0.394  -0.728  1.00  0.00     0.177 C 
HETATM   24  F1  UNL     1      -2.200   0.898  -1.172  1.00  0.00    -0.249 F 
BRANCH  23  25
HETATM   25  C6  UNL     1      -3.509  -0.689  -0.157  1.00  0.00     0.038 C 
BRANCH  25  26
HETATM   26  C5  UNL     1      -4.390  -0.522  -1.290  1.00  0.00     0.008 C 
BRANCH  26  27
HETATM   27  C4  UNL     1      -5.925  -0.651  -1.086  1.00  0.00    -0.008 C 
BRANCH  27  28
HETATM   28  C2  UNL     1      -6.304  -1.967  -0.587  1.00  0.00    -0.019 C 
HETATM   29  C1  UNL     1      -7.812  -2.242  -0.564  1.00  0.00     0.010 C 
HETATM   30  C3  UNL     1      -5.870  -2.301   0.838  1.00  0.00     0.010 C 
ENDBRANCH  27  28
BRANCH  27  31
HETATM   31  C29 UNL     1      -6.311   0.623  -0.474  1.00  0.00     0.042 C 
BRANCH  31  32
HETATM   32  C30 UNL     1      -7.618   1.191  -0.223  1.00  0.00     0.051 C 
HETATM   33  C31 UNL     1      -7.365   2.675   0.346  1.00  0.00     0.045 C 
HETATM   34  C32 UNL     1      -8.428   0.638   0.957  1.00  0.00     0.045 C 
BRANCH  32  35
HETATM   35  O6  UNL     1      -8.477   1.393  -1.267  1.00  0.00    -0.391 OA
ATOM     36  H6  UNL     1      -9.335   1.766  -1.102  1.00  0.00     0.210 HD
ENDBRANCH  32  35
ENDBRANCH  31  32
ENDBRANCH  27  31
ENDBRANCH  26  27
ENDBRANCH  25  26
ENDBRANCH  23  25
ENDBRANCH   1  23
BRANCH   6  37
HETATM   37  O1  UNL     1       0.901  -1.672   0.733  1.00  0.00    -0.388 OA
ATOM     38  H1  UNL     1       1.829  -1.620   0.535  1.00  0.00     0.210 HD
ENDBRANCH   6  37
BRANCH  22  39
HETATM   39  O5  UNL     1       2.774   1.854  -0.128  1.00  0.00    -0.388 OA
ATOM     40  H5  UNL     1       3.723   1.885  -0.152  1.00  0.00     0.210 HD
ENDBRANCH  22  39
BRANCH  13  41
HETATM   41  O2  UNL     1       6.710   1.513  -2.586  1.00  0.00    -0.393 OA
ATOM     42  H2  UNL     1       7.613   1.325  -2.813  1.00  0.00     0.210 HD
ENDBRANCH  13  41
BRANCH  14  43
HETATM   43  O3  UNL     1       8.508   0.158  -0.673  1.00  0.00    -0.392 OA
ATOM     44  H3  UNL     1       9.043   0.302   0.098  1.00  0.00     0.210 HD
ENDBRANCH  14  43
TORSDOF 12
