REMARK  11 active torsions:
REMARK  status: ('A' for Active; 'I' for Inactive)
REMARK    1  A    between atoms: O1_2  and  C2_3 
REMARK    2  A    between atoms: C2_3  and  C3_5 
REMARK    3  A    between atoms: C10_13  and  O3_14 
REMARK    4  A    between atoms: O3_14  and  C11_15 
REMARK    5  A    between atoms: C11_15  and  O4_16 
REMARK    6  A    between atoms: C11_15  and  O5_18 
REMARK    7  A    between atoms: O5_18  and  C12_19 
REMARK    8  A    between atoms: C16_23  and  C17_24 
REMARK       I    between atoms: C17_24  and  N1_26 
REMARK    9  A    between atoms: N1_26  and  C18_28 
REMARK   10  A    between atoms: C18_28  and  C19_29 
REMARK   11  A    between atoms: C19_29  and  C20_30 
ROOT
HETATM    1  C3  UNL     1       0.057   2.308  -0.085  1.00  0.00     0.249 C 
HETATM    2  C4  UNL     1      -0.496   3.221   0.916  1.00  0.00     0.075 C 
HETATM    3  C5  UNL     1      -0.952   4.574   0.514  1.00  0.00     0.006 C 
HETATM    4  C6  UNL     1      -1.901   5.055   1.622  1.00  0.00     0.026 C 
HETATM    5  C7  UNL     1       0.170   5.597   0.473  1.00  0.00     0.026 C 
HETATM    6  S1  UNL     1      -1.928   4.515  -1.012  1.00  0.00    -0.126 SA
HETATM    7  C8  UNL     1      -1.855   2.754  -1.516  1.00  0.00     0.255 C 
HETATM    8  C9  UNL     1      -2.590   1.950  -0.501  1.00  0.00     0.109 C 
HETATM    9  C10 UNL     1      -1.741   0.756  -0.050  1.00  0.00     0.069 C 
HETATM   10  C16 UNL     1      -0.393   0.901   0.148  1.00  0.00     0.085 C 
HETATM   11  N2  UNL     1      -0.436   2.447  -1.500  1.00  0.00    -0.039 N 
ATOM     12  H21 UNL     1      -0.220   1.622  -2.060  1.00  0.00     0.280 HD
ATOM     13  H22 UNL     1       0.106   3.133  -2.025  1.00  0.00     0.280 HD
ENDROOT
BRANCH  10  14
HETATM   14  C17 UNL     1       0.387  -0.320   0.041  1.00  0.00     0.256 C 
HETATM   15  O6  UNL     1      -0.077  -1.365  -0.510  1.00  0.00    -0.267 OA
HETATM   16  N1  UNL     1       1.715  -0.433   0.510  1.00  0.00    -0.336 N 
ATOM     17  H1  UNL     1       1.975   0.351   1.109  1.00  0.00     0.168 HD
BRANCH  16  18
HETATM   18  C18 UNL     1       2.747  -1.331   0.364  1.00  0.00     0.069 C 
BRANCH  18  19
HETATM   19  C19 UNL     1       2.763  -2.778   0.487  1.00  0.00     0.083 C 
BRANCH  19  20
HETATM   20  C20 UNL     1       4.242  -3.124   0.336  1.00  0.00    -0.053 A 
HETATM   21  C21 UNL     1       4.906  -3.500   1.470  1.00  0.00     0.010 A 
HETATM   22  C22 UNL     1       6.281  -3.639   1.372  1.00  0.00     0.043 A 
HETATM   23  C23 UNL     1       6.972  -3.413   0.193  1.00  0.00     0.116 A 
HETATM   24  F1  UNL     1       8.330  -3.577   0.192  1.00  0.00    -0.206 F 
HETATM   25  C24 UNL     1       6.268  -3.034  -0.935  1.00  0.00     0.043 A 
HETATM   26  C25 UNL     1       4.878  -2.888  -0.857  1.00  0.00     0.010 A 
ENDBRANCH  19  20
ENDBRANCH  18  19
ENDBRANCH  16  18
ENDBRANCH  10  14
BRANCH   1  27
HETATM   27  C2  UNL     1       1.467   2.582  -0.240  1.00  0.00     0.300 C 
HETATM   28  O2  UNL     1       2.418   2.137   0.441  1.00  0.00    -0.262 OA
BRANCH  27  29
HETATM   29  O1  UNL     1       1.999   3.433  -1.276  1.00  0.00    -0.324 OA
HETATM   30  C1  UNL     1       3.362   3.687  -1.409  1.00  0.00     0.213 C 
ENDBRANCH  27  29
ENDBRANCH   1  27
BRANCH   9  31
HETATM   31  O3  UNL     1      -2.276  -0.413   0.168  1.00  0.00    -0.300 OA
BRANCH  31  32
HETATM   32  C11 UNL     1      -3.220  -1.217  -0.055  1.00  0.00     0.416 C 
BRANCH  32  33
HETATM   33  O4  UNL     1      -4.100  -0.873  -0.967  1.00  0.00    -0.349 OA
ATOM     34  H4  UNL     1      -4.812  -1.479  -1.135  1.00  0.00     0.215 HD
ENDBRANCH  32  33
BRANCH  32  35
HETATM   35  O5  UNL     1      -3.541  -2.427   0.487  1.00  0.00    -0.329 OA
BRANCH  35  36
HETATM   36  C12 UNL     1      -4.570  -3.320   0.259  1.00  0.00     0.055 C 
HETATM   37  C13 UNL     1      -4.634  -3.978  -1.080  1.00  0.00     0.045 C 
HETATM   38  C14 UNL     1      -5.943  -2.725   0.516  1.00  0.00     0.045 C 
HETATM   39  C15 UNL     1      -4.431  -4.443   1.323  1.00  0.00     0.045 C 
ENDBRANCH  35  36
ENDBRANCH  32  35
ENDBRANCH  31  32
ENDBRANCH   9  31
TORSDOF 11
