REMARK  7 active torsions:
REMARK  status: ('A' for Active; 'I' for Inactive)
REMARK    1  A    between atoms: C2_2  and  C3_3 
REMARK    2  A    between atoms: C6_9  and  C7_10 
REMARK    3  A    between atoms: C7_10  and  C8_11 
REMARK       I    between atoms: N2_14  and  C11_15 
REMARK    4  A    between atoms: C11_15  and  O3_17 
REMARK    5  A    between atoms: O3_17  and  C12_18 
REMARK    6  A    between atoms: C15_21  and  C16_22 
REMARK    7  A    between atoms: C16_22  and  O4_23 
ROOT
HETATM    1  C8  UNL     1      -2.967  -0.115   1.027  1.00  0.00    -0.007 C 
HETATM    2  C9  UNL     1      -2.069   0.476  -0.024  1.00  0.00     0.025 C 
HETATM    3  C10 UNL     1      -0.889   1.206   0.584  1.00  0.00     0.128 C 
HETATM    4  N2  UNL     1      -0.237   0.318   1.529  1.00  0.00    -0.328 N 
HETATM    5  C11 UNL     1       1.130  -0.063   1.387  1.00  0.00     0.363 C 
HETATM    6  O2  UNL     1       1.637  -0.834   2.237  1.00  0.00    -0.238 OA
HETATM    7  C21 UNL     1      -1.046  -0.163   2.631  1.00  0.00     0.128 C 
HETATM    8  C22 UNL     1      -2.200  -0.935   2.038  1.00  0.00     0.025 C 
ENDROOT
BRANCH   5   9
HETATM    9  O3  UNL     1       1.937   0.377   0.351  1.00  0.00    -0.295 OA
BRANCH   9  10
HETATM   10  C12 UNL     1       3.282   0.005   0.208  1.00  0.00     0.167 C 
HETATM   11  C13 UNL     1       4.203   1.230   0.280  1.00  0.00     0.152 C 
HETATM   12  C14 UNL     1       5.539   0.709   0.775  1.00  0.00     0.041 C 
HETATM   13  O5  UNL     1       4.439   1.761  -0.982  1.00  0.00    -0.378 OA
HETATM   14  C15 UNL     1       5.885  -0.467  -0.110  1.00  0.00     0.018 C 
HETATM   15  C17 UNL     1       5.065  -0.546  -1.340  1.00  0.00     0.027 C 
HETATM   16  C18 UNL     1       4.698   0.796  -1.936  1.00  0.00     0.127 C 
HETATM   17  C20 UNL     1       3.586  -0.733  -1.065  1.00  0.00     0.027 C 
HETATM   18  C19 UNL     1       3.356   0.139  -2.310  1.00  0.00     0.040 C 
BRANCH  14  19
HETATM   19  C16 UNL     1       7.341  -0.402  -0.431  1.00  0.00     0.169 C 
BRANCH  19  20
HETATM   20  O4  UNL     1       7.716  -1.462  -1.245  1.00  0.00    -0.400 OA
ATOM     21  H4  UNL     1       8.643  -1.421  -1.449  1.00  0.00     0.209 HD
ENDBRANCH  19  20
ENDBRANCH  14  19
ENDBRANCH   9  10
ENDBRANCH   5   9
BRANCH   1  22
HETATM   22  C7  UNL     1      -3.963  -1.020   0.367  1.00  0.00     0.048 C 
BRANCH  22  23
HETATM   23  C6  UNL     1      -4.845  -0.389  -0.616  1.00  0.00    -0.002 A 
HETATM   24  C3  UNL     1      -5.930   0.407  -0.343  1.00  0.00     0.041 A 
HETATM   25  N1  UNL     1      -6.439   0.759  -1.548  1.00  0.00    -0.265 N 
HETATM   26  O1  UNL     1      -5.738   0.231  -2.472  1.00  0.00    -0.242 OA
ATOM     27  H1  UNL     1      -7.255   1.353  -1.693  1.00  0.00     0.194 HD
HETATM   28  C4  UNL     1      -4.760  -0.475  -1.969  1.00  0.00     0.081 A 
HETATM   29  C5  UNL     1      -3.789  -1.201  -2.816  1.00  0.00     0.079 C 
BRANCH  24  30
HETATM   30  C2  UNL     1      -6.519   0.844   0.932  1.00  0.00     0.055 C 
HETATM   31  C1  UNL     1      -7.281  -0.331   1.509  1.00  0.00     0.011 C 
ENDBRANCH  24  30
ENDBRANCH  22  23
ENDBRANCH   1  22
TORSDOF 7
