REMARK  11 active torsions:
REMARK  status: ('A' for Active; 'I' for Inactive)
REMARK    1  A    between atoms: C2_2  and  N1_3 
REMARK    2  A    between atoms: N3_8  and  C5_9 
REMARK    3  A    between atoms: C5_9  and  C6_10 
REMARK    4  A    between atoms: C6_10  and  C7_11 
REMARK    5  A    between atoms: C7_11  and  C8_12 
REMARK    6  A    between atoms: C8_12  and  C9_13 
REMARK    7  A    between atoms: C9_13  and  O1_14 
REMARK    8  A    between atoms: O1_14  and  C10_15 
REMARK    9  A    between atoms: C13_18  and  O2_19 
REMARK   10  A    between atoms: C15_22  and  O3_23 
REMARK   11  A    between atoms: C19_28  and  O4_29 
ROOT
HETATM    1  C10 UNL     1      -2.537   0.886   0.909  1.00  0.00     0.089 A 
HETATM    2  C11 UNL     1      -2.906  -0.193   1.639  1.00  0.00    -0.015 A 
HETATM    3  C12 UNL     1      -3.874  -1.063   1.131  1.00  0.00    -0.015 A 
HETATM    4  C13 UNL     1      -4.465  -0.855  -0.080  1.00  0.00     0.086 A 
HETATM    5  C14 UNL     1      -4.105   0.264  -0.858  1.00  0.00     0.047 A 
HETATM    6  C15 UNL     1      -4.733   0.511  -2.056  1.00  0.00     0.085 A 
HETATM    7  C16 UNL     1      -4.389   1.676  -2.776  1.00  0.00    -0.025 A 
HETATM    8  C17 UNL     1      -5.032   1.984  -4.068  1.00  0.00     0.051 C 
HETATM    9  C18 UNL     1      -3.458   2.522  -2.278  1.00  0.00     0.047 A 
HETATM   10  C19 UNL     1      -2.842   2.242  -1.064  1.00  0.00     0.080 A 
HETATM   11  C20 UNL     1      -3.129   1.112  -0.311  1.00  0.00     0.047 A 
HETATM   12  C21 UNL     1      -4.184  -2.217   1.997  1.00  0.00     0.042 C 
HETATM   13  C22 UNL     1      -2.959  -2.887   2.581  1.00  0.00     0.005 C 
HETATM   14  C23 UNL     1      -1.823  -1.931   2.863  1.00  0.00     0.005 C 
HETATM   15  C24 UNL     1      -2.421  -0.569   2.990  1.00  0.00     0.042 C 
ENDROOT
BRANCH   1  16
HETATM   16  O1  UNL     1      -1.562   1.712   1.445  1.00  0.00    -0.350 OA
BRANCH  16  17
HETATM   17  C9  UNL     1      -0.198   1.460   1.499  1.00  0.00     0.175 C 
BRANCH  17  18
HETATM   18  C8  UNL     1       0.593   1.169   0.300  1.00  0.00     0.027 C 
BRANCH  18  19
HETATM   19  C7  UNL     1       2.073   0.915   0.583  1.00  0.00     0.004 C 
BRANCH  19  20
HETATM   20  C6  UNL     1       2.244  -0.249   1.479  1.00  0.00     0.020 C 
BRANCH  20  21
HETATM   21  C5  UNL     1       3.673  -0.598   1.818  1.00  0.00     0.128 C 
BRANCH  21  22
HETATM   22  N3  UNL     1       4.504  -0.913   0.710  1.00  0.00    -0.328 N 
HETATM   23  C4  UNL     1       4.587  -2.261   0.213  1.00  0.00     0.173 A 
HETATM   24  C3  UNL     1       5.473  -2.423  -0.957  1.00  0.00     0.100 A 
HETATM   25  N2  UNL     1       6.129  -1.506  -1.509  1.00  0.00    -0.308 N 
HETATM   26  N1  UNL     1       6.089  -0.194  -1.063  1.00  0.00    -0.244 N 
ATOM     27  H2  UNL     1       6.712  -1.734  -2.314  1.00  0.00     0.186 HD
HETATM   28  C25 UNL     1       5.262   0.095   0.064  1.00  0.00     0.339 A 
HETATM   29  O5  UNL     1       5.247   1.288   0.448  1.00  0.00    -0.245 OA
BRANCH  26  30
HETATM   30  C2  UNL     1       6.879   0.799  -1.757  1.00  0.00     0.149 C 
HETATM   31  C1  UNL     1       6.115   1.453  -2.890  1.00  0.00     0.028 C 
ENDBRANCH  26  30
ENDBRANCH  21  22
ENDBRANCH  20  21
ENDBRANCH  19  20
ENDBRANCH  18  19
ENDBRANCH  17  18
ENDBRANCH  16  17
ENDBRANCH   1  16
BRANCH  10  32
HETATM   32  O4  UNL     1      -1.916   3.170  -0.623  1.00  0.00    -0.360 OA
ATOM     33  H4  UNL     1      -1.495   2.979   0.207  1.00  0.00     0.217 HD
ENDBRANCH  10  32
BRANCH   4  34
HETATM   34  O2  UNL     1      -5.418  -1.700  -0.596  1.00  0.00    -0.359 OA
ATOM     35  H2  UNL     1      -5.830  -1.555  -1.440  1.00  0.00     0.217 HD
ENDBRANCH   4  34
BRANCH   6  36
HETATM   36  O3  UNL     1      -5.660  -0.268  -2.618  1.00  0.00    -0.359 OA
ATOM     37  H3  UNL     1      -6.094  -0.097  -3.446  1.00  0.00     0.217 HD
ENDBRANCH   6  36
TORSDOF 11
