REMARK  12 active torsions:
REMARK  status: ('A' for Active; 'I' for Inactive)
REMARK    1  A    between atoms: C2_2  and  C3_3 
REMARK    2  A    between atoms: C3_3  and  C4_4 
REMARK    3  A    between atoms: C4_4  and  O2_6 
REMARK    4  A    between atoms: O2_6  and  C5_7 
REMARK    5  A    between atoms: C12_15  and  O4_16 
REMARK    6  A    between atoms: C13_18  and  C15_20 
REMARK    7  A    between atoms: C15_20  and  C16_21 
REMARK    8  A    between atoms: C16_21  and  C17_22 
REMARK    9  A    between atoms: C18_23  and  C20_25 
REMARK   10  A    between atoms: C20_25  and  C21_26 
REMARK   11  A    between atoms: C21_26  and  C22_27 
REMARK   12  A    between atoms: C22_27  and  O5_30 
ROOT
HETATM    1  C5  UNL     1      -3.512  -0.384  -0.593  1.00  0.00     0.196 C 
HETATM    2  C6  UNL     1      -4.501  -1.507  -0.679  1.00  0.00     0.297 C 
HETATM    3  O3  UNL     1      -4.987  -1.897   0.564  1.00  0.00    -0.323 OA
HETATM    4  C7  UNL     1      -4.162  -3.038   0.421  1.00  0.00     0.167 C 
HETATM    5  C8  UNL     1      -4.921  -4.269   0.781  1.00  0.00     0.079 C 
HETATM    6  C9  UNL     1      -2.903  -2.764   1.135  1.00  0.00     0.074 C 
HETATM    7  C10 UNL     1      -1.851  -2.041   0.366  1.00  0.00     0.005 C 
HETATM    8  C11 UNL     1      -1.255  -2.778  -0.786  1.00  0.00     0.038 C 
HETATM    9  C12 UNL     1      -1.074  -1.711  -1.840  1.00  0.00     0.127 C 
HETATM   10  C13 UNL     1      -1.055  -0.427  -1.109  1.00  0.00    -0.008 C 
HETATM   11  C14 UNL     1      -1.383   0.668  -2.088  1.00  0.00     0.019 C 
HETATM   12  C25 UNL     1      -2.185  -0.661  -0.087  1.00  0.00     0.001 C 
HETATM   13  C26 UNL     1      -1.928   0.269   1.117  1.00  0.00     0.019 C 
HETATM   14  O6  UNL     1      -4.041  -2.749  -0.929  1.00  0.00    -0.323 OA
ENDROOT
BRANCH  10  15
HETATM   15  C15 UNL     1       0.193  -0.036  -0.401  1.00  0.00     0.016 C 
BRANCH  15  16
HETATM   16  C16 UNL     1       1.433   0.125  -1.187  1.00  0.00     0.028 C 
BRANCH  16  17
HETATM   17  C17 UNL     1       2.523   0.528  -0.216  1.00  0.00    -0.024 C 
HETATM   18  C18 UNL     1       3.619  -0.185  -0.029  1.00  0.00    -0.087 C 
HETATM   19  C19 UNL     1       3.784  -1.438  -0.807  1.00  0.00     0.043 C 
BRANCH  18  20
HETATM   20  C20 UNL     1       4.691   0.202   0.918  1.00  0.00     0.036 C 
BRANCH  20  21
HETATM   21  C21 UNL     1       6.019   0.397   0.223  1.00  0.00     0.041 C 
BRANCH  21  22
HETATM   22  C22 UNL     1       7.037   0.786   1.263  1.00  0.00     0.051 C 
HETATM   23  C23 UNL     1       8.411   1.003   0.643  1.00  0.00     0.045 C 
HETATM   24  C24 UNL     1       6.654   2.117   1.919  1.00  0.00     0.045 C 
BRANCH  22  25
HETATM   25  O5  UNL     1       7.178  -0.208   2.227  1.00  0.00    -0.391 OA
ATOM     26  H5  UNL     1       7.820   0.037   2.883  1.00  0.00     0.210 HD
ENDBRANCH  22  25
ENDBRANCH  21  22
ENDBRANCH  20  21
ENDBRANCH  18  20
ENDBRANCH  16  17
ENDBRANCH  15  16
ENDBRANCH  10  15
BRANCH   9  27
HETATM   27  O4  UNL     1      -0.022  -1.973  -2.692  1.00  0.00    -0.395 OA
ATOM     28  H4  UNL     1       0.092  -1.302  -3.355  1.00  0.00     0.210 HD
ENDBRANCH   9  27
BRANCH   1  29
HETATM   29  O2  UNL     1      -4.193   0.588   0.230  1.00  0.00    -0.310 OA
BRANCH  29  30
HETATM   30  C4  UNL     1      -4.727   1.753  -0.237  1.00  0.00     0.259 C 
HETATM   31  O1  UNL     1      -4.645   2.029  -1.460  1.00  0.00    -0.265 OA
BRANCH  30  32
HETATM   32  C3  UNL     1      -5.423   2.750   0.624  1.00  0.00     0.111 C 
BRANCH  32  33
HETATM   33  C2  UNL     1      -4.537   3.911   0.976  1.00  0.00     0.005 C 
HETATM   34  C1  UNL     1      -4.064   4.648  -0.249  1.00  0.00     0.005 C 
ENDBRANCH  32  33
ENDBRANCH  30  32
ENDBRANCH  29  30
ENDBRANCH   1  29
TORSDOF 12
