REMARK  8 active torsions:
REMARK  status: ('A' for Active; 'I' for Inactive)
REMARK    1  A    between atoms: N2_5  and  C3_6 
REMARK    2  A    between atoms: C10_14  and  C11_15 
REMARK    3  A    between atoms: C11_15  and  C12_16 
REMARK    4  A    between atoms: C15_19  and  S1_20 
REMARK    5  A    between atoms: S1_20  and  O4_23 
REMARK    6  A    between atoms: O4_23  and  C16_24 
REMARK    7  A    between atoms: C19_27  and  C20_28 
REMARK    8  A    between atoms: N3_29  and  N4_31 
REMARK       I    between atoms: N4_31  and  C21_33 
ROOT
HETATM    1  C12 UNL     1      -2.244  -0.030  -0.649  1.00  0.00    -0.035 A 
HETATM    2  C13 UNL     1      -1.522   0.703   0.266  1.00  0.00     0.013 A 
HETATM    3  C14 UNL     1      -0.212   0.378   0.507  1.00  0.00     0.027 A 
HETATM    4  C15 UNL     1       0.412  -0.671  -0.146  1.00  0.00     0.086 A 
HETATM    5  C24 UNL     1      -0.311  -1.402  -1.059  1.00  0.00     0.027 A 
HETATM    6  C25 UNL     1      -1.618  -1.079  -1.300  1.00  0.00     0.013 A 
ENDROOT
BRANCH   4   7
HETATM    7  S1  UNL     1       2.082  -0.987   0.246  1.00  0.00     0.303 S 
HETATM    8  O2  UNL     1       2.297  -0.622   1.689  1.00  0.00    -0.193 OA
HETATM    9  O3  UNL     1       2.344  -2.456   0.014  1.00  0.00    -0.193 OA
BRANCH   7  10
HETATM   10  O4  UNL     1       3.138  -0.116  -0.761  1.00  0.00    -0.229 OA
BRANCH  10  11
HETATM   11  C16 UNL     1       4.387   0.204  -0.281  1.00  0.00     0.089 A 
HETATM   12  C17 UNL     1       5.500  -0.589  -0.424  1.00  0.00     0.039 A 
HETATM   13  C18 UNL     1       6.730  -0.219   0.079  1.00  0.00     0.015 A 
HETATM   14  C19 UNL     1       6.912   0.962   0.749  1.00  0.00    -0.019 A 
HETATM   15  C22 UNL     1       5.784   1.778   0.901  1.00  0.00     0.015 A 
HETATM   16  C23 UNL     1       4.571   1.389   0.393  1.00  0.00     0.039 A 
BRANCH  14  17
HETATM   17  C20 UNL     1       8.175   1.423   1.309  1.00  0.00     0.118 C 
HETATM   18  N3  UNL     1       9.297   0.882   1.301  1.00  0.00    -0.309 N 
ATOM     19  H3  UNL     1      10.000   1.449   1.775  1.00  0.00     0.186 HD
BRANCH  18  20
HETATM   20  N4  UNL     1       9.813  -0.269   0.820  1.00  0.00    -0.274 N 
HETATM   21  C21 UNL     1      10.702  -0.384  -0.291  1.00  0.00     0.200 C 
HETATM   22  N5  UNL     1      10.474  -1.314  -1.146  1.00  0.00    -0.372 N 
HETATM   23  N6  UNL     1      11.809   0.475  -0.485  1.00  0.00    -0.062 NA
ATOM     24  H52 UNL     1       9.676  -1.933  -1.006  1.00  0.00     0.158 HD
ATOM     25  H51 UNL     1      11.109  -1.396  -1.940  1.00  0.00     0.158 HD
ATOM     26  H4  UNL     1       9.544  -1.132   1.292  1.00  0.00     0.189 HD
ENDBRANCH  18  20
ENDBRANCH  14  17
ENDBRANCH  10  11
ENDBRANCH   7  10
ENDBRANCH   4   7
BRANCH   1  27
HETATM   27  C11 UNL     1      -3.620   0.331  -0.940  1.00  0.00     0.030 C 
BRANCH  27  28
HETATM   28  C10 UNL     1      -4.722  -0.087  -0.379  1.00  0.00     0.062 A 
HETATM   29  C2  UNL     1      -4.991  -0.971   0.635  1.00  0.00     0.055 A 
HETATM   30  C1  UNL     1      -4.134  -1.666   1.342  1.00  0.00     0.045 C 
HETATM   31  N1  UNL     1      -6.356  -1.007   0.789  1.00  0.00    -0.291 N 
HETATM   32  N2  UNL     1      -6.938  -0.202  -0.066  1.00  0.00    -0.220 N 
ATOM     33  H1  UNL     1      -6.848  -1.581   1.474  1.00  0.00     0.187 HD
HETATM   34  C9  UNL     1      -5.988   0.364  -0.779  1.00  0.00     0.279 A 
HETATM   35  O1  UNL     1      -6.197   1.189  -1.687  1.00  0.00    -0.265 OA
BRANCH  32  36
HETATM   36  C3  UNL     1      -8.338  -0.008  -0.166  1.00  0.00     0.060 A 
HETATM   37  C4  UNL     1      -9.148   0.050   0.954  1.00  0.00     0.031 A 
HETATM   38  C5  UNL     1     -10.519   0.240   0.851  1.00  0.00     0.002 A 
HETATM   39  C6  UNL     1     -11.121   0.378  -0.382  1.00  0.00     0.000 A 
HETATM   40  C7  UNL     1     -10.320   0.321  -1.503  1.00  0.00     0.002 A 
HETATM   41  C8  UNL     1      -8.955   0.132  -1.392  1.00  0.00     0.031 A 
ENDBRANCH  32  36
ENDBRANCH  27  28
ENDBRANCH   1  27
TORSDOF 8
