REMARK  9 active torsions:
REMARK  status: ('A' for Active; 'I' for Inactive)
REMARK    1  A    between atoms: C2_2  and  C3_3 
REMARK    2  A    between atoms: C3_3  and  C4_4 
REMARK    3  A    between atoms: C4_4  and  C5_5 
REMARK    4  A    between atoms: C7_10  and  C8_11 
REMARK    5  A    between atoms: C8_11  and  C9_12 
REMARK    6  A    between atoms: C13_19  and  C14_20 
REMARK    7  A    between atoms: C21_34  and  C22_35 
REMARK    8  A    between atoms: C22_35  and  C23_36 
REMARK    9  A    between atoms: C29_42  and  O7_43 
ROOT
HETATM    1  C5  UNL     1       1.089  -1.696  -1.311  1.00  0.00     0.115 C 
HETATM    2  N1  UNL     1       0.802  -2.278  -0.021  1.00  0.00    -0.352 N 
ATOM      3  H1  UNL     1       1.299  -3.143   0.191  1.00  0.00     0.163 HD
HETATM    4  C6  UNL     1      -0.057  -1.824   0.972  1.00  0.00     0.240 C 
HETATM    5  O1  UNL     1       0.430  -1.654   2.148  1.00  0.00    -0.271 OA
HETATM    6  C7  UNL     1      -1.503  -1.497   0.868  1.00  0.00     0.177 C 
HETATM    7  N2  UNL     1      -1.745  -0.303   1.692  1.00  0.00    -0.346 N 
ATOM      8  H2  UNL     1      -1.118  -0.141   2.480  1.00  0.00     0.163 HD
HETATM    9  C12 UNL     1      -2.767   0.627   1.481  1.00  0.00     0.259 C 
HETATM   10  O2  UNL     1      -3.250   1.168   2.537  1.00  0.00    -0.271 OA
HETATM   11  C13 UNL     1      -3.347   1.052   0.214  1.00  0.00     0.374 C 
HETATM   12  N3  UNL     1      -2.888   2.293  -0.314  1.00  0.00     0.106 N 
HETATM   13  C15 UNL     1      -3.537   2.505  -1.594  1.00  0.00     0.311 C 
HETATM   14  C16 UNL     1      -3.112   3.439   0.509  1.00  0.00     0.299 C 
HETATM   15  C17 UNL     1      -1.771   4.012   0.989  1.00  0.00     0.198 C 
HETATM   16  O4  UNL     1      -1.191   4.765  -0.053  1.00  0.00    -0.387 OA
HETATM   17  C18 UNL     1       0.178   4.580  -0.110  1.00  0.00     0.194 C 
HETATM   18  C19 UNL     1       0.557   3.695  -1.307  1.00  0.00     0.207 C 
HETATM   19  O5  UNL     1       1.936   3.563  -1.284  1.00  0.00    -0.302 OA
HETATM   20  C20 UNL     1       2.760   2.772  -2.020  1.00  0.00     0.361 C 
HETATM   21  O6  UNL     1       3.693   3.197  -2.772  1.00  0.00    -0.239 OA
HETATM   22  N4  UNL     1       2.615   1.358  -1.986  1.00  0.00    -0.330 N 
ATOM     23  H4  UNL     1       2.936   0.839  -2.803  1.00  0.00     0.165 HD
HETATM   24  C21 UNL     1       2.058   0.594  -0.906  1.00  0.00     0.117 C 
HETATM   25  C29 UNL     1       0.906  -0.224  -1.391  1.00  0.00     0.163 C 
ENDROOT
BRANCH  24  26
HETATM   26  C22 UNL     1       3.177  -0.211  -0.304  1.00  0.00     0.032 C 
BRANCH  26  27
HETATM   27  C23 UNL     1       4.228   0.775   0.195  1.00  0.00    -0.013 C 
HETATM   28  C24 UNL     1       5.335  -0.093   0.790  1.00  0.00     0.005 C 
HETATM   29  C25 UNL     1       5.103  -0.351   2.264  1.00  0.00     0.000 C 
HETATM   30  C26 UNL     1       5.281   0.907   3.085  1.00  0.00     0.000 C 
HETATM   31  C27 UNL     1       4.692   2.057   2.307  1.00  0.00     0.000 C 
HETATM   32  C28 UNL     1       3.620   1.502   1.386  1.00  0.00     0.005 C 
ENDBRANCH  26  27
ENDBRANCH  24  26
BRANCH  25  33
HETATM   33  O7  UNL     1       0.585   0.114  -2.704  1.00  0.00    -0.391 OA
ATOM     34  H7  UNL     1       0.468   1.055  -2.755  1.00  0.00     0.210 HD
ENDBRANCH  25  33
BRANCH   1  35
HETATM   35  C4  UNL     1       0.170  -2.354  -2.319  1.00  0.00     0.031 C 
BRANCH  35  36
HETATM   36  C3  UNL     1       0.497  -3.846  -2.273  1.00  0.00     0.028 C 
BRANCH  36  37
HETATM   37  C2  UNL     1      -0.349  -4.616  -3.232  1.00  0.00    -0.037 C 
HETATM   38  C1  UNL     1      -1.253  -4.030  -4.004  1.00  0.00     0.007 C 
ENDBRANCH  36  37
ENDBRANCH  35  36
ENDBRANCH   1  35
BRANCH   6  39
HETATM   39  C8  UNL     1      -2.206  -2.637   1.620  1.00  0.00     0.038 C 
BRANCH  39  40
HETATM   40  C9  UNL     1      -3.689  -2.509   1.635  1.00  0.00    -0.020 C 
HETATM   41  C10 UNL     1      -4.218  -3.717   2.421  1.00  0.00     0.009 C 
HETATM   42  C11 UNL     1      -4.208  -2.744   0.210  1.00  0.00     0.009 C 
ENDBRANCH  39  40
ENDBRANCH   6  39
BRANCH  11  43
HETATM   43  C14 UNL     1      -4.842   1.096   0.371  1.00  0.00     0.276 C 
HETATM   44  O3  UNL     1      -5.503   2.079   0.067  1.00  0.00    -0.304 OA
ENDBRANCH  11  43
TORSDOF 9
