REMARK  11 active torsions:
REMARK  status: ('A' for Active; 'I' for Inactive)
REMARK    1  A    between atoms: C2_2  and  N1_3 
REMARK       I    between atoms: N2_6  and  C5_7 
REMARK    2  A    between atoms: C5_7  and  C6_9 
REMARK    3  A    between atoms: C9_12  and  N3_13 
REMARK    4  A    between atoms: N3_13  and  C10_15 
REMARK    5  A    between atoms: C11_18  and  N5_19 
REMARK    6  A    between atoms: N5_19  and  C12_21 
REMARK    7  A    between atoms: C14_23  and  C15_24 
REMARK    8  A    between atoms: C19_32  and  N8_33 
REMARK    9  A    between atoms: N8_33  and  C20_35 
REMARK   10  A    between atoms: C20_35  and  C21_36 
REMARK   11  A    between atoms: C26_44  and  O3_45 
ROOT
HETATM    1  C10 UNL     1      -1.364   1.622   0.738  1.00  0.00     0.685 A 
HETATM    2  N4  UNL     1      -2.293   2.591   0.951  1.00  0.00    -0.176 N 
ATOM      3  H4  UNL     1      -2.009   3.569   0.904  1.00  0.00     0.186 HD
HETATM    4  C11 UNL     1      -3.575   2.296   1.222  1.00  0.00     0.126 A 
HETATM    5  C18 UNL     1      -3.945   0.952   1.283  1.00  0.00     0.097 A 
HETATM    6  C19 UNL     1      -3.010  -0.038   1.068  1.00  0.00     0.120 A 
HETATM    7  N9  UNL     1      -1.757   0.339   0.804  1.00  0.00    -0.177 N 
ATOM      8  H9  UNL     1      -1.059  -0.387   0.643  1.00  0.00     0.186 HD
ENDROOT
BRANCH   1   9
HETATM    9  N3  UNL     1      -0.143   1.977   0.480  1.00  0.00    -0.192 N 
ATOM     10  H3  UNL     1       0.113   2.964   0.439  1.00  0.00     0.184 HD
BRANCH   9  11
HETATM   11  C9  UNL     1       0.840   0.959   0.254  1.00  0.00     0.051 A 
HETATM   12  C8  UNL     1       1.016   0.500  -1.041  1.00  0.00     0.031 A 
HETATM   13  C7  UNL     1       1.945  -0.467  -1.282  1.00  0.00     0.022 A 
HETATM   14  C6  UNL     1       2.712  -0.999  -0.274  1.00  0.00     0.065 A 
HETATM   15  C26 UNL     1       2.546  -0.552   1.010  1.00  0.00     0.086 A 
HETATM   16  C25 UNL     1       1.609   0.425   1.261  1.00  0.00     0.067 A 
BRANCH  14  17
HETATM   17  C5  UNL     1       3.709  -2.033  -0.527  1.00  0.00     0.256 C 
HETATM   18  N2  UNL     1       5.031  -1.694  -0.842  1.00  0.00    -0.345 N 
HETATM   19  C4  UNL     1       6.007  -2.724  -1.091  1.00  0.00     0.156 C 
HETATM   20  C28 UNL     1       5.426  -0.312  -0.918  1.00  0.00     0.156 C 
HETATM   21  C3  UNL     1       7.276  -2.012  -1.553  1.00  0.00     0.292 C 
HETATM   22  N1  UNL     1       7.702  -1.126  -0.500  1.00  0.00     0.091 N 
HETATM   23  C29 UNL     1       6.747  -0.104  -0.197  1.00  0.00     0.292 C 
HETATM   24  O1  UNL     1       3.335  -3.243  -0.453  1.00  0.00    -0.267 OA
BRANCH  22  25
HETATM   25  C2  UNL     1       9.046  -0.627  -0.714  1.00  0.00     0.268 C 
HETATM   26  C1  UNL     1      10.027  -1.769  -0.571  1.00  0.00     0.037 C 
ENDBRANCH  22  25
ENDBRANCH  14  17
BRANCH  15  27
HETATM   27  O3  UNL     1       3.298  -1.057   2.076  1.00  0.00    -0.355 OA
HETATM   28  C27 UNL     1       3.107  -0.580   3.382  1.00  0.00     0.210 C 
ENDBRANCH  15  27
ENDBRANCH   9  11
ENDBRANCH   1   9
BRANCH   4  29
HETATM   29  N5  UNL     1      -4.552   3.295   1.443  1.00  0.00    -0.327 N 
ATOM     30  H5  UNL     1      -4.683   3.672   2.382  1.00  0.00     0.169 HD
BRANCH  29  31
HETATM   31  C12 UNL     1      -5.288   3.741   0.463  1.00  0.00     0.123 A 
HETATM   32  C13 UNL     1      -6.268   4.705   0.543  1.00  0.00     0.076 A 
HETATM   33  C14 UNL     1      -6.814   4.896  -0.719  1.00  0.00     0.033 A 
HETATM   34  N6  UNL     1      -6.155   4.048  -1.522  1.00  0.00    -0.303 N 
HETATM   35  N7  UNL     1      -5.256   3.366  -0.834  1.00  0.00    -0.285 N 
ATOM     36  H6  UNL     1      -6.324   3.944  -2.523  1.00  0.00     0.186 HD
ATOM     37  H7  UNL     1      -4.631   2.661  -1.225  1.00  0.00     0.188 HD
BRANCH  33  38
HETATM   38  C15 UNL     1      -7.902   5.842  -1.103  1.00  0.00     0.037 A 
HETATM   39  C16 UNL     1      -9.118   5.825  -0.127  1.00  0.00     0.011 A 
HETATM   40  C17 UNL     1      -8.220   6.998  -0.266  1.00  0.00     0.011 A 
ENDBRANCH  33  38
ENDBRANCH  29  31
ENDBRANCH   4  29
BRANCH   6  41
HETATM   41  N8  UNL     1      -3.336  -1.284   1.119  1.00  0.00    -0.373 N 
ATOM     42  H8  UNL     1      -4.308  -1.516   1.323  1.00  0.00     0.161 HD
BRANCH  41  43
HETATM   43  C20 UNL     1      -2.421  -2.359   0.908  1.00  0.00     0.153 C 
BRANCH  43  44
HETATM   44  C21 UNL     1      -3.257  -3.643   0.825  1.00  0.00     0.139 C 
HETATM   45  C22 UNL     1      -2.389  -4.825   0.550  1.00  0.00     0.035 C 
HETATM   46  C23 UNL     1      -3.033  -5.454  -0.665  1.00  0.00     0.029 C 
HETATM   47  C24 UNL     1      -4.407  -4.828  -0.662  1.00  0.00     0.168 C 
HETATM   48  O2  UNL     1      -4.155  -3.539  -0.235  1.00  0.00    -0.384 OA
ENDBRANCH  43  44
ENDBRANCH  41  43
ENDBRANCH   6  41
TORSDOF 11
