REMARK  9 active torsions:
REMARK  status: ('A' for Active; 'I' for Inactive)
REMARK    1  A    between atoms: C2_2  and  C3_3 
REMARK    2  A    between atoms: C3_3  and  C4_4 
REMARK    3  A    between atoms: C5_7  and  N2_8 
REMARK    4  A    between atoms: N2_8  and  C6_10 
REMARK    5  A    between atoms: C10_14  and  S1_15 
REMARK    6  A    between atoms: S1_15  and  N3_18 
REMARK    7  A    between atoms: N3_18  and  C11_20 
REMARK    8  A    between atoms: C16_25  and  S2_26 
REMARK    9  A    between atoms: N4_37  and  O6_38 
ROOT
HETATM    1  C6  UNL     1      -0.195  -1.486   0.086  1.00  0.00     0.035 A 
HETATM    2  C7  UNL     1       0.295  -2.751   0.494  1.00  0.00     0.029 A 
HETATM    3  C8  UNL     1       1.577  -3.119   0.197  1.00  0.00     0.004 A 
HETATM    4  C9  UNL     1       2.431  -2.293  -0.497  1.00  0.00     0.025 A 
HETATM    5  C10 UNL     1       1.997  -1.033  -0.923  1.00  0.00     0.082 A 
HETATM    6  C17 UNL     1       0.731  -0.690  -0.621  1.00  0.00     0.054 A 
ENDROOT
BRANCH   1   7
HETATM    7  N2  UNL     1      -1.442  -1.104   0.373  1.00  0.00    -0.342 N 
ATOM      8  H2  UNL     1      -1.299  -0.657   1.279  1.00  0.00     0.167 HD
BRANCH   7   9
HETATM    9  C5  UNL     1      -2.623  -0.956   0.236  1.00  0.00     0.119 A 
HETATM   10  N1  UNL     1      -3.362  -0.303   1.222  1.00  0.00    -0.329 N 
HETATM   11  C4  UNL     1      -4.658  -0.089   1.171  1.00  0.00     0.111 A 
ATOM     12  H1  UNL     1      -2.860   0.033   2.044  1.00  0.00     0.168 HD
HETATM   13  N4  UNL     1      -5.332  -0.523   0.101  1.00  0.00    -0.211 N 
HETATM   14  C23 UNL     1      -4.683  -1.168  -0.900  1.00  0.00     0.078 A 
HETATM   15  C18 UNL     1      -3.331  -1.413  -0.889  1.00  0.00     0.037 A 
HETATM   16  C22 UNL     1      -5.417  -1.609  -2.006  1.00  0.00     0.033 A 
HETATM   17  C19 UNL     1      -2.674  -2.066  -1.906  1.00  0.00     0.017 A 
HETATM   18  C20 UNL     1      -3.440  -2.495  -2.997  1.00  0.00     0.001 A 
HETATM   19  C21 UNL     1      -4.799  -2.268  -3.047  1.00  0.00     0.002 A 
BRANCH  11  20
HETATM   20  C3  UNL     1      -5.382   0.630   2.289  1.00  0.00     0.079 C 
BRANCH  20  21
HETATM   21  C2  UNL     1      -5.356   2.119   1.948  1.00  0.00     0.003 C 
HETATM   22  C1  UNL     1      -3.954   2.635   1.837  1.00  0.00     0.005 C 
ENDBRANCH  20  21
ENDBRANCH  11  20
BRANCH  13  23
HETATM   23  O6  UNL     1      -6.681  -0.326  -0.002  1.00  0.00    -0.281 OA
ATOM     24  H6  UNL     1      -7.160  -0.634  -0.762  1.00  0.00     0.245 HD
ENDBRANCH  13  23
ENDBRANCH   7   9
ENDBRANCH   1   7
BRANCH   5  25
HETATM   25  S1  UNL     1       3.067   0.033  -1.807  1.00  0.00     0.263 S 
HETATM   26  O1  UNL     1       2.262   0.621  -2.939  1.00  0.00    -0.200 OA
HETATM   27  O2  UNL     1       4.163  -0.777  -2.483  1.00  0.00    -0.200 OA
BRANCH  25  28
HETATM   28  N3  UNL     1       3.723   1.297  -0.887  1.00  0.00    -0.279 N 
ATOM     29  H3  UNL     1       3.498   2.249  -1.177  1.00  0.00     0.179 HD
BRANCH  28  30
HETATM   30  C11 UNL     1       4.555   1.149   0.248  1.00  0.00     0.067 A 
HETATM   31  C12 UNL     1       4.199   0.433   1.363  1.00  0.00     0.032 A 
HETATM   32  C13 UNL     1       5.035   0.330   2.462  1.00  0.00     0.002 A 
HETATM   33  C14 UNL     1       6.240   0.961   2.427  1.00  0.00     0.002 A 
HETATM   34  C15 UNL     1       6.616   1.682   1.327  1.00  0.00     0.028 A 
HETATM   35  C16 UNL     1       5.800   1.788   0.239  1.00  0.00     0.107 A 
BRANCH  35  36
HETATM   36  S2  UNL     1       6.284   2.720  -1.173  1.00  0.00     0.140 S 
HETATM   37  O3  UNL     1       7.669   3.283  -0.929  1.00  0.00    -0.591 OA
HETATM   38  O4  UNL     1       5.375   3.910  -1.325  1.00  0.00    -0.591 OA
HETATM   39  O5  UNL     1       6.357   1.803  -2.551  1.00  0.00    -0.591 OA
ENDBRANCH  35  36
ENDBRANCH  28  30
ENDBRANCH  25  28
ENDBRANCH   5  25
TORSDOF 9
