REMARK  12 active torsions:
REMARK  status: ('A' for Active; 'I' for Inactive)
REMARK    1  A    between atoms: N2_3  and  C2_5 
REMARK    2  A    between atoms: C3_6  and  O1_7 
REMARK    3  A    between atoms: C4_9  and  C5_10 
REMARK    4  A    between atoms: C5_10  and  O2_11 
REMARK    5  A    between atoms: C6_14  and  C7_15 
REMARK    6  A    between atoms: C7_15  and  N3_16 
REMARK    7  A    between atoms: C7_15  and  C8_20 
REMARK    8  A    between atoms: C8_20  and  O4_21 
REMARK    9  A    between atoms: C8_20  and  C9_23 
REMARK   10  A    between atoms: C8_20  and  C10_28 
REMARK   11  A    between atoms: C9_23  and  N4_24 
REMARK   12  A    between atoms: C10_28  and  N5_29 
ROOT
HETATM    1  C7  UNL     1       0.916   0.684   0.012  1.00  0.00     0.251 C 
ENDROOT
BRANCH   1   2
HETATM    2  C6  UNL     1      -0.176  -0.271  -0.292  1.00  0.00     0.180 C 
HETATM    3  C2  UNL     1      -1.484   0.483  -0.417  1.00  0.00     0.144 C 
HETATM    4  C3  UNL     1      -2.448  -0.450   0.331  1.00  0.00     0.174 C 
HETATM    5  C4  UNL     1      -1.645  -1.735   0.279  1.00  0.00     0.176 C 
HETATM    6  O3  UNL     1      -0.379  -1.268   0.623  1.00  0.00    -0.371 OA
BRANCH   3   7
HETATM    7  N2  UNL     1      -1.935   0.551  -1.790  1.00  0.00    -0.378 N 
HETATM    8  C1  UNL     1      -2.603   1.517  -2.276  1.00  0.00     0.185 C 
HETATM    9  N1  UNL     1      -2.961   2.632  -1.470  1.00  0.00    -0.097 NA
ATOM     10  H2  UNL     1      -1.702  -0.226  -2.408  1.00  0.00     0.160 HD
ENDBRANCH   3   7
BRANCH   4  11
HETATM   11  O1  UNL     1      -2.540   0.002   1.637  1.00  0.00    -0.391 OA
ATOM     12  H1  UNL     1      -3.136  -0.575   2.100  1.00  0.00     0.210 HD
ENDBRANCH   4  11
BRANCH   5  13
HETATM   13  C5  UNL     1      -2.165  -2.784   1.210  1.00  0.00     0.198 C 
BRANCH  13  14
HETATM   14  O2  UNL     1      -2.288  -2.377   2.510  1.00  0.00    -0.398 OA
ATOM     15  H2  UNL     1      -2.618  -3.043   3.101  1.00  0.00     0.209 HD
ENDBRANCH  13  14
ENDBRANCH   5  13
ENDBRANCH   1   2
BRANCH   1  16
HETATM   16  N3  UNL     1       0.966   1.660  -1.076  1.00  0.00    -0.070 N 
ATOM     17  H33 UNL     1       1.062   1.226  -1.994  1.00  0.00     0.275 HD
ATOM     18  H32 UNL     1       0.070   2.120  -1.238  1.00  0.00     0.275 HD
ATOM     19  H31 UNL     1       1.717   2.317  -0.867  1.00  0.00     0.275 HD
ENDBRANCH   1  16
BRANCH   1  20
HETATM   20  C8  UNL     1       2.279   0.132   0.174  1.00  0.00     0.135 C 
BRANCH  20  21
HETATM   21  O4  UNL     1       3.118   1.237   0.482  1.00  0.00    -0.384 OA
ATOM     22  H4  UNL     1       3.993   0.883   0.586  1.00  0.00     0.210 HD
ENDBRANCH  20  21
BRANCH  20  23
HETATM   23  C9  UNL     1       2.855  -0.520  -1.041  1.00  0.00     0.271 C 
BRANCH  23  24
HETATM   24  N4  UNL     1       2.914   0.371  -2.181  1.00  0.00    -0.076 N 
ATOM     25  H43 UNL     1       1.997   0.770  -2.381  1.00  0.00     0.274 HD
ATOM     26  H42 UNL     1       3.420   1.226  -1.951  1.00  0.00     0.274 HD
ATOM     27  H41 UNL     1       3.307  -0.074  -3.010  1.00  0.00     0.274 HD
ENDBRANCH  23  24
ENDBRANCH  20  23
BRANCH  20  28
HETATM   28  C10 UNL     1       2.443  -0.779   1.382  1.00  0.00     0.271 C 
BRANCH  28  29
HETATM   29  N5  UNL     1       2.025  -0.116   2.602  1.00  0.00    -0.076 N 
ATOM     30  H53 UNL     1       2.513   0.770   2.732  1.00  0.00     0.274 HD
ATOM     31  H52 UNL     1       1.072   0.239   2.527  1.00  0.00     0.274 HD
ATOM     32  H51 UNL     1       2.135  -0.727   3.412  1.00  0.00     0.274 HD
ENDBRANCH  28  29
ENDBRANCH  20  28
ENDBRANCH   1  20
TORSDOF 12
