REMARK  5 active torsions:
REMARK  status: ('A' for Active; 'I' for Inactive)
REMARK    1  A    between atoms: O1_2  and  C2_3 
REMARK    2  A    between atoms: C2_3  and  C3_5 
REMARK    3  A    between atoms: C8_11  and  N1_12 
REMARK    4  A    between atoms: N1_12  and  C9_14 
REMARK    5  A    between atoms: C9_14  and  C10_15 
ROOT
HETATM    1  C3  UNL     1       3.046  -0.006  -0.115  1.00  0.00     0.077 C 
HETATM    2  C4  UNL     1       3.777  -1.026  -0.983  1.00  0.00     0.188 C 
HETATM    3  O3  UNL     1       4.143  -2.068  -0.175  1.00  0.00    -0.389 OA
HETATM    4  C5  UNL     1       3.426  -2.046   0.985  1.00  0.00     0.173 C 
HETATM    5  C6  UNL     1       2.443  -0.921   0.929  1.00  0.00     0.032 C 
HETATM    6  C7  UNL     1       1.164  -1.363   0.201  1.00  0.00     0.033 C 
HETATM    7  C8  UNL     1       0.613  -0.017  -0.200  1.00  0.00     0.082 C 
HETATM    8  C17 UNL     1       1.877   0.599  -0.824  1.00  0.00     0.047 C 
ENDROOT
BRANCH   7   9
HETATM    9  N1  UNL     1      -0.376  -0.017  -1.181  1.00  0.00    -0.397 N 
ATOM     10  H1  UNL     1      -0.202   0.452  -2.070  1.00  0.00     0.159 HD
BRANCH   9  11
HETATM   11  C9  UNL     1      -1.600  -0.649  -0.965  1.00  0.00     0.061 C 
BRANCH  11  12
HETATM   12  C10 UNL     1      -2.519  -0.089   0.031  1.00  0.00     0.028 C 
HETATM   13  C11 UNL     1      -2.981   1.310  -0.201  1.00  0.00     0.014 C 
HETATM   14  C12 UNL     1      -4.448   1.308   0.238  1.00  0.00    -0.013 C 
HETATM   15  C13 UNL     1      -5.240   0.900  -0.983  1.00  0.00     0.005 C 
HETATM   16  C16 UNL     1      -4.578   0.008   1.052  1.00  0.00     0.010 C 
HETATM   17  C14 UNL     1      -4.668  -0.509  -1.213  1.00  0.00     0.005 C 
HETATM   18  C15 UNL     1      -3.852  -0.849  -0.008  1.00  0.00    -0.005 C 
ENDBRANCH  11  12
ENDBRANCH   9  11
ENDBRANCH   7   9
BRANCH   1  19
HETATM   19  C2  UNL     1       3.942   1.002   0.439  1.00  0.00     0.270 C 
HETATM   20  O2  UNL     1       3.763   2.211   0.167  1.00  0.00    -0.264 OA
BRANCH  19  21
HETATM   21  O1  UNL     1       4.998   0.670   1.266  1.00  0.00    -0.326 OA
HETATM   22  C1  UNL     1       5.878   1.645   1.813  1.00  0.00     0.213 C 
ENDBRANCH  19  21
ENDBRANCH   1  19
TORSDOF 5
