REMARK  7 active torsions:
REMARK  status: ('A' for Active; 'I' for Inactive)
REMARK    1  A    between atoms: C3_3  and  O1_4 
REMARK    2  A    between atoms: O1_4  and  C4_5 
REMARK    3  A    between atoms: C4_5  and  C5_7 
REMARK    4  A    between atoms: C22_26  and  C23_27 
REMARK    5  A    between atoms: C23_27  and  C26_30 
REMARK    6  A    between atoms: C26_30  and  O5_31 
REMARK    7  A    between atoms: C27_33  and  O6_34 
ROOT
HETATM    1  C1  UNL     1       7.476   2.938   0.773  1.00  0.00     0.014 C 
HETATM    2  C2  UNL     1       7.006   1.820   0.690  1.00  0.00    -0.091 C 
HETATM    3  C3  UNL     1       6.431   0.471   0.614  1.00  0.00     0.271 C 
ENDROOT
BRANCH   3   4
HETATM    4  O1  UNL     1       5.083   0.609   0.216  1.00  0.00    -0.309 OA
BRANCH   4   5
HETATM    5  C4  UNL     1       4.273  -0.509   0.056  1.00  0.00     0.272 C 
HETATM    6  O2  UNL     1       4.815  -1.624   0.287  1.00  0.00    -0.264 OA
BRANCH   5   7
HETATM    7  C5  UNL     1       2.889  -0.300  -0.357  1.00  0.00     0.066 C 
HETATM    8  C6  UNL     1       2.808   0.373  -1.695  1.00  0.00     0.031 C 
HETATM    9  C7  UNL     1       2.149  -1.625  -0.417  1.00  0.00    -0.011 C 
HETATM   10  C8  UNL     1       0.902  -2.036  -0.641  1.00  0.00    -0.021 C 
HETATM   11  C9  UNL     1      -0.363  -1.380  -0.941  1.00  0.00     0.051 C 
HETATM   12  C10 UNL     1      -1.286  -2.498  -1.424  1.00  0.00     0.024 C 
HETATM   13  C13 UNL     1      -1.095  -0.621   0.168  1.00  0.00     0.094 C 
HETATM   14  C11 UNL     1      -1.151  -3.791  -0.710  1.00  0.00     0.013 C 
HETATM   15  C12 UNL     1      -2.511  -1.809  -0.904  1.00  0.00     0.156 C 
HETATM   16  O3  UNL     1      -1.983  -1.652   0.423  1.00  0.00    -0.369 OA
HETATM   17  C27 UNL     1      -2.558  -0.486  -1.549  1.00  0.00     0.160 C 
HETATM   18  C22 UNL     1      -2.099   0.374  -0.323  1.00  0.00     0.030 C 
HETATM   19  C21 UNL     1      -1.273   1.549  -0.777  1.00  0.00     0.016 C 
HETATM   20  C20 UNL     1      -0.019   1.947  -0.015  1.00  0.00     0.007 C 
HETATM   21  C19 UNL     1       0.787   0.734   0.212  1.00  0.00     0.010 C 
HETATM   22  C14 UNL     1      -0.130  -0.127   1.095  1.00  0.00     0.053 C 
HETATM   23  C18 UNL     1       2.096   0.527   0.728  1.00  0.00     0.019 C 
HETATM   24  C15 UNL     1      -0.308   0.707   2.280  1.00  0.00     0.027 C 
HETATM   25  C16 UNL     1       0.756  -1.122   1.811  1.00  0.00     0.139 C 
HETATM   26  O4  UNL     1       0.377  -2.157   2.251  1.00  0.00    -0.297 OA
HETATM   27  C17 UNL     1       2.088  -0.542   1.833  1.00  0.00     0.085 C 
BRANCH  17  28
HETATM   28  O6  UNL     1      -2.040  -0.187  -2.730  1.00  0.00    -0.392 OA
ATOM     29  H6  UNL     1      -2.070   0.666  -3.146  1.00  0.00     0.210 HD
ENDBRANCH  17  28
BRANCH  18  30
HETATM   30  C23 UNL     1      -3.382   0.680   0.277  1.00  0.00    -0.013 C 
HETATM   31  C24 UNL     1      -4.175   1.747  -0.600  1.00  0.00     0.018 C 
HETATM   32  C25 UNL     1      -4.466  -0.317   0.433  1.00  0.00     0.018 C 
BRANCH  30  33
HETATM   33  C26 UNL     1      -3.448   1.557   1.516  1.00  0.00     0.173 C 
BRANCH  33  34
HETATM   34  O5  UNL     1      -2.962   2.823   1.370  1.00  0.00    -0.400 OA
ATOM     35  H5  UNL     1      -3.003   3.371   2.145  1.00  0.00     0.209 HD
ENDBRANCH  33  34
ENDBRANCH  30  33
ENDBRANCH  18  30
ENDBRANCH   5   7
ENDBRANCH   4   5
ENDBRANCH   3   4
TORSDOF 7
