REMARK  5 active torsions:
REMARK  status: ('A' for Active; 'I' for Inactive)
REMARK    1  A    between atoms: C2_2  and  C3_4 
REMARK    2  A    between atoms: C11_12  and  O2_13 
REMARK    3  A    between atoms: C19_22  and  O3_23 
REMARK    4  A    between atoms: C20_25  and  O4_26 
REMARK    5  A    between atoms: O4_26  and  S1_27 
ROOT
HETATM    1  C3  UNL     1      -3.669   1.143  -0.121  1.00  0.00     0.022 C 
HETATM    2  C4  UNL     1      -4.884   0.605  -0.897  1.00  0.00     0.024 C 
HETATM    3  C5  UNL     1      -2.712   1.615  -1.171  1.00  0.00     0.018 C 
HETATM    4  C6  UNL     1      -1.855   0.595  -1.794  1.00  0.00     0.011 C 
HETATM    5  C7  UNL     1      -1.824  -0.775  -1.242  1.00  0.00    -0.040 C 
HETATM    6  C8  UNL     1      -2.105  -1.753  -2.403  1.00  0.00     0.015 C 
HETATM    7  C9  UNL     1      -2.865  -1.108  -0.215  1.00  0.00     0.018 C 
HETATM    8  C10 UNL     1      -3.141   0.040   0.731  1.00  0.00     0.030 C 
HETATM    9  C11 UNL     1      -2.008   0.371   1.623  1.00  0.00     0.123 C 
HETATM   10  C12 UNL     1      -0.877  -0.649   1.612  1.00  0.00     0.038 C 
HETATM   11  C13 UNL     1       0.016  -0.434   0.432  1.00  0.00     0.001 C 
HETATM   12  C14 UNL     1      -0.422  -1.194  -0.776  1.00  0.00    -0.002 C 
HETATM   13  C15 UNL     1      -0.269  -2.674  -0.702  1.00  0.00     0.006 C 
HETATM   14  C16 UNL     1       0.881  -3.032   0.245  1.00  0.00     0.006 C 
HETATM   15  C17 UNL     1       1.896  -1.951   0.080  1.00  0.00    -0.003 C 
HETATM   16  C18 UNL     1       3.264  -2.264   0.569  1.00  0.00     0.039 C 
HETATM   17  C19 UNL     1       4.206  -1.260  -0.044  1.00  0.00     0.148 C 
HETATM   18  C20 UNL     1       3.764   0.138  -0.005  1.00  0.00     0.171 C 
HETATM   19  C22 UNL     1       2.309   0.411  -0.024  1.00  0.00     0.046 C 
HETATM   20  C23 UNL     1       1.476  -0.641   0.689  1.00  0.00    -0.034 C 
HETATM   21  C24 UNL     1       1.850  -0.536   2.158  1.00  0.00     0.016 C 
ENDROOT
BRANCH  18  22
HETATM   22  O4  UNL     1       4.321   0.810  -1.120  1.00  0.00    -0.268 OA
BRANCH  22  23
HETATM   23  S1  UNL     1       5.366   2.012  -0.675  1.00  0.00     0.261 S 
HETATM   24  C21 UNL     1       5.054   2.682   0.916  1.00  0.00     0.194 C 
HETATM   25  O5  UNL     1       6.812   1.560  -0.785  1.00  0.00    -0.199 OA
HETATM   26  O6  UNL     1       5.225   3.138  -1.688  1.00  0.00    -0.199 OA
ENDBRANCH  22  23
ENDBRANCH  18  22
BRANCH  17  27
HETATM   27  O3  UNL     1       5.430  -1.388   0.640  1.00  0.00    -0.393 OA
ATOM     28  H3  UNL     1       6.024  -0.755   0.254  1.00  0.00     0.210 HD
ENDBRANCH  17  27
BRANCH   9  29
HETATM   29  O2  UNL     1      -1.393   1.599   1.369  1.00  0.00    -0.395 OA
ATOM     30  H2  UNL     1      -0.665   1.812   1.942  1.00  0.00     0.210 HD
ENDBRANCH   9  29
BRANCH   1  31
HETATM   31  C2  UNL     1      -4.182   2.275   0.676  1.00  0.00     0.131 C 
HETATM   32  C1  UNL     1      -4.780   3.494   0.060  1.00  0.00     0.091 C 
HETATM   33  O1  UNL     1      -4.117   2.214   1.890  1.00  0.00    -0.298 OA
ENDBRANCH   1  31
TORSDOF 5
