REMARK  7 active torsions:
REMARK  status: ('A' for Active; 'I' for Inactive)
REMARK    1  A    between atoms: C2_2  and  C3_3 
REMARK    2  A    between atoms: C3_3  and  N1_4 
REMARK    3  A    between atoms: N2_7  and  C6_8 
REMARK    4  A    between atoms: C6_8  and  C7_9 
REMARK    5  A    between atoms: C7_9  and  C8_10 
REMARK    6  A    between atoms: C8_10  and  N3_11 
REMARK    7  A    between atoms: N3_11  and  C9_13 
ROOT
HETATM    1  N3  UNL     1       2.904  -0.534   0.269  1.00  0.00    -0.370 N 
ATOM      2  H3  UNL     1       2.492  -0.236   1.153  1.00  0.00     0.161 HD
ENDROOT
BRANCH   1   3
HETATM    3  C8  UNL     1       2.094  -1.236  -0.687  1.00  0.00     0.123 C 
BRANCH   3   4
HETATM    4  C7  UNL     1       0.749  -0.578  -0.915  1.00  0.00     0.040 C 
BRANCH   4   5
HETATM    5  C6  UNL     1       0.008  -0.548   0.425  1.00  0.00     0.131 C 
BRANCH   5   6
HETATM    6  N2  UNL     1      -1.297   0.087   0.216  1.00  0.00    -0.351 N 
HETATM    7  C5  UNL     1      -1.580   1.400   0.319  1.00  0.00     0.109 A 
HETATM    8  C4  UNL     1      -2.918   1.592   0.047  1.00  0.00     0.109 A 
HETATM    9  N1  UNL     1      -3.454   0.384  -0.225  1.00  0.00    -0.352 N 
HETATM   10  C12 UNL     1      -2.454  -0.508  -0.116  1.00  0.00     0.185 A 
BRANCH   9  11
HETATM   11  C3  UNL     1      -4.851   0.133  -0.567  1.00  0.00     0.129 C 
BRANCH  11  12
HETATM   12  C2  UNL     1      -5.655  -0.131   0.690  1.00  0.00     0.016 C 
HETATM   13  C1  UNL     1      -7.094  -0.389   0.326  1.00  0.00     0.006 C 
ENDBRANCH  11  12
ENDBRANCH   9  11
ENDBRANCH   5   6
ENDBRANCH   4   5
ENDBRANCH   3   4
ENDBRANCH   1   3
BRANCH   1  14
HETATM   14  C9  UNL     1       4.143  -0.274   0.028  1.00  0.00     0.160 A 
HETATM   15  N4  UNL     1       4.908   0.382   0.917  1.00  0.00    -0.171 N 
HETATM   16  C10 UNL     1       6.185   0.701   0.775  1.00  0.00     0.678 A 
ATOM     17  H4  UNL     1       4.460   0.662   1.789  1.00  0.00     0.186 HD
HETATM   18  N5  UNL     1       6.722   1.347   1.787  1.00  0.00    -0.234 N 
HETATM   19  N6  UNL     1       6.987   0.447  -0.267  1.00  0.00    -0.196 N 
ATOM     20  H52 UNL     1       6.111   1.540   2.581  1.00  0.00     0.174 HD
ATOM     21  H51 UNL     1       7.706   1.593   1.678  1.00  0.00     0.174 HD
HETATM   22  C11 UNL     1       6.609  -0.199  -1.382  1.00  0.00     0.159 A 
ATOM     23  H6  UNL     1       7.954   0.767  -0.210  1.00  0.00     0.184 HD
HETATM   24  S1  UNL     1       4.987  -0.702  -1.405  1.00  0.00    -0.048 SA
ENDBRANCH   1  14
TORSDOF 7
