REMARK  7 active torsions:
REMARK  status: ('A' for Active; 'I' for Inactive)
REMARK    1  A    between atoms: C7_12  and  C8_13 
REMARK    2  A    between atoms: C8_13  and  C9_14 
REMARK    3  A    between atoms: C10_19  and  C11_20 
REMARK    4  A    between atoms: C11_20  and  C12_21 
REMARK    5  A    between atoms: C12_21  and  C13_22 
REMARK    6  A    between atoms: C13_22  and  C14_23 
REMARK    7  A    between atoms: C14_23  and  O2_24 
ROOT
HETATM    1  C8  UNL     1      -0.525  -1.560   0.686  1.00  0.00     0.106 C 
ENDROOT
BRANCH   1   2
HETATM    2  C7  UNL     1      -1.830  -1.299   0.037  1.00  0.00     0.029 A 
HETATM    3  C1  UNL     1      -2.496  -2.125  -0.962  1.00  0.00     0.254 A 
HETATM    4  O1  UNL     1      -2.033  -3.203  -1.416  1.00  0.00    -0.268 OA
HETATM    5  N1  UNL     1      -3.703  -1.454  -1.264  1.00  0.00    -0.308 N 
HETATM    6  C2  UNL     1      -3.761  -0.378  -0.552  1.00  0.00     0.118 A 
ATOM      7  H1  UNL     1      -4.408  -1.767  -1.931  1.00  0.00     0.170 HD
HETATM    8  N2  UNL     1      -4.746   0.575  -0.516  1.00  0.00    -0.352 N 
HETATM    9  C6  UNL     1      -2.639  -0.279   0.232  1.00  0.00     0.020 A 
HETATM   10  C3  UNL     1      -4.579   1.617   0.314  1.00  0.00     0.090 A 
ATOM     11  H2  UNL     1      -5.578   0.495  -1.100  1.00  0.00     0.166 HD
HETATM   12  C4  UNL     1      -3.470   1.758   1.118  1.00  0.00     0.018 A 
HETATM   13  C5  UNL     1      -2.480   0.812   1.092  1.00  0.00     0.017 A 
ENDBRANCH   1   2
BRANCH   1  14
HETATM   14  C9  UNL     1       0.500  -1.565  -0.388  1.00  0.00     0.054 A 
HETATM   15  N3  UNL     1       1.195  -2.415  -1.131  1.00  0.00    -0.302 N 
HETATM   16  N4  UNL     1       1.814  -1.464  -1.789  1.00  0.00    -0.303 N 
ATOM     17  H3  UNL     1       1.234  -3.433  -1.175  1.00  0.00     0.186 HD
HETATM   18  C10 UNL     1       1.148  -0.541  -1.076  1.00  0.00     0.050 A 
ATOM     19  H4  UNL     1       2.511  -1.437  -2.533  1.00  0.00     0.186 HD
BRANCH  18  20
HETATM   20  C11 UNL     1       1.061   0.925  -1.044  1.00  0.00     0.061 C 
BRANCH  20  21
HETATM   21  C12 UNL     1       1.594   1.632   0.119  1.00  0.00     0.008 C 
BRANCH  21  22
HETATM   22  C13 UNL     1       3.021   1.560   0.448  1.00  0.00     0.026 C 
BRANCH  22  23
HETATM   23  C14 UNL     1       3.608   0.251   0.797  1.00  0.00     0.164 C 
BRANCH  23  24
HETATM   24  O2  UNL     1       2.989  -0.345   1.907  1.00  0.00    -0.401 OA
ATOM     25  H2  UNL     1       3.367  -1.187   2.132  1.00  0.00     0.209 HD
ENDBRANCH  23  24
ENDBRANCH  22  23
ENDBRANCH  21  22
ENDBRANCH  20  21
ENDBRANCH  18  20
ENDBRANCH   1  14
TORSDOF 7
