REMARK  8 active torsions:
REMARK  status: ('A' for Active; 'I' for Inactive)
REMARK    1  A    between atoms: C2_2  and  O2_4 
REMARK    2  A    between atoms: O2_4  and  C3_5 
REMARK    3  A    between atoms: C4_7  and  C5_8 
REMARK    4  A    between atoms: C5_8  and  O4_9 
REMARK    5  A    between atoms: C6_11  and  O5_12 
REMARK    6  A    between atoms: C7_14  and  C8_15 
REMARK    7  A    between atoms: C8_15  and  C9_16 
REMARK    8  A    between atoms: C9_16  and  C10_17 
ROOT
HETATM    1  C10 UNL     1       2.525   2.684   0.596  1.00  0.00     0.228 C 
HETATM    2  O6  UNL     1       2.572   3.935   0.584  1.00  0.00    -0.281 OA
HETATM    3  C11 UNL     1       3.559   1.931   1.226  1.00  0.00     0.138 C 
HETATM    4  N1  UNL     1       4.419   1.312   1.734  1.00  0.00    -0.188 NA
ENDROOT
BRANCH   1   5
HETATM    5  C9  UNL     1       1.352   2.027  -0.070  1.00  0.00     0.096 C 
BRANCH   5   6
HETATM    6  C8  UNL     1       1.548   0.556   0.091  1.00  0.00     0.020 C 
BRANCH   6   7
HETATM    7  C7  UNL     1       0.503  -0.290  -0.534  1.00  0.00     0.073 C 
HETATM    8  C3  UNL     1      -0.877  -0.143  -0.067  1.00  0.00     0.276 C 
HETATM    9  O3  UNL     1      -1.456  -1.317  -0.655  1.00  0.00    -0.350 OA
HETATM   10  C4  UNL     1      -0.639  -2.295  -0.089  1.00  0.00     0.177 C 
HETATM   11  C6  UNL     1       0.762  -1.775  -0.154  1.00  0.00     0.158 C 
BRANCH   8  12
HETATM   12  O2  UNL     1      -1.620   0.973  -0.456  1.00  0.00    -0.289 OA
BRANCH  12  13
HETATM   13  C2  UNL     1      -2.451   1.656   0.444  1.00  0.00     0.257 C 
HETATM   14  C1  UNL     1      -3.239   2.844   0.023  1.00  0.00     0.126 C 
HETATM   15  O1  UNL     1      -2.475   1.189   1.612  1.00  0.00    -0.266 OA
ENDBRANCH  12  13
ENDBRANCH   8  12
BRANCH  10  16
HETATM   16  C5  UNL     1      -0.695  -3.590  -0.868  1.00  0.00     0.198 C 
BRANCH  16  17
HETATM   17  O4  UNL     1      -0.251  -3.282  -2.171  1.00  0.00    -0.398 OA
ATOM     18  H4  UNL     1      -0.286  -4.096  -2.660  1.00  0.00     0.209 HD
ENDBRANCH  16  17
ENDBRANCH  10  16
BRANCH  11  19
HETATM   19  O5  UNL     1       1.283  -1.733   1.133  1.00  0.00    -0.392 OA
ATOM     20  H5  UNL     1       2.173  -1.403   1.092  1.00  0.00     0.210 HD
ENDBRANCH  11  19
ENDBRANCH   6   7
ENDBRANCH   5   6
ENDBRANCH   1   5
TORSDOF 8
