REMARK  5 active torsions:
REMARK  status: ('A' for Active; 'I' for Inactive)
REMARK    1  A    between atoms: C1_2  and  C2_3 
REMARK       I    between atoms: C1_2  and  N2_14 
REMARK    2  A    between atoms: C2_3  and  N1_4 
REMARK       I    between atoms: N1_4  and  C3_6 
REMARK    3  A    between atoms: C3_6  and  C4_8 
REMARK    4  A    between atoms: N2_14  and  C8_16 
REMARK    5  A    between atoms: N3_19  and  C11_20 
ROOT
HETATM    1  O1  UNL     1       3.017   0.865  -0.372  1.00  0.00    -0.272 OA
HETATM    2  C1  UNL     1       2.494  -0.266  -0.589  1.00  0.00     0.235 C 
HETATM    3  N2  UNL     1       1.080  -0.371  -0.522  1.00  0.00    -0.355 N 
ATOM      4  H2  UNL     1       0.623  -1.267  -0.691  1.00  0.00     0.162 HD
ENDROOT
BRANCH   3   5
HETATM    5  C8  UNL     1       0.299   0.789  -0.215  1.00  0.00     0.087 C 
HETATM    6  C9  UNL     1      -0.652   1.189  -1.296  1.00  0.00     0.055 C 
HETATM    7  C10 UNL     1      -1.884   0.318  -1.381  1.00  0.00     0.275 C 
HETATM    8  N3  UNL     1      -2.444   0.196  -0.063  1.00  0.00     0.093 N 
HETATM    9  C17 UNL     1      -1.550  -0.377   0.889  1.00  0.00     0.275 C 
HETATM   10  C18 UNL     1      -0.440   0.661   1.103  1.00  0.00     0.055 C 
BRANCH   8  11
HETATM   11  C11 UNL     1      -3.785  -0.309  -0.046  1.00  0.00     0.223 C 
HETATM   12  C12 UNL     1      -4.652   0.667  -0.774  1.00  0.00     0.036 C 
HETATM   13  C13 UNL     1      -6.067   0.751  -0.356  1.00  0.00     0.002 C 
HETATM   14  C14 UNL     1      -6.293   0.589   1.119  1.00  0.00     0.000 C 
HETATM   15  C15 UNL     1      -5.721  -0.788   1.475  1.00  0.00     0.002 C 
HETATM   16  C16 UNL     1      -4.202  -0.601   1.350  1.00  0.00     0.036 C 
ENDBRANCH   8  11
ENDBRANCH   3   5
BRANCH   2  17
HETATM   17  C2  UNL     1       3.301  -1.467  -0.905  1.00  0.00     0.225 C 
BRANCH  17  18
HETATM   18  N1  UNL     1       4.697  -1.097  -0.886  1.00  0.00    -0.348 N 
HETATM   19  C3  UNL     1       5.265  -0.636   0.316  1.00  0.00     0.259 C 
HETATM   20  O2  UNL     1       4.686  -0.508   1.416  1.00  0.00    -0.267 OA
ATOM     21  H1  UNL     1       5.263  -1.169  -1.732  1.00  0.00     0.163 HD
BRANCH  19  22
HETATM   22  C4  UNL     1       6.698  -0.257   0.298  1.00  0.00     0.074 A 
HETATM   23  C5  UNL     1       7.570  -0.289  -0.749  1.00  0.00     0.027 A 
HETATM   24  C6  UNL     1       8.833   0.109  -0.522  1.00  0.00     0.033 A 
HETATM   25  C7  UNL     1       9.141   0.514   0.749  1.00  0.00     0.075 A 
HETATM   26 CL1  UNL     1      10.711   1.088   1.345  1.00  0.00    -0.076 Cl
HETATM   27  S1  UNL     1       7.666   0.330   1.583  1.00  0.00    -0.072 SA
ENDBRANCH  19  22
ENDBRANCH  17  18
ENDBRANCH   2  17
TORSDOF 5
