REMARK  7 active torsions:
REMARK  status: ('A' for Active; 'I' for Inactive)
REMARK    1  A    between atoms: C4_5  and  O1_6 
REMARK    2  A    between atoms: O1_6  and  C5_7 
REMARK    3  A    between atoms: C8_10  and  C9_11 
REMARK    4  A    between atoms: C9_11  and  N1_12 
REMARK    5  A    between atoms: N1_12  and  C10_14 
REMARK    6  A    between atoms: C13_19  and  N3_20 
REMARK    7  A    between atoms: N3_20  and  C14_22 
ROOT
HETATM    1  N1  UNL     1      -0.208  -1.051   0.820  1.00  0.00    -0.222 N 
ATOM      2  H1  UNL     1       0.359  -1.298   1.631  1.00  0.00     0.178 HD
ENDROOT
BRANCH   1   3
HETATM    3  C9  UNL     1       0.360  -1.028  -0.514  1.00  0.00     0.176 C 
BRANCH   3   4
HETATM    4  C8  UNL     1       1.830  -1.197  -0.404  1.00  0.00    -0.040 A 
HETATM    5  C7  UNL     1       2.622  -0.073  -0.278  1.00  0.00     0.011 A 
HETATM    6  C6  UNL     1       3.991  -0.184  -0.173  1.00  0.00     0.038 A 
HETATM    7  C5  UNL     1       4.611  -1.416  -0.191  1.00  0.00     0.076 A 
HETATM    8  C20 UNL     1       3.831  -2.547  -0.317  1.00  0.00     0.038 A 
HETATM    9  C19 UNL     1       2.454  -2.427  -0.422  1.00  0.00     0.011 A 
BRANCH   7  10
HETATM   10  O1  UNL     1       5.984  -1.582  -0.089  1.00  0.00    -0.311 OA
BRANCH  10  11
HETATM   11  C4  UNL     1       6.865  -0.524   0.041  1.00  0.00     0.076 A 
HETATM   12  C3  UNL     1       7.208  -0.061   1.292  1.00  0.00     0.039 A 
HETATM   13  C2  UNL     1       8.083   0.990   1.426  1.00  0.00     0.026 A 
HETATM   14  C1  UNL     1       8.648   1.621   0.328  1.00  0.00     0.034 A 
HETATM   15 CL1  UNL     1       9.764   2.961   0.483  1.00  0.00    -0.084 Cl
HETATM   16  C22 UNL     1       8.291   1.142  -0.918  1.00  0.00     0.026 A 
HETATM   17  C21 UNL     1       7.415   0.088  -1.060  1.00  0.00     0.039 A 
ENDBRANCH  10  11
ENDBRANCH   7  10
ENDBRANCH   3   4
ENDBRANCH   1   3
BRANCH   1  18
HETATM   18  C10 UNL     1      -1.458  -0.747   0.946  1.00  0.00     0.679 A 
HETATM   19  N2  UNL     1      -1.990  -0.769   2.197  1.00  0.00    -0.202 N 
HETATM   20  C11 UNL     1      -3.288  -0.461   2.387  1.00  0.00     0.110 A 
ATOM     21  H2  UNL     1      -1.405  -1.019   2.994  1.00  0.00     0.183 HD
HETATM   22  C12 UNL     1      -4.108  -0.117   1.319  1.00  0.00     0.066 A 
HETATM   23  C13 UNL     1      -3.564  -0.099   0.073  1.00  0.00     0.122 A 
HETATM   24  N4  UNL     1      -2.254  -0.416  -0.073  1.00  0.00    -0.177 N 
ATOM     25  H4  UNL     1      -1.855  -0.401  -1.012  1.00  0.00     0.186 HD
BRANCH  23  26
HETATM   26  N3  UNL     1      -4.215   0.202  -1.000  1.00  0.00    -0.344 N 
ATOM     27  H3  UNL     1      -3.702   0.181  -1.882  1.00  0.00     0.167 HD
BRANCH  26  28
HETATM   28  C14 UNL     1      -5.570   0.555  -1.050  1.00  0.00     0.030 C 
HETATM   29  C15 UNL     1      -5.914   1.818  -1.238  1.00  0.00     0.003 C 
HETATM   30  C16 UNL     1      -7.325   2.279  -1.304  1.00  0.00     0.055 C 
HETATM   31  C17 UNL     1      -8.290   1.218  -0.890  1.00  0.00     0.172 C 
HETATM   32  O2  UNL     1      -7.702   0.195  -0.174  1.00  0.00    -0.385 OA
HETATM   33  C18 UNL     1      -6.679  -0.434  -0.899  1.00  0.00     0.224 C 
ENDBRANCH  26  28
ENDBRANCH  23  26
ENDBRANCH   1  18
TORSDOF 7
