REMARK  4 active torsions:
REMARK  status: ('A' for Active; 'I' for Inactive)
REMARK    1  A    between atoms: N1_1  and  C1_5 
REMARK    2  A    between atoms: C1_5  and  C2_6 
REMARK    3  A    between atoms: C2_6  and  S1_7 
REMARK    4  A    between atoms: S1_7  and  N2_8 
ROOT
HETATM    1  C1  UNL     1      -0.426   0.140  -0.254  1.00  0.00     0.310 C 
HETATM    2  C3  UNL     1      -0.892  -0.885   0.743  1.00  0.00     0.180 C 
HETATM    3  S2  UNL     1      -2.586  -0.345   1.017  1.00  0.00     0.045 S 
HETATM    4  O3  UNL     1      -2.800   0.008   2.656  1.00  0.00    -0.256 OA
HETATM    5  C4  UNL     1      -2.475   1.202   0.104  1.00  0.00     0.343 C 
HETATM    6  N3  UNL     1      -1.078   1.379   0.029  1.00  0.00    -0.028 N 
ATOM      7  H31 UNL     1      -0.824   2.102  -0.644  1.00  0.00     0.281 HD
ATOM      8  H32 UNL     1      -0.707   1.817   0.872  1.00  0.00     0.281 HD
ENDROOT
BRANCH   1   9
HETATM    9  N1  UNL     1      -0.761  -0.292  -1.578  1.00  0.00    -0.043 N 
ATOM     10  H13 UNL     1      -0.454   0.386  -2.275  1.00  0.00     0.277 HD
ATOM     11  H12 UNL     1      -0.189  -1.087  -1.861  1.00  0.00     0.277 HD
ATOM     12  H11 UNL     1      -1.755  -0.499  -1.680  1.00  0.00     0.277 HD
ENDBRANCH   1   9
BRANCH   1  13
HETATM   13  C2  UNL     1       1.051   0.448  -0.103  1.00  0.00     0.233 C 
BRANCH  13  14
HETATM   14  S1  UNL     1       2.096  -0.919  -0.429  1.00  0.00     0.228 S 
HETATM   15  O1  UNL     1       2.018  -1.441  -1.810  1.00  0.00    -0.206 OA
HETATM   16  O2  UNL     1       1.892  -2.014   0.579  1.00  0.00    -0.206 OA
BRANCH  14  17
HETATM   17  N2  UNL     1       3.733  -0.359  -0.201  1.00  0.00    -0.328 N 
ATOM     18  H22 UNL     1       4.011   0.584   0.070  1.00  0.00     0.168 HD
ATOM     19  H21 UNL     1       4.342  -1.155  -0.391  1.00  0.00     0.168 HD
ENDBRANCH  14  17
ENDBRANCH  13  14
ENDBRANCH   1  13
TORSDOF 4
