REMARK  6 active torsions:
REMARK  status: ('A' for Active; 'I' for Inactive)
REMARK    1  A    between atoms: N1_1  and  C1_4 
REMARK    2  A    between atoms: C2_7  and  O1_8 
REMARK    3  A    between atoms: C3_10  and  C4_11 
REMARK    4  A    between atoms: C4_11  and  C5_12 
REMARK    5  A    between atoms: N3_15  and  N4_16 
REMARK    6  A    between atoms: N5_19  and  O2_20 
ROOT
HETATM    1  C1  UNL     1      -3.577  -0.545   0.568  1.00  0.00     0.678 A 
HETATM    2  N2  UNL     1      -3.428   0.778   0.450  1.00  0.00    -0.169 N 
ATOM      3  H2  UNL     1      -4.075   1.476   0.817  1.00  0.00     0.186 HD
HETATM    4  C2  UNL     1      -2.299   1.051  -0.224  1.00  0.00     0.179 A 
HETATM    5  C3  UNL     1      -1.716  -0.151  -0.541  1.00  0.00     0.082 A 
HETATM    6  N6  UNL     1      -2.517  -1.106  -0.046  1.00  0.00    -0.191 N 
ATOM      7  H6  UNL     1      -2.349  -2.109  -0.123  1.00  0.00     0.184 HD
ENDROOT
BRANCH   5   8
HETATM    8  C4  UNL     1      -0.468  -0.403  -1.269  1.00  0.00     0.102 C 
BRANCH   8   9
HETATM    9  C5  UNL     1       0.757  -0.187  -0.490  1.00  0.00    -0.031 A 
HETATM   10  C6  UNL     1       1.388   1.031  -0.491  1.00  0.00     0.030 A 
HETATM   11  C7  UNL     1       2.540   1.262   0.233  1.00  0.00     0.139 A 
HETATM   12  N3  UNL     1       3.067   0.263   0.967  1.00  0.00    -0.189 N 
HETATM   13  N5  UNL     1       2.473  -0.922   0.982  1.00  0.00    -0.154 N 
HETATM   14  C8  UNL     1       1.349  -1.181   0.288  1.00  0.00     0.153 A 
BRANCH  12  15
HETATM   15  N4  UNL     1       4.239   0.467   1.714  1.00  0.00    -0.323 N 
ATOM     16  H42 UNL     1       4.696   1.379   1.702  1.00  0.00     0.179 HD
ATOM     17  H41 UNL     1       4.638  -0.289   2.270  1.00  0.00     0.179 HD
ENDBRANCH  12  15
BRANCH  13  18
HETATM   18  O2  UNL     1       3.029  -1.944   1.744  1.00  0.00    -0.267 OA
ATOM     19  H2  UNL     1       2.603  -2.793   1.755  1.00  0.00     0.247 HD
ENDBRANCH  13  18
ENDBRANCH   8   9
ENDBRANCH   5   8
BRANCH   4  20
HETATM   20  O1  UNL     1      -1.829   2.344  -0.532  1.00  0.00    -0.344 OA
ATOM     21  H1  UNL     1      -1.030   2.537  -1.009  1.00  0.00     0.219 HD
ENDBRANCH   4  20
BRANCH   1  22
HETATM   22  N1  UNL     1      -4.559  -1.186   1.161  1.00  0.00    -0.234 N 
ATOM     23  H12 UNL     1      -5.361  -0.761   1.626  1.00  0.00     0.174 HD
ATOM     24  H11 UNL     1      -4.673  -2.196   1.251  1.00  0.00     0.174 HD
ENDBRANCH   1  22
TORSDOF 6
