REMARK  5 active torsions:
REMARK  status: ('A' for Active; 'I' for Inactive)
REMARK    1  A    between atoms: C7_11  and  S1_12 
REMARK    2  A    between atoms: S1_12  and  C8_13 
REMARK    3  A    between atoms: C8_13  and  C9_14 
REMARK       I    between atoms: C9_14  and  N3_16 
REMARK    4  A    between atoms: C12_19  and  C13_20 
REMARK       I    between atoms: C13_20  and  N4_22 
REMARK    5  A    between atoms: N4_22  and  C14_24 
ROOT
HETATM    1  C9  UNL     1      -1.924   0.196  -1.021  1.00  0.00     0.229 C 
HETATM    2  O1  UNL     1      -2.541  -0.801  -0.618  1.00  0.00    -0.273 OA
HETATM    3  N3  UNL     1      -0.545   0.296  -0.628  1.00  0.00    -0.351 N 
HETATM    4  C10 UNL     1       0.014  -0.731   0.207  1.00  0.00     0.126 C 
HETATM    5  C11 UNL     1       1.509  -0.757   0.220  1.00  0.00     0.034 C 
HETATM    6  C12 UNL     1       2.075   0.587   0.594  1.00  0.00     0.081 C 
HETATM    7  C19 UNL     1       1.297   1.751   0.083  1.00  0.00     0.034 C 
HETATM    8  C20 UNL     1       0.320   1.374  -1.038  1.00  0.00     0.126 C 
ENDROOT
BRANCH   1   9
HETATM    9  C8  UNL     1      -2.436   1.286  -1.852  1.00  0.00     0.183 C 
BRANCH   9  10
HETATM   10  S1  UNL     1      -4.128   1.262  -2.368  1.00  0.00    -0.102 SA
BRANCH  10  11
HETATM   11  C7  UNL     1      -5.253   1.528  -1.036  1.00  0.00     0.081 A 
HETATM   12  C4  UNL     1      -5.918   0.536  -0.359  1.00  0.00     0.029 A 
HETATM   13  C3  UNL     1      -6.012  -0.933  -0.531  1.00  0.00     0.078 C 
HETATM   14  C5  UNL     1      -6.761   0.821   0.716  1.00  0.00     0.152 A 
HETATM   15  C2  UNL     1      -7.373  -1.228   0.090  1.00  0.00     0.131 C 
HETATM   16  C1  UNL     1      -7.485  -2.661   0.507  1.00  0.00     0.040 C 
HETATM   17  O3  UNL     1      -7.310  -0.361   1.224  1.00  0.00    -0.330 OA
HETATM   18  N1  UNL     1      -6.949   2.082   1.122  1.00  0.00    -0.333 N 
HETATM   19  C6  UNL     1      -6.303   3.058   0.463  1.00  0.00     0.183 A 
ATOM     20  H1  UNL     1      -7.564   2.295   1.907  1.00  0.00     0.168 HD
HETATM   21  N2  UNL     1      -5.491   2.798  -0.569  1.00  0.00    -0.346 N 
ATOM     22  H2  UNL     1      -5.027   3.580  -1.031  1.00  0.00     0.167 HD
ENDBRANCH  10  11
ENDBRANCH   9  10
ENDBRANCH   1   9
BRANCH   6  23
HETATM   23  C13 UNL     1       3.475   0.636   0.103  1.00  0.00     0.222 C 
HETATM   24  O2  UNL     1       3.771   1.518  -0.753  1.00  0.00    -0.273 OA
HETATM   25  N4  UNL     1       4.452  -0.276   0.577  1.00  0.00    -0.356 N 
ATOM     26  H4  UNL     1       4.200  -0.981   1.269  1.00  0.00     0.162 HD
BRANCH  25  27
HETATM   27  C14 UNL     1       5.787  -0.205   0.084  1.00  0.00     0.084 C 
HETATM   28  C15 UNL     1       6.815  -0.007   1.184  1.00  0.00     0.025 C 
HETATM   29  C16 UNL     1       8.101  -0.357   0.459  1.00  0.00     0.002 C 
HETATM   30  C17 UNL     1       7.739  -1.311  -0.630  1.00  0.00     0.002 C 
HETATM   31  C18 UNL     1       6.257  -1.524  -0.491  1.00  0.00     0.025 C 
ENDBRANCH  25  27
ENDBRANCH   6  23
TORSDOF 5
