REMARK  6 active torsions:
REMARK  status: ('A' for Active; 'I' for Inactive)
REMARK    1  A    between atoms: C2_2  and  C3_3 
REMARK    2  A    between atoms: C3_3  and  C7_11 
REMARK    3  A    between atoms: C4_4  and  C5_5 
REMARK    4  A    between atoms: C5_5  and  N1_7 
REMARK    5  A    between atoms: C7_11  and  N2_12 
REMARK    6  A    between atoms: N2_12  and  N3_13 
ROOT
HETATM    1  C3  UNL     1      -0.483  -0.115  -0.581  1.00  0.00    -0.045 C 
HETATM    2  C4  UNL     1      -1.416   0.622  -0.003  1.00  0.00     0.013 C 
ENDROOT
BRANCH   1   3
HETATM    3  C2  UNL     1      -0.811  -1.467  -0.957  1.00  0.00    -0.002 C 
HETATM    4  C1  UNL     1       0.075  -2.229  -1.537  1.00  0.00     0.012 C 
ENDBRANCH   1   3
BRANCH   1   5
HETATM    5  C7  UNL     1       0.847   0.479  -0.819  1.00  0.00     0.167 C 
BRANCH   5   6
HETATM    6  N2  UNL     1       1.927  -0.201  -0.134  1.00  0.00    -0.160 NA
BRANCH   6   7
HETATM    7  N3  UNL     1       3.106   0.462  -0.449  1.00  0.00    -0.232 NA
HETATM    8  C8  UNL     1       4.379  -0.139  -0.191  1.00  0.00     0.125 A 
HETATM    9  C9  UNL     1       3.849   1.005   0.662  1.00  0.00     0.125 A 
ENDBRANCH   6   7
ENDBRANCH   5   6
ENDBRANCH   1   5
BRANCH   2  10
HETATM   10  C5  UNL     1      -2.783   0.129   0.280  1.00  0.00     0.203 C 
HETATM   11  C6  UNL     1      -3.700   1.313   0.529  1.00  0.00     0.044 C 
BRANCH  10  12
HETATM   12  N1  UNL     1      -2.843  -0.806   1.366  1.00  0.00    -0.072 N 
ATOM     13  H13 UNL     1      -2.205  -1.585   1.206  1.00  0.00     0.275 HD
ATOM     14  H12 UNL     1      -2.421  -0.410   2.206  1.00  0.00     0.275 HD
ATOM     15  H11 UNL     1      -3.785  -1.146   1.561  1.00  0.00     0.275 HD
ENDBRANCH  10  12
ENDBRANCH   2  10
TORSDOF 6
