REMARK  3 active torsions:
REMARK  status: ('A' for Active; 'I' for Inactive)
REMARK    1  A    between atoms: C4_4  and  C5_5 
REMARK    2  A    between atoms: C5_5  and  O1_6 
REMARK    3  A    between atoms: N1_8  and  O2_10 
ROOT
HETATM    1  C1  UNL     1       4.040  -0.579   0.026  1.00  0.00     0.027 C 
HETATM    2  C2  UNL     1       2.850  -0.365   0.039  1.00  0.00    -0.026 C 
HETATM    3  C3  UNL     1       1.466  -0.121   0.031  1.00  0.00    -0.007 C 
HETATM    4  C4  UNL     1       0.279   0.070   0.026  1.00  0.00    -0.007 C 
ENDROOT
BRANCH   4   5
HETATM    5  C5  UNL     1      -1.135   0.274   0.026  1.00  0.00     0.218 C 
HETATM    6  N1  UNL     1      -1.944  -0.664  -0.313  1.00  0.00    -0.240 N 
ATOM      7  H1  UNL     1      -1.554  -1.566  -0.585  1.00  0.00     0.197 HD
BRANCH   5   8
HETATM    8  O1  UNL     1      -1.678   1.492   0.394  1.00  0.00    -0.338 OA
ATOM      9  H1  UNL     1      -2.618   1.628   0.394  1.00  0.00     0.220 HD
ENDBRANCH   5   8
BRANCH   6  10
HETATM   10  O2  UNL     1      -3.294  -0.513  -0.327  1.00  0.00    -0.287 OA
ATOM     11  H2  UNL     1      -3.892  -1.207  -0.578  1.00  0.00     0.244 HD
ENDBRANCH   6  10
ENDBRANCH   4   5
TORSDOF 3
