REMARK  2 active torsions:
REMARK  status: ('A' for Active; 'I' for Inactive)
REMARK    1  A    between atoms: O1_1  and  N1_3 
REMARK    2  A    between atoms: N1_3  and  C1_5 
ROOT
HETATM    1  C1  UNL     1       1.143   0.489  -0.077  1.00  0.00     0.124 C 
HETATM    2  C2  UNL     1       0.157   1.447  -0.002  1.00  0.00     0.050 C 
HETATM    3  C3  UNL     1      -1.224   1.270   0.140  1.00  0.00     0.004 C 
HETATM    4  C4  UNL     1      -1.937   0.081   0.183  1.00  0.00     0.001 C 
HETATM    5  C5  UNL     1      -1.445  -1.168  -0.158  1.00  0.00     0.017 C 
HETATM    6  C6  UNL     1      -0.173  -1.487  -0.590  1.00  0.00     0.089 C 
HETATM    7  N2  UNL     1       0.974  -0.779  -0.539  1.00  0.00    -0.351 N 
ATOM      8  H2  UNL     1       1.810  -1.248  -0.887  1.00  0.00     0.166 HD
ENDROOT
BRANCH   1   9
HETATM    9  N1  UNL     1       2.325   0.830   0.328  1.00  0.00    -0.253 N 
ATOM     10  H1  UNL     1       2.499   1.770   0.684  1.00  0.00     0.196 HD
BRANCH   9  11
HETATM   11  O1  UNL     1       3.340  -0.093   0.271  1.00  0.00    -0.288 OA
ATOM     12  H1  UNL     1       4.207   0.157   0.568  1.00  0.00     0.244 HD
ENDBRANCH   9  11
ENDBRANCH   1   9
TORSDOF 2
