REMARK  1 active torsions:
REMARK  status: ('A' for Active; 'I' for Inactive)
REMARK    1  A    between atoms: C5_6  and  O2_7 
ROOT
HETATM    1  C1  UNL     1       2.434  -0.331  -0.228  1.00  0.00     0.071 C 
HETATM    2  C2  UNL     1       1.018  -0.572  -0.753  1.00  0.00     0.259 C 
HETATM    3  O1  UNL     1       0.265  -1.008   0.316  1.00  0.00    -0.352 OA
HETATM    4  C3  UNL     1      -0.796  -0.150   0.482  1.00  0.00     0.175 C 
HETATM    5  C4  UNL     1      -2.023  -0.802  -0.104  1.00  0.00     0.044 C 
HETATM    6  C5  UNL     1      -0.378   1.088  -0.259  1.00  0.00     0.288 C 
HETATM    7  O3  UNL     1       0.448   0.585  -1.244  1.00  0.00    -0.330 OA
ENDROOT
BRANCH   6   8
HETATM    8  O2  UNL     1      -1.431   1.839  -0.733  1.00  0.00    -0.369 OA
ATOM      9  H2  UNL     1      -1.167   2.622  -1.202  1.00  0.00     0.212 HD
ENDBRANCH   6   8
TORSDOF 1
