REMARK  1 active torsions:
REMARK  status: ('A' for Active; 'I' for Inactive)
REMARK    1  A    between atoms: O1_2  and  C2_3 
REMARK       I    between atoms: N1_5  and  C4_7 
ROOT
HETATM    1  C2  UNL     1      -0.795  -0.160  -0.191  1.00  0.00     0.115 C 
HETATM    2  C3  UNL     1      -0.964  -1.610   0.024  1.00  0.00     0.097 C 
HETATM    3  N1  UNL     1       0.284   0.470   0.027  1.00  0.00    -0.315 N 
ATOM      4  H1  UNL     1       0.282   1.473  -0.158  1.00  0.00     0.170 HD
HETATM    5  C4  UNL     1       1.485  -0.091   0.502  1.00  0.00     0.187 C 
HETATM    6  N2  UNL     1       1.648  -0.422   1.728  1.00  0.00    -0.373 N 
ATOM      7  H21 UNL     1       2.518  -0.828   2.072  1.00  0.00     0.158 HD
ATOM      8  H22 UNL     1       0.888  -0.278   2.393  1.00  0.00     0.158 HD
HETATM    9  N3  UNL     1       2.538  -0.291  -0.419  1.00  0.00    -0.064 NA
ENDROOT
BRANCH   1  10
HETATM   10  O1  UNL     1      -1.884   0.564  -0.661  1.00  0.00    -0.344 OA
HETATM   11  C1  UNL     1      -1.860   1.990  -0.502  1.00  0.00     0.211 C 
ENDBRANCH   1  10
TORSDOF 1
