REMARK  6 active torsions:
REMARK  status: ('A' for Active; 'I' for Inactive)
REMARK    1  A    between atoms: O1_2  and  C2_3 
REMARK    2  A    between atoms: C4_5  and  O2_6 
REMARK    3  A    between atoms: C18_20  and  C19_21 
REMARK    4  A    between atoms: C21_23  and  O3_24 
REMARK    5  A    between atoms: C23_26  and  O4_27 
REMARK    6  A    between atoms: C24_29  and  O5_30 
ROOT
HETATM    1  C2  UNL     1      -2.889  -2.534   0.447  1.00  0.00     0.071 A 
HETATM    2  C3  UNL     1      -1.661  -3.005  -0.023  1.00  0.00     0.074 A 
HETATM    3  C4  UNL     1      -0.658  -2.171  -0.450  1.00  0.00     0.078 A 
HETATM    4  C6  UNL     1      -0.908  -0.785  -0.398  1.00  0.00    -0.004 A 
HETATM    5  C7  UNL     1      -2.096  -0.309   0.054  1.00  0.00    -0.033 A 
HETATM    6  C8  UNL     1      -3.101  -1.181   0.483  1.00  0.00     0.045 A 
HETATM    7  C9  UNL     1      -2.423   1.133   0.118  1.00  0.00     0.008 C 
HETATM    8  C10 UNL     1      -2.347   1.568   1.561  1.00  0.00     0.025 C 
HETATM    9  C11 UNL     1      -3.832   1.394  -0.392  1.00  0.00     0.025 C 
HETATM   10  C12 UNL     1      -1.448   1.949  -0.651  1.00  0.00    -0.035 A 
HETATM   11  C13 UNL     1      -1.821   3.259  -0.907  1.00  0.00     0.048 A 
HETATM   12  C14 UNL     1      -0.979   4.056  -1.620  1.00  0.00     0.105 A 
HETATM   13  C15 UNL     1       0.211   3.564  -2.073  1.00  0.00     0.105 A 
HETATM   14  C16 UNL     1       0.582   2.273  -1.821  1.00  0.00     0.048 A 
HETATM   15  C17 UNL     1      -0.257   1.450  -1.101  1.00  0.00    -0.035 A 
HETATM   16  C18 UNL     1       0.167   0.088  -0.839  1.00  0.00     0.088 C 
HETATM   17  O6  UNL     1       0.817   4.627  -2.756  1.00  0.00    -0.323 OA
HETATM   18  C27 UNL     1       0.144   5.819  -2.472  1.00  0.00     0.352 C 
HETATM   19  O7  UNL     1      -1.124   5.395  -2.007  1.00  0.00    -0.323 OA
ENDROOT
BRANCH  16  20
HETATM   20  C19 UNL     1       1.408  -0.048  -0.048  1.00  0.00    -0.040 A 
HETATM   21  C20 UNL     1       2.603  -0.268  -0.687  1.00  0.00     0.048 A 
HETATM   22  C21 UNL     1       3.808  -0.442  -0.017  1.00  0.00     0.104 A 
HETATM   23  C23 UNL     1       3.829  -0.393   1.357  1.00  0.00     0.133 A 
HETATM   24  C24 UNL     1       2.633  -0.172   2.017  1.00  0.00     0.104 A 
HETATM   25  C26 UNL     1       1.446  -0.002   1.325  1.00  0.00     0.048 A 
BRANCH  22  26
HETATM   26  O3  UNL     1       4.967  -0.657  -0.722  1.00  0.00    -0.353 OA
HETATM   27  C22 UNL     1       5.060  -0.731  -2.107  1.00  0.00     0.210 C 
ENDBRANCH  22  26
BRANCH  23  28
HETATM   28  O4  UNL     1       5.021  -0.563   2.087  1.00  0.00    -0.356 OA
ATOM     29  H4  UNL     1       5.036  -0.529   3.036  1.00  0.00     0.218 HD
ENDBRANCH  23  28
BRANCH  24  30
HETATM   30  O5  UNL     1       2.663  -0.124   3.424  1.00  0.00    -0.353 OA
HETATM   31  C25 UNL     1       1.428   0.123   4.112  1.00  0.00     0.210 C 
ENDBRANCH  24  30
ENDBRANCH  16  20
BRANCH   3  32
HETATM   32  O2  UNL     1       0.572  -2.563  -0.924  1.00  0.00    -0.355 OA
HETATM   33  C5  UNL     1       0.844  -3.949  -0.986  1.00  0.00     0.210 C 
ENDBRANCH   3  32
BRANCH   1  34
HETATM   34  O1  UNL     1      -3.853  -3.425   0.860  1.00  0.00    -0.356 OA
HETATM   35  C1  UNL     1      -3.586  -4.808   0.808  1.00  0.00     0.210 C 
ENDBRANCH   1  34
TORSDOF 6
