REMARK  6 active torsions:
REMARK  status: ('A' for Active; 'I' for Inactive)
REMARK    1  A    between atoms: C6_8  and  O3_9 
REMARK    2  A    between atoms: O3_9  and  C7_10 
REMARK    3  A    between atoms: C14_19  and  O6_20 
REMARK    4  A    between atoms: C17_25  and  C19_27 
REMARK    5  A    between atoms: C19_27  and  C20_28 
REMARK    6  A    between atoms: C20_28  and  C21_29 
ROOT
HETATM    1  C1  UNL     1       1.091  -3.100  -1.486  1.00  0.00     0.023 C 
HETATM    2  C2  UNL     1       0.767  -1.811  -1.453  1.00  0.00     0.010 C 
HETATM    3  C3  UNL     1       1.085  -0.702  -2.376  1.00  0.00     0.221 C 
HETATM    4  C4  UNL     1       0.898  -0.917  -3.833  1.00  0.00     0.087 C 
HETATM    5  O1  UNL     1       2.334  -0.149  -2.209  1.00  0.00    -0.196 OA
HETATM    6  O2  UNL     1       2.478   0.927  -2.907  1.00  0.00    -0.235 OA
HETATM    7  C5  UNL     1       3.296   1.776  -2.138  1.00  0.00     0.242 C 
HETATM    8  C6  UNL     1       3.286   1.307  -0.673  1.00  0.00     0.158 C 
HETATM    9  C9  UNL     1       1.931   1.596  -0.106  1.00  0.00     0.036 C 
HETATM   10  C10 UNL     1       1.357   0.733   0.893  1.00  0.00     0.022 C 
HETATM   11  C11 UNL     1       0.754  -0.610   0.641  1.00  0.00     0.044 C 
HETATM   12  C12 UNL     1       1.911  -1.600   0.893  1.00  0.00     0.026 C 
HETATM   13  C13 UNL     1      -0.076  -0.808   1.890  1.00  0.00     0.101 A 
HETATM   14  O5  UNL     1       0.349  -1.408   2.994  1.00  0.00    -0.289 OA
HETATM   15  C14 UNL     1      -0.519  -1.462   3.933  1.00  0.00     0.185 A 
HETATM   16  C15 UNL     1      -1.668  -0.857   3.486  1.00  0.00     0.103 A 
HETATM   17  C16 UNL     1      -1.357  -0.447   2.172  1.00  0.00     0.105 A 
HETATM   18  O7  UNL     1      -2.218   0.219   1.300  1.00  0.00    -0.337 OA
HETATM   19  C17 UNL     1      -2.382  -0.095  -0.083  1.00  0.00     0.071 C 
HETATM   20  C18 UNL     1      -2.087   1.227  -0.778  1.00  0.00     0.047 C 
HETATM   21  C23 UNL     1      -1.466  -1.203  -0.493  1.00  0.00     0.057 C 
HETATM   22  C24 UNL     1      -1.982  -1.807  -1.729  1.00  0.00     0.016 C 
HETATM   23  C25 UNL     1      -0.013  -0.861  -0.560  1.00  0.00     0.112 C 
HETATM   24  O9  UNL     1       0.181   0.003  -1.651  1.00  0.00    -0.332 OA
ENDROOT
BRANCH  19  25
HETATM   25  C19 UNL     1      -3.810  -0.484  -0.309  1.00  0.00     0.046 C 
BRANCH  25  26
HETATM   26  C20 UNL     1      -4.893   0.469  -0.056  1.00  0.00     0.081 C 
BRANCH  26  27
HETATM   27  C21 UNL     1      -5.181   0.944   1.288  1.00  0.00     0.123 C 
HETATM   28  C22 UNL     1      -6.061   2.163   1.511  1.00  0.00     0.091 C 
HETATM   29  O8  UNL     1      -4.769   0.441   2.303  1.00  0.00    -0.298 OA
ENDBRANCH  26  27
ENDBRANCH  25  26
ENDBRANCH  19  25
BRANCH  15  30
HETATM   30  O6  UNL     1      -0.404  -2.018   5.217  1.00  0.00    -0.341 OA
ATOM     31  H6  UNL     1      -1.048  -2.058   5.914  1.00  0.00     0.220 HD
ENDBRANCH  15  30
BRANCH   8  32
HETATM   32  O3  UNL     1       4.344   2.004  -0.016  1.00  0.00    -0.314 OA
BRANCH  32  33
HETATM   33  C7  UNL     1       5.469   1.395   0.466  1.00  0.00     0.255 C 
HETATM   34  C8  UNL     1       6.590   2.064   1.151  1.00  0.00     0.126 C 
HETATM   35  O4  UNL     1       5.560   0.141   0.310  1.00  0.00    -0.266 OA
ENDBRANCH  32  33
ENDBRANCH   8  32
TORSDOF 6
