REMARK  5 active torsions:
REMARK  status: ('A' for Active; 'I' for Inactive)
REMARK    1  A    between atoms: C2_2  and  N1_3 
REMARK    2  A    between atoms: N1_3  and  C3_5 
REMARK    3  A    between atoms: N2_9  and  C7_10 
REMARK    4  A    between atoms: C7_10  and  C8_11 
REMARK    5  A    between atoms: C8_11  and  N3_12 
ROOT
HETATM    1  C3  UNL     1       0.407  -0.269  -0.360  1.00  0.00     0.321 C 
HETATM    2  C4  UNL     1       1.227  -1.483  -0.757  1.00  0.00     0.059 C 
HETATM    3  C5  UNL     1       0.228  -2.602  -0.704  1.00  0.00     0.034 C 
HETATM    4  C6  UNL     1      -0.745  -2.142   0.342  1.00  0.00     0.275 C 
HETATM    5  N2  UNL     1      -0.756  -0.715   0.325  1.00  0.00     0.112 N 
ENDROOT
BRANCH   5   6
HETATM    6  C7  UNL     1      -1.999  -0.166  -0.081  1.00  0.00     0.302 C 
BRANCH   6   7
HETATM    7  C8  UNL     1      -2.226   1.273   0.223  1.00  0.00     0.260 C 
BRANCH   7   8
HETATM    8  N3  UNL     1      -1.275   2.178  -0.381  1.00  0.00    -0.078 N 
ATOM      9  H33 UNL     1      -0.324   1.910  -0.130  1.00  0.00     0.274 HD
ATOM     10  H32 UNL     1      -1.240   2.031  -1.390  1.00  0.00     0.274 HD
ATOM     11  H31 UNL     1      -1.431   3.164  -0.173  1.00  0.00     0.274 HD
ENDBRANCH   7   8
ENDBRANCH   6   7
ENDBRANCH   5   6
BRANCH   1  12
HETATM   12  N1  UNL     1       1.245   0.541   0.489  1.00  0.00    -0.371 N 
ATOM     13  H1  UNL     1       0.969   0.738   1.451  1.00  0.00     0.161 HD
BRANCH  12  14
HETATM   14  C2  UNL     1       2.463   1.062  -0.033  1.00  0.00     0.074 C 
HETATM   15  C1  UNL     1       2.723   2.342   0.203  1.00  0.00     0.029 C 
ENDBRANCH  12  14
ENDBRANCH   1  12
TORSDOF 5
