REMARK  2 active torsions:
REMARK  status: ('A' for Active; 'I' for Inactive)
REMARK       I    between atoms: C2_2  and  N1_4 
REMARK    1  A    between atoms: N1_4  and  C3_6 
REMARK    2  A    between atoms: C7_12  and  C8_13 
REMARK       I    between atoms: C8_13  and  N3_15 
ROOT
HETATM    1  C8  UNL     1      -1.573  -0.900  -0.279  1.00  0.00     0.253 C 
HETATM    2  O2  UNL     1      -1.720  -1.403  -1.428  1.00  0.00    -0.270 OA
HETATM    3  N3  UNL     1      -0.462  -0.071   0.002  1.00  0.00    -0.348 N 
HETATM    4  C9  UNL     1       0.502   0.211  -1.034  1.00  0.00     0.127 C 
HETATM    5  C10 UNL     1       1.023  -1.051  -1.684  1.00  0.00     0.047 C 
HETATM    6  C11 UNL     1       2.534  -1.063  -1.759  1.00  0.00     0.234 C 
HETATM    7  N4  UNL     1       3.065   0.066  -2.458  1.00  0.00    -0.075 N 
ATOM      8  H41 UNL     1       3.148   0.878  -1.847  1.00  0.00     0.277 HD
ATOM      9  H42 UNL     1       2.393   0.441  -3.128  1.00  0.00     0.277 HD
HETATM   10  C12 UNL     1       4.325  -0.251  -3.093  1.00  0.00     0.233 C 
HETATM   11  C13 UNL     1       5.434   0.517  -2.391  1.00  0.00     0.055 C 
HETATM   12  C14 UNL     1       6.403  -0.393  -1.681  1.00  0.00     0.234 C 
HETATM   13  N5  UNL     1       5.915  -0.689  -0.362  1.00  0.00    -0.073 N 
ATOM     14  H51 UNL     1       5.856  -1.698  -0.224  1.00  0.00     0.277 HD
ATOM     15  H52 UNL     1       4.928  -0.443  -0.286  1.00  0.00     0.277 HD
HETATM   16  C15 UNL     1       6.660  -0.086   0.698  1.00  0.00     0.259 C 
HETATM   17  C16 UNL     1       5.843   1.003   1.390  1.00  0.00     0.259 C 
HETATM   18  N6  UNL     1       4.618   0.374   1.836  1.00  0.00    -0.072 N 
ATOM     19  H61 UNL     1       4.814  -0.462   2.386  1.00  0.00     0.277 HD
ATOM     20  H62 UNL     1       4.121  -0.056   1.056  1.00  0.00     0.277 HD
HETATM   21  C17 UNL     1       3.762   1.283   2.559  1.00  0.00     0.251 C 
HETATM   22  C18 UNL     1       2.994   2.207   1.700  1.00  0.00     0.141 C 
HETATM   23  N7  UNL     1       1.598   2.012   1.612  1.00  0.00    -0.418 N 
ATOM     24  H7  UNL     1       0.954   2.788   1.457  1.00  0.00     0.153 HD
HETATM   25  C19 UNL     1       1.135   0.655   1.754  1.00  0.00     0.133 C 
HETATM   26  C20 UNL     1      -0.291   0.482   1.303  1.00  0.00     0.145 C 
ENDROOT
BRANCH   1  27
HETATM   27  C7  UNL     1      -2.612  -1.226   0.738  1.00  0.00     0.246 C 
HETATM   28  C6  UNL     1      -3.370  -0.134   1.234  1.00  0.00    -0.129 C 
HETATM   29  C5  UNL     1      -3.892   0.981   1.864  1.00  0.00     0.202 C 
HETATM   30  N2  UNL     1      -5.359   1.013   1.573  1.00  0.00    -0.390 N 
HETATM   31  C4  UNL     1      -6.040  -0.216   1.556  1.00  0.00     0.091 C 
ATOM     32  H2  UNL     1      -5.845   1.892   1.394  1.00  0.00     0.159 HD
HETATM   33  C3  UNL     1      -6.153  -1.103   0.382  1.00  0.00     0.215 C 
HETATM   34  C21 UNL     1      -5.052  -2.026   0.030  1.00  0.00     0.246 C 
HETATM   35  N8  UNL     1      -3.620  -2.161   0.111  1.00  0.00    -0.337 N 
HETATM   36  O3  UNL     1      -5.492  -3.083  -0.551  1.00  0.00    -0.271 OA
ATOM     37  H8  UNL     1      -3.233  -3.004  -0.313  1.00  0.00     0.164 HD
BRANCH  33  38
HETATM   38  N1  UNL     1      -6.663  -0.380  -0.778  1.00  0.00    -0.344 N 
HETATM   39  C2  UNL     1      -7.911  -0.572  -1.363  1.00  0.00     0.214 C 
HETATM   40  C1  UNL     1      -8.319   0.221  -2.539  1.00  0.00     0.117 C 
HETATM   41  O1  UNL     1      -8.702  -1.422  -0.898  1.00  0.00    -0.274 OA
ATOM     42  H1  UNL     1      -6.054   0.325  -1.195  1.00  0.00     0.163 HD
ENDBRANCH  33  38
ENDBRANCH   1  27
TORSDOF 2
