REMARK  2 active torsions:
REMARK  status: ('A' for Active; 'I' for Inactive)
REMARK    1  A    between atoms: C1_2  and  C2_4 
REMARK    2  A    between atoms: C2_4  and  C3_5 
ROOT
HETATM    1  C3  UNL     1      -3.701  -1.795  -0.010  1.00  0.00     0.186 C 
HETATM    2  N1  UNL     1      -4.518  -0.597  -0.128  1.00  0.00    -0.345 N 
ATOM      3  H1  UNL     1      -5.465  -0.719  -0.488  1.00  0.00     0.163 HD
HETATM    4  C4  UNL     1      -4.127   0.720   0.208  1.00  0.00     0.252 C 
HETATM    5  O3  UNL     1      -4.871   1.365   1.011  1.00  0.00    -0.271 OA
HETATM    6  C5  UNL     1      -2.926   1.429  -0.289  1.00  0.00     0.315 C 
HETATM    7  C6  UNL     1      -3.352   2.694  -1.050  1.00  0.00     0.076 C 
HETATM    8  C7  UNL     1      -3.114   3.413   0.238  1.00  0.00     0.276 C 
HETATM    9  N2  UNL     1      -2.302   2.278   0.691  1.00  0.00     0.103 N 
HETATM   10  C8  UNL     1      -0.929   2.517   0.252  1.00  0.00     0.300 C 
HETATM   11  C9  UNL     1      -0.176   3.443   1.149  1.00  0.00     0.262 C 
HETATM   12  N3  UNL     1       0.332   4.537   0.327  1.00  0.00    -0.073 N 
ATOM     13  H31 UNL     1       0.126   5.443   0.748  1.00  0.00     0.277 HD
ATOM     14  H32 UNL     1      -0.206   4.634  -0.534  1.00  0.00     0.277 HD
HETATM   15  C10 UNL     1       1.749   4.394   0.050  1.00  0.00     0.232 C 
HETATM   16  C11 UNL     1       2.024   3.600  -1.195  1.00  0.00     0.029 C 
HETATM   17  C12 UNL     1       2.643   2.258  -0.910  1.00  0.00     0.029 C 
HETATM   18  C13 UNL     1       3.662   2.433   0.183  1.00  0.00     0.232 C 
HETATM   19  N4  UNL     1       4.761   1.483   0.031  1.00  0.00    -0.074 N 
ATOM     20  H41 UNL     1       5.483   1.577   0.745  1.00  0.00     0.277 HD
ATOM     21  H42 UNL     1       5.358   1.675  -0.773  1.00  0.00     0.277 HD
HETATM   22  C14 UNL     1       4.141   0.159  -0.004  1.00  0.00     0.259 C 
HETATM   23  C15 UNL     1       5.170  -0.855   0.419  1.00  0.00     0.259 C 
HETATM   24  N5  UNL     1       5.062  -2.056  -0.377  1.00  0.00    -0.073 N 
ATOM     25  H51 UNL     1       5.712  -2.770  -0.048  1.00  0.00     0.277 HD
ATOM     26  H52 UNL     1       5.437  -1.906  -1.314  1.00  0.00     0.277 HD
HETATM   27  C16 UNL     1       3.718  -2.575  -0.439  1.00  0.00     0.234 C 
HETATM   28  C17 UNL     1       3.241  -3.064   0.903  1.00  0.00     0.055 C 
HETATM   29  C18 UNL     1       1.738  -2.867   1.016  1.00  0.00     0.234 C 
HETATM   30  N6  UNL     1       1.132  -3.810   0.091  1.00  0.00    -0.074 N 
ATOM     31  H61 UNL     1       1.618  -4.706   0.054  1.00  0.00     0.277 HD
ATOM     32  H62 UNL     1       1.262  -3.554  -0.888  1.00  0.00     0.277 HD
HETATM   33  C19 UNL     1      -0.262  -3.930   0.471  1.00  0.00     0.251 C 
HETATM   34  C20 UNL     1      -1.132  -3.848  -0.758  1.00  0.00     0.150 C 
HETATM   35  N7  UNL     1      -1.493  -2.520  -1.149  1.00  0.00    -0.358 N 
ATOM     36  H7  UNL     1      -0.726  -1.922  -1.457  1.00  0.00     0.162 HD
HETATM   37  C21 UNL     1      -2.776  -1.932  -1.163  1.00  0.00     0.241 C 
HETATM   38  O4  UNL     1      -3.253  -1.445  -2.257  1.00  0.00    -0.271 OA
ENDROOT
BRANCH   1  39
HETATM   39  C2  UNL     1      -4.679  -2.990   0.036  1.00  0.00     0.147 C 
BRANCH  39  40
HETATM   40  C1  UNL     1      -5.544  -2.802   1.221  1.00  0.00     0.175 C 
HETATM   41  O1  UNL     1      -5.260  -3.431   2.285  1.00  0.00    -0.648 OA
HETATM   42  O2  UNL     1      -6.643  -1.981   1.235  1.00  0.00    -0.648 OA
ENDBRANCH  39  40
ENDBRANCH   1  39
TORSDOF 2
