REMARK  4 active torsions:
REMARK  status: ('A' for Active; 'I' for Inactive)
REMARK    1  A    between atoms: C3_5  and  N2_6 
REMARK       I    between atoms: N2_6  and  C4_8 
REMARK    2  A    between atoms: C4_8  and  C5_10 
REMARK    3  A    between atoms: C5_10  and  O2_11 
REMARK    4  A    between atoms: O2_11  and  C6_12 
REMARK       I    between atoms: C6_12  and  N3_14 
ROOT
HETATM    1  C6  UNL     1       0.515  -1.206  -1.533  1.00  0.00     0.363 C 
HETATM    2  O3  UNL     1       1.016  -2.186  -2.182  1.00  0.00    -0.238 OA
HETATM    3  N3  UNL     1      -0.845  -1.232  -1.131  1.00  0.00    -0.325 N 
HETATM    4  C7  UNL     1      -1.637  -2.393  -1.477  1.00  0.00     0.155 C 
HETATM    5  C8  UNL     1      -2.792  -2.644  -0.566  1.00  0.00     0.252 C 
HETATM    6  N4  UNL     1      -4.071  -2.334  -1.226  1.00  0.00    -0.074 N 
ATOM      7  H41 UNL     1      -4.342  -3.017  -1.933  1.00  0.00     0.277 HD
ATOM      8  H42 UNL     1      -4.025  -1.527  -1.848  1.00  0.00     0.277 HD
HETATM    9  C9  UNL     1      -5.040  -2.189  -0.157  1.00  0.00     0.234 C 
HETATM   10  C10 UNL     1      -6.319  -1.554  -0.629  1.00  0.00     0.055 C 
HETATM   11  C11 UNL     1      -6.144  -0.274  -1.365  1.00  0.00     0.234 C 
HETATM   12  N5  UNL     1      -5.405   0.732  -0.686  1.00  0.00    -0.073 N 
ATOM     13  H51 UNL     1      -5.361   1.582  -1.248  1.00  0.00     0.277 HD
ATOM     14  H52 UNL     1      -4.415   0.489  -0.660  1.00  0.00     0.277 HD
HETATM   15  C12 UNL     1      -5.884   1.029   0.636  1.00  0.00     0.259 C 
HETATM   16  C13 UNL     1      -5.013   2.066   1.308  1.00  0.00     0.259 C 
HETATM   17  N6  UNL     1      -3.845   2.425   0.570  1.00  0.00    -0.072 N 
ATOM     18  H61 UNL     1      -3.920   3.380   0.219  1.00  0.00     0.277 HD
ATOM     19  H62 UNL     1      -3.809   1.921  -0.316  1.00  0.00     0.277 HD
HETATM   20  C14 UNL     1      -2.607   2.246   1.314  1.00  0.00     0.251 C 
HETATM   21  C15 UNL     1      -2.593   0.909   1.976  1.00  0.00     0.141 C 
HETATM   22  N7  UNL     1      -1.319   0.272   2.039  1.00  0.00    -0.418 N 
ATOM     23  H7  UNL     1      -0.961  -0.136   2.902  1.00  0.00     0.153 HD
HETATM   24  C16 UNL     1      -0.576   0.240   0.825  1.00  0.00     0.133 C 
HETATM   25  C17 UNL     1      -1.373  -0.101  -0.398  1.00  0.00     0.147 C 
ENDROOT
BRANCH   1  26
HETATM   26  O2  UNL     1       1.297  -0.127  -1.226  1.00  0.00    -0.295 OA
BRANCH  26  27
HETATM   27  C5  UNL     1       2.653   0.016  -1.562  1.00  0.00     0.284 C 
BRANCH  27  28
HETATM   28  C4  UNL     1       3.499  -1.011  -0.954  1.00  0.00     0.260 C 
HETATM   29  N2  UNL     1       4.910  -0.992  -1.255  1.00  0.00    -0.158 N 
ATOM     30  H2  UNL     1       5.275  -1.519  -2.048  1.00  0.00     0.187 HD
HETATM   31  O1  UNL     1       3.032  -1.884  -0.196  1.00  0.00    -0.270 OA
BRANCH  29  32
HETATM   32  C3  UNL     1       5.712  -0.295  -0.503  1.00  0.00     0.688 A 
HETATM   33  N1  UNL     1       7.018  -0.285  -0.793  1.00  0.00    -0.195 N 
HETATM   34  C2  UNL     1       7.931   0.405  -0.075  1.00  0.00     0.034 A 
ATOM     35  H1  UNL     1       7.340  -0.825  -1.596  1.00  0.00     0.184 HD
HETATM   36  C1  UNL     1       9.369   0.411  -0.401  1.00  0.00     0.069 C 
HETATM   37  C19 UNL     1       7.452   1.129   1.010  1.00  0.00     0.029 A 
HETATM   38  C18 UNL     1       6.106   1.124   1.316  1.00  0.00     0.267 A 
HETATM   39  C20 UNL     1       8.431   1.908   1.831  1.00  0.00     0.056 C 
HETATM   40  N8  UNL     1       5.262   0.410   0.550  1.00  0.00    -0.155 N 
HETATM   41  O4  UNL     1       5.675   1.785   2.304  1.00  0.00    -0.267 OA
ATOM     42  H8  UNL     1       4.266   0.403   0.771  1.00  0.00     0.187 HD
ENDBRANCH  29  32
ENDBRANCH  27  28
ENDBRANCH  26  27
ENDBRANCH   1  26
TORSDOF 4
