REMARK  8 active torsions:
REMARK  status: ('A' for Active; 'I' for Inactive)
REMARK    1  A    between atoms: C4_7  and  C5_8 
REMARK       I    between atoms: C5_8  and  N3_10 
REMARK    2  A    between atoms: N3_10  and  N4_12 
REMARK       I    between atoms: N4_12  and  C6_14 
REMARK       I    between atoms: C6_14  and  N5_16 
REMARK    3  A    between atoms: N5_16  and  N6_18 
REMARK    4  A    between atoms: N6_18  and  C7_20 
REMARK    5  A    between atoms: N7_21  and  C8_22 
REMARK    6  A    between atoms: C16_33  and  C17_34 
REMARK       I    between atoms: C17_34  and  N9_36 
REMARK    7  A    between atoms: N9_36  and  N10_38 
REMARK    8  A    between atoms: N12_44  and  C19_45 
ROOT
HETATM    1  C7  UNL     1      -1.549  -0.243   0.110  1.00  0.00     0.715 A 
HETATM    2  N7  UNL     1      -1.980  -0.542  -1.096  1.00  0.00    -0.107 N 
HETATM    3  C14 UNL     1      -3.157   0.016  -1.524  1.00  0.00     0.297 A 
HETATM    4  O3  UNL     1      -3.584  -0.259  -2.675  1.00  0.00    -0.264 OA
HETATM    5  C15 UNL     1      -3.898   0.871  -0.747  1.00  0.00     0.149 A 
HETATM    6  N8  UNL     1      -5.043   1.564  -0.855  1.00  0.00    -0.330 N 
ATOM      7  H8  UNL     1      -5.650   1.565  -1.675  1.00  0.00     0.168 HD
HETATM    8  C16 UNL     1      -5.275   2.259   0.277  1.00  0.00     0.178 A 
HETATM    9  N11 UNL     1      -4.261   2.002   1.115  1.00  0.00    -0.321 N 
ATOM     10  H11 UNL     1      -4.159   2.387   2.054  1.00  0.00     0.169 HD
HETATM   11  C18 UNL     1      -3.383   1.141   0.512  1.00  0.00     0.163 A 
HETATM   12  N12 UNL     1      -2.242   0.610   0.950  1.00  0.00    -0.128 N 
ENDROOT
BRANCH   1  13
HETATM   13  N6  UNL     1      -0.508  -0.670   0.615  1.00  0.00    -0.127 N 
ATOM     14  H6  UNL     1      -0.388  -0.297   1.557  1.00  0.00     0.206 HD
BRANCH  13  15
HETATM   15  N5  UNL     1       0.509  -1.475   0.296  1.00  0.00    -0.236 N 
HETATM   16  C6  UNL     1       1.839  -0.961   0.056  1.00  0.00     0.353 C 
HETATM   17  N4  UNL     1       2.899  -1.817  -0.278  1.00  0.00    -0.247 N 
HETATM   18  O2  UNL     1       2.014   0.259   0.155  1.00  0.00    -0.244 OA
ATOM     19  H4  UNL     1       2.709  -2.817  -0.346  1.00  0.00     0.192 HD
ATOM     20  H5  UNL     1       0.343  -2.479   0.220  1.00  0.00     0.192 HD
BRANCH  17  21
HETATM   21  N3  UNL     1       4.209  -1.371  -0.524  1.00  0.00    -0.259 N 
HETATM   22  C5  UNL     1       5.309  -1.769   0.240  1.00  0.00     0.304 C 
HETATM   23  O1  UNL     1       5.024  -2.583   1.198  1.00  0.00    -0.263 OA
ATOM     24  H3  UNL     1       4.364  -0.725  -1.298  1.00  0.00     0.190 HD
BRANCH  22  25
HETATM   25  C4  UNL     1       6.689  -1.390   0.091  1.00  0.00     0.177 A 
HETATM   26  N1  UNL     1       7.336  -0.610  -0.779  1.00  0.00    -0.342 N 
HETATM   27  C1  UNL     1       6.727   0.096  -1.886  1.00  0.00     0.157 C 
HETATM   28  C2  UNL     1       8.673  -0.558  -0.498  1.00  0.00     0.109 A 
HETATM   29  C3  UNL     1       8.847  -1.343   0.595  1.00  0.00     0.107 A 
HETATM   30  N2  UNL     1       7.670  -1.829   0.935  1.00  0.00    -0.346 N 
ATOM     31  H2  UNL     1       7.512  -2.453   1.726  1.00  0.00     0.167 HD
ENDBRANCH  22  25
ENDBRANCH  17  21
ENDBRANCH  13  15
ENDBRANCH   1  13
BRANCH   2  32
HETATM   32  C8  UNL     1      -1.336  -1.405  -2.015  1.00  0.00     0.060 A 
HETATM   33  C9  UNL     1      -0.440  -0.928  -2.967  1.00  0.00     0.030 A 
HETATM   34  C10 UNL     1       0.153  -1.770  -3.879  1.00  0.00     0.002 A 
HETATM   35  C11 UNL     1      -0.114  -3.122  -3.889  1.00  0.00     0.000 A 
HETATM   36  C12 UNL     1      -1.000  -3.609  -2.952  1.00  0.00     0.002 A 
HETATM   37  C13 UNL     1      -1.597  -2.759  -2.034  1.00  0.00     0.030 A 
ENDBRANCH   2  32
BRANCH  12  38
HETATM   38  C19 UNL     1      -1.760   0.912   2.248  1.00  0.00     0.059 A 
HETATM   39  C20 UNL     1      -0.548   1.547   2.449  1.00  0.00     0.030 A 
HETATM   40  C21 UNL     1      -0.091   1.833   3.720  1.00  0.00     0.002 A 
HETATM   41  C22 UNL     1      -0.814   1.501   4.840  1.00  0.00     0.000 A 
HETATM   42  C23 UNL     1      -2.037   0.862   4.658  1.00  0.00     0.002 A 
HETATM   43  C24 UNL     1      -2.490   0.577   3.369  1.00  0.00     0.030 A 
ENDBRANCH  12  38
BRANCH   8  44
HETATM   44  C17 UNL     1      -6.431   3.134   0.533  1.00  0.00     0.303 C 
HETATM   45  O4  UNL     1      -6.544   3.749   1.619  1.00  0.00    -0.263 OA
HETATM   46  N9  UNL     1      -7.432   3.291  -0.447  1.00  0.00    -0.270 N 
ATOM     47  H9  UNL     1      -7.355   2.797  -1.336  1.00  0.00     0.189 HD
BRANCH  46  48
HETATM   48  N10 UNL     1      -8.529   4.120  -0.205  1.00  0.00    -0.342 N 
ATOM     49 2H10 UNL     1      -8.591   4.607   0.689  1.00  0.00     0.176 HD
ATOM     50 1H10 UNL     1      -9.253   4.234  -0.914  1.00  0.00     0.176 HD
ENDBRANCH  46  48
ENDBRANCH   8  44
TORSDOF 8
