REMARK  8 active torsions:
REMARK  status: ('A' for Active; 'I' for Inactive)
REMARK    1  A    between atoms: O1_1  and  C1_3 
REMARK    2  A    between atoms: C1_3  and  C2_4 
REMARK    3  A    between atoms: C1_3  and  C12_26 
REMARK    4  A    between atoms: C1_3  and  C18_33 
REMARK    5  A    between atoms: C2_4  and  N1_5 
REMARK    6  A    between atoms: C4_7  and  C5_8 
REMARK    7  A    between atoms: C7_10  and  C8_11 
REMARK    8  A    between atoms: C8_11  and  N2_12 
ROOT
HETATM    1  N1  UNL     1      -1.333  -0.124   1.255  1.00  0.00    -0.283 N 
HETATM    2  C3  UNL     1      -0.167  -0.398   0.609  1.00  0.00     0.145 A 
HETATM    3  C4  UNL     1       0.897  -0.159   1.447  1.00  0.00     0.094 A 
HETATM    4  N6  UNL     1       0.346   0.264   2.596  1.00  0.00    -0.283 N 
ATOM      5  H6  UNL     1       0.858   0.533   3.436  1.00  0.00     0.188 HD
HETATM    6  N7  UNL     1      -0.979   0.275   2.458  1.00  0.00    -0.240 N 
ATOM      7  H7  UNL     1      -1.633   0.556   3.189  1.00  0.00     0.208 HD
ENDROOT
BRANCH   1   8
HETATM    8  C2  UNL     1      -2.613  -0.298   0.678  1.00  0.00     0.202 C 
BRANCH   8   9
HETATM    9  C1  UNL     1      -3.273   0.823  -0.026  1.00  0.00     0.201 C 
BRANCH   9  10
HETATM   10  O1  UNL     1      -3.467   1.893   0.865  1.00  0.00    -0.375 OA
ATOM     11  H1  UNL     1      -3.891   2.613   0.413  1.00  0.00     0.211 HD
ENDBRANCH   9  10
BRANCH   9  12
HETATM   12  C12 UNL     1      -4.668   0.355  -0.321  1.00  0.00    -0.013 A 
HETATM   13  C13 UNL     1      -5.435   0.090   0.807  1.00  0.00     0.012 A 
HETATM   14  C14 UNL     1      -6.718  -0.382   0.693  1.00  0.00     0.024 A 
HETATM   15  C15 UNL     1      -7.276  -0.604  -0.554  1.00  0.00     0.034 A 
HETATM   16 CL1  UNL     1      -8.926  -1.224  -0.707  1.00  0.00    -0.084 Cl
HETATM   17  C16 UNL     1      -6.499  -0.332  -1.643  1.00  0.00     0.024 A 
HETATM   18  C17 UNL     1      -5.193   0.148  -1.553  1.00  0.00     0.012 A 
ENDBRANCH   9  12
BRANCH   9  19
HETATM   19  C18 UNL     1      -2.552   1.380  -1.197  1.00  0.00     0.424 C 
HETATM   20  F1  UNL     1      -2.223   0.500  -2.180  1.00  0.00    -0.167 F 
HETATM   21  F2  UNL     1      -1.418   2.053  -0.817  1.00  0.00    -0.167 F 
HETATM   22  F3  UNL     1      -3.393   2.398  -1.706  1.00  0.00    -0.167 F 
ENDBRANCH   9  19
ENDBRANCH   8   9
ENDBRANCH   1   8
BRANCH   3  23
HETATM   23  C5  UNL     1       2.302  -0.388   1.128  1.00  0.00     0.079 A 
HETATM   24  C6  UNL     1       2.829  -0.858  -0.058  1.00  0.00     0.061 A 
HETATM   25  C7  UNL     1       4.209  -0.955   0.121  1.00  0.00     0.047 A 
HETATM   26  N4  UNL     1       4.481  -0.556   1.366  1.00  0.00    -0.303 N 
HETATM   27  N5  UNL     1       3.359  -0.224   1.944  1.00  0.00    -0.298 N 
ATOM     28  H4  UNL     1       5.407  -0.517   1.792  1.00  0.00     0.186 HD
ATOM     29  H5  UNL     1       3.291   0.120   2.902  1.00  0.00     0.187 HD
BRANCH  25  30
HETATM   30  C8  UNL     1       5.208  -1.418  -0.865  1.00  0.00     0.206 C 
BRANCH  30  31
HETATM   31  N2  UNL     1       6.327  -0.508  -0.902  1.00  0.00    -0.298 N 
HETATM   32  C9  UNL     1       6.577   0.594  -1.618  1.00  0.00     0.112 A 
HETATM   33  C10 UNL     1       7.825   1.093  -1.295  1.00  0.00     0.037 A 
HETATM   34  C11 UNL     1       8.332   0.250  -0.348  1.00  0.00     0.108 A 
HETATM   35  N3  UNL     1       7.420  -0.687  -0.139  1.00  0.00    -0.310 N 
ATOM     36  H3  UNL     1       7.533  -1.455   0.523  1.00  0.00     0.186 HD
ENDBRANCH  30  31
ENDBRANCH  25  30
ENDBRANCH   3  23
TORSDOF 8
