REMARK  4 active torsions:
REMARK  status: ('A' for Active; 'I' for Inactive)
REMARK    1  A    between atoms: O1_2  and  C2_3 
REMARK    2  A    between atoms: C2_3  and  C3_5 
REMARK    3  A    between atoms: C13_17  and  C14_18 
REMARK    4  A    between atoms: C14_18  and  O5_21 
ROOT
HETATM    1  C3  UNL     1       1.512   0.738  -0.192  1.00  0.00     0.086 C 
HETATM    2  C4  UNL     1       1.285   2.055   0.553  1.00  0.00     0.022 C 
HETATM    3  C5  UNL     1       0.141   2.870  -0.034  1.00  0.00     0.088 C 
HETATM    4  C6  UNL     1      -1.081   2.935   0.784  1.00  0.00     0.195 C 
HETATM    5  O3  UNL     1      -0.926   3.590   1.894  1.00  0.00    -0.289 OA
HETATM    6  C7  UNL     1      -2.406   2.410   0.576  1.00  0.00     0.202 C 
HETATM    7  O4  UNL     1      -3.413   3.221   0.597  1.00  0.00    -0.288 OA
HETATM    8  C8  UNL     1      -2.861   1.011   0.324  1.00  0.00     0.021 C 
HETATM    9  C9  UNL     1      -3.745   0.611   1.515  1.00  0.00     0.023 C 
HETATM   10  C10 UNL     1      -3.669   0.897  -0.942  1.00  0.00     0.023 C 
HETATM   11  C11 UNL     1      -1.629   0.235   0.231  1.00  0.00     0.017 C 
HETATM   12  C12 UNL     1      -1.457  -1.194   0.135  1.00  0.00     0.009 C 
HETATM   13  C13 UNL     1       0.030  -1.332  -0.314  1.00  0.00     0.020 C 
HETATM   14  C17 UNL     1       0.973  -0.487   0.478  1.00  0.00     0.022 C 
ENDROOT
BRANCH  13  15
HETATM   15  C14 UNL     1       0.370  -2.781  -0.439  1.00  0.00     0.054 C 
HETATM   16  C15 UNL     1       1.789  -3.005  -0.879  1.00  0.00     0.045 C 
HETATM   17  C16 UNL     1       0.146  -3.564   0.826  1.00  0.00     0.045 C 
BRANCH  15  18
HETATM   18  O5  UNL     1      -0.457  -3.317  -1.437  1.00  0.00    -0.390 OA
ATOM     19  H5  UNL     1      -0.241  -4.239  -1.517  1.00  0.00     0.210 HD
ENDBRANCH  15  18
ENDBRANCH  13  15
BRANCH   1  20
HETATM   20  C2  UNL     1       3.004   0.667  -0.328  1.00  0.00     0.262 C 
HETATM   21  O2  UNL     1       3.705  -0.195   0.241  1.00  0.00    -0.265 OA
BRANCH  20  22
HETATM   22  O1  UNL     1       3.681   1.590  -1.118  1.00  0.00    -0.326 OA
HETATM   23  C1  UNL     1       5.084   1.570  -1.280  1.00  0.00     0.213 C 
ENDBRANCH  20  22
ENDBRANCH   1  20
TORSDOF 4
