REMARK  4 active torsions:
REMARK  status: ('A' for Active; 'I' for Inactive)
REMARK    1  A    between atoms: N1_6  and  C7_8 
REMARK    2  A    between atoms: C7_8  and  C8_9 
REMARK    3  A    between atoms: C8_9  and  C9_10 
REMARK    4  A    between atoms: C10_12  and  C12_14 
ROOT
HETATM    1  C1  UNL     1       4.316   0.238  -0.928  1.00  0.00     0.036 C 
HETATM    2  C2  UNL     1       3.319  -0.671  -0.338  1.00  0.00    -0.028 C 
HETATM    3  C3  UNL     1       2.143  -0.296   0.095  1.00  0.00    -0.080 C 
HETATM    4  C4  UNL     1       1.717   1.120   0.018  1.00  0.00     0.062 C 
HETATM    5  C5  UNL     1       0.412   1.205   0.741  1.00  0.00     0.242 C 
HETATM    6  N1  UNL     1      -0.642   0.374   0.099  1.00  0.00    -0.060 N 
HETATM    7  C6  UNL     1      -0.935   1.096  -1.127  1.00  0.00     0.273 C 
HETATM    8  C10 UNL     1      -0.165  -0.950  -0.066  1.00  0.00     0.141 C 
HETATM    9  C11 UNL     1      -1.095  -2.006   0.546  1.00  0.00     0.048 C 
HETATM   10  C13 UNL     1       1.160  -1.223   0.681  1.00  0.00     0.074 C 
ENDROOT
BRANCH   6  11
HETATM   11  C7  UNL     1      -1.758   0.516   1.008  1.00  0.00     0.245 C 
BRANCH  11  12
HETATM   12  C8  UNL     1      -3.054   0.878   0.339  1.00  0.00     0.097 C 
BRANCH  12  13
HETATM   13  C9  UNL     1      -4.160   0.994   1.360  1.00  0.00     0.232 C 
HETATM   14  O1  UNL     1      -5.289   1.275   1.055  1.00  0.00    -0.307 OA
ENDBRANCH  12  13
ENDBRANCH  11  12
ENDBRANCH   6  11
BRANCH   8  15
HETATM   15  C12 UNL     1       0.107  -1.429  -1.456  1.00  0.00     0.154 C 
HETATM   16 CL1  UNL     1      -1.297  -1.441  -2.529  1.00  0.00    -0.128 Cl
ENDBRANCH   8  15
TORSDOF 4
