REMARK  3 active torsions:
REMARK  status: ('A' for Active; 'I' for Inactive)
REMARK    1  A    between atoms: C1_2  and  C2_3 
REMARK       I    between atoms: C1_2  and  N1_9 
REMARK    2  A    between atoms: N1_9  and  C8_11 
REMARK    3  A    between atoms: C8_11  and  C9_12 
ROOT
HETATM    1  O1  UNL     1       0.648  -2.816   0.272  1.00  0.00    -0.269 OA
HETATM    2  C1  UNL     1       0.123  -1.649   0.076  1.00  0.00     0.241 C 
HETATM    3  N1  UNL     1       1.033  -0.604  -0.096  1.00  0.00    -0.357 N 
ATOM      4  H1  UNL     1       0.694   0.345  -0.255  1.00  0.00     0.162 HD
ENDROOT
BRANCH   2   5
HETATM    5  C2  UNL     1      -1.315  -1.614   0.067  1.00  0.00     0.076 C 
HETATM    6  C3  UNL     1      -2.128  -0.613  -0.098  1.00  0.00    -0.075 C 
HETATM    7  C4  UNL     1      -3.639  -0.763  -0.079  1.00  0.00     0.034 C 
HETATM    8  C7  UNL     1      -1.837   0.815  -0.325  1.00  0.00     0.034 C 
HETATM    9  C5  UNL     1      -4.062   0.571   0.479  1.00  0.00     0.005 C 
HETATM   10  C6  UNL     1      -3.218   1.494  -0.415  1.00  0.00     0.005 C 
ENDBRANCH   2   5
BRANCH   3  11
HETATM   11  C8  UNL     1       2.452  -0.862  -0.049  1.00  0.00     0.128 C 
BRANCH  11  12
HETATM   12  C9  UNL     1       3.275   0.374  -0.253  1.00  0.00     0.019 A 
HETATM   13  C10 UNL     1       4.755   0.218  -0.223  1.00  0.00     0.023 A 
HETATM   14  C11 UNL     1       4.022   1.028   0.819  1.00  0.00     0.064 A 
HETATM   15 BR1  UNL     1       4.250   2.966   0.745  1.00  0.00    -0.091 Br
ENDBRANCH  11  12
ENDBRANCH   3  11
TORSDOF 3
