REMARK  3 active torsions:
REMARK  status: ('A' for Active; 'I' for Inactive)
REMARK    1  A    between atoms: C2_2  and  C4_4 
REMARK    2  A    between atoms: C4_4  and  C5_5 
REMARK    3  A    between atoms: C5_5  and  C7_7 
ROOT
HETATM    1  C7  UNL     1      -1.313   0.439   0.416  1.00  0.00     0.084 C 
HETATM    2  C8  UNL     1      -1.818  -0.744   1.123  1.00  0.00     0.081 C 
HETATM    3  S1  UNL     1      -1.152  -1.911   2.023  1.00  0.00    -0.065 SA
HETATM    4  N1  UNL     1      -3.126  -0.436   0.692  1.00  0.00    -0.369 N 
ATOM      5  H1  UNL     1      -4.020  -0.921   0.775  1.00  0.00     0.161 HD
HETATM    6  C9  UNL     1      -2.730   0.834   0.083  1.00  0.00     0.165 C 
HETATM    7 BR1  UNL     1      -3.336   2.382   1.039  1.00  0.00    -0.068 Br
ENDROOT
BRANCH   1   8
HETATM    8  C5  UNL     1      -0.439   0.203  -0.781  1.00  0.00    -0.005 C 
HETATM    9  C6  UNL     1      -1.237  -0.613  -1.784  1.00  0.00     0.011 C 
BRANCH   8  10
HETATM   10  C4  UNL     1       0.778  -0.548  -0.441  1.00  0.00     0.009 C 
BRANCH  10  11
HETATM   11  C2  UNL     1       1.707   0.078   0.535  1.00  0.00    -0.022 C 
HETATM   12  C1  UNL     1       2.256   1.406   0.118  1.00  0.00     0.009 C 
HETATM   13  C3  UNL     1       2.875  -0.835   0.841  1.00  0.00     0.009 C 
ENDBRANCH  10  11
ENDBRANCH   8  10
ENDBRANCH   1   8
TORSDOF 3
