REMARK  2 active torsions:
REMARK  status: ('A' for Active; 'I' for Inactive)
REMARK       I    between atoms: C1_2  and  N1_3 
REMARK    1  A    between atoms: C1_2  and  C3_7 
REMARK    2  A    between atoms: N1_3  and  C2_5 
ROOT
HETATM    1  C3  UNL     1       0.079   0.433   0.515  1.00  0.00     0.078 C 
HETATM    2  C4  UNL     1      -0.749  -0.792   0.794  1.00  0.00     0.014 C 
HETATM    3  C5  UNL     1      -2.196  -0.337   0.843  1.00  0.00     0.001 C 
HETATM    4  C6  UNL     1      -2.602   0.040  -0.562  1.00  0.00     0.000 C 
HETATM    5  C7  UNL     1      -1.730   1.170  -1.052  1.00  0.00     0.001 C 
HETATM    6  C8  UNL     1      -0.261   0.869  -0.915  1.00  0.00     0.014 C 
ENDROOT
BRANCH   1   7
HETATM    7  C1  UNL     1       1.520   0.210   0.632  1.00  0.00     0.222 C 
HETATM    8  O1  UNL     1       2.160   0.884   1.475  1.00  0.00    -0.273 OA
HETATM    9  N1  UNL     1       2.212  -0.735  -0.169  1.00  0.00    -0.351 N 
ATOM     10  H1  UNL     1       1.687  -1.280  -0.853  1.00  0.00     0.163 HD
BRANCH   9  11
HETATM   11  C2  UNL     1       3.618  -0.947  -0.049  1.00  0.00     0.208 C 
HETATM   12 BR1  UNL     1       4.653   0.641  -0.406  1.00  0.00    -0.075 Br
ENDBRANCH   9  11
ENDBRANCH   1   7
TORSDOF 2
