REMARK  5 active torsions:
REMARK  status: ('A' for Active; 'I' for Inactive)
REMARK    1  A    between atoms: C2_3  and  N3_6 
REMARK    2  A    between atoms: N3_6  and  N4_8 
REMARK    3  A    between atoms: N4_8  and  C4_10 
REMARK    4  A    between atoms: C7_13  and  N5_14 
REMARK    5  A    between atoms: N5_14  and  N6_16 
ROOT
HETATM    1  N1  UNL     1      -3.516   2.342   0.586  1.00  0.00    -0.189 NA
HETATM    2  C1  UNL     1      -3.458   1.225   0.297  1.00  0.00     0.130 C 
HETATM    3  C2  UNL     1      -3.384  -0.156  -0.060  1.00  0.00     0.209 C 
HETATM    4  C3  UNL     1      -4.322  -0.779  -0.943  1.00  0.00     0.130 C 
HETATM    5  N2  UNL     1      -5.107  -1.292  -1.652  1.00  0.00    -0.189 NA
ENDROOT
BRANCH   3   6
HETATM    6  N3  UNL     1      -2.444  -0.875   0.424  1.00  0.00    -0.282 N 
ATOM      7  H3  UNL     1      -2.388  -1.862   0.173  1.00  0.00     0.188 HD
BRANCH   6   8
HETATM    8  N4  UNL     1      -1.499  -0.336   1.285  1.00  0.00    -0.299 N 
ATOM      9  H4  UNL     1      -1.738  -0.099   2.248  1.00  0.00     0.187 HD
BRANCH   8  10
HETATM   10  C4  UNL     1      -0.185  -0.124   0.780  1.00  0.00     0.048 A 
HETATM   11  C5  UNL     1       0.714  -1.173   0.703  1.00  0.00     0.033 A 
HETATM   12  C6  UNL     1       1.998  -1.000   0.221  1.00  0.00     0.033 A 
HETATM   13  C7  UNL     1       2.455   0.226  -0.210  1.00  0.00     0.049 A 
HETATM   14  C8  UNL     1       1.546   1.261  -0.125  1.00  0.00     0.033 A 
HETATM   15  C9  UNL     1       0.273   1.107   0.349  1.00  0.00     0.033 A 
BRANCH  13  16
HETATM   16  N5  UNL     1       3.742   0.499  -0.716  1.00  0.00    -0.287 N 
ATOM     17  H5  UNL     1       3.939   1.416  -1.116  1.00  0.00     0.188 HD
BRANCH  16  18
HETATM   18  N6  UNL     1       4.646  -0.365  -0.683  1.00  0.00    -0.249 N 
HETATM   19  N7  UNL     1       5.807  -0.721  -0.715  1.00  0.00    -0.331 N 
ATOM     20  H72 UNL     1       6.282   0.174  -0.831  1.00  0.00     0.178 HD
ATOM     21  H71 UNL     1       6.544  -1.426  -0.688  1.00  0.00     0.178 HD
ATOM     22  H6  UNL     1       4.134  -1.239  -0.567  1.00  0.00     0.207 HD
ENDBRANCH  16  18
ENDBRANCH  13  16
ENDBRANCH   8  10
ENDBRANCH   6   8
ENDBRANCH   3   6
TORSDOF 5
