REMARK  6 active torsions:
REMARK  status: ('A' for Active; 'I' for Inactive)
REMARK    1  A    between atoms: N1_2  and  C3_4 
REMARK    2  A    between atoms: C3_4  and  C4_5 
REMARK    3  A    between atoms: C4_5  and  C5_6 
REMARK    4  A    between atoms: C6_7  and  C7_8 
REMARK    5  A    between atoms: C10_14  and  N3_15 
REMARK    6  A    between atoms: N3_15  and  C12_17 
ROOT
HETATM    1  C7  UNL     1      -0.262  -0.657   0.839  1.00  0.00     0.106 A 
HETATM    2  C8  UNL     1      -0.617  -1.666   1.708  1.00  0.00     0.082 A 
HETATM    3  C9  UNL     1      -1.894  -2.144   1.765  1.00  0.00     0.122 A 
HETATM    4 CL1  UNL     1      -2.369  -3.436   2.874  1.00  0.00    -0.064 Cl
HETATM    5  N2  UNL     1      -2.815  -1.605   0.945  1.00  0.00    -0.181 N 
ATOM      6  H2  UNL     1      -3.775  -1.948   0.971  1.00  0.00     0.185 HD
HETATM    7  C10 UNL     1      -2.484  -0.615   0.088  1.00  0.00     0.682 A 
HETATM    8  N4  UNL     1      -1.219  -0.152   0.043  1.00  0.00    -0.184 N 
ATOM      9  H4  UNL     1      -0.984   0.597  -0.608  1.00  0.00     0.185 HD
ENDROOT
BRANCH   1  10
HETATM   10  C6  UNL     1       1.083  -0.162   0.782  1.00  0.00    -0.048 C 
HETATM   11  C5  UNL     1       2.219   0.261   0.711  1.00  0.00    -0.098 C 
BRANCH  11  12
HETATM   12  C4  UNL     1       3.591   0.800   0.608  1.00  0.00     0.114 C 
BRANCH  12  13
HETATM   13  C3  UNL     1       4.569  -0.272   0.200  1.00  0.00     0.133 C 
BRANCH  13  14
HETATM   14  N1  UNL     1       5.894   0.223   0.086  1.00  0.00    -0.403 N 
HETATM   15  C1  UNL     1       6.141   1.445   0.318  1.00  0.00     0.114 C 
HETATM   16  C2  UNL     1       6.994  -0.643  -0.290  1.00  0.00     0.148 C 
ENDBRANCH  13  14
ENDBRANCH  12  13
ENDBRANCH  11  12
ENDBRANCH   1  10
BRANCH   7  17
HETATM   17  N3  UNL     1      -3.507  -0.103  -0.754  1.00  0.00    -0.218 N 
HETATM   18  C11 UNL     1      -3.370  -0.289  -2.166  1.00  0.00     0.169 C 
BRANCH  17  19
HETATM   19  C12 UNL     1      -4.632   0.568  -0.138  1.00  0.00     0.093 C 
HETATM   20  C13 UNL     1      -5.938  -0.100  -0.475  1.00  0.00     0.032 C 
HETATM   21  C14 UNL     1      -4.727   2.020  -0.539  1.00  0.00     0.032 C 
ENDBRANCH  17  19
ENDBRANCH   7  17
TORSDOF 6
