REMARK  7 active torsions:
REMARK  status: ('A' for Active; 'I' for Inactive)
REMARK    1  A    between atoms: C2_2  and  O1_3 
REMARK    2  A    between atoms: O1_3  and  C3_4 
REMARK    3  A    between atoms: C3_4  and  C4_6 
REMARK    4  A    between atoms: C5_7  and  C6_8 
REMARK    5  A    between atoms: C7_9  and  C8_10 
REMARK    6  A    between atoms: C7_9  and  S1_14 
REMARK    7  A    between atoms: C9_11  and  C10_12 
ROOT
HETATM    1  C6  UNL     1      -0.805   0.922   0.544  1.00  0.00     0.033 C 
HETATM    2  C7  UNL     1      -1.942   0.276   0.593  1.00  0.00     0.112 C 
ENDROOT
BRANCH   2   3
HETATM    3  C8  UNL     1      -3.204   0.993   0.769  1.00  0.00    -0.054 C 
HETATM    4  C9  UNL     1      -4.237   1.602   0.905  1.00  0.00    -0.085 C 
BRANCH   4   5
HETATM    5  C10 UNL     1      -5.497   2.329   1.075  1.00  0.00     0.208 C 
HETATM    6 CL1  UNL     1      -5.397   3.986   0.431  1.00  0.00    -0.117 Cl
ENDBRANCH   4   5
ENDBRANCH   2   3
BRANCH   2   7
HETATM    7  S1  UNL     1      -2.068  -1.445   0.454  1.00  0.00     0.179 S 
HETATM    8  C11 UNL     1      -2.175  -1.952  -1.253  1.00  0.00     0.167 C 
HETATM    9  O3  UNL     1      -0.962  -2.132   1.189  1.00  0.00    -0.222 OA
HETATM   10  O4  UNL     1      -3.360  -1.912   1.137  1.00  0.00    -0.222 OA
ENDBRANCH   2   7
BRANCH   1  11
HETATM   11  C5  UNL     1       0.494   0.373   0.377  1.00  0.00     0.008 C 
HETATM   12  C4  UNL     1       1.573   1.135   0.347  1.00  0.00     0.082 C 
BRANCH  12  13
HETATM   13  C3  UNL     1       2.916   0.608   0.178  1.00  0.00     0.282 C 
HETATM   14  O2  UNL     1       3.928   1.351   0.152  1.00  0.00    -0.260 OA
BRANCH  13  15
HETATM   15  O1  UNL     1       3.134  -0.750   0.037  1.00  0.00    -0.319 OA
BRANCH  15  16
HETATM   16  C2  UNL     1       4.461  -1.265  -0.129  1.00  0.00     0.174 C 
HETATM   17  C1  UNL     1       5.107  -0.692  -1.373  1.00  0.00     0.034 C 
ENDBRANCH  15  16
ENDBRANCH  13  15
ENDBRANCH  12  13
ENDBRANCH   1  11
TORSDOF 7
