REMARK  4 active torsions:
REMARK  status: ('A' for Active; 'I' for Inactive)
REMARK    1  A    between atoms: C2_2  and  C5_5 
REMARK    2  A    between atoms: C5_5  and  N2_8 
REMARK    3  A    between atoms: N2_8  and  C7_10 
REMARK    4  A    between atoms: C7_10  and  N3_12 
ROOT
HETATM    1  C5  UNL     1      -1.485   0.562   0.911  1.00  0.00     0.198 C 
HETATM    2  C6  UNL     1      -1.670  -0.239   2.143  1.00  0.00     0.085 C 
HETATM    3  N1  UNL     1      -1.835  -0.859   3.130  1.00  0.00    -0.195 NA
ENDROOT
BRANCH   1   4
HETATM    4  C2  UNL     1      -2.533   0.152  -0.051  1.00  0.00    -0.018 C 
HETATM    5  C1  UNL     1      -3.894   0.455   0.607  1.00  0.00     0.018 C 
HETATM    6  C3  UNL     1      -2.525   0.973  -1.326  1.00  0.00     0.018 C 
HETATM    7  C4  UNL     1      -2.601  -1.293  -0.434  1.00  0.00     0.018 C 
ENDBRANCH   1   4
BRANCH   1   8
HETATM    8  N2  UNL     1      -0.143   0.574   0.535  1.00  0.00    -0.349 N 
ATOM      9  H2  UNL     1       0.223   1.474   0.226  1.00  0.00     0.163 HD
BRANCH   8  10
HETATM   10  C7  UNL     1       0.768  -0.491   0.527  1.00  0.00     0.170 C 
HETATM   11  S1  UNL     1       0.370  -1.981   1.060  1.00  0.00    -0.041 SA
BRANCH  10  12
HETATM   12  N3  UNL     1       2.129  -0.315   0.084  1.00  0.00    -0.358 N 
HETATM   13  C8  UNL     1       2.641   0.953  -0.376  1.00  0.00     0.125 C 
HETATM   14  C9  UNL     1       3.931   0.580  -1.029  1.00  0.00     0.021 C 
HETATM   15  C10 UNL     1       4.415  -0.568  -0.163  1.00  0.00     0.021 C 
HETATM   16  C11 UNL     1       3.113  -1.340   0.044  1.00  0.00     0.125 C 
ENDBRANCH  10  12
ENDBRANCH   8  10
ENDBRANCH   1   8
TORSDOF 4
