REMARK  5 active torsions:
REMARK  status: ('A' for Active; 'I' for Inactive)
REMARK    1  A    between atoms: C3_6  and  C4_7 
REMARK    2  A    between atoms: C5_8  and  C6_9 
REMARK    3  A    between atoms: C7_10  and  C8_11 
REMARK    4  A    between atoms: C8_11  and  C9_12 
REMARK    5  A    between atoms: C9_12  and  C12_15 
ROOT
HETATM    1  C6  UNL     1       0.880  -0.680   0.384  1.00  0.00    -0.004 C 
HETATM    2  C7  UNL     1      -0.405  -0.967   0.537  1.00  0.00    -0.026 C 
ENDROOT
BRANCH   1   3
HETATM    3  C5  UNL     1       1.465   0.548   0.835  1.00  0.00     0.002 C 
HETATM    4  C4  UNL     1       2.649   0.990   0.780  1.00  0.00     0.031 C 
BRANCH   4   5
HETATM    5  C3  UNL     1       3.855   0.403   0.233  1.00  0.00     0.048 A 
HETATM    6  N2  UNL     1       4.120  -0.750  -0.371  1.00  0.00    -0.351 N 
HETATM    7  C2  UNL     1       5.454  -0.814  -0.700  1.00  0.00     0.182 A 
ATOM      8  H2  UNL     1       3.435  -1.481  -0.563  1.00  0.00     0.166 HD
HETATM    9  N1  UNL     1       6.056   0.302  -0.308  1.00  0.00    -0.355 N 
HETATM   10  C1  UNL     1       7.486   0.633  -0.472  1.00  0.00     0.156 C 
HETATM   11  C16 UNL     1       5.118   1.054   0.258  1.00  0.00     0.120 A 
ENDBRANCH   4   5
ENDBRANCH   1   3
BRANCH   2  12
HETATM   12  C8  UNL     1      -1.383  -0.137   1.154  1.00  0.00     0.036 C 
BRANCH  12  13
HETATM   13  C9  UNL     1      -2.561   0.340   0.356  1.00  0.00    -0.038 C 
HETATM   14  C10 UNL     1      -3.412   1.192   1.271  1.00  0.00     0.016 C 
HETATM   15  C11 UNL     1      -2.069   1.299  -0.741  1.00  0.00     0.016 C 
BRANCH  13  16
HETATM   16  C12 UNL     1      -3.420  -0.666  -0.298  1.00  0.00    -0.044 C 
HETATM   17  C13 UNL     1      -4.530   0.127  -1.017  1.00  0.00     0.015 C 
HETATM   18  C14 UNL     1      -2.769  -1.472  -1.394  1.00  0.00     0.015 C 
HETATM   19  C15 UNL     1      -4.143  -1.582   0.661  1.00  0.00     0.015 C 
ENDBRANCH  13  16
ENDBRANCH  12  13
ENDBRANCH   2  12
TORSDOF 5
