REMARK  4 active torsions:
REMARK  status: ('A' for Active; 'I' for Inactive)
REMARK    1  A    between atoms: C2_2  and  C3_4 
REMARK    2  A    between atoms: C3_4  and  N1_5 
REMARK       I    between atoms: N1_5  and  C4_6 
REMARK    3  A    between atoms: N1_5  and  C10_15 
REMARK       I    between atoms: C4_6  and  N2_8 
REMARK    4  A    between atoms: N2_8  and  C5_10 
ROOT
HETATM    1  N1  UNL     1      -1.220  -0.524   0.224  1.00  0.00    -0.325 N 
HETATM    2  C4  UNL     1       0.144  -0.817  -0.150  1.00  0.00     0.319 C 
HETATM    3  O1  UNL     1       0.384  -1.689  -1.014  1.00  0.00    -0.247 OA
HETATM    4  N2  UNL     1       1.247  -0.143   0.433  1.00  0.00    -0.338 N 
ATOM      5  H2  UNL     1       1.081   0.574   1.139  1.00  0.00     0.164 HD
ENDROOT
BRANCH   1   6
HETATM    6  C3  UNL     1      -1.520   0.453   1.205  1.00  0.00     0.148 C 
BRANCH   6   7
HETATM    7  C2  UNL     1      -1.651   1.865   0.794  1.00  0.00     0.096 C 
HETATM    8  C1  UNL     1      -2.709   2.205  -0.208  1.00  0.00     0.028 C 
HETATM    9 CL1  UNL     1      -2.087   2.781   2.292  1.00  0.00    -0.124 Cl
ENDBRANCH   6   7
ENDBRANCH   1   6
BRANCH   1  10
HETATM   10  C10 UNL     1      -2.217  -1.325  -0.438  1.00  0.00     0.026 C 
HETATM   11  C11 UNL     1      -1.989  -2.811  -0.111  1.00  0.00     0.037 C 
HETATM   12  C12 UNL     1      -2.046  -1.248  -1.961  1.00  0.00     0.037 C 
HETATM   13  C13 UNL     1      -3.643  -1.027  -0.132  1.00  0.00     0.037 C 
ENDBRANCH   1  10
BRANCH   4  14
HETATM   14  C5  UNL     1       2.597  -0.455   0.044  1.00  0.00     0.094 A 
HETATM   15  C6  UNL     1       3.652  -0.545   1.138  1.00  0.00     0.036 A 
HETATM   16  C7  UNL     1       3.678   0.552   0.153  1.00  0.00    -0.025 A 
HETATM   17  C8  UNL     1       4.682   0.572  -0.973  1.00  0.00     0.017 C 
HETATM   18  C9  UNL     1       3.383   1.934   0.713  1.00  0.00     0.017 C 
ENDBRANCH   4  14
TORSDOF 4
