REMARK  4 active torsions:
REMARK  status: ('A' for Active; 'I' for Inactive)
REMARK    1  A    between atoms: C2_2  and  C3_3 
REMARK    2  A    between atoms: C2_2  and  N1_9 
REMARK    3  A    between atoms: C12_14  and  O1_15 
REMARK    4  A    between atoms: C12_14  and  C13_17 
ROOT
HETATM    1  N1  UNL     1       0.336  -0.867  -0.369  1.00  0.00    -0.038 N 
HETATM    2  C8  UNL     1       0.804  -2.091   0.276  1.00  0.00     0.244 C 
HETATM    3  C9  UNL     1       2.226  -2.332  -0.173  1.00  0.00     0.038 C 
HETATM    4  C10 UNL     1       2.527  -0.989  -0.816  1.00  0.00     0.050 C 
HETATM    5  C11 UNL     1       1.187  -0.819  -1.560  1.00  0.00     0.251 C 
HETATM    6  C12 UNL     1       2.407   0.024   0.260  1.00  0.00     0.087 C 
HETATM    7  C15 UNL     1       0.884   0.270   0.328  1.00  0.00     0.281 C 
ENDROOT
BRANCH   1   8
HETATM    8  C2  UNL     1      -1.027  -0.878  -0.606  1.00  0.00     0.109 C 
HETATM    9  C1  UNL     1      -1.483  -1.720  -1.555  1.00  0.00     0.046 C 
BRANCH   8  10
HETATM   10  C3  UNL     1      -1.999  -0.084   0.117  1.00  0.00     0.045 C 
HETATM   11  C4  UNL     1      -3.427  -0.287  -0.411  1.00  0.00     0.013 C 
HETATM   12  C5  UNL     1      -4.230   0.812   0.209  1.00  0.00     0.038 C 
HETATM   13  C6  UNL     1      -3.247   1.787   0.755  1.00  0.00     0.170 C 
HETATM   14  F1  UNL     1      -3.049   1.555   2.103  1.00  0.00    -0.249 F 
HETATM   15  C7  UNL     1      -1.922   1.402   0.074  1.00  0.00     0.048 C 
ENDBRANCH   8  10
ENDBRANCH   1   8
BRANCH   6  16
HETATM   16  O1  UNL     1       2.829  -0.442   1.509  1.00  0.00    -0.388 OA
ATOM     17  H1  UNL     1       2.752   0.207   2.198  1.00  0.00     0.210 HD
ENDBRANCH   6  16
BRANCH   6  18
HETATM   18  C13 UNL     1       3.084   1.326  -0.004  1.00  0.00     0.035 C 
HETATM   19  C14 UNL     1       2.847   2.221   1.208  1.00  0.00     0.008 C 
ENDBRANCH   6  18
TORSDOF 4
