REMARK  2 active torsions:
REMARK  status: ('A' for Active; 'I' for Inactive)
REMARK    1  A    between atoms: C2_2  and  C3_4 
REMARK    2  A    between atoms: C7_12  and  C8_13 
ROOT
HETATM    1  C3  UNL     1       1.376   0.588  -0.232  1.00  0.00     0.242 C 
HETATM    2  N1  UNL     1       0.900   1.924  -0.342  1.00  0.00    -0.059 N 
ATOM      3  H11 UNL     1       1.412   2.614  -0.892  1.00  0.00     0.278 HD
ATOM      4  H12 UNL     1       0.934   2.555   0.459  1.00  0.00     0.278 HD
HETATM    5  C4  UNL     1      -0.339   1.410  -0.803  1.00  0.00     0.218 A 
HETATM    6  C5  UNL     1      -1.170   0.667   0.198  1.00  0.00     0.055 A 
HETATM    7  C6  UNL     1      -1.119   1.070   1.669  1.00  0.00     0.031 C 
HETATM    8 BR1  UNL     1      -2.989   0.423  -0.407  1.00  0.00    -0.083 Br
HETATM    9  C7  UNL     1      -0.032   0.009  -0.434  1.00  0.00     0.042 A 
ENDROOT
BRANCH   1  10
HETATM   10  C2  UNL     1       2.058   0.161   0.987  1.00  0.00     0.034 C 
HETATM   11  C1  UNL     1       1.608  -0.874   1.666  1.00  0.00     0.034 C 
HETATM   12 CL1  UNL     1       3.477   1.044   1.515  1.00  0.00    -0.088 Cl
ENDBRANCH   1  10
BRANCH   9  13
HETATM   13  C8  UNL     1      -0.060  -1.142  -1.348  1.00  0.00     0.011 C 
HETATM   14  C9  UNL     1      -1.358  -1.798  -1.629  1.00  0.00     0.006 C 
ENDBRANCH   9  13
TORSDOF 2
