REMARK  2 active torsions:
REMARK  status: ('A' for Active; 'I' for Inactive)
REMARK    1  A    between atoms: C2_2  and  C3_6 
REMARK    2  A    between atoms: C6_9  and  N2_10 
ROOT
HETATM    1  C3  UNL     1       1.648   0.837   0.016  1.00  0.00     0.056 C 
HETATM    2  C4  UNL     1       0.529  -0.038  -0.553  1.00  0.00     0.025 C 
HETATM    3  C5  UNL     1       0.684  -0.051  -2.057  1.00  0.00     0.013 C 
HETATM    4  C6  UNL     1      -0.760   0.575  -0.125  1.00  0.00     0.213 C 
HETATM    5  C10 UNL     1      -0.425   1.389   1.079  1.00  0.00     0.133 C 
HETATM    6 CL1  UNL     1      -0.289   0.501   2.575  1.00  0.00    -0.121 Cl
HETATM    7  C11 UNL     1       0.948   1.918   0.718  1.00  0.00     0.112 C 
HETATM    8 CL2  UNL     1       1.771   2.625   2.109  1.00  0.00    -0.123 Cl
ENDROOT
BRANCH   1   9
HETATM    9  C2  UNL     1       2.615   0.028   0.754  1.00  0.00    -0.018 C 
HETATM   10  C1  UNL     1       3.334  -1.059   0.040  1.00  0.00     0.063 C 
HETATM   11  N1  UNL     1       2.864   0.222   1.978  1.00  0.00    -0.405 N 
ATOM     12  H12 UNL     1       3.539  -0.343   2.493  1.00  0.00     0.155 HD
ATOM     13  H11 UNL     1       2.370   0.968   2.468  1.00  0.00     0.155 HD
ENDBRANCH   1   9
BRANCH   4  14
HETATM   14  N2  UNL     1      -1.855  -0.316   0.005  1.00  0.00    -0.072 N 
HETATM   15  C7  UNL     1      -1.525  -1.646   0.420  1.00  0.00     0.272 C 
HETATM   16  C8  UNL     1      -2.441  -0.487  -1.340  1.00  0.00     0.272 C 
HETATM   17  C9  UNL     1      -2.907   0.230   0.824  1.00  0.00     0.272 C 
ENDBRANCH   4  14
TORSDOF 2
