REMARK  5 active torsions:
REMARK  status: ('A' for Active; 'I' for Inactive)
REMARK    1  A    between atoms: C2_2  and  C3_4 
REMARK    2  A    between atoms: C6_7  and  N1_8 
REMARK    3  A    between atoms: N1_8  and  C7_10 
REMARK    4  A    between atoms: C7_10  and  N2_12 
REMARK    5  A    between atoms: N2_12  and  C8_14 
ROOT
HETATM    1  N1  UNL     1      -0.483  -0.780  -0.875  1.00  0.00    -0.362 N 
ATOM      2  H1  UNL     1      -0.404  -0.706  -1.889  1.00  0.00     0.162 HD
ENDROOT
BRANCH   1   3
HETATM    3  C6  UNL     1      -1.686  -1.357  -0.414  1.00  0.00     0.090 C 
HETATM    4  C3  UNL     1      -2.538  -0.549   0.554  1.00  0.00     0.042 C 
HETATM    5  C4  UNL     1      -3.034  -1.910   1.064  1.00  0.00     0.011 C 
HETATM    6  C5  UNL     1      -1.649  -2.435   0.637  1.00  0.00     0.026 C 
BRANCH   4   7
HETATM    7  C2  UNL     1      -3.667   0.204  -0.111  1.00  0.00     0.172 C 
HETATM    8  C1  UNL     1      -3.150   1.536  -0.602  1.00  0.00     0.045 C 
HETATM    9  F1  UNL     1      -4.137  -0.506  -1.198  1.00  0.00    -0.249 F 
ENDBRANCH   4   7
ENDBRANCH   1   3
BRANCH   1  10
HETATM   10  C7  UNL     1       0.626  -0.290  -0.157  1.00  0.00     0.168 C 
HETATM   11  S1  UNL     1       0.721  -0.293   1.494  1.00  0.00    -0.041 SA
BRANCH  10  12
HETATM   12  N2  UNL     1       1.763   0.259  -0.811  1.00  0.00    -0.359 N 
ATOM     13  H2  UNL     1       1.783   0.302  -1.830  1.00  0.00     0.162 HD
BRANCH  12  14
HETATM   14  C8  UNL     1       2.874   0.750  -0.068  1.00  0.00     0.021 C 
HETATM   15  C9  UNL     1       3.937   1.256  -1.027  1.00  0.00     0.037 C 
HETATM   16  C10 UNL     1       2.487   1.879   0.857  1.00  0.00     0.037 C 
HETATM   17  C11 UNL     1       3.475  -0.354   0.790  1.00  0.00     0.037 C 
ENDBRANCH  12  14
ENDBRANCH  10  12
ENDBRANCH   1  10
TORSDOF 5
