REMARK  2 active torsions:
REMARK  status: ('A' for Active; 'I' for Inactive)
REMARK    1  A    between atoms: N3_7  and  N4_9 
REMARK    2  A    between atoms: N4_9  and  C4_11 
ROOT
HETATM    1  N1  UNL     1       3.984  -1.189   1.657  1.00  0.00    -0.190 NA
HETATM    2  C1  UNL     1       3.075  -0.786   1.103  1.00  0.00     0.121 C 
HETATM    3  C2  UNL     1       1.936  -0.288   0.387  1.00  0.00     0.171 A 
HETATM    4  N2  UNL     1       0.765   0.088   0.901  1.00  0.00    -0.177 N 
ATOM      5  H2  UNL     1       0.506   0.076   1.888  1.00  0.00     0.185 HD
HETATM    6  C3  UNL     1      -0.010   0.485  -0.118  1.00  0.00     0.699 A 
HETATM    7  N3  UNL     1      -1.236   0.924  -0.001  1.00  0.00    -0.130 N 
ATOM      8  H3  UNL     1      -1.748   1.204  -0.838  1.00  0.00     0.205 HD
HETATM    9  N6  UNL     1       0.669   0.361  -1.276  1.00  0.00    -0.174 N 
ATOM     10  H6  UNL     1       0.313   0.594  -2.203  1.00  0.00     0.185 HD
HETATM   11  C5  UNL     1       1.907  -0.126  -1.002  1.00  0.00     0.170 A 
HETATM   12  N7  UNL     1       2.955  -0.413  -1.911  1.00  0.00    -0.079 NA
ENDROOT
BRANCH   7  13
HETATM   13  N4  UNL     1      -1.857   1.018   1.237  1.00  0.00    -0.264 N 
ATOM     14  H4  UNL     1      -1.430   1.605   1.954  1.00  0.00     0.189 HD
BRANCH  13  15
HETATM   15  C4  UNL     1      -3.064   0.331   1.550  1.00  0.00     0.200 C 
HETATM   16  N5  UNL     1      -3.695  -0.498   0.582  1.00  0.00    -0.068 NA
HETATM   17  S1  UNL     1      -3.739   0.484   3.017  1.00  0.00    -0.043 SA
ENDBRANCH  13  15
ENDBRANCH   7  13
TORSDOF 2
