REMARK  7 active torsions:
REMARK  status: ('A' for Active; 'I' for Inactive)
REMARK    1  A    between atoms: N1_1  and  S1_4 
REMARK    2  A    between atoms: S1_4  and  C1_6 
REMARK    3  A    between atoms: S1_4  and  N5_13 
REMARK    4  A    between atoms: C1_6  and  C2_7 
REMARK    5  A    between atoms: C2_7  and  N2_8 
REMARK    6  A    between atoms: N5_13  and  C4_15 
REMARK    7  A    between atoms: C4_15  and  C5_16 
ROOT
HETATM    1  S1  UNL     1      -0.057  -0.328  -0.028  1.00  0.00     0.101 S 
HETATM    2  O1  UNL     1       0.597  -1.360  -0.894  1.00  0.00    -0.229 OA
ENDROOT
BRANCH   1   3
HETATM    3  N1  UNL     1      -0.125  -0.811   1.448  1.00  0.00    -0.345 N 
ATOM      4  H12 UNL     1       0.232  -1.712   1.768  1.00  0.00     0.167 HD
ATOM      5  H11 UNL     1      -0.570  -0.108   2.038  1.00  0.00     0.167 HD
ENDBRANCH   1   3
BRANCH   1   6
HETATM    6  C1  UNL     1       0.901   1.166  -0.098  1.00  0.00     0.158 C 
BRANCH   6   7
HETATM    7  C2  UNL     1       2.287   0.943   0.417  1.00  0.00     0.137 C 
BRANCH   7   8
HETATM    8  N2  UNL     1       3.020  -0.044  -0.318  1.00  0.00    -0.366 N 
HETATM    9  C3  UNL     1       4.297  -0.093  -0.231  1.00  0.00     0.196 C 
HETATM   10  N3  UNL     1       4.983   0.829   0.594  1.00  0.00    -0.067 NA
HETATM   11  N4  UNL     1       5.070  -1.049  -0.937  1.00  0.00    -0.067 NA
ATOM     12  H2  UNL     1       2.524  -0.709  -0.912  1.00  0.00     0.161 HD
ENDBRANCH   7   8
ENDBRANCH   6   7
ENDBRANCH   1   6
BRANCH   1  13
HETATM   13  N5  UNL     1      -1.649  -0.079  -0.619  1.00  0.00    -0.336 N 
ATOM     14  H5  UNL     1      -1.912   0.523  -1.400  1.00  0.00     0.170 HD
BRANCH  13  15
HETATM   15  C4  UNL     1      -2.555  -0.875   0.187  1.00  0.00     0.135 C 
BRANCH  15  16
HETATM   16  C5  UNL     1      -3.985  -0.738  -0.239  1.00  0.00     0.004 A 
HETATM   17  C6  UNL     1      -4.565   0.655  -0.177  1.00  0.00     0.007 A 
HETATM   18  C7  UNL     1      -5.052  -0.407   0.738  1.00  0.00     0.007 A 
ENDBRANCH  15  16
ENDBRANCH  13  15
ENDBRANCH   1  13
TORSDOF 7
