REMARK  8 active torsions:
REMARK  status: ('A' for Active; 'I' for Inactive)
REMARK    1  A    between atoms: O1_1  and  N1_3 
REMARK    2  A    between atoms: C1_5  and  N2_6 
REMARK    3  A    between atoms: N2_6  and  C2_8 
REMARK    4  A    between atoms: C2_8  and  C3_9 
REMARK    5  A    between atoms: C3_9  and  N3_10 
REMARK    6  A    between atoms: N3_10  and  C4_13 
REMARK    7  A    between atoms: C4_13  and  C5_14 
REMARK    8  A    between atoms: C5_14  and  N4_15 
ROOT
HETATM    1  N3  UNL     1       0.368  -1.069   0.480  1.00  0.00    -0.072 N 
ATOM      2  H31 UNL     1       0.255  -0.061   0.591  1.00  0.00     0.277 HD
ATOM      3  H32 UNL     1       0.325  -1.301   1.472  1.00  0.00     0.277 HD
ENDROOT
BRANCH   1   4
HETATM    4  C3  UNL     1       1.630  -1.460  -0.169  1.00  0.00     0.251 C 
BRANCH   4   5
HETATM    5  C2  UNL     1       2.842  -1.051   0.563  1.00  0.00     0.148 C 
BRANCH   5   6
HETATM    6  N2  UNL     1       2.935   0.373   0.738  1.00  0.00    -0.383 N 
ATOM      7  H2  UNL     1       2.804   0.756   1.674  1.00  0.00     0.160 HD
BRANCH   6   8
HETATM    8  C1  UNL     1       3.197   1.261  -0.314  1.00  0.00     0.199 C 
HETATM    9  N1  UNL     1       2.776   2.469  -0.363  1.00  0.00    -0.265 N 
ATOM     10  H1  UNL     1       2.214   2.824   0.410  1.00  0.00     0.194 HD
BRANCH   9  11
HETATM   11  O1  UNL     1       3.054   3.312  -1.424  1.00  0.00    -0.289 OA
ATOM     12  H1  UNL     1       2.742   4.208  -1.460  1.00  0.00     0.244 HD
ENDBRANCH   9  11
ENDBRANCH   6   8
ENDBRANCH   5   6
ENDBRANCH   4   5
ENDBRANCH   1   4
BRANCH   1  13
HETATM   13  C4  UNL     1      -0.674  -1.693  -0.316  1.00  0.00     0.252 C 
BRANCH  13  14
HETATM   14  C5  UNL     1      -2.066  -1.447   0.106  1.00  0.00     0.156 C 
BRANCH  14  15
HETATM   15  N4  UNL     1      -2.527  -0.089   0.081  1.00  0.00    -0.350 N 
HETATM   16  C6  UNL     1      -3.128   0.449  -1.036  1.00  0.00     0.108 A 
HETATM   17  C7  UNL     1      -3.464   1.749  -0.758  1.00  0.00     0.106 A 
HETATM   18  N5  UNL     1      -3.088   2.027   0.492  1.00  0.00    -0.361 N 
HETATM   19  C8  UNL     1      -2.519   0.881   0.972  1.00  0.00     0.182 A 
ATOM     20  H5  UNL     1      -3.202   2.912   0.987  1.00  0.00     0.166 HD
ENDBRANCH  14  15
ENDBRANCH  13  14
ENDBRANCH   1  13
TORSDOF 8
