REMARK  6 active torsions:
REMARK  status: ('A' for Active; 'I' for Inactive)
REMARK    1  A    between atoms: C2_2  and  N1_3 
REMARK    2  A    between atoms: N2_6  and  C5_7 
REMARK    3  A    between atoms: C5_7  and  C6_8 
REMARK    4  A    between atoms: C6_8  and  C7_9 
REMARK    5  A    between atoms: C7_9  and  N3_10 
REMARK       I    between atoms: N3_10  and  C8_12 
REMARK       I    between atoms: C8_12  and  N5_16 
REMARK    6  A    between atoms: N5_16  and  C10_18 
ROOT
HETATM    1  N3  UNL     1      -0.213   1.126  -0.311  1.00  0.00    -0.226 N 
ATOM      2  H3  UNL     1      -0.268   0.313   0.302  1.00  0.00     0.177 HD
HETATM    3  C8  UNL     1      -1.330   1.963  -0.395  1.00  0.00     0.673 C 
HETATM    4  N4  UNL     1      -1.632   2.668  -1.383  1.00  0.00    -0.231 N 
ATOM      5  H4  UNL     1      -2.487   3.206  -1.244  1.00  0.00     0.177 HD
HETATM    6  C9  UNL     1      -1.045   2.879  -2.648  1.00  0.00     0.165 C 
HETATM    7  N5  UNL     1      -2.207   2.022   0.755  1.00  0.00    -0.192 N 
ATOM      8  H5  UNL     1      -1.974   2.593   1.567  1.00  0.00     0.184 HD
ENDROOT
BRANCH   1   9
HETATM    9  C7  UNL     1       1.014   1.345  -1.041  1.00  0.00     0.139 C 
BRANCH   9  10
HETATM   10  C6  UNL     1       2.037   0.272  -0.620  1.00  0.00     0.040 C 
BRANCH  10  11
HETATM   11  C5  UNL     1       3.309   0.513  -1.389  1.00  0.00     0.129 C 
BRANCH  11  12
HETATM   12  N2  UNL     1       4.335  -0.446  -1.064  1.00  0.00    -0.333 N 
HETATM   13  C4  UNL     1       4.630  -1.720  -1.662  1.00  0.00     0.147 C 
HETATM   14  C3  UNL     1       5.269  -2.493  -0.535  1.00  0.00     0.147 C 
HETATM   15  N1  UNL     1       6.061  -1.423   0.090  1.00  0.00    -0.333 N 
HETATM   16  C19 UNL     1       5.278  -0.237  -0.012  1.00  0.00     0.320 C 
HETATM   17  O1  UNL     1       5.401   0.803   0.700  1.00  0.00    -0.247 OA
BRANCH  15  18
HETATM   18  C2  UNL     1       7.360  -1.520   0.689  1.00  0.00     0.123 C 
HETATM   19  C1  UNL     1       7.257  -1.846   2.177  1.00  0.00     0.026 C 
ENDBRANCH  15  18
ENDBRANCH  11  12
ENDBRANCH  10  11
ENDBRANCH   9  10
ENDBRANCH   1   9
BRANCH   7  20
HETATM   20  C10 UNL     1      -3.397   1.262   0.714  1.00  0.00     0.050 A 
HETATM   21  C11 UNL     1      -4.293   1.255   1.774  1.00  0.00     0.037 A 
HETATM   22  C12 UNL     1      -5.460   0.514   1.741  1.00  0.00    -0.053 A 
HETATM   23  C13 UNL     1      -6.430   0.495   2.866  1.00  0.00     0.049 C 
HETATM   24  C14 UNL     1      -5.720  -0.235   0.605  1.00  0.00    -0.050 A 
HETATM   25  C15 UNL     1      -6.957  -1.028   0.558  1.00  0.00     0.049 C 
HETATM   26  C16 UNL     1      -4.866  -0.266  -0.475  1.00  0.00    -0.053 A 
HETATM   27  C17 UNL     1      -5.175  -1.081  -1.679  1.00  0.00     0.049 C 
HETATM   28  C18 UNL     1      -3.713   0.497  -0.384  1.00  0.00     0.037 A 
ENDBRANCH   7  20
TORSDOF 6
