REMARK  7 active torsions:
REMARK  status: ('A' for Active; 'I' for Inactive)
REMARK    1  A    between atoms: C2_2  and  C3_3 
REMARK    2  A    between atoms: C3_3  and  C4_4 
REMARK    3  A    between atoms: C4_4  and  N1_5 
REMARK       I    between atoms: N1_5  and  C5_7 
REMARK    4  A    between atoms: C5_7  and  C6_9 
REMARK    5  A    between atoms: C6_9  and  C7_10 
REMARK       I    between atoms: C7_10  and  N2_12 
REMARK    6  A    between atoms: N2_12  and  C8_14 
REMARK    7  A    between atoms: C16_24  and  C17_25 
ROOT
HETATM    1  C8  UNL     1      -1.068  -0.459   0.595  1.00  0.00     0.049 A 
HETATM    2  C9  UNL     1      -0.656  -1.108   1.740  1.00  0.00     0.055 A 
HETATM    3  C10 UNL     1      -1.495  -1.306   2.818  1.00  0.00     0.007 A 
HETATM    4  C11 UNL     1      -1.024  -2.016   4.056  1.00  0.00     0.068 C 
HETATM    5  N3  UNL     1      -2.759  -0.870   2.793  1.00  0.00    -0.359 N 
ATOM      6  H3  UNL     1      -3.382  -1.015   3.588  1.00  0.00     0.166 HD
HETATM    7  C12 UNL     1      -3.186  -0.229   1.678  1.00  0.00     0.045 A 
HETATM    8  C13 UNL     1      -4.509   0.237   1.627  1.00  0.00     0.037 A 
HETATM    9  C14 UNL     1      -4.984   0.894   0.511  1.00  0.00    -0.053 A 
HETATM   10  C15 UNL     1      -6.391   1.375   0.491  1.00  0.00     0.049 C 
HETATM   11  C16 UNL     1      -4.199   1.125  -0.599  1.00  0.00    -0.052 A 
HETATM   12  C19 UNL     1      -2.901   0.659  -0.531  1.00  0.00     0.023 A 
HETATM   13  C20 UNL     1      -2.404  -0.005   0.587  1.00  0.00     0.018 A 
ENDROOT
BRANCH   1  14
HETATM   14  N2  UNL     1      -0.416  -0.222  -0.426  1.00  0.00    -0.326 N 
HETATM   15  C7  UNL     1       0.819  -0.416  -0.924  1.00  0.00     0.231 C 
HETATM   16  O2  UNL     1       1.033   0.017  -2.123  1.00  0.00    -0.273 OA
ATOM     17  H2  UNL     1      -0.993   0.276  -1.103  1.00  0.00     0.169 HD
BRANCH  15  18
HETATM   18  C6  UNL     1       1.941  -1.066  -0.245  1.00  0.00     0.205 C 
BRANCH  18  19
HETATM   19  C5  UNL     1       3.155  -1.126  -1.071  1.00  0.00     0.226 C 
HETATM   20  N1  UNL     1       4.323  -1.739  -0.546  1.00  0.00    -0.361 N 
ATOM     21  H1  UNL     1       4.279  -2.123   0.398  1.00  0.00     0.162 HD
HETATM   22  O1  UNL     1       3.198  -0.657  -2.221  1.00  0.00    -0.273 OA
BRANCH  20  23
HETATM   23  C4  UNL     1       5.560  -1.851  -1.262  1.00  0.00     0.122 C 
BRANCH  23  24
HETATM   24  C3  UNL     1       6.168  -0.531  -1.654  1.00  0.00     0.019 C 
BRANCH  24  25
HETATM   25  C2  UNL     1       6.458   0.311  -0.410  1.00  0.00    -0.003 C 
HETATM   26  C1  UNL     1       7.070   1.638  -0.799  1.00  0.00     0.005 C 
ENDBRANCH  24  25
ENDBRANCH  23  24
ENDBRANCH  20  23
ENDBRANCH  18  19
ENDBRANCH  15  18
ENDBRANCH   1  14
BRANCH  11  27
HETATM   27  C17 UNL     1      -4.751   1.827  -1.767  1.00  0.00     0.034 C 
HETATM   28  C18 UNL     1      -5.658   0.965  -2.605  1.00  0.00     0.010 C 
ENDBRANCH  11  27
TORSDOF 7
