REMARK  6 active torsions:
REMARK  status: ('A' for Active; 'I' for Inactive)
REMARK    1  A    between atoms: N1_2  and  C2_4 
REMARK    2  A    between atoms: C7_9  and  N2_10 
REMARK    3  A    between atoms: N2_10  and  C8_12 
REMARK       I    between atoms: N4_20  and  C13_21 
REMARK    4  A    between atoms: C13_21  and  C14_23 
REMARK    5  A    between atoms: C16_27  and  O2_28 
REMARK    6  A    between atoms: C20_33  and  C21_34 
ROOT
HETATM    1  C2  UNL     1       1.521  -2.666   0.354  1.00  0.00     0.055 A 
HETATM    2  C3  UNL     1       0.231  -3.141   0.095  1.00  0.00     0.044 A 
HETATM    3  C4  UNL     1      -0.741  -2.248  -0.205  1.00  0.00     0.011 A 
HETATM    4  C5  UNL     1      -0.467  -0.893  -0.252  1.00  0.00     0.050 A 
HETATM    5  C6  UNL     1       0.796  -0.447  -0.000  1.00  0.00     0.062 A 
HETATM    6  C7  UNL     1       1.821  -1.335   0.311  1.00  0.00     0.057 A 
HETATM    7  N4  UNL     1      -1.581   0.007  -0.510  1.00  0.00    -0.308 N 
HETATM    8  C13 UNL     1      -1.589   1.277   0.091  1.00  0.00     0.260 C 
HETATM    9  O1  UNL     1      -0.669   1.494   0.983  1.00  0.00    -0.267 OA
HETATM   10  C18 UNL     1      -2.669  -0.487  -1.320  1.00  0.00     0.097 C 
HETATM   11  C19 UNL     1      -3.813  -0.957  -0.394  1.00  0.00     0.036 C 
HETATM   12  C20 UNL     1      -3.185  -2.169   0.290  1.00  0.00     0.061 C 
HETATM   13  C22 UNL     1      -2.116  -2.659  -0.607  1.00  0.00     0.140 C 
HETATM   14  F2  UNL     1      -2.171  -4.015  -0.870  1.00  0.00    -0.237 F 
HETATM   15  C23 UNL     1      -2.322  -1.865  -1.914  1.00  0.00     0.075 C 
ENDROOT
BRANCH   6  16
HETATM   16  N2  UNL     1       3.100  -0.850   0.581  1.00  0.00    -0.382 N 
ATOM     17  H2  UNL     1       3.778  -1.557   0.865  1.00  0.00     0.160 HD
BRANCH  16  18
HETATM   18  C8  UNL     1       3.607   0.485   0.521  1.00  0.00     0.107 C 
HETATM   19  C9  UNL     1       3.622   1.135  -0.818  1.00  0.00     0.028 C 
HETATM   20  C10 UNL     1       4.657   2.277  -0.697  1.00  0.00     0.029 C 
HETATM   21  C11 UNL     1       4.084   3.234   0.327  1.00  0.00     0.232 C 
HETATM   22  N3  UNL     1       2.883   2.736   0.957  1.00  0.00    -0.073 N 
HETATM   23  C12 UNL     1       3.064   1.436   1.545  1.00  0.00     0.257 C 
ATOM     24  H32 UNL     1       2.526   3.402   1.643  1.00  0.00     0.277 HD
ATOM     25  H31 UNL     1       2.100   2.737   0.304  1.00  0.00     0.277 HD
ENDBRANCH  16  18
ENDBRANCH   6  16
BRANCH   1  26
HETATM   26  N1  UNL     1       2.474  -3.660   0.656  1.00  0.00    -0.392 N 
HETATM   27  C1  UNL     1       2.147  -5.079   0.702  1.00  0.00     0.146 C 
ATOM     28  H1  UNL     1       3.433  -3.373   0.851  1.00  0.00     0.159 HD
ENDBRANCH   1  26
BRANCH   8  29
HETATM   29  C14 UNL     1      -2.474   2.388  -0.138  1.00  0.00     0.052 A 
HETATM   30  C15 UNL     1      -3.560   2.594  -0.934  1.00  0.00     0.107 A 
HETATM   31  N5  UNL     1      -4.056   3.872  -0.789  1.00  0.00    -0.346 N 
HETATM   32  C16 UNL     1      -3.300   4.494   0.095  1.00  0.00     0.140 A 
ATOM     33  H5  UNL     1      -4.861   4.265  -1.277  1.00  0.00     0.167 HD
HETATM   34  C17 UNL     1      -2.328   3.647   0.522  1.00  0.00     0.074 A 
BRANCH  32  35
HETATM   35  O2  UNL     1      -3.432   5.815   0.556  1.00  0.00    -0.346 OA
ATOM     36  H2  UNL     1      -2.888   6.263   1.193  1.00  0.00     0.219 HD
ENDBRANCH  32  35
ENDBRANCH   8  29
BRANCH  12  37
HETATM   37  C21 UNL     1      -2.809  -1.928   1.710  1.00  0.00     0.230 C 
HETATM   38  F1  UNL     1      -3.972  -1.584   2.394  1.00  0.00    -0.255 F 
ENDBRANCH  12  37
TORSDOF 6
