REMARK  6 active torsions:
REMARK  status: ('A' for Active; 'I' for Inactive)
REMARK    1  A    between atoms: C3_4  and  N2_5 
REMARK       I    between atoms: N2_5  and  C4_7 
REMARK       I    between atoms: C4_7  and  N3_9 
REMARK    2  A    between atoms: N3_9  and  C5_11 
REMARK    3  A    between atoms: C6_12  and  C7_13 
REMARK    4  A    between atoms: C8_18  and  C9_19 
REMARK       I    between atoms: C9_19  and  N5_21 
REMARK    5  A    between atoms: N5_21  and  C10_23 
REMARK    6  A    between atoms: C20_33  and  O3_34 
ROOT
HETATM    1  C5  UNL     1       2.239   0.366   1.633  1.00  0.00     0.100 A 
HETATM    2  C6  UNL     1       1.999   1.667   1.946  1.00  0.00     0.104 A 
HETATM    3  N4  UNL     1       0.738   1.977   1.649  1.00  0.00    -0.346 N 
ATOM      4  H4  UNL     1       0.323   2.897   1.794  1.00  0.00     0.166 HD
HETATM    5  C8  UNL     1       0.075   0.910   1.127  1.00  0.00     0.137 A 
HETATM    6  C20 UNL     1       1.006  -0.118   1.109  1.00  0.00     0.127 A 
ENDROOT
BRANCH   5   7
HETATM    7  C9  UNL     1      -1.318   0.912   0.698  1.00  0.00     0.271 C 
HETATM    8  O2  UNL     1      -1.909   2.052   0.855  1.00  0.00    -0.266 OA
HETATM    9  N5  UNL     1      -2.039  -0.163   0.156  1.00  0.00    -0.346 N 
ATOM     10  H5  UNL     1      -1.581  -1.066   0.029  1.00  0.00     0.163 HD
BRANCH   9  11
HETATM   11  C10 UNL     1      -3.426  -0.003  -0.225  1.00  0.00     0.034 C 
HETATM   12  C11 UNL     1      -3.669   1.022  -1.278  1.00  0.00     0.035 C 
HETATM   13  C12 UNL     1      -5.160   1.140  -1.509  1.00  0.00    -0.012 C 
HETATM   14  C13 UNL     1      -5.852   1.473  -0.231  1.00  0.00     0.009 C 
HETATM   15  C17 UNL     1      -5.630  -0.124  -2.147  1.00  0.00     0.009 C 
HETATM   16  C14 UNL     1      -5.715   0.305   0.703  1.00  0.00    -0.012 C 
HETATM   17  C15 UNL     1      -6.149  -1.002   0.086  1.00  0.00     0.009 C 
HETATM   18  C19 UNL     1      -4.235   0.164   1.028  1.00  0.00     0.035 C 
HETATM   19  C16 UNL     1      -5.358  -1.252  -1.177  1.00  0.00    -0.012 C 
HETATM   20  C18 UNL     1      -3.909  -1.337  -0.846  1.00  0.00     0.035 C 
ENDBRANCH   9  11
ENDBRANCH   5   7
BRANCH   6  21
HETATM   21  O3  UNL     1       0.919  -1.400   0.701  1.00  0.00    -0.356 OA
ATOM     22  H3  UNL     1       0.097  -1.723   0.352  1.00  0.00     0.218 HD
ENDBRANCH   6  21
BRANCH   2  23
HETATM   23  C7  UNL     1       2.994   2.619   2.536  1.00  0.00     0.405 C 
HETATM   24  F1  UNL     1       2.588   3.066   3.779  1.00  0.00    -0.207 F 
HETATM   25  F2  UNL     1       3.178   3.688   1.709  1.00  0.00    -0.207 F 
ENDBRANCH   2  23
BRANCH   1  26
HETATM   26  N3  UNL     1       3.432  -0.399   1.774  1.00  0.00    -0.304 N 
HETATM   27  C4  UNL     1       4.416  -0.473   0.726  1.00  0.00     0.325 C 
HETATM   28  N2  UNL     1       5.571  -1.244   0.926  1.00  0.00    -0.306 N 
HETATM   29  O1  UNL     1       4.218   0.146  -0.327  1.00  0.00    -0.247 OA
ATOM     30  H2  UNL     1       5.684  -1.735   1.813  1.00  0.00     0.171 HD
ATOM     31  H3  UNL     1       3.594  -0.909   2.642  1.00  0.00     0.171 HD
BRANCH  28  32
HETATM   32  C3  UNL     1       6.577  -1.368  -0.044  1.00  0.00     0.070 A 
HETATM   33  C2  UNL     1       6.650  -0.815  -1.282  1.00  0.00     0.140 A 
HETATM   34  N1  UNL     1       7.811  -1.232  -1.832  1.00  0.00    -0.306 N 
HETATM   35  C1  UNL     1       8.242  -0.843  -3.166  1.00  0.00     0.177 C 
HETATM   36  N6  UNL     1       8.465  -2.019  -0.998  1.00  0.00    -0.308 N 
HETATM   37  C21 UNL     1       7.744  -2.130   0.112  1.00  0.00     0.138 A 
ATOM     38  H6  UNL     1       9.366  -2.464  -1.175  1.00  0.00     0.186 HD
ENDBRANCH  28  32
ENDBRANCH   1  26
TORSDOF 6
