REMARK  5 active torsions:
REMARK  status: ('A' for Active; 'I' for Inactive)
REMARK    1  A    between atoms: C2_2  and  S1_5 
REMARK    2  A    between atoms: S1_5  and  C5_6 
REMARK    3  A    between atoms: C5_6  and  N2_10 
REMARK    4  A    between atoms: N2_10  and  C6_12 
REMARK    5  A    between atoms: C6_12  and  C7_13 
ROOT
HETATM    1  C5  UNL     1       0.603   1.310  -0.703  1.00  0.00     0.134 C 
HETATM    2  N1  UNL     1       1.059   1.421  -1.887  1.00  0.00    -0.380 N 
ATOM      3  H11 UNL     1       0.562   1.867  -2.658  1.00  0.00     0.158 HD
ATOM      4  H12 UNL     1       1.989   1.033  -2.044  1.00  0.00     0.158 HD
ENDROOT
BRANCH   1   5
HETATM    5  S1  UNL     1       1.462   0.540   0.630  1.00  0.00    -0.086 SA
BRANCH   5   6
HETATM    6  C2  UNL     1       3.089  -0.036   0.102  1.00  0.00     0.005 C 
HETATM    7  C1  UNL     1       3.906   1.196  -0.229  1.00  0.00     0.026 C 
HETATM    8  C3  UNL     1       2.945  -0.998  -1.027  1.00  0.00     0.026 C 
HETATM    9  C4  UNL     1       3.805  -0.771   1.229  1.00  0.00     0.026 C 
ENDBRANCH   5   6
ENDBRANCH   1   5
BRANCH   1  10
HETATM   10  N2  UNL     1      -0.710   1.858  -0.482  1.00  0.00    -0.371 N 
ATOM     11  H2  UNL     1      -1.057   2.614  -1.072  1.00  0.00     0.161 HD
BRANCH  10  12
HETATM   12  C6  UNL     1      -1.539   1.325   0.589  1.00  0.00     0.126 C 
BRANCH  12  13
HETATM   13  C7  UNL     1      -1.976  -0.094   0.294  1.00  0.00     0.003 C 
HETATM   14  C8  UNL     1      -2.820  -0.547   1.445  1.00  0.00     0.006 C 
HETATM   15  C9  UNL     1      -3.859  -1.477   0.890  1.00  0.00     0.000 C 
HETATM   16  C10 UNL     1      -4.058  -1.021  -0.541  1.00  0.00     0.000 C 
HETATM   17  C11 UNL     1      -2.866  -0.190  -0.896  1.00  0.00     0.006 C 
ENDBRANCH  12  13
ENDBRANCH  10  12
ENDBRANCH   1  10
TORSDOF 5
