REMARK  5 active torsions:
REMARK  status: ('A' for Active; 'I' for Inactive)
REMARK    1  A    between atoms: C2_2  and  C4_4 
REMARK    2  A    between atoms: C4_4  and  N1_5 
REMARK    3  A    between atoms: C4_4  and  C5_9 
REMARK       I    between atoms: C5_9  and  N2_11 
REMARK    4  A    between atoms: N2_11  and  N3_13 
REMARK    5  A    between atoms: C6_15  and  C7_16 
ROOT
HETATM    1  N3  UNL     1       1.000  -0.376  -0.435  1.00  0.00    -0.308 N 
ATOM      2  H3  UNL     1       1.239  -1.361  -0.319  1.00  0.00     0.186 HD
HETATM    3  C6  UNL     1       1.940   0.511  -0.383  1.00  0.00     0.120 C 
ENDROOT
BRANCH   1   4
HETATM    4  N2  UNL     1      -0.328  -0.022  -0.645  1.00  0.00    -0.269 N 
HETATM    5  C5  UNL     1      -1.236   0.364   0.364  1.00  0.00     0.267 C 
HETATM    6  O1  UNL     1      -0.762   0.376   1.537  1.00  0.00    -0.269 OA
ATOM      7  H2  UNL     1      -0.673  -0.043  -1.605  1.00  0.00     0.190 HD
BRANCH   5   8
HETATM    8  C4  UNL     1      -2.624   0.737   0.167  1.00  0.00     0.279 C 
BRANCH   8   9
HETATM    9  C2  UNL     1      -3.465  -0.282  -0.539  1.00  0.00     0.017 C 
HETATM   10  C1  UNL     1      -4.840   0.332  -0.758  1.00  0.00     0.012 C 
HETATM   11  C3  UNL     1      -3.607  -1.569   0.202  1.00  0.00     0.012 C 
ENDBRANCH   8   9
BRANCH   8  12
HETATM   12  N1  UNL     1      -3.235   1.070   1.430  1.00  0.00    -0.066 N 
ATOM     13  H13 UNL     1      -4.202   1.375   1.322  1.00  0.00     0.275 HD
ATOM     14  H12 UNL     1      -3.406   0.245   2.005  1.00  0.00     0.275 HD
ATOM     15  H11 UNL     1      -2.662   1.764   1.911  1.00  0.00     0.275 HD
ENDBRANCH   8  12
ENDBRANCH   5   8
ENDBRANCH   1   4
BRANCH   3  16
HETATM   16  C7  UNL     1       3.329   0.181  -0.167  1.00  0.00     0.005 A 
HETATM   17  C8  UNL     1       3.788  -1.109   0.004  1.00  0.00     0.054 A 
HETATM   18  C9  UNL     1       5.148  -1.362   0.210  1.00  0.00     0.117 A 
HETATM   19 BR1  UNL     1       5.809  -3.125   0.449  1.00  0.00    -0.028 Br
HETATM   20  N4  UNL     1       6.017  -0.340   0.242  1.00  0.00    -0.144 N 
HETATM   21  F1  UNL     1       7.344  -0.580   0.442  1.00  0.00    -0.090 F 
HETATM   22  C10 UNL     1       5.617   0.940   0.079  1.00  0.00     0.238 A 
HETATM   23  F2  UNL     1       6.513   1.958   0.115  1.00  0.00    -0.182 F 
HETATM   24  C11 UNL     1       4.264   1.185  -0.125  1.00  0.00     0.081 A 
HETATM   25 BR2  UNL     1       3.762   3.026  -0.348  1.00  0.00    -0.045 Br
ENDBRANCH   3  16
TORSDOF 5
