REMARK  2 active torsions:
REMARK  status: ('A' for Active; 'I' for Inactive)
REMARK       I    between atoms: C1_2  and  N1_3 
REMARK    1  A    between atoms: C1_2  and  C6_10 
REMARK    2  A    between atoms: N1_3  and  N2_5 
ROOT
HETATM    1  C6  UNL     1      -0.857  -0.239  -0.198  1.00  0.00     0.043 C 
HETATM    2  C7  UNL     1      -1.393  -1.183   0.853  1.00  0.00     0.024 C 
HETATM    3  C8  UNL     1      -2.847  -0.910   1.077  1.00  0.00    -0.013 C 
HETATM    4  C9  UNL     1      -3.590  -1.096  -0.209  1.00  0.00     0.009 C 
HETATM    5  C10 UNL     1      -3.049  -0.175  -1.270  1.00  0.00    -0.013 C 
HETATM    6  C11 UNL     1      -3.216   1.254  -0.773  1.00  0.00     0.009 C 
HETATM    7  C12 UNL     1      -2.503   1.436   0.556  1.00  0.00    -0.013 C 
HETATM    8  C13 UNL     1      -3.034   0.493   1.604  1.00  0.00     0.009 C 
HETATM    9  C14 UNL     1      -1.049   1.172   0.345  1.00  0.00     0.024 C 
HETATM   10  C15 UNL     1      -1.586  -0.379  -1.503  1.00  0.00     0.024 C 
ENDROOT
BRANCH   1  11
HETATM   11  C1  UNL     1       0.584  -0.426  -0.417  1.00  0.00     0.240 C 
HETATM   12  O1  UNL     1       0.967  -0.813  -1.577  1.00  0.00    -0.271 OA
HETATM   13  N1  UNL     1       1.570  -0.197   0.606  1.00  0.00    -0.289 N 
ATOM     14  H1  UNL     1       1.296   0.109   1.540  1.00  0.00     0.184 HD
BRANCH  13  15
HETATM   15  N2  UNL     1       2.890  -0.402   0.290  1.00  0.00    -0.229 NA
HETATM   16  C2  UNL     1       3.468   0.652  -0.535  1.00  0.00     0.113 C 
HETATM   17  C3  UNL     1       4.954   0.314  -0.509  1.00  0.00     0.017 C 
HETATM   18  C4  UNL     1       5.124  -0.682   0.626  1.00  0.00     0.017 C 
HETATM   19  C5  UNL     1       3.806  -0.465   1.380  1.00  0.00     0.113 C 
ENDBRANCH  13  15
ENDBRANCH   1  11
TORSDOF 2
