REMARK  2 active torsions:
REMARK  status: ('A' for Active; 'I' for Inactive)
REMARK    1  A    between atoms: N2_8  and  N3_10 
REMARK       I    between atoms: N3_10  and  C7_12 
REMARK    2  A    between atoms: C7_12  and  C8_14 
ROOT
HETATM    1  N3  UNL     1       0.637  -0.199  -0.627  1.00  0.00    -0.268 N 
ATOM      2  H3  UNL     1       0.511   0.785  -0.864  1.00  0.00     0.190 HD
HETATM    3  C7  UNL     1      -0.456  -0.976  -0.155  1.00  0.00     0.244 C 
HETATM    4  O1  UNL     1      -0.286  -2.203   0.136  1.00  0.00    -0.271 OA
ENDROOT
BRANCH   3   5
HETATM    5  C8  UNL     1      -1.806  -0.416   0.016  1.00  0.00     0.043 C 
HETATM    6  C9  UNL     1      -2.268   0.075  -1.340  1.00  0.00     0.024 C 
HETATM    7  C10 UNL     1      -3.700   0.538  -1.270  1.00  0.00    -0.013 C 
HETATM    8  C11 UNL     1      -3.743   1.740  -0.353  1.00  0.00     0.009 C 
HETATM    9  C15 UNL     1      -4.534  -0.601  -0.767  1.00  0.00     0.009 C 
HETATM   10  C12 UNL     1      -3.209   1.329   0.998  1.00  0.00    -0.013 C 
HETATM   11  C13 UNL     1      -4.172   0.274   1.547  1.00  0.00     0.009 C 
HETATM   12  C17 UNL     1      -1.815   0.788   0.937  1.00  0.00     0.024 C 
HETATM   13  C14 UNL     1      -4.131  -0.923   0.642  1.00  0.00    -0.013 C 
HETATM   14  C16 UNL     1      -2.710  -1.444   0.602  1.00  0.00     0.024 C 
ENDBRANCH   3   5
BRANCH   1  15
HETATM   15  N2  UNL     1       1.870  -0.800  -0.759  1.00  0.00    -0.286 N 
HETATM   16  C6  UNL     1       2.979  -0.317  -0.364  1.00  0.00     0.093 C 
HETATM   17  N1  UNL     1       4.191  -1.006  -0.543  1.00  0.00    -0.374 N 
HETATM   18  C5  UNL     1       3.015   0.995   0.301  1.00  0.00     0.078 C 
HETATM   19  C1  UNL     1       4.305  -2.044  -1.551  1.00  0.00     0.150 C 
HETATM   20  C2  UNL     1       5.334  -0.652   0.310  1.00  0.00     0.123 C 
HETATM   21  C3  UNL     1       5.488   0.819   0.491  1.00  0.00     0.020 C 
HETATM   22  C4  UNL     1       4.362   1.624  -0.084  1.00  0.00     0.009 C 
ATOM     23  H2  UNL     1       1.896  -1.713  -1.214  1.00  0.00     0.188 HD
ENDBRANCH   1  15
TORSDOF 2
