REMARK  3 active torsions:
REMARK  status: ('A' for Active; 'I' for Inactive)
REMARK    1  A    between atoms: O1_1  and  C1_3 
REMARK    2  A    between atoms: C1_3  and  C2_4 
REMARK    3  A    between atoms: C2_4  and  N1_5 
ROOT
HETATM    1  C1  UNL     1       0.521   0.137   0.261  1.00  0.00     0.085 C 
HETATM    2  C9  UNL     1       1.265  -0.013   1.583  1.00  0.00     0.044 C 
HETATM    3  C10 UNL     1       2.694   0.380   1.526  1.00  0.00    -0.011 C 
HETATM    4  C11 UNL     1       2.874   1.641   0.756  1.00  0.00     0.010 C 
HETATM    5  C12 UNL     1       3.051   1.347  -0.687  1.00  0.00    -0.009 C 
HETATM    6  C13 UNL     1       4.499   0.818  -0.820  1.00  0.00     0.010 C 
HETATM    7  C14 UNL     1       3.882  -0.543  -0.472  1.00  0.00    -0.009 C 
HETATM    8  C15 UNL     1       3.608  -0.686   0.986  1.00  0.00     0.010 C 
HETATM    9  C16 UNL     1       2.632   0.019  -1.157  1.00  0.00    -0.004 C 
HETATM   10  C17 UNL     1       1.376  -0.559  -0.771  1.00  0.00     0.045 C 
ENDROOT
BRANCH   1  11
HETATM   11  O1  UNL     1       0.197   1.406  -0.036  1.00  0.00    -0.388 OA
ATOM     12  H1  UNL     1       0.966   1.955  -0.129  1.00  0.00     0.210 HD
ENDBRANCH   1  11
BRANCH   1  13
HETATM   13  C2  UNL     1      -0.703  -0.737   0.409  1.00  0.00     0.312 C 
BRANCH  13  14
HETATM   14  N1  UNL     1      -1.563  -0.828  -0.706  1.00  0.00     0.127 N 
HETATM   15  C3  UNL     1      -2.255  -2.157  -0.519  1.00  0.00     0.305 C 
HETATM   16  C4  UNL     1      -3.422  -1.872   0.380  1.00  0.00     0.305 C 
HETATM   17  N2  UNL     1      -3.423  -0.459   0.484  1.00  0.00     0.124 N 
HETATM   18  C5  UNL     1      -4.705   0.165   0.284  1.00  0.00     0.275 C 
HETATM   19  C8  UNL     1      -2.731  -0.075  -0.739  1.00  0.00     0.456 C 
HETATM   20  C6  UNL     1      -4.402   1.423  -0.494  1.00  0.00     0.034 C 
HETATM   21  C7  UNL     1      -2.836   1.378  -0.646  1.00  0.00     0.070 C 
ENDBRANCH  13  14
ENDBRANCH   1  13
TORSDOF 3
