REMARK  2 active torsions:
REMARK  status: ('A' for Active; 'I' for Inactive)
REMARK       I    between atoms: C1_2  and  N1_3 
REMARK       I    between atoms: C1_2  and  N2_13 
REMARK    1  A    between atoms: N1_3  and  C2_5 
REMARK    2  A    between atoms: C2_5  and  C3_6 
ROOT
HETATM    1  O1  UNL     1       1.750   1.754   1.354  1.00  0.00    -0.247 OA
HETATM    2  C1  UNL     1       1.854   0.713   0.663  1.00  0.00     0.318 C 
HETATM    3  N1  UNL     1       0.713  -0.102   0.486  1.00  0.00    -0.343 N 
ATOM      4  H1  UNL     1       0.765  -0.955  -0.070  1.00  0.00     0.164 HD
HETATM    5  N2  UNL     1       3.091   0.353   0.066  1.00  0.00    -0.330 N 
HETATM    6  C10 UNL     1       3.251  -0.822  -0.726  1.00  0.00     0.153 C 
HETATM    7  C11 UNL     1       4.662  -1.273  -0.896  1.00  0.00     0.187 C 
HETATM    8  O2  UNL     1       5.604  -0.286  -0.894  1.00  0.00    -0.388 OA
HETATM    9  C12 UNL     1       5.129   0.995  -0.966  1.00  0.00     0.187 C 
HETATM   10  C13 UNL     1       4.241   1.210   0.267  1.00  0.00     0.153 C 
ENDROOT
BRANCH   3  11
HETATM   11  C2  UNL     1      -0.530   0.296   1.108  1.00  0.00     0.129 C 
BRANCH  11  12
HETATM   12  C3  UNL     1      -1.643  -0.685   0.817  1.00  0.00     0.003 C 
HETATM   13  C4  UNL     1      -2.885  -0.186   1.503  1.00  0.00     0.006 C 
HETATM   14  C5  UNL     1      -3.467   1.021   0.822  1.00  0.00     0.000 C 
HETATM   15  C6  UNL     1      -4.609   0.589  -0.065  1.00  0.00     0.000 C 
HETATM   16  C7  UNL     1      -4.010   0.133  -1.377  1.00  0.00     0.000 C 
HETATM   17  C8  UNL     1      -3.164  -1.110  -1.133  1.00  0.00     0.000 C 
HETATM   18  C9  UNL     1      -1.783  -0.789  -0.673  1.00  0.00     0.006 C 
ENDBRANCH  11  12
ENDBRANCH   3  11
TORSDOF 2
