REMARK  4 active torsions:
REMARK  status: ('A' for Active; 'I' for Inactive)
REMARK    1  A    between atoms: N2_10  and  C9_11 
REMARK    2  A    between atoms: C9_11  and  C10_12 
REMARK    3  A    between atoms: C15_17  and  C16_18 
REMARK    4  A    between atoms: C16_18  and  O1_19 
ROOT
HETATM    1  C1  UNL     1      -0.540   2.774  -1.275  1.00  0.00     0.310 C 
HETATM    2  N1  UNL     1      -0.102   1.592  -0.619  1.00  0.00     0.091 N 
HETATM    3  C2  UNL     1      -0.890   0.433  -0.869  1.00  0.00     0.284 C 
HETATM    4  C3  UNL     1      -0.931  -0.711   0.009  1.00  0.00     0.008 C 
HETATM    5  C4  UNL     1      -1.306  -0.768   1.444  1.00  0.00     0.018 C 
HETATM    6  C5  UNL     1      -2.277   0.364   1.388  1.00  0.00    -0.011 C 
HETATM    7  C6  UNL     1      -1.482   1.561   1.266  1.00  0.00     0.042 C 
HETATM    8  C7  UNL     1      -0.106   1.683   0.848  1.00  0.00     0.240 C 
HETATM    9  C8  UNL     1       1.045   0.813   1.147  1.00  0.00     0.157 C 
HETATM   10  N2  UNL     1       1.320  -0.256   0.263  1.00  0.00    -0.390 N 
HETATM   11  C13 UNL     1       0.374  -1.314   0.033  1.00  0.00     0.133 C 
HETATM   12  C14 UNL     1      -3.094  -0.212   0.264  1.00  0.00     0.012 C 
HETATM   13  C15 UNL     1      -2.230  -1.312  -0.420  1.00  0.00     0.021 C 
ENDROOT
BRANCH  10  14
HETATM   14  C9  UNL     1       2.337  -0.140  -0.690  1.00  0.00     0.062 C 
BRANCH  14  15
HETATM   15  C10 UNL     1       3.759  -0.147  -0.209  1.00  0.00     0.024 A 
HETATM   16  C11 UNL     1       4.203  -1.454   0.528  1.00  0.00     0.010 A 
HETATM   17  C12 UNL     1       4.163  -0.145   1.194  1.00  0.00     0.010 A 
ENDBRANCH  14  15
ENDBRANCH  10  14
BRANCH  13  18
HETATM   18  C16 UNL     1      -2.526  -1.468  -1.835  1.00  0.00     0.169 C 
BRANCH  18  19
HETATM   19  O1  UNL     1      -1.564  -2.291  -2.473  1.00  0.00    -0.400 OA
ATOM     20  H1  UNL     1      -1.757  -2.393  -3.398  1.00  0.00     0.209 HD
ENDBRANCH  18  19
ENDBRANCH  13  18
TORSDOF 4
