REMARK  6 active torsions:
REMARK  status: ('A' for Active; 'I' for Inactive)
REMARK    1  A    between atoms: C2_2  and  C3_3 
REMARK    2  A    between atoms: C5_5  and  N1_6 
REMARK    3  A    between atoms: C5_5  and  C31_46 
REMARK       I    between atoms: N1_6  and  C6_8 
REMARK    4  A    between atoms: C6_8  and  C7_10 
REMARK       I    between atoms: N3_37  and  C27_38 
REMARK    5  A    between atoms: C27_38  and  C28_40 
REMARK       I    between atoms: C31_46  and  N5_48 
REMARK    6  A    between atoms: N5_48  and  C32_50 
ROOT
HETATM    1  C7  UNL     1       0.420   0.489  -0.008  1.00  0.00     0.224 C 
HETATM    2  C8  UNL     1      -0.581   1.318  -0.689  1.00  0.00     0.178 C 
HETATM    3  S1  UNL     1      -1.300   2.629   0.283  1.00  0.00     0.155 S 
HETATM    4  O2  UNL     1      -1.313   2.301   1.735  1.00  0.00    -0.227 OA
HETATM    5  O3  UNL     1      -0.414   3.855   0.054  1.00  0.00    -0.227 OA
HETATM    6  C9  UNL     1      -2.896   3.122  -0.341  1.00  0.00     0.064 C 
HETATM    7  C10 UNL     1      -3.083   2.639  -1.775  1.00  0.00     0.025 C 
HETATM    8  C11 UNL     1      -3.662   3.679  -2.682  1.00  0.00     0.002 C 
HETATM    9  C12 UNL     1      -4.758   4.503  -2.075  1.00  0.00     0.000 C 
HETATM   10  C13 UNL     1      -4.332   5.133  -0.791  1.00  0.00     0.002 C 
HETATM   11  C14 UNL     1      -2.989   4.643  -0.396  1.00  0.00     0.025 C 
HETATM   12  C15 UNL     1      -4.049   2.631   0.462  1.00  0.00     0.034 C 
HETATM   13  C16 UNL     1      -3.806   1.378   1.214  1.00  0.00     0.104 C 
HETATM   14  C17 UNL     1      -4.969   0.454   1.300  1.00  0.00     0.217 C 
HETATM   15  O4  UNL     1      -6.059   0.729   0.749  1.00  0.00    -0.274 OA
HETATM   16  N2  UNL     1      -4.751  -0.748   2.046  1.00  0.00    -0.361 N 
ATOM     17  H2  UNL     1      -5.391  -1.530   1.905  1.00  0.00     0.162 HD
HETATM   18  C18 UNL     1      -3.682  -0.905   2.977  1.00  0.00     0.123 C 
HETATM   19  C19 UNL     1      -2.964  -2.234   2.905  1.00  0.00     0.024 C 
HETATM   20  C20 UNL     1      -2.067  -2.214   1.688  1.00  0.00     0.043 C 
HETATM   21  C21 UNL     1      -0.817  -3.008   1.931  1.00  0.00    -0.022 A 
HETATM   22  C22 UNL     1      -0.971  -4.020   2.842  1.00  0.00     0.010 A 
HETATM   23  C23 UNL     1       0.070  -4.858   3.214  1.00  0.00     0.001 A 
HETATM   24  C24 UNL     1       1.302  -4.655   2.640  1.00  0.00     0.003 A 
HETATM   25  C25 UNL     1       1.440  -3.649   1.738  1.00  0.00     0.040 A 
HETATM   26  C26 UNL     1       0.396  -2.773   1.333  1.00  0.00     0.105 A 
HETATM   27  O5  UNL     1       0.673  -1.831   0.434  1.00  0.00    -0.232 OA
HETATM   28  N3  UNL     1       0.441  -0.908  -0.442  1.00  0.00    -0.205 N 
HETATM   29  C27 UNL     1       0.249  -1.049  -1.874  1.00  0.00     0.252 C 
HETATM   30  O6  UNL     1       0.105  -0.094  -2.665  1.00  0.00    -0.271 OA
ENDROOT
BRANCH   1  31
HETATM   31  C6  UNL     1       1.811   1.054   0.012  1.00  0.00     0.245 C 
HETATM   32  N1  UNL     1       2.979   0.308  -0.127  1.00  0.00    -0.341 N 
ATOM     33  H1  UNL     1       2.850  -0.697  -0.244  1.00  0.00     0.163 HD
HETATM   34  O1  UNL     1       1.887   2.276   0.165  1.00  0.00    -0.271 OA
BRANCH  32  35
HETATM   35  C5  UNL     1       4.321   0.759  -0.127  1.00  0.00     0.121 A 
HETATM   36  C3  UNL     1       4.804   1.705  -1.172  1.00  0.00     0.048 A 
HETATM   37  C4  UNL     1       4.663   2.155   0.282  1.00  0.00     0.053 A 
BRANCH  36  38
HETATM   38  C2  UNL     1       6.200   1.640  -1.646  1.00  0.00    -0.029 C 
HETATM   39  C1  UNL     1       7.036   2.663  -1.537  1.00  0.00     0.007 C 
ENDBRANCH  36  38
BRANCH  35  40
HETATM   40  C31 UNL     1       5.357  -0.254   0.315  1.00  0.00     0.246 C 
HETATM   41  O7  UNL     1       6.561   0.148   0.303  1.00  0.00    -0.271 OA
HETATM   42  N5  UNL     1       5.051  -1.566   0.723  1.00  0.00    -0.359 N 
ATOM     43  H5  UNL     1       4.085  -1.893   0.737  1.00  0.00     0.162 HD
BRANCH  42  44
HETATM   44  C32 UNL     1       6.146  -2.457   1.129  1.00  0.00     0.118 C 
HETATM   45  C33 UNL     1       5.576  -3.796   1.509  1.00  0.00     0.026 C 
ENDBRANCH  42  44
ENDBRANCH  35  40
ENDBRANCH  32  35
ENDBRANCH   1  31
BRANCH  29  46
HETATM   46  C28 UNL     1       0.208  -2.392  -2.544  1.00  0.00     0.131 C 
HETATM   47  C29 UNL     1       0.030  -2.367  -4.014  1.00  0.00     0.248 C 
HETATM   48  N4  UNL     1      -1.039  -3.354  -3.940  1.00  0.00    -0.073 N 
HETATM   49  C30 UNL     1      -1.127  -3.077  -2.529  1.00  0.00     0.248 C 
ATOM     50  H42 UNL     1      -1.861  -3.282  -4.540  1.00  0.00     0.277 HD
ATOM     51  H41 UNL     1      -0.898  -4.306  -4.279  1.00  0.00     0.277 HD
ENDBRANCH  29  46
TORSDOF 6
