REMARK  4 active torsions:
REMARK  status: ('A' for Active; 'I' for Inactive)
REMARK       I    between atoms: C1_2  and  N1_3 
REMARK       I    between atoms: C1_2  and  N3_11 
REMARK    1  A    between atoms: N1_3  and  C2_5 
REMARK    2  A    between atoms: N3_11  and  C5_13 
REMARK    3  A    between atoms: C11_19  and  N4_20 
REMARK       I    between atoms: N4_20  and  C12_22 
REMARK       I    between atoms: C12_22  and  N5_24 
REMARK    4  A    between atoms: N5_24  and  C13_26 
ROOT
HETATM    1  C5  UNL     1       4.208  -0.706  -0.187  1.00  0.00     0.035 C 
HETATM    2  C6  UNL     1       4.278   0.417  -1.206  1.00  0.00     0.035 C 
HETATM    3  C7  UNL     1       2.927   0.559  -1.812  1.00  0.00    -0.011 C 
HETATM    4  C8  UNL     1       2.490  -0.717  -2.420  1.00  0.00     0.009 C 
HETATM    5  C9  UNL     1       2.567  -1.950  -1.592  1.00  0.00    -0.010 C 
HETATM    6  C10 UNL     1       1.377  -2.155  -0.740  1.00  0.00     0.030 C 
HETATM    7  C11 UNL     1       0.911  -1.076   0.138  1.00  0.00     0.090 C 
HETATM    8  C22 UNL     1       1.879   0.062   0.385  1.00  0.00     0.011 C 
HETATM    9  C23 UNL     1       1.912   1.021  -0.781  1.00  0.00     0.011 C 
HETATM   10  C24 UNL     1       3.222  -0.374   0.877  1.00  0.00     0.038 C 
HETATM   11  C25 UNL     1       3.866  -2.015  -0.813  1.00  0.00     0.035 C 
ENDROOT
BRANCH   7  12
HETATM   12  N4  UNL     1      -0.274  -0.498  -0.455  1.00  0.00    -0.338 N 
HETATM   13  C12 UNL     1      -1.422  -0.047   0.245  1.00  0.00     0.317 C 
HETATM   14  O2  UNL     1      -1.400   0.038   1.478  1.00  0.00    -0.247 OA
HETATM   15  N5  UNL     1      -2.551   0.304  -0.507  1.00  0.00    -0.329 N 
ATOM     16  H5  UNL     1      -2.472   0.056  -1.493  1.00  0.00     0.165 HD
ATOM     17  H4  UNL     1      -0.285  -0.406  -1.471  1.00  0.00     0.164 HD
BRANCH  15  18
HETATM   18  C13 UNL     1      -3.789   0.937  -0.180  1.00  0.00     0.192 C 
HETATM   19  C14 UNL     1      -4.341   1.395  -1.491  1.00  0.00     0.175 C 
HETATM   20  S2  UNL     1      -5.950   2.087  -1.519  1.00  0.00     0.153 S 
HETATM   21  O3  UNL     1      -6.873   1.471  -2.542  1.00  0.00    -0.227 OA
HETATM   22  O4  UNL     1      -5.873   3.542  -1.962  1.00  0.00    -0.227 OA
HETATM   23  C15 UNL     1      -6.548   2.053   0.094  1.00  0.00     0.139 A 
HETATM   24  C16 UNL     1      -7.820   1.886   0.689  1.00  0.00     0.055 A 
HETATM   25  C17 UNL     1      -7.090   0.732   0.360  1.00  0.00     0.053 A 
HETATM   26  C18 UNL     1      -7.780  -0.263  -0.523  1.00  0.00     0.034 C 
HETATM   27  N6  UNL     1      -6.041  -0.074   0.816  1.00  0.00    -0.340 N 
HETATM   28  C19 UNL     1      -7.790  -1.480   0.445  1.00  0.00     0.022 C 
HETATM   29  C20 UNL     1      -6.717  -1.142   1.518  1.00  0.00     0.127 C 
HETATM   30  C21 UNL     1      -4.675   0.023   0.610  1.00  0.00     0.244 C 
HETATM   31  O5  UNL     1      -4.026  -0.872   1.248  1.00  0.00    -0.271 OA
ENDBRANCH  15  18
ENDBRANCH   7  12
BRANCH   1  32
HETATM   32  N3  UNL     1       5.539  -0.828   0.407  1.00  0.00    -0.334 N 
HETATM   33  C1  UNL     1       5.904  -1.687   1.414  1.00  0.00     0.322 C 
HETATM   34  O1  UNL     1       5.228  -2.494   1.999  1.00  0.00    -0.247 OA
HETATM   35  N1  UNL     1       7.341  -1.581   1.820  1.00  0.00    -0.289 N 
ATOM     36  H1  UNL     1       7.957  -2.368   2.024  1.00  0.00     0.172 HD
ATOM     37  H3  UNL     1       6.266  -0.216   0.037  1.00  0.00     0.165 HD
BRANCH  35  38
HETATM   38  C2  UNL     1       7.692  -0.286   1.874  1.00  0.00     0.152 A 
HETATM   39  N2  UNL     1       8.008   0.858   1.924  1.00  0.00    -0.346 N 
HETATM   40  C3  UNL     1       8.913   1.647   2.267  1.00  0.00     0.097 A 
ATOM     41  H2  UNL     1       7.243   1.410   1.536  1.00  0.00     0.167 HD
HETATM   42  C4  UNL     1       9.990   0.913   2.808  1.00  0.00     0.070 A 
HETATM   43  S1  UNL     1       9.497  -0.656   2.712  1.00  0.00    -0.064 SA
ENDBRANCH  35  38
ENDBRANCH   1  32
TORSDOF 4
