REMARK  4 active torsions:
REMARK  status: ('A' for Active; 'I' for Inactive)
REMARK    1  A    between atoms: C2_2  and  C3_3 
REMARK    2  A    between atoms: C3_3  and  N1_4 
REMARK       I    between atoms: N1_4  and  C4_6 
REMARK       I    between atoms: C4_6  and  N2_8 
REMARK    3  A    between atoms: C8_14  and  N4_15 
REMARK    4  A    between atoms: C14_23  and  C15_24 
ROOT
HETATM    1  N1  UNL     1       3.998  -0.706  -0.600  1.00  0.00    -0.343 N 
ATOM      2  H1  UNL     1       3.638  -0.910  -1.532  1.00  0.00     0.164 HD
HETATM    3  C4  UNL     1       3.069  -0.613   0.452  1.00  0.00     0.319 C 
HETATM    4  O1  UNL     1       3.504  -0.351   1.611  1.00  0.00    -0.247 OA
HETATM    5  N2  UNL     1       1.690  -0.799   0.231  1.00  0.00    -0.306 N 
HETATM    6  C5  UNL     1       0.684  -0.587   1.252  1.00  0.00     0.137 C 
HETATM    7  C6  UNL     1       0.552  -1.622   2.289  1.00  0.00     0.039 C 
HETATM    8  C7  UNL     1      -0.590  -0.318   0.462  1.00  0.00     0.049 A 
HETATM    9  N3  UNL     1      -1.786   0.154   0.742  1.00  0.00    -0.337 N 
ATOM     10  H3  UNL     1      -2.012   0.424   1.699  1.00  0.00     0.168 HD
HETATM   11  C8  UNL     1      -2.686   0.280  -0.196  1.00  0.00     0.147 A 
HETATM   12  S1  UNL     1      -1.835  -0.293  -1.579  1.00  0.00    -0.054 SA
HETATM   13  C13 UNL     1      -0.349  -0.663  -0.838  1.00  0.00     0.042 A 
HETATM   14  C14 UNL     1       1.079  -1.202  -0.986  1.00  0.00     0.239 C 
ENDROOT
BRANCH  14  15
HETATM   15  C15 UNL     1       1.016  -2.674  -1.190  1.00  0.00     0.412 C 
HETATM   16  F1  UNL     1       0.422  -2.947  -2.433  1.00  0.00    -0.168 F 
HETATM   17  F2  UNL     1       0.286  -3.353  -0.221  1.00  0.00    -0.168 F 
HETATM   18  F3  UNL     1       2.255  -3.231  -1.200  1.00  0.00    -0.168 F 
ENDBRANCH  14  15
BRANCH   1  19
HETATM   19  C3  UNL     1       5.427  -0.534  -0.456  1.00  0.00     0.124 C 
BRANCH  19  20
HETATM   20  C2  UNL     1       5.775   0.841   0.059  1.00  0.00     0.015 C 
HETATM   21  C1  UNL     1       5.259   1.940  -0.874  1.00  0.00     0.006 C 
ENDBRANCH  19  20
ENDBRANCH   1  19
BRANCH  11  22
HETATM   22  N4  UNL     1      -4.044   0.774  -0.122  1.00  0.00    -0.357 N 
HETATM   23  C9  UNL     1      -4.399   2.126  -0.415  1.00  0.00     0.151 C 
HETATM   24  C10 UNL     1      -5.889   2.292  -0.278  1.00  0.00     0.187 C 
HETATM   25  O2  UNL     1      -6.417   1.755   0.862  1.00  0.00    -0.388 OA
HETATM   26  C11 UNL     1      -5.978   0.527   1.245  1.00  0.00     0.187 C 
HETATM   27  C12 UNL     1      -5.070  -0.165   0.273  1.00  0.00     0.151 C 
ENDBRANCH  11  22
TORSDOF 4
