REMARK  10 active torsions:
REMARK  status: ('A' for Active; 'I' for Inactive)
REMARK    1  A    between atoms: C2_2  and  O1_3 
REMARK    2  A    between atoms: C2_2  and  C3_5 
REMARK    3  A    between atoms: C3_5  and  C4_6 
REMARK    4  A    between atoms: C6_10  and  N2_11 
REMARK    5  A    between atoms: C7_13  and  C8_14 
REMARK    6  A    between atoms: C8_14  and  C9_15 
REMARK    7  A    between atoms: C9_15  and  N3_16 
REMARK    8  A    between atoms: C9_15  and  C10_20 
REMARK    9  A    between atoms: C16_26  and  C17_27 
REMARK   10  A    between atoms: C17_27  and  N6_32 
REMARK       I    between atoms: N6_32  and  C19_34 
ROOT
HETATM    1  C17 UNL     1      -2.556  -0.420  -0.301  1.00  0.00     0.131 C 
HETATM    2  N4  UNL     1      -2.332  -1.114  -1.327  1.00  0.00    -0.278 N 
ATOM      3  H4  UNL     1      -2.496  -2.116  -1.230  1.00  0.00     0.179 HD
HETATM    4  C18 UNL     1      -1.896  -0.697  -2.558  1.00  0.00     0.183 C 
HETATM    5  N5  UNL     1      -1.545  -0.359  -3.630  1.00  0.00    -0.172 NA
ENDROOT
BRANCH   1   6
HETATM    6  C16 UNL     1      -2.381   1.004  -0.237  1.00  0.00     0.059 A 
HETATM    7  C4  UNL     1      -3.380   1.875   0.149  1.00  0.00     0.028 A 
HETATM    8  N1  UNL     1      -2.809   3.109   0.120  1.00  0.00    -0.366 N 
HETATM    9  C5  UNL     1      -1.541   3.050  -0.253  1.00  0.00     0.118 A 
ATOM     10  H1  UNL     1      -3.298   3.973   0.356  1.00  0.00     0.165 HD
HETATM   11  C6  UNL     1      -1.260   1.729  -0.480  1.00  0.00     0.063 A 
BRANCH   7  12
HETATM   12  C3  UNL     1      -4.776   1.682   0.527  1.00  0.00     0.089 C 
BRANCH  12  13
HETATM   13  C2  UNL     1      -5.739   1.472  -0.595  1.00  0.00     0.119 C 
HETATM   14  C1  UNL     1      -7.125   1.298   0.044  1.00  0.00     0.039 C 
BRANCH  13  15
HETATM   15  O1  UNL     1      -5.462   0.439  -1.447  1.00  0.00    -0.396 OA
ATOM     16  H1  UNL     1      -4.605   0.547  -1.842  1.00  0.00     0.210 HD
ENDBRANCH  13  15
ENDBRANCH  12  13
ENDBRANCH   7  12
BRANCH  11  17
HETATM   17  N2  UNL     1       0.052   1.275  -0.881  1.00  0.00    -0.368 N 
HETATM   18  C7  UNL     1       1.047   1.551  -0.145  1.00  0.00     0.063 C 
ATOM     19  H2  UNL     1       0.176   0.742  -1.742  1.00  0.00     0.165 HD
BRANCH  18  20
HETATM   20  C8  UNL     1       2.408   1.067  -0.584  1.00  0.00     0.077 C 
BRANCH  20  21
HETATM   21  C9  UNL     1       2.852  -0.086   0.253  1.00  0.00     0.192 C 
BRANCH  21  22
HETATM   22  N3  UNL     1       2.948   0.284   1.654  1.00  0.00    -0.074 N 
ATOM     23  H33 UNL     1       3.551   1.096   1.786  1.00  0.00     0.274 HD
ATOM     24  H32 UNL     1       2.073   0.680   1.997  1.00  0.00     0.274 HD
ATOM     25  H31 UNL     1       3.251  -0.504   2.226  1.00  0.00     0.274 HD
ENDBRANCH  21  22
BRANCH  21  26
HETATM   26  C10 UNL     1       4.198  -0.581  -0.203  1.00  0.00     0.016 C 
HETATM   27  C11 UNL     1       5.289   0.444  -0.118  1.00  0.00     0.007 C 
HETATM   28  C12 UNL     1       6.486  -0.091  -0.885  1.00  0.00     0.000 C 
HETATM   29  C13 UNL     1       6.428  -1.576  -1.068  1.00  0.00     0.000 C 
HETATM   30  C14 UNL     1       5.915  -2.293   0.146  1.00  0.00     0.000 C 
HETATM   31  C15 UNL     1       4.606  -1.766   0.654  1.00  0.00     0.007 C 
ENDBRANCH  21  26
ENDBRANCH  20  21
ENDBRANCH  18  20
ENDBRANCH  11  17
ENDBRANCH   1   6
BRANCH   1  32
HETATM   32  N6  UNL     1      -3.015  -1.172   0.839  1.00  0.00    -0.316 N 
HETATM   33  C19 UNL     1      -3.606  -2.443   0.730  1.00  0.00     0.187 C 
HETATM   34  N7  UNL     1      -4.648  -2.703   0.039  1.00  0.00    -0.373 N 
HETATM   35  N8  UNL     1      -2.992  -3.523   1.449  1.00  0.00    -0.064 NA
ATOM     36  H72 UNL     1      -5.084  -1.936  -0.472  1.00  0.00     0.158 HD
ATOM     37  H71 UNL     1      -5.077  -3.625  -0.040  1.00  0.00     0.158 HD
ATOM     38  H6  UNL     1      -2.906  -0.764   1.767  1.00  0.00     0.170 HD
ENDBRANCH   1  32
TORSDOF 10
