REMARK  2 active torsions:
REMARK  status: ('A' for Active; 'I' for Inactive)
REMARK    1  A    between atoms: C3_4  and  O2_5 
REMARK    2  A    between atoms: C3_4  and  O3_7 
ROOT
HETATM    1  C1  UNL     1       2.354   0.557   0.286  1.00  0.00     0.051 C 
HETATM    2  C2  UNL     1       0.961   0.086   0.634  1.00  0.00     0.185 C 
HETATM    3  O1  UNL     1       0.070   0.790  -0.172  1.00  0.00    -0.317 OA
HETATM    4  C3  UNL     1      -1.131   0.142  -0.178  1.00  0.00     0.287 C 
HETATM    5  C4  UNL     1      -0.917  -1.228  -0.842  1.00  0.00     0.178 C 
HETATM    6  S1  UNL     1       0.685  -1.615  -0.016  1.00  0.00    -0.130 SA
ENDROOT
BRANCH   4   7
HETATM    7  O2  UNL     1      -2.011   0.873  -0.967  1.00  0.00    -0.343 OA
ATOM      8  H2  UNL     1      -2.847   0.422  -0.971  1.00  0.00     0.215 HD
ENDBRANCH   4   7
BRANCH   4   9
HETATM    9  O3  UNL     1      -1.631  -0.035   1.105  1.00  0.00    -0.343 OA
ATOM     10  H3  UNL     1      -2.467  -0.486   1.101  1.00  0.00     0.215 HD
ENDBRANCH   4   9
TORSDOF 2
