REMARK  4 active torsions:
REMARK  status: ('A' for Active; 'I' for Inactive)
REMARK    1  A    between atoms: C2_2  and  N1_4 
REMARK    2  A    between atoms: C5_8  and  O1_9 
REMARK    3  A    between atoms: C8_13  and  C9_14 
REMARK       I    between atoms: C9_14  and  N3_16 
REMARK    4  A    between atoms: N3_16  and  C11_18 
ROOT
HETATM    1  N1  UNL     1       3.156  -0.222   0.721  1.00  0.00    -0.276 N 
HETATM    2  N2  UNL     1       3.405  -0.771  -0.522  1.00  0.00    -0.302 N 
ATOM      3  H2  UNL     1       4.328  -0.767  -0.957  1.00  0.00     0.186 HD
HETATM    4  C4  UNL     1       2.379  -1.283  -1.076  1.00  0.00     0.044 A 
HETATM    5  C5  UNL     1       2.216  -1.959  -2.384  1.00  0.00     0.166 C 
HETATM    6  C6  UNL     1       1.132  -1.191  -3.118  1.00  0.00     0.039 C 
HETATM    7  C7  UNL     1      -0.080  -1.041  -2.231  1.00  0.00     0.018 C 
HETATM    8  C8  UNL     1       0.174  -0.354  -0.937  1.00  0.00     0.095 C 
HETATM    9  C16 UNL     1       1.228  -1.122  -0.167  1.00  0.00     0.117 A 
HETATM   10  C17 UNL     1       1.768  -0.413   0.997  1.00  0.00     0.103 A 
HETATM   11  N4  UNL     1       1.237   0.006   2.089  1.00  0.00    -0.387 N 
ATOM     12  H41 UNL     1       0.246  -0.130   2.286  1.00  0.00     0.157 HD
ATOM     13  H42 UNL     1       1.613   0.499   2.899  1.00  0.00     0.157 HD
ENDROOT
BRANCH   8  14
HETATM   14  C9  UNL     1      -1.092  -0.265  -0.177  1.00  0.00     0.225 C 
HETATM   15  O2  UNL     1      -1.253  -1.059   0.816  1.00  0.00    -0.273 OA
HETATM   16  N3  UNL     1      -2.122   0.622  -0.471  1.00  0.00    -0.351 N 
HETATM   17  C10 UNL     1      -1.947   1.559  -1.590  1.00  0.00     0.153 C 
BRANCH  16  18
HETATM   18  C11 UNL     1      -3.374   0.719   0.224  1.00  0.00     0.086 C 
HETATM   19  C12 UNL     1      -3.241   1.016   1.704  1.00  0.00     0.025 C 
HETATM   20  C13 UNL     1      -4.730   0.982   2.088  1.00  0.00     0.002 C 
HETATM   21  C14 UNL     1      -5.347  -0.070   1.166  1.00  0.00     0.002 C 
HETATM   22  C15 UNL     1      -4.202  -0.525   0.246  1.00  0.00     0.025 C 
ENDBRANCH  16  18
ENDBRANCH   8  14
BRANCH   5  23
HETATM   23  O1  UNL     1       1.809  -3.264  -2.177  1.00  0.00    -0.390 OA
ATOM     24  H1  UNL     1       1.704  -3.698  -3.016  1.00  0.00     0.210 HD
ENDBRANCH   5  23
BRANCH   1  25
HETATM   25  C2  UNL     1       4.150   0.423   1.561  1.00  0.00     0.101 C 
HETATM   26  C1  UNL     1       3.795   1.864   1.842  1.00  0.00     0.034 C 
HETATM   27  C3  UNL     1       5.496   0.412   0.871  1.00  0.00     0.034 C 
ENDBRANCH   1  25
TORSDOF 4
