REMARK  3 active torsions:
REMARK  status: ('A' for Active; 'I' for Inactive)
REMARK    1  A    between atoms: C2_7  and  C3_8 
REMARK    2  A    between atoms: C7_12  and  C8_13 
REMARK    3  A    between atoms: C8_13  and  C9_14 
ROOT
HETATM    1  C3  UNL     1      -2.008  -0.936  -0.493  1.00  0.00     0.056 C 
HETATM    2  C4  UNL     1      -1.670  -1.816   0.658  1.00  0.00     0.012 C 
HETATM    3  C5  UNL     1      -0.418  -2.605   0.330  1.00  0.00     0.001 C 
HETATM    4  C6  UNL     1       0.787  -1.697   0.211  1.00  0.00     0.005 C 
HETATM    5  C7  UNL     1       0.419  -0.301  -0.131  1.00  0.00    -0.013 C 
HETATM    6  C13 UNL     1      -0.831  -0.181  -0.961  1.00  0.00     0.017 C 
ENDROOT
BRANCH   1   7
HETATM    7  C2  UNL     1      -3.066   0.056  -0.075  1.00  0.00     0.117 A 
HETATM    8  N3  UNL     1      -2.947   1.039   0.848  1.00  0.00    -0.272 N 
HETATM    9  N2  UNL     1      -4.087   1.697   0.934  1.00  0.00    -0.225 N 
ATOM     10  H3  UNL     1      -2.108   1.239   1.392  1.00  0.00     0.190 HD
HETATM   11  N1  UNL     1      -4.944   1.166   0.089  1.00  0.00    -0.223 N 
ATOM     12  H2  UNL     1      -4.273   2.486   1.553  1.00  0.00     0.210 HD
HETATM   13  C1  UNL     1      -6.309   1.635  -0.090  1.00  0.00     0.202 C 
HETATM   14  N5  UNL     1      -4.329   0.170  -0.525  1.00  0.00    -0.270 N 
ATOM     15  H5  UNL     1      -4.751  -0.426  -1.237  1.00  0.00     0.190 HD
ENDBRANCH   1   7
BRANCH   5  16
HETATM   16  C8  UNL     1       1.506   0.570  -0.672  1.00  0.00     0.011 C 
BRANCH  16  17
HETATM   17  C9  UNL     1       2.679   0.816   0.195  1.00  0.00     0.013 C 
HETATM   18  C10 UNL     1       3.680   1.747  -0.522  1.00  0.00     0.034 C 
HETATM   19  C11 UNL     1       4.796   0.781  -0.834  1.00  0.00     0.232 C 
HETATM   20  N4  UNL     1       4.916   0.114   0.474  1.00  0.00    -0.075 N 
HETATM   21  C12 UNL     1       3.511  -0.337   0.605  1.00  0.00     0.237 C 
ATOM     22  H42 UNL     1       5.636  -0.603   0.558  1.00  0.00     0.277 HD
ATOM     23  H41 UNL     1       5.290   0.674   1.240  1.00  0.00     0.277 HD
ENDBRANCH  16  17
ENDBRANCH   5  16
TORSDOF 3
