REMARK  4 active torsions:
REMARK  status: ('A' for Active; 'I' for Inactive)
REMARK       I    between atoms: C1_2  and  N1_3 
REMARK       I    between atoms: C1_2  and  N2_12 
REMARK    1  A    between atoms: N1_3  and  C2_5 
REMARK    2  A    between atoms: C2_5  and  C3_6 
REMARK    3  A    between atoms: C3_6  and  C4_7 
REMARK    4  A    between atoms: C11_16  and  C12_17 
ROOT
HETATM    1  O1  UNL     1      -0.857  -1.257   0.226  1.00  0.00    -0.247 OA
HETATM    2  C1  UNL     1      -0.738  -0.199  -0.420  1.00  0.00     0.319 C 
HETATM    3  N1  UNL     1       0.351  -0.080  -1.312  1.00  0.00    -0.343 N 
ATOM      4  H1  UNL     1       0.426   0.796  -1.828  1.00  0.00     0.164 HD
HETATM    5  N2  UNL     1      -1.715   0.810  -0.204  1.00  0.00    -0.322 N 
HETATM    6  C8  UNL     1      -1.794   2.124  -0.824  1.00  0.00     0.128 C 
HETATM    7  C9  UNL     1      -3.274   2.220  -1.132  1.00  0.00     0.022 C 
HETATM    8  C10 UNL     1      -3.866   1.731   0.181  1.00  0.00     0.035 C 
HETATM    9  C11 UNL     1      -2.848   0.734   0.696  1.00  0.00     0.166 C 
ENDROOT
BRANCH   9  10
HETATM   10  C12 UNL     1      -3.417  -0.625   0.793  1.00  0.00     0.171 A 
HETATM   11  N3  UNL     1      -3.752  -1.275   1.914  1.00  0.00    -0.332 N 
HETATM   12  C13 UNL     1      -4.238  -2.494   1.579  1.00  0.00     0.206 A 
ATOM     13  H3  UNL     1      -3.657  -0.913   2.863  1.00  0.00     0.168 HD
HETATM   14  N4  UNL     1      -4.180  -2.541   0.232  1.00  0.00    -0.255 N 
HETATM   15  O3  UNL     1      -3.688  -1.417  -0.203  1.00  0.00    -0.221 OA
ATOM     16  H4  UNL     1      -4.473  -3.327  -0.349  1.00  0.00     0.195 HD
ENDBRANCH   9  10
BRANCH   3  17
HETATM   17  C2  UNL     1       1.346  -1.050  -1.562  1.00  0.00     0.125 C 
BRANCH  17  18
HETATM   18  C3  UNL     1       2.167  -1.469  -0.392  1.00  0.00     0.026 C 
BRANCH  18  19
HETATM   19  C4  UNL     1       2.909  -0.281   0.201  1.00  0.00     0.013 C 
HETATM   20  C5  UNL     1       3.737  -0.733   1.389  1.00  0.00     0.033 C 
HETATM   21  C6  UNL     1       4.906   0.201   1.327  1.00  0.00     0.168 C 
HETATM   22  O2  UNL     1       4.865   0.881   0.140  1.00  0.00    -0.391 OA
HETATM   23  C7  UNL     1       4.013   0.200  -0.723  1.00  0.00     0.172 C 
ENDBRANCH  18  19
ENDBRANCH  17  18
ENDBRANCH   3  17
TORSDOF 4
