REMARK  3 active torsions:
REMARK  status: ('A' for Active; 'I' for Inactive)
REMARK       I    between atoms: C1_2  and  N1_3 
REMARK    1  A    between atoms: C1_2  and  C7_11 
REMARK    2  A    between atoms: N1_3  and  N2_5 
REMARK    3  A    between atoms: N4_15  and  C9_16 
ROOT
HETATM    1  C7  UNL     1       0.416  -0.566  -0.220  1.00  0.00     0.191 A 
HETATM    2  N3  UNL     1       0.845  -1.714   0.337  1.00  0.00    -0.332 N 
ATOM      3  H3  UNL     1       0.260  -2.443   0.745  1.00  0.00     0.168 HD
HETATM    4  C8  UNL     1       2.210  -1.722   0.255  1.00  0.00     0.202 A 
HETATM    5  N4  UNL     1       2.593  -0.598  -0.341  1.00  0.00    -0.281 N 
HETATM    6  N5  UNL     1       1.505   0.092  -0.624  1.00  0.00    -0.277 N 
ATOM      7  H5  UNL     1       1.497   1.001  -1.087  1.00  0.00     0.189 HD
ENDROOT
BRANCH   1   8
HETATM    8  C1  UNL     1      -0.993  -0.133  -0.321  1.00  0.00     0.301 C 
HETATM    9  O1  UNL     1      -1.181   0.938  -0.951  1.00  0.00    -0.263 OA
HETATM   10  N1  UNL     1      -2.051  -0.867   0.250  1.00  0.00    -0.282 N 
ATOM     11  H1  UNL     1      -1.877  -1.737   0.753  1.00  0.00     0.184 HD
BRANCH  10  12
HETATM   12  N2  UNL     1      -3.335  -0.368   0.106  1.00  0.00    -0.229 NA
HETATM   13  C2  UNL     1      -4.394  -1.294   0.384  1.00  0.00     0.113 C 
HETATM   14  C3  UNL     1      -5.661  -0.457   0.595  1.00  0.00     0.016 C 
HETATM   15  C4  UNL     1      -5.700   0.760  -0.281  1.00  0.00     0.002 C 
HETATM   16  C5  UNL     1      -4.502   1.678  -0.097  1.00  0.00     0.016 C 
HETATM   17  C6  UNL     1      -3.539   0.896   0.803  1.00  0.00     0.113 C 
ENDBRANCH  10  12
ENDBRANCH   1   8
BRANCH   5  18
HETATM   18  C9  UNL     1       3.975  -0.210  -0.604  1.00  0.00     0.109 C 
HETATM   19  C10 UNL     1       4.928  -0.986   0.258  1.00  0.00     0.027 C 
HETATM   20  C11 UNL     1       6.106  -0.057   0.458  1.00  0.00     0.002 C 
HETATM   21  C12 UNL     1       5.661   1.305   0.000  1.00  0.00     0.002 C 
HETATM   22  C13 UNL     1       4.158   1.210  -0.040  1.00  0.00     0.027 C 
ENDBRANCH   5  18
TORSDOF 3
