REMARK  2 active torsions:
REMARK  status: ('A' for Active; 'I' for Inactive)
REMARK    1  A    between atoms: N1_1  and  C1_5 
REMARK    2  A    between atoms: C5_10  and  O2_11 
ROOT
HETATM    1  C1  UNL     1       1.629  -0.517   0.401  1.00  0.00     0.217 C 
HETATM    2  C2  UNL     1       0.510  -1.373  -0.140  1.00  0.00     0.068 C 
HETATM    3  C3  UNL     1      -0.570  -1.145   0.870  1.00  0.00     0.133 C 
HETATM    4  O1  UNL     1      -0.000  -0.382   1.910  1.00  0.00    -0.375 OA
HETATM    5  C4  UNL     1       0.827   0.506   1.189  1.00  0.00     0.183 C 
HETATM    6  C5  UNL     1       0.064   1.449   0.335  1.00  0.00     0.178 C 
HETATM    7  C6  UNL     1      -1.331   1.054   0.012  1.00  0.00     0.161 C 
HETATM    8  O3  UNL     1      -1.524   0.718  -1.349  1.00  0.00    -0.382 OA
HETATM    9  C7  UNL     1      -2.150  -0.494  -1.030  1.00  0.00     0.178 C 
HETATM   10  C8  UNL     1      -1.715  -0.328   0.368  1.00  0.00     0.070 C 
ENDROOT
BRANCH   1  11
HETATM   11  N1  UNL     1       2.486   0.034  -0.568  1.00  0.00    -0.072 N 
ATOM     12  H13 UNL     1       2.865  -0.704  -1.161  1.00  0.00     0.274 HD
ATOM     13  H12 UNL     1       1.946   0.558  -1.257  1.00  0.00     0.274 HD
ATOM     14  H11 UNL     1       3.242   0.613  -0.202  1.00  0.00     0.274 HD
ENDBRANCH   1  11
BRANCH   6  15
HETATM   15  O2  UNL     1       0.715   1.751  -0.867  1.00  0.00    -0.390 OA
ATOM     16  H2  UNL     1       0.226   2.355  -1.414  1.00  0.00     0.210 HD
ENDBRANCH   6  15
TORSDOF 2
