REMARK  7 active torsions:
REMARK  status: ('A' for Active; 'I' for Inactive)
REMARK    1  A    between atoms: O1_1  and  C1_3 
REMARK    2  A    between atoms: C1_3  and  C2_4 
REMARK    3  A    between atoms: C2_4  and  C3_5 
REMARK    4  A    between atoms: C3_5  and  O2_6 
REMARK    5  A    between atoms: C4_9  and  N1_10 
REMARK    6  A    between atoms: C9_15  and  O3_16 
REMARK    7  A    between atoms: C10_18  and  O4_19 
ROOT
HETATM    1  C2  UNL     1      -1.774  -0.225   0.169  1.00  0.00     0.081 C 
HETATM    2  S1  UNL     1      -0.551   0.787   1.058  1.00  0.00    -0.123 SA
HETATM    3  C4  UNL     1       0.769   0.521  -0.178  1.00  0.00     0.182 C 
HETATM    4  C9  UNL     1       0.463  -0.914  -0.530  1.00  0.00     0.181 C 
HETATM    5  C10 UNL     1      -0.978  -1.045  -0.778  1.00  0.00     0.172 C 
ENDROOT
BRANCH   1   6
HETATM    6  C1  UNL     1      -2.616  -1.040   1.115  1.00  0.00     0.189 C 
BRANCH   6   7
HETATM    7  O1  UNL     1      -3.262  -0.207   2.011  1.00  0.00    -0.399 OA
ATOM      8  H1  UNL     1      -3.793  -0.721   2.608  1.00  0.00     0.209 HD
ENDBRANCH   6   7
ENDBRANCH   1   6
BRANCH   1   9
HETATM    9  C3  UNL     1      -2.672   0.739  -0.593  1.00  0.00     0.189 C 
BRANCH   9  10
HETATM   10  O2  UNL     1      -1.962   1.519  -1.480  1.00  0.00    -0.399 OA
ATOM     11  H2  UNL     1      -2.523   2.121  -1.956  1.00  0.00     0.209 HD
ENDBRANCH   9  10
ENDBRANCH   1   9
BRANCH   5  12
HETATM   12  O4  UNL     1      -1.377  -2.387  -0.606  1.00  0.00    -0.391 OA
ATOM     13  H4  UNL     1      -0.867  -2.912  -1.212  1.00  0.00     0.210 HD
ENDBRANCH   5  12
BRANCH   3  14
HETATM   14  N1  UNL     1       2.067   0.733   0.342  1.00  0.00    -0.350 N 
HETATM   15  C5  UNL     1       2.722   0.067   1.297  1.00  0.00     0.092 A 
HETATM   16  C6  UNL     1       3.960   0.598   1.499  1.00  0.00     0.019 A 
HETATM   17  C7  UNL     1       4.093   1.661   0.619  1.00  0.00     0.019 A 
HETATM   18  C8  UNL     1       2.908   1.707  -0.070  1.00  0.00     0.092 A 
ENDBRANCH   3  14
BRANCH   4  19
HETATM   19  O3  UNL     1       1.174  -1.200  -1.710  1.00  0.00    -0.390 OA
ATOM     20  H3  UNL     1       0.981  -2.103  -1.932  1.00  0.00     0.210 HD
ENDBRANCH   4  19
TORSDOF 7
