REMARK  4 active torsions:
REMARK  status: ('A' for Active; 'I' for Inactive)
REMARK    1  A    between atoms: C2_2  and  N2_7 
REMARK    2  A    between atoms: N1_3  and  O1_5 
REMARK    3  A    between atoms: N2_7  and  C3_9 
REMARK    4  A    between atoms: C3_9  and  C10_16 
ROOT
HETATM    1  C3  UNL     1      -0.299   0.240  -0.522  1.00  0.00     0.049 C 
HETATM    2  C4  UNL     1       1.044   0.253  -0.482  1.00  0.00    -0.052 C 
HETATM    3  C5  UNL     1       1.884  -0.721  -1.222  1.00  0.00     0.036 C 
HETATM    4  C6  UNL     1       2.774  -1.500  -0.304  1.00  0.00     0.004 C 
HETATM    5  C7  UNL     1       3.352  -0.737   0.823  1.00  0.00     0.001 C 
HETATM    6  C8  UNL     1       3.089   0.709   0.890  1.00  0.00     0.004 C 
HETATM    7  C9  UNL     1       1.797   1.220   0.329  1.00  0.00     0.036 C 
ENDROOT
BRANCH   1   8
HETATM    8  N2  UNL     1      -0.864  -0.789  -1.326  1.00  0.00    -0.344 N 
ATOM      9  H2  UNL     1      -0.925  -0.588  -2.324  1.00  0.00     0.167 HD
BRANCH   8  10
HETATM   10  C2  UNL     1      -1.346  -2.038  -0.929  1.00  0.00     0.098 C 
HETATM   11  C1  UNL     1      -2.704  -2.430  -1.472  1.00  0.00     0.091 C 
HETATM   12  N1  UNL     1      -0.764  -2.892  -0.169  1.00  0.00    -0.257 N 
ATOM     13  H1  UNL     1       0.153  -2.686   0.227  1.00  0.00     0.195 HD
BRANCH  12  14
HETATM   14  O1  UNL     1      -1.382  -4.079   0.106  1.00  0.00    -0.288 OA
ATOM     15  H1  UNL     1      -0.951  -4.711   0.669  1.00  0.00     0.244 HD
ENDBRANCH  12  14
ENDBRANCH   8  10
ENDBRANCH   1   8
BRANCH   1  16
HETATM   16  C10 UNL     1      -1.120   1.261   0.127  1.00  0.00     0.029 A 
HETATM   17  C11 UNL     1      -0.890   2.612  -0.178  1.00  0.00     0.017 A 
HETATM   18  C12 UNL     1      -1.613   3.620   0.417  1.00  0.00     0.001 A 
HETATM   19  C13 UNL     1      -2.597   3.361   1.338  1.00  0.00     0.003 A 
HETATM   20  C14 UNL     1      -2.833   2.045   1.645  1.00  0.00     0.043 A 
HETATM   21  C15 UNL     1      -2.106   1.006   1.050  1.00  0.00     0.128 A 
HETATM   22  F1  UNL     1      -2.407  -0.254   1.428  1.00  0.00    -0.205 F 
ENDBRANCH   1  16
TORSDOF 4
