REMARK  2 active torsions:
REMARK  status: ('A' for Active; 'I' for Inactive)
REMARK    1  A    between atoms: C5_11  and  N3_12 
REMARK    2  A    between atoms: N3_12  and  N4_14 
ROOT
HETATM    1  N3  UNL     1       1.216  -0.236  -0.870  1.00  0.00    -0.297 N 
ATOM      2  H3  UNL     1       0.852  -1.150  -1.140  1.00  0.00     0.187 HD
ENDROOT
BRANCH   1   3
HETATM    3  C5  UNL     1       2.561  -0.146  -0.496  1.00  0.00     0.091 A 
HETATM    4  C1  UNL     1       3.349  -1.271  -0.500  1.00  0.00     0.128 A 
HETATM    5  N1  UNL     1       2.841  -2.427  -0.853  1.00  0.00    -0.384 N 
HETATM    6  N2  UNL     1       4.637  -1.143  -0.134  1.00  0.00    -0.332 N 
ATOM      7  H12 UNL     1       3.426  -3.262  -0.856  1.00  0.00     0.157 HD
ATOM      8  H11 UNL     1       1.864  -2.524  -1.131  1.00  0.00     0.157 HD
HETATM    9  C2  UNL     1       5.178   0.026   0.230  1.00  0.00     0.105 A 
ATOM     10  H2  UNL     1       5.228  -1.974  -0.134  1.00  0.00     0.168 HD
HETATM   11 CL1  UNL     1       6.871   0.100   0.692  1.00  0.00    -0.065 Cl
HETATM   12  C3  UNL     1       4.421   1.177   0.246  1.00  0.00     0.045 A 
HETATM   13  C4  UNL     1       3.091   1.072  -0.126  1.00  0.00     0.038 A 
ENDBRANCH   1   3
BRANCH   1  14
HETATM   14  N4  UNL     1       0.341   0.858  -0.895  1.00  0.00    -0.308 N 
HETATM   15  C6  UNL     1      -0.607   0.890  -0.041  1.00  0.00     0.004 C 
HETATM   16  C7  UNL     1      -0.625  -0.261   0.856  1.00  0.00     0.054 C 
HETATM   17  C13 UNL     1      -1.433   2.106  -0.204  1.00  0.00     0.054 C 
HETATM   18  C8  UNL     1      -1.534  -1.347   0.314  1.00  0.00     0.006 C 
HETATM   19  C9  UNL     1      -2.895  -1.257   0.911  1.00  0.00     0.000 C 
HETATM   20  C10 UNL     1      -3.885  -0.462   0.159  1.00  0.00     0.000 C 
HETATM   21  C11 UNL     1      -3.340   0.589  -0.739  1.00  0.00     0.000 C 
HETATM   22  C12 UNL     1      -2.896   1.795   0.087  1.00  0.00     0.006 C 
ATOM     23  H4  UNL     1       0.458   1.608  -1.577  1.00  0.00     0.186 HD
ENDBRANCH   1  14
TORSDOF 2
