REMARK  7 active torsions:
REMARK  status: ('A' for Active; 'I' for Inactive)
REMARK    1  A    between atoms: C2_2  and  O2_4 
REMARK    2  A    between atoms: O2_4  and  C3_5 
REMARK    3  A    between atoms: C10_12  and  O3_13 
REMARK    4  A    between atoms: O3_13  and  C11_14 
REMARK       I    between atoms: C11_14  and  N1_16 
REMARK       I    between atoms: N1_16  and  C12_18 
REMARK    5  A    between atoms: C12_18  and  O6_20 
REMARK    6  A    between atoms: O6_20  and  C13_21 
REMARK    7  A    between atoms: C17_25  and  O7_26 
ROOT
HETATM    1  C3  UNL     1      -2.147   0.213  -2.172  1.00  0.00     0.192 C 
HETATM    2  C4  UNL     1      -3.458  -0.050  -1.626  1.00  0.00    -0.055 C 
HETATM    3  C5  UNL     1      -4.430   0.899  -2.241  1.00  0.00     0.046 C 
HETATM    4  C6  UNL     1      -3.979  -0.894  -0.743  1.00  0.00    -0.010 C 
HETATM    5  C7  UNL     1      -3.704  -1.979   0.168  1.00  0.00     0.073 C 
HETATM    6  C8  UNL     1      -2.373  -2.367   0.573  1.00  0.00    -0.059 C 
HETATM    7  C9  UNL     1      -1.220  -2.429  -0.300  1.00  0.00     0.012 C 
HETATM    8  C10 UNL     1      -0.568  -1.220  -0.830  1.00  0.00     0.188 C 
HETATM    9  C17 UNL     1      -1.140  -0.864  -2.172  1.00  0.00     0.185 C 
HETATM   10  C18 UNL     1      -2.145  -1.763   1.968  1.00  0.00     0.114 C 
HETATM   11  C19 UNL     1      -2.477  -0.317   2.078  1.00  0.00     0.183 C 
HETATM   12  O8  UNL     1      -3.792  -0.218   1.666  1.00  0.00    -0.378 OA
HETATM   13  C20 UNL     1      -4.303  -1.509   1.517  1.00  0.00     0.206 C 
HETATM   14  C21 UNL     1      -3.494  -2.264   2.554  1.00  0.00     0.279 C 
HETATM   15  F1  UNL     1      -3.652  -1.702   3.803  1.00  0.00    -0.203 F 
HETATM   16  F2  UNL     1      -3.627  -3.602   2.530  1.00  0.00    -0.203 F 
ENDROOT
BRANCH   8  17
HETATM   17  O3  UNL     1       0.819  -1.533  -1.100  1.00  0.00    -0.292 OA
BRANCH  17  18
HETATM   18  C11 UNL     1       1.869  -0.874  -0.533  1.00  0.00     0.369 C 
HETATM   19  O4  UNL     1       1.671   0.050   0.266  1.00  0.00    -0.238 OA
HETATM   20  N1  UNL     1       3.200  -1.251  -0.860  1.00  0.00    -0.248 N 
HETATM   21  C12 UNL     1       4.319  -0.595  -0.292  1.00  0.00     0.369 C 
ATOM     22  H1  UNL     1       3.353  -2.013  -1.520  1.00  0.00     0.176 HD
HETATM   23  O5  UNL     1       5.500  -0.900  -0.561  1.00  0.00    -0.238 OA
BRANCH  21  24
HETATM   24  O6  UNL     1       4.095   0.435   0.605  1.00  0.00    -0.294 OA
BRANCH  24  25
HETATM   25  C13 UNL     1       5.138   1.133   1.208  1.00  0.00     0.061 C 
HETATM   26  C14 UNL     1       6.048   1.834   0.219  1.00  0.00     0.046 C 
HETATM   27  C15 UNL     1       5.955   0.273   2.133  1.00  0.00     0.046 C 
HETATM   28  C16 UNL     1       4.525   2.236   2.076  1.00  0.00     0.046 C 
ENDBRANCH  24  25
ENDBRANCH  21  24
ENDBRANCH  17  18
ENDBRANCH   8  17
BRANCH   9  29
HETATM   29  O7  UNL     1      -0.123  -0.465  -3.067  1.00  0.00    -0.390 OA
ATOM     30  H7  UNL     1       0.526  -1.159  -3.067  1.00  0.00     0.210 HD
ENDBRANCH   9  29
BRANCH   1  31
HETATM   31  O2  UNL     1      -1.632   1.367  -1.498  1.00  0.00    -0.309 OA
BRANCH  31  32
HETATM   32  C2  UNL     1      -1.383   2.559  -2.101  1.00  0.00     0.255 C 
HETATM   33  C1  UNL     1      -0.851   3.701  -1.322  1.00  0.00     0.126 C 
HETATM   34  O1  UNL     1      -1.592   2.721  -3.306  1.00  0.00    -0.266 OA
ENDBRANCH  31  32
ENDBRANCH   1  31
TORSDOF 7
