REMARK  7 active torsions:
REMARK  status: ('A' for Active; 'I' for Inactive)
REMARK    1  A    between atoms: C2_4  and  N2_5 
REMARK    2  A    between atoms: C2_4  and  C17_34 
REMARK    3  A    between atoms: N2_5  and  C3_7 
REMARK    4  A    between atoms: C3_7  and  C4_8 
REMARK    5  A    between atoms: C13_20  and  C14_21 
REMARK    6  A    between atoms: C15_24  and  N4_25 
REMARK       I    between atoms: N4_25  and  C16_27 
REMARK       I    between atoms: C16_27  and  N5_29 
REMARK    7  A    between atoms: N5_29  and  N6_31 
ROOT
HETATM    1  C4  UNL     1      -0.143  -0.124  -0.306  1.00  0.00     0.036 C 
HETATM    2  C5  UNL     1      -0.574  -1.397   0.445  1.00  0.00     0.111 C 
HETATM    3  C6  UNL     1      -1.057  -2.445  -0.486  1.00  0.00     0.218 C 
HETATM    4  O1  UNL     1      -0.414  -2.583  -1.570  1.00  0.00    -0.274 OA
HETATM    5  N3  UNL     1      -2.159  -3.295  -0.279  1.00  0.00    -0.361 N 
ATOM      6  H3  UNL     1      -2.004  -4.278  -0.505  1.00  0.00     0.162 HD
HETATM    7  C7  UNL     1      -3.471  -2.972   0.206  1.00  0.00     0.122 C 
HETATM    8  C8  UNL     1      -4.529  -2.876  -0.835  1.00  0.00     0.020 C 
HETATM    9  C9  UNL     1      -5.147  -1.479  -1.011  1.00  0.00     0.002 C 
HETATM   10  C10 UNL     1      -3.964  -0.574  -1.260  1.00  0.00     0.000 C 
HETATM   11  C11 UNL     1      -4.239   0.875  -1.458  1.00  0.00     0.001 C 
HETATM   12  C12 UNL     1      -3.252   1.773  -0.820  1.00  0.00     0.017 C 
HETATM   13  C13 UNL     1      -1.803   1.690  -1.127  1.00  0.00     0.110 C 
HETATM   14  C15 UNL     1      -1.006   1.048  -0.045  1.00  0.00     0.106 C 
ENDROOT
BRANCH   1  15
HETATM   15  C3  UNL     1       1.217   0.191   0.306  1.00  0.00     0.128 C 
BRANCH  15  16
HETATM   16  N2  UNL     1       2.181  -0.840   0.148  1.00  0.00    -0.379 N 
ATOM     17  H2  UNL     1       1.950  -1.704  -0.343  1.00  0.00     0.160 HD
BRANCH  16  18
HETATM   18  C2  UNL     1       3.520  -0.626   0.713  1.00  0.00     0.076 C 
HETATM   19  N1  UNL     1       3.812  -1.110   1.819  1.00  0.00    -0.384 N 
HETATM   20  C1  UNL     1       4.864  -1.183   2.712  1.00  0.00     0.147 C 
ATOM     21  H1  UNL     1       3.012  -1.622   2.190  1.00  0.00     0.160 HD
BRANCH  18  22
HETATM   22  C17 UNL     1       4.412   0.194  -0.112  1.00  0.00     0.055 C 
HETATM   23  C18 UNL     1       5.891   0.149   0.114  1.00  0.00     0.032 C 
HETATM   24  C19 UNL     1       6.103   0.120  -1.406  1.00  0.00     0.084 C 
HETATM   25 CL1  UNL     1       6.219   1.718  -2.137  1.00  0.00    -0.125 Cl
HETATM   26  C20 UNL     1       4.686  -0.465  -1.472  1.00  0.00     0.032 C 
ENDBRANCH  18  22
ENDBRANCH  16  18
ENDBRANCH  15  16
ENDBRANCH   1  15
BRANCH  14  27
HETATM   27  N4  UNL     1      -0.299   2.069   0.753  1.00  0.00    -0.336 N 
HETATM   28  C16 UNL     1      -0.569   2.319   2.116  1.00  0.00     0.334 C 
HETATM   29  O4  UNL     1      -1.433   1.703   2.788  1.00  0.00    -0.246 OA
HETATM   30  N5  UNL     1       0.149   3.316   2.824  1.00  0.00    -0.258 N 
ATOM     31  H5  UNL     1       0.860   3.838   2.312  1.00  0.00     0.191 HD
ATOM     32  H4  UNL     1       0.424   2.624   0.295  1.00  0.00     0.164 HD
BRANCH  30  33
HETATM   33  N6  UNL     1      -0.042   3.632   4.150  1.00  0.00    -0.341 N 
ATOM     34  H62 UNL     1      -0.757   3.100   4.646  1.00  0.00     0.177 HD
ATOM     35  H61 UNL     1       0.474   4.349   4.659  1.00  0.00     0.177 HD
ENDBRANCH  30  33
ENDBRANCH  14  27
BRANCH  13  36
HETATM   36  C14 UNL     1      -1.437   1.436  -2.505  1.00  0.00     0.179 C 
HETATM   37  O2  UNL     1      -2.339   1.278  -3.340  1.00  0.00    -0.648 OA
HETATM   38  O3  UNL     1      -0.186   1.340  -3.041  1.00  0.00    -0.648 OA
ENDBRANCH  13  36
TORSDOF 7
