REMARK  4 active torsions:
REMARK  status: ('A' for Active; 'I' for Inactive)
REMARK    1  A    between atoms: C2_2  and  C4_16 
REMARK    2  A    between atoms: N1_3  and  N2_5 
REMARK       I    between atoms: N2_5  and  C3_7 
REMARK       I    between atoms: C3_7  and  N4_11 
REMARK    3  A    between atoms: N4_11  and  N5_13 
REMARK    4  A    between atoms: C8_21  and  N6_22 
ROOT
HETATM    1  C1  UNL     1       0.591  -2.072   0.049  1.00  0.00     0.071 C 
HETATM    2  C2  UNL     1       0.120  -0.740  -0.326  1.00  0.00     0.042 C 
HETATM    3  N1  UNL     1       1.002  -0.020  -1.012  1.00  0.00    -0.290 N 
ATOM      4  H1  UNL     1       0.751   0.922  -1.313  1.00  0.00     0.187 HD
ENDROOT
BRANCH   3   5
HETATM    5  N2  UNL     1       2.250  -0.520  -1.326  1.00  0.00    -0.131 N 
HETATM    6  C3  UNL     1       3.425  -0.098  -0.634  1.00  0.00     0.709 C 
HETATM    7  N3  UNL     1       4.494  -0.778  -0.725  1.00  0.00    -0.232 N 
HETATM    8  N4  UNL     1       3.409   1.075   0.154  1.00  0.00    -0.071 N 
ATOM      9  H32 UNL     1       4.506  -1.625  -1.294  1.00  0.00     0.174 HD
ATOM     10  H31 UNL     1       5.334  -0.476  -0.231  1.00  0.00     0.174 HD
ATOM     11  H4  UNL     1       2.566   1.649   0.188  1.00  0.00     0.212 HD
ATOM     12  H2  UNL     1       2.335  -1.210  -2.073  1.00  0.00     0.205 HD
BRANCH   8  13
HETATM   13  N5  UNL     1       4.534   1.456   0.886  1.00  0.00    -0.024 N 
HETATM   14  O1  UNL     1       4.865   0.816   1.910  1.00  0.00    -0.516 OA
HETATM   15  O2  UNL     1       5.325   2.523   0.539  1.00  0.00    -0.516 OA
ENDBRANCH   8  13
ENDBRANCH   3   5
BRANCH   2  16
HETATM   16  C4  UNL     1      -1.194  -0.154  -0.086  1.00  0.00     0.062 A 
HETATM   17  S1  UNL     1      -1.686   1.336  -0.851  1.00  0.00    -0.091 SA
HETATM   18  C5  UNL     1      -3.277   1.430  -0.287  1.00  0.00    -0.018 A 
HETATM   19  C6  UNL     1      -4.328   2.485  -0.554  1.00  0.00     0.056 C 
HETATM   20  C7  UNL     1      -3.394   0.312   0.478  1.00  0.00     0.051 A 
HETATM   21  C8  UNL     1      -2.303  -0.509   0.581  1.00  0.00     0.122 A 
BRANCH  21  22
HETATM   22  N6  UNL     1      -2.414  -1.710   1.403  1.00  0.00    -0.114 N 
HETATM   23  O3  UNL     1      -1.539  -2.133   2.134  1.00  0.00    -0.532 OA
HETATM   24  O4  UNL     1      -3.634  -2.398   1.430  1.00  0.00    -0.532 OA
ENDBRANCH  21  22
ENDBRANCH   2  16
TORSDOF 4
