REMARK  3 active torsions:
REMARK  status: ('A' for Active; 'I' for Inactive)
REMARK    1  A    between atoms: C4_4  and  S1_5 
REMARK    2  A    between atoms: S1_5  and  C5_6 
REMARK    3  A    between atoms: C5_6  and  C6_7 
ROOT
HETATM    1  C1  UNL     1      -2.784   2.949   0.553  1.00  0.00     0.018 C 
HETATM    2  C2  UNL     1      -2.322   1.905   0.158  1.00  0.00    -0.074 C 
HETATM    3  C3  UNL     1      -1.770   0.680  -0.333  1.00  0.00     0.064 A 
HETATM    4  C4  UNL     1      -0.454   0.604  -0.785  1.00  0.00     0.090 A 
HETATM    5  N2  UNL     1      -0.235  -0.641  -1.173  1.00  0.00    -0.343 N 
ATOM      6  H2  UNL     1       0.640  -1.004  -1.552  1.00  0.00     0.167 HD
HETATM    7  C10 UNL     1      -1.381  -1.357  -0.979  1.00  0.00     0.087 A 
HETATM    8  S3  UNL     1      -2.119  -2.886  -1.125  1.00  0.00    -0.083 SA
HETATM    9  C11 UNL     1      -3.668  -2.510  -0.521  1.00  0.00     0.059 A 
HETATM   10  C12 UNL     1      -3.561  -1.181  -0.217  1.00  0.00    -0.041 A 
HETATM   11  C13 UNL     1      -4.774  -0.477   0.365  1.00  0.00     0.049 C 
HETATM   12  C14 UNL     1      -2.377  -0.584  -0.455  1.00  0.00     0.026 A 
ENDROOT
BRANCH   4  13
HETATM   13  S1  UNL     1       0.764   1.917  -0.852  1.00  0.00    -0.105 SA
BRANCH  13  14
HETATM   14  C5  UNL     1       1.732   2.013   0.656  1.00  0.00     0.138 C 
BRANCH  14  15
HETATM   15  C6  UNL     1       2.577   0.758   0.778  1.00  0.00     0.026 A 
HETATM   16  C7  UNL     1       2.085  -0.351   1.419  1.00  0.00     0.077 A 
HETATM   17  S2  UNL     1       3.397  -1.438   1.273  1.00  0.00    -0.087 SA
HETATM   18  C8  UNL     1       4.475  -0.427   0.416  1.00  0.00     0.047 A 
HETATM   19  C9  UNL     1       5.877  -0.706  -0.080  1.00  0.00     0.076 C 
HETATM   20  N1  UNL     1       3.773   0.686   0.289  1.00  0.00    -0.356 N 
ATOM     21  H1  UNL     1       4.175   1.489  -0.195  1.00  0.00     0.166 HD
ENDBRANCH  14  15
ENDBRANCH  13  14
ENDBRANCH   4  13
TORSDOF 3
