REMARK  3 active torsions:
REMARK  status: ('A' for Active; 'I' for Inactive)
REMARK    1  A    between atoms: C2_2  and  S1_3 
REMARK    2  A    between atoms: S1_3  and  C3_4 
REMARK    3  A    between atoms: N3_16  and  C10_17 
ROOT
HETATM    1  C3  UNL     1      -1.220   1.124  -0.598  1.00  0.00     0.151 A 
HETATM    2  N1  UNL     1      -2.547   1.309  -0.718  1.00  0.00    -0.303 N 
ATOM      3  H1  UNL     1      -2.896   2.138  -1.200  1.00  0.00     0.171 HD
HETATM    4  C4  UNL     1      -3.423   0.420  -0.214  1.00  0.00     0.261 A 
HETATM    5  O1  UNL     1      -4.664   0.598  -0.329  1.00  0.00    -0.267 OA
HETATM    6  C5  UNL     1      -2.960  -0.706   0.438  1.00  0.00     0.078 A 
HETATM    7  C6  UNL     1      -3.580  -1.772   1.046  1.00  0.00     0.045 A 
HETATM    8  C7  UNL     1      -2.605  -2.615   1.539  1.00  0.00     0.008 A 
HETATM    9  C8  UNL     1      -2.820  -3.877   2.263  1.00  0.00     0.068 C 
HETATM   10  N2  UNL     1      -1.400  -2.081   1.244  1.00  0.00    -0.345 N 
ATOM     11  H2  UNL     1      -0.493  -2.481   1.483  1.00  0.00     0.167 HD
HETATM   12  C9  UNL     1      -1.606  -0.922   0.576  1.00  0.00     0.126 A 
HETATM   13  N3  UNL     1      -0.775   0.025   0.038  1.00  0.00    -0.308 N 
ENDROOT
BRANCH  13  14
HETATM   14  C10 UNL     1       0.643  -0.179   0.170  1.00  0.00     0.093 C 
HETATM   15  C11 UNL     1       1.373  -0.448  -1.112  1.00  0.00     0.026 C 
HETATM   16  C12 UNL     1       2.494  -1.436  -0.960  1.00  0.00     0.002 C 
HETATM   17  C13 UNL     1       3.094  -1.479   0.415  1.00  0.00     0.000 C 
HETATM   18  C14 UNL     1       3.520  -0.138   0.953  1.00  0.00     0.000 C 
HETATM   19  C15 UNL     1       2.363   0.389   1.792  1.00  0.00     0.002 C 
HETATM   20  C16 UNL     1       1.370   0.985   0.812  1.00  0.00     0.026 C 
ENDBRANCH  13  14
BRANCH   1  21
HETATM   21  S1  UNL     1      -0.074   2.336  -1.291  1.00  0.00    -0.094 SA
BRANCH  21  22
HETATM   22  C2  UNL     1      -1.050   3.650  -2.060  1.00  0.00     0.078 C 
HETATM   23  C1  UNL     1      -0.134   4.682  -2.650  1.00  0.00     0.016 C 
ENDBRANCH  21  22
ENDBRANCH   1  21
TORSDOF 3
