REMARK  3 active torsions:
REMARK  status: ('A' for Active; 'I' for Inactive)
REMARK    1  A    between atoms: C2_5  and  N2_6 
REMARK    2  A    between atoms: N3_9  and  C5_10 
REMARK    3  A    between atoms: N6_23  and  C14_24 
ROOT
HETATM    1 CL1  UNL     1      -0.992  -4.157   2.645  1.00  0.00    -0.045 Cl
HETATM    2  C1  UNL     1      -0.768  -2.699   1.699  1.00  0.00     0.182 A 
HETATM    3  N1  UNL     1       0.428  -2.102   1.626  1.00  0.00    -0.317 N 
ATOM      4  H1  UNL     1       1.201  -2.524   2.140  1.00  0.00     0.170 HD
HETATM    5  C2  UNL     1       0.682  -0.976   0.917  1.00  0.00     0.136 A 
HETATM    6  C12 UNL     1      -0.394  -0.427   0.230  1.00  0.00     0.122 A 
HETATM    7  N5  UNL     1      -0.549   0.642  -0.555  1.00  0.00    -0.346 N 
ATOM      8  H5  UNL     1       0.188   1.302  -0.803  1.00  0.00     0.167 HD
HETATM    9  C13 UNL     1      -1.826   0.713  -0.968  1.00  0.00     0.185 A 
HETATM   10  N6  UNL     1      -2.527  -0.313  -0.457  1.00  0.00    -0.322 N 
HETATM   11  C21 UNL     1      -1.634  -1.020   0.288  1.00  0.00     0.142 A 
HETATM   12  N7  UNL     1      -1.779  -2.149   1.029  1.00  0.00    -0.317 N 
ATOM     13  H7  UNL     1      -2.697  -2.592   1.074  1.00  0.00     0.170 HD
ENDROOT
BRANCH   5  14
HETATM   14  N2  UNL     1       1.958  -0.385   0.871  1.00  0.00    -0.362 N 
HETATM   15  C3  UNL     1       3.046  -0.984   1.602  1.00  0.00     0.144 C 
HETATM   16  C4  UNL     1       4.188  -1.140   0.620  1.00  0.00     0.144 C 
HETATM   17  N3  UNL     1       4.585   0.172   0.189  1.00  0.00    -0.364 N 
HETATM   18  C10 UNL     1       3.656   1.271   0.284  1.00  0.00     0.144 C 
HETATM   19  C11 UNL     1       2.217   0.806   0.115  1.00  0.00     0.144 C 
BRANCH  17  20
HETATM   20  C5  UNL     1       5.891   0.369  -0.331  1.00  0.00     0.102 A 
HETATM   21  C6  UNL     1       6.800  -0.653  -0.498  1.00  0.00     0.048 A 
HETATM   22  C7  UNL     1       8.085  -0.459  -1.007  1.00  0.00     0.005 A 
HETATM   23  C8  UNL     1       8.437   0.821  -1.352  1.00  0.00     0.017 A 
HETATM   24  C9  UNL     1       7.531   1.841  -1.186  1.00  0.00     0.089 A 
HETATM   25  N4  UNL     1       6.313   1.618  -0.696  1.00  0.00    -0.352 N 
ATOM     26  H4  UNL     1       5.673   2.405  -0.589  1.00  0.00     0.166 HD
ENDBRANCH  17  20
ENDBRANCH   5  14
BRANCH  10  27
HETATM   27  C14 UNL     1      -3.923  -0.669  -0.607  1.00  0.00     0.092 C 
HETATM   28  C15 UNL     1      -4.561   0.058  -1.749  1.00  0.00     0.026 C 
HETATM   29  C16 UNL     1      -6.072  -0.062  -1.668  1.00  0.00     0.002 C 
HETATM   30  C17 UNL     1      -6.639   1.182  -1.033  1.00  0.00     0.000 C 
HETATM   31  C18 UNL     1      -6.561   1.063   0.490  1.00  0.00     0.000 C 
HETATM   32  C19 UNL     1      -5.101   0.978   0.867  1.00  0.00     0.002 C 
HETATM   33  C20 UNL     1      -4.675  -0.461   0.707  1.00  0.00     0.026 C 
ENDBRANCH  10  27
TORSDOF 3
