REMARK  8 active torsions:
REMARK  status: ('A' for Active; 'I' for Inactive)
REMARK    1  A    between atoms: C2_2  and  C4_4 
REMARK    2  A    between atoms: C2_2  and  O1_10 
REMARK    3  A    between atoms: C5_5  and  C6_6 
REMARK    4  A    between atoms: O1_10  and  C9_11 
REMARK    5  A    between atoms: C9_11  and  O3_13 
REMARK    6  A    between atoms: O3_13  and  C10_14 
REMARK    7  A    between atoms: C14_19  and  C15_20 
REMARK    8  A    between atoms: C19_24  and  N2_25 
ROOT
HETATM    1  C6  UNL     1       4.885  -3.120   3.277  1.00  0.00     0.001 C 
HETATM    2  C7  UNL     1       5.529  -3.648   4.164  1.00  0.00     0.027 C 
HETATM    3  C8  UNL     1       6.280  -4.284   5.187  1.00  0.00     0.153 C 
HETATM    4  N1  UNL     1       6.894  -4.819   6.009  1.00  0.00    -0.182 NA
ENDROOT
BRANCH   1   5
HETATM    5  C5  UNL     1       4.131  -2.528   2.232  1.00  0.00    -0.011 C 
HETATM    6  C4  UNL     1       3.473  -2.036   1.333  1.00  0.00    -0.054 C 
BRANCH   6   7
HETATM    7  C2  UNL     1       2.666  -1.463   0.239  1.00  0.00     0.129 C 
HETATM    8  C1  UNL     1       1.689  -2.541  -0.184  1.00  0.00     0.061 C 
HETATM    9  C3  UNL     1       3.593  -1.125  -0.889  1.00  0.00     0.061 C 
BRANCH   7  10
HETATM   10  O1  UNL     1       1.939  -0.328   0.719  1.00  0.00    -0.274 OA
BRANCH  10  11
HETATM   11  C9  UNL     1       1.052   0.307  -0.157  1.00  0.00     0.408 C 
HETATM   12  O2  UNL     1       0.892  -0.103  -1.335  1.00  0.00    -0.229 OA
BRANCH  11  13
HETATM   13  O3  UNL     1       0.310   1.413   0.233  1.00  0.00    -0.291 OA
BRANCH  13  14
HETATM   14  C10 UNL     1      -0.580   2.029  -0.686  1.00  0.00     0.152 C 
HETATM   15  C11 UNL     1      -0.071   3.392  -0.985  1.00  0.00     0.035 C 
HETATM   16  C12 UNL     1      -0.747   4.516  -0.239  1.00  0.00     0.013 C 
HETATM   17  C13 UNL     1      -2.140   4.783  -0.769  1.00  0.00     0.075 C 
HETATM   18  S1  UNL     1      -2.975   3.191  -1.145  1.00  0.00    -0.157 SA
HETATM   19  C14 UNL     1      -2.005   1.941  -0.241  1.00  0.00     0.109 C 
BRANCH  19  20
HETATM   20  C15 UNL     1      -2.559   0.616  -0.615  1.00  0.00    -0.039 A 
HETATM   21  C16 UNL     1      -2.692   0.198  -1.914  1.00  0.00     0.008 A 
HETATM   22  C17 UNL     1      -3.206  -1.028  -2.243  1.00  0.00     0.003 A 
HETATM   23  C18 UNL     1      -3.606  -1.879  -1.250  1.00  0.00     0.036 A 
HETATM   24  C19 UNL     1      -3.493  -1.504   0.091  1.00  0.00     0.103 A 
HETATM   25  C20 UNL     1      -2.976  -0.276   0.366  1.00  0.00     0.044 A 
BRANCH  24  26
HETATM   26  N2  UNL     1      -3.922  -2.419   1.092  1.00  0.00    -0.116 N 
HETATM   27  O4  UNL     1      -4.384  -3.524   0.790  1.00  0.00    -0.532 OA
HETATM   28  O5  UNL     1      -3.793  -2.004   2.410  1.00  0.00    -0.532 OA
ENDBRANCH  24  26
ENDBRANCH  19  20
ENDBRANCH  13  14
ENDBRANCH  11  13
ENDBRANCH  10  11
ENDBRANCH   7  10
ENDBRANCH   6   7
ENDBRANCH   1   5
TORSDOF 8
