REMARK  4 active torsions:
REMARK  status: ('A' for Active; 'I' for Inactive)
REMARK    1  A    between atoms: C2_2  and  C3_3 
REMARK    2  A    between atoms: C5_5  and  O1_7 
REMARK    3  A    between atoms: C9_11  and  C11_13 
REMARK    4  A    between atoms: C11_13  and  O3_15 
ROOT
HETATM    1  C3  UNL     1      -0.451  -0.874  -0.465  1.00  0.00     0.006 C 
HETATM    2  C4  UNL     1      -1.597  -0.069   0.049  1.00  0.00     0.043 C 
HETATM    3  C5  UNL     1      -1.526   1.390  -0.330  1.00  0.00     0.054 C 
HETATM    4  C6  UNL     1      -2.582   2.185   0.363  1.00  0.00     0.045 C 
HETATM    5  C7  UNL     1      -0.177   1.924   0.089  1.00  0.00     0.038 C 
HETATM    6  C8  UNL     1       0.811   1.242  -0.855  1.00  0.00     0.023 C 
HETATM    7  C9  UNL     1       0.869  -0.237  -0.462  1.00  0.00     0.048 C 
HETATM    8  C10 UNL     1       1.813  -0.882  -1.458  1.00  0.00     0.026 C 
ENDROOT
BRANCH   7   9
HETATM    9  C11 UNL     1       1.558  -0.231   0.845  1.00  0.00     0.267 C 
HETATM   10  O2  UNL     1       0.970  -0.661   1.854  1.00  0.00    -0.264 OA
BRANCH   9  11
HETATM   11  O3  UNL     1       2.853   0.238   1.012  1.00  0.00    -0.326 OA
HETATM   12  C12 UNL     1       3.535   0.258   2.240  1.00  0.00     0.213 C 
ENDBRANCH   9  11
ENDBRANCH   7   9
BRANCH   1  13
HETATM   13  C2  UNL     1      -0.496  -2.260   0.091  1.00  0.00     0.001 C 
HETATM   14  C1  UNL     1      -1.841  -2.843  -0.403  1.00  0.00     0.005 C 
ENDBRANCH   1  13
BRANCH   3  15
HETATM   15  O1  UNL     1      -1.670   1.533  -1.703  1.00  0.00    -0.390 OA
ATOM     16  H1  UNL     1      -1.625   2.451  -1.942  1.00  0.00     0.210 HD
ENDBRANCH   3  15
TORSDOF 4
