REMARK  15 active torsions:
REMARK  status: ('A' for Active; 'I' for Inactive)
REMARK    1  A    between atoms: N1_1  and  C1_5 
REMARK    2  A    between atoms: C1_5  and  C2_6 
REMARK    3  A    between atoms: C2_6  and  N2_7 
REMARK    4  A    between atoms: N2_7  and  C3_9 
REMARK    5  A    between atoms: C5_16  and  N6_17 
REMARK       I    between atoms: N6_17  and  C6_19 
REMARK    6  A    between atoms: C6_19  and  C7_21 
REMARK    7  A    between atoms: C7_21  and  O2_22 
REMARK    8  A    between atoms: C7_21  and  C8_24 
REMARK    9  A    between atoms: C8_24  and  O3_25 
REMARK   10  A    between atoms: C9_27  and  O4_28 
REMARK   11  A    between atoms: C10_30  and  O5_31 
REMARK   12  A    between atoms: O5_31  and  S1_32 
REMARK   13  A    between atoms: S1_32  and  N7_33 
REMARK   14  A    between atoms: C13_41  and  N8_42 
REMARK   15  A    between atoms: C15_47  and  C16_48 
ROOT
HETATM    1  C7  UNL     1      -1.014  -0.988   1.669  1.00  0.00     0.247 C 
ENDROOT
BRANCH   1   2
HETATM    2  C6  UNL     1      -0.346   0.189   2.276  1.00  0.00     0.255 C 
HETATM    3  N6  UNL     1       0.568   1.035   1.587  1.00  0.00    -0.310 N 
ATOM      4  H6  UNL     1       0.285   1.980   1.327  1.00  0.00     0.170 HD
HETATM    5  O1  UNL     1      -0.572   0.498   3.475  1.00  0.00    -0.270 OA
BRANCH   3   6
HETATM    6  C5  UNL     1       1.761   0.614   1.286  1.00  0.00     0.131 A 
HETATM    7  N5  UNL     1       2.180  -0.606   1.602  1.00  0.00    -0.315 N 
HETATM    8  C4  UNL     1       3.417  -0.993   1.270  1.00  0.00     0.195 A 
ATOM      9  H5  UNL     1       1.560  -1.247   2.097  1.00  0.00     0.170 HD
HETATM   10  N3  UNL     1       4.251  -0.165   0.619  1.00  0.00    -0.316 N 
HETATM   11  N4  UNL     1       3.936  -2.300   1.581  1.00  0.00    -0.063 NA
HETATM   12  C3  UNL     1       3.870   1.086   0.276  1.00  0.00     0.124 A 
ATOM     13  H3  UNL     1       5.189  -0.486   0.379  1.00  0.00     0.170 HD
HETATM   14  C15 UNL     1       2.601   1.502   0.609  1.00  0.00     0.128 A 
BRANCH  12  15
HETATM   15  N2  UNL     1       4.799   1.908  -0.362  1.00  0.00    -0.374 N 
ATOM     16  H2  UNL     1       4.546   2.876  -0.558  1.00  0.00     0.161 HD
BRANCH  15  17
HETATM   17  C2  UNL     1       6.123   1.431  -0.760  1.00  0.00     0.148 C 
BRANCH  17  18
HETATM   18  C1  UNL     1       6.061   0.517  -1.962  1.00  0.00     0.249 C 
BRANCH  18  19
HETATM   19  N1  UNL     1       7.414   0.062  -2.297  1.00  0.00    -0.078 N 
ATOM     20  H13 UNL     1       8.060   0.839  -2.436  1.00  0.00     0.274 HD
ATOM     21  H12 UNL     1       7.882  -0.375  -1.503  1.00  0.00     0.274 HD
ATOM     22  H11 UNL     1       7.372  -0.555  -3.108  1.00  0.00     0.274 HD
ENDBRANCH  18  19
ENDBRANCH  17  18
ENDBRANCH  15  17
ENDBRANCH  12  15
BRANCH  14  23
HETATM   23  C16 UNL     1       2.079   2.804   0.281  1.00  0.00     0.217 C 
HETATM   24  O9  UNL     1       2.711   3.662  -0.329  1.00  0.00    -0.644 OA
HETATM   25  O10 UNL     1       0.752   3.095   0.696  1.00  0.00    -0.644 OA
ENDBRANCH  14  23
ENDBRANCH   3   6
ENDBRANCH   1   2
BRANCH   1  26
HETATM   26  O2  UNL     1      -1.812  -1.605   2.626  1.00  0.00    -0.383 OA
ATOM     27  H2  UNL     1      -2.240  -2.359   2.237  1.00  0.00     0.210 HD
ENDBRANCH   1  26
BRANCH   1  28
HETATM   28  C8  UNL     1      -1.718  -0.668   0.390  1.00  0.00     0.129 C 
HETATM   29  C9  UNL     1      -2.819   0.325   0.505  1.00  0.00     0.189 C 
HETATM   30  C10 UNL     1      -3.528   0.189  -0.821  1.00  0.00     0.205 C 
HETATM   31  C11 UNL     1      -3.112  -1.123  -1.439  1.00  0.00     0.163 C 
HETATM   32  O8  UNL     1      -4.151  -1.980  -1.687  1.00  0.00    -0.381 OA
HETATM   33  C14 UNL     1      -2.213  -1.801  -0.391  1.00  0.00     0.090 C 
HETATM   34  C12 UNL     1      -3.845  -3.234  -1.132  1.00  0.00     0.201 C 
HETATM   35  C13 UNL     1      -3.167  -2.765   0.177  1.00  0.00     0.216 C 
BRANCH  28  36
HETATM   36  O3  UNL     1      -0.733  -0.042  -0.426  1.00  0.00    -0.383 OA
ATOM     37  H3  UNL     1      -1.180   0.161  -1.239  1.00  0.00     0.210 HD
ENDBRANCH  28  36
BRANCH  29  38
HETATM   38  O4  UNL     1      -2.297   1.616   0.612  1.00  0.00    -0.390 OA
ATOM     39  H4  UNL     1      -3.000   2.250   0.685  1.00  0.00     0.210 HD
ENDBRANCH  29  38
BRANCH  30  40
HETATM   40  O5  UNL     1      -4.885   0.375  -0.752  1.00  0.00    -0.249 OA
BRANCH  40  41
HETATM   41  S1  UNL     1      -5.415   1.685  -1.684  1.00  0.00     0.356 S 
HETATM   42  O6  UNL     1      -6.601   1.289  -2.532  1.00  0.00    -0.176 OA
HETATM   43  O7  UNL     1      -4.356   2.162  -2.619  1.00  0.00    -0.176 OA
BRANCH  41  44
HETATM   44  N7  UNL     1      -5.817   3.005  -0.635  1.00  0.00    -0.306 N 
ATOM     45  H72 UNL     1      -5.741   2.981   0.382  1.00  0.00     0.171 HD
ATOM     46  H71 UNL     1      -6.136   3.794  -1.197  1.00  0.00     0.171 HD
ENDBRANCH  41  44
ENDBRANCH  40  41
ENDBRANCH  30  40
BRANCH  35  47
HETATM   47  N8  UNL     1      -4.233  -2.246   0.972  1.00  0.00    -0.072 N 
ATOM     48  H83 UNL     1      -4.783  -1.523   0.508  1.00  0.00     0.274 HD
ATOM     49  H82 UNL     1      -5.001  -2.901   1.115  1.00  0.00     0.274 HD
ATOM     50  H81 UNL     1      -3.786  -1.937   1.835  1.00  0.00     0.274 HD
ENDBRANCH  35  47
ENDBRANCH   1  28
TORSDOF 15
