REMARK  13 active torsions:
REMARK  status: ('A' for Active; 'I' for Inactive)
REMARK    1  A    between atoms: N1_1  and  N2_4 
REMARK    2  A    between atoms: N6_17  and  C6_18 
REMARK    3  A    between atoms: C8_24  and  C9_25 
REMARK    4  A    between atoms: C9_25  and  N9_26 
REMARK    5  A    between atoms: C9_25  and  N10_30 
REMARK    6  A    between atoms: C11_35  and  C12_36 
REMARK    7  A    between atoms: C14_40  and  O3_41 
REMARK    8  A    between atoms: O3_41  and  C15_42 
REMARK       I    between atoms: C15_42  and  N11_44 
REMARK    9  A    between atoms: N11_44  and  N12_46 
REMARK   10  A    between atoms: C16_49  and  C17_50 
REMARK   11  A    between atoms: C17_50  and  O5_51 
REMARK   12  A    between atoms: C17_50  and  C18_53 
REMARK   13  A    between atoms: C18_53  and  O6_54 
ROOT
HETATM    1  C6  UNL     1      -0.149   0.398   0.804  1.00  0.00     0.059 C 
HETATM    2  C7  UNL     1      -0.265  -0.670   1.580  1.00  0.00     0.085 A 
HETATM    3  N7  UNL     1       0.222  -0.802   2.816  1.00  0.00    -0.298 N 
ATOM      4  H7  UNL     1       0.790  -0.115   3.312  1.00  0.00     0.187 HD
HETATM    5  N8  UNL     1      -0.150  -1.948   3.275  1.00  0.00    -0.300 N 
ATOM      6  H8  UNL     1       0.086  -2.298   4.204  1.00  0.00     0.186 HD
HETATM    7  C8  UNL     1      -0.912  -2.646   2.347  1.00  0.00     0.096 A 
HETATM    8  C10 UNL     1      -0.975  -1.813   1.268  1.00  0.00     0.040 A 
HETATM    9  C11 UNL     1      -1.410  -1.955   0.015  1.00  0.00     0.064 C 
HETATM   10  C13 UNL     1      -0.913  -0.951  -0.982  1.00  0.00    -0.005 C 
HETATM   11  C14 UNL     1      -0.524  -1.313  -2.180  1.00  0.00     0.156 C 
HETATM   12  C16 UNL     1      -0.812   0.464  -0.527  1.00  0.00     0.105 C 
ENDROOT
BRANCH   1  13
HETATM   13  N6  UNL     1       0.553   1.538   1.264  1.00  0.00    -0.292 N 
HETATM   14  C3  UNL     1       1.802   1.916   0.919  1.00  0.00     0.145 A 
HETATM   15  N4  UNL     1       2.697   1.360   0.090  1.00  0.00    -0.336 N 
HETATM   16  C4  UNL     1       2.135   3.070   1.569  1.00  0.00     0.124 A 
HETATM   17  C2  UNL     1       3.902   1.941  -0.090  1.00  0.00     0.183 A 
ATOM     18  H4  UNL     1       2.467   0.498  -0.405  1.00  0.00     0.168 HD
HETATM   19  N3  UNL     1       4.241   3.086   0.551  1.00  0.00    -0.336 N 
HETATM   20  C1  UNL     1       3.367   3.664   1.385  1.00  0.00     0.151 A 
ATOM     21  H3  UNL     1       5.158   3.506   0.399  1.00  0.00     0.168 HD
HETATM   22  N2  UNL     1       3.641   4.740   2.008  1.00  0.00    -0.290 N 
ATOM     23  H2  UNL     1       2.938   5.136   2.632  1.00  0.00     0.188 HD
HETATM   24  N5  UNL     1       1.073   3.397   2.319  1.00  0.00    -0.346 N 
HETATM   25  C5  UNL     1       0.121   2.461   2.126  1.00  0.00     0.191 A 
ATOM     26  H5  UNL     1       0.998   4.211   2.929  1.00  0.00     0.167 HD
BRANCH  22  27
HETATM   27  N1  UNL     1       4.853   5.394   1.874  1.00  0.00    -0.344 N 
ATOM     28  H12 UNL     1       5.544   4.984   1.246  1.00  0.00     0.176 HD
ATOM     29  H11 UNL     1       5.073   6.256   2.373  1.00  0.00     0.176 HD
ENDBRANCH  22  27
ENDBRANCH   1  13
BRANCH  12  30
HETATM   30  C17 UNL     1      -2.154   1.131  -0.469  1.00  0.00     0.156 C 
BRANCH  30  31
HETATM   31  O5  UNL     1      -2.102   2.428  -0.018  1.00  0.00    -0.392 OA
ATOM     32  H5  UNL     1      -2.952   2.851   0.019  1.00  0.00     0.210 HD
ENDBRANCH  30  31
BRANCH  30  33
HETATM   33  C18 UNL     1      -2.806   1.154  -1.844  1.00  0.00     0.196 C 
BRANCH  33  34
HETATM   34  O6  UNL     1      -4.084   1.674  -1.803  1.00  0.00    -0.398 OA
ATOM     35  H6  UNL     1      -4.491   1.688  -2.661  1.00  0.00     0.209 HD
ENDBRANCH  33  34
ENDBRANCH  30  33
ENDBRANCH  12  30
BRANCH   7  36
HETATM   36  C9  UNL     1      -1.363  -4.005   2.613  1.00  0.00     0.429 C 
BRANCH  36  37
HETATM   37  N9  UNL     1      -0.193  -4.612   3.391  1.00  0.00    -0.045 N 
ATOM     38  H93 UNL     1       0.710  -4.548   2.920  1.00  0.00     0.277 HD
ATOM     39  H92 UNL     1       0.085  -4.086   4.220  1.00  0.00     0.277 HD
ATOM     40  H91 UNL     1      -0.509  -5.564   3.577  1.00  0.00     0.277 HD
ENDBRANCH  36  37
BRANCH  36  41
HETATM   41  N10 UNL     1      -2.400  -3.993   3.600  1.00  0.00    -0.045 N 
ATOM     42 3H10 UNL     1      -2.111  -3.513   4.452  1.00  0.00     0.277 HD
ATOM     43 2H10 UNL     1      -3.171  -3.379   3.337  1.00  0.00     0.277 HD
ATOM     44 1H10 UNL     1      -2.716  -4.945   3.786  1.00  0.00     0.277 HD
ENDBRANCH  36  41
ENDBRANCH   7  36
BRANCH   9  45
HETATM   45  C12 UNL     1      -2.169  -3.027  -0.451  1.00  0.00     0.211 C 
HETATM   46  O1  UNL     1      -2.458  -3.034  -1.729  1.00  0.00    -0.644 OA
HETATM   47  O2  UNL     1      -2.718  -4.111   0.125  1.00  0.00    -0.644 OA
ENDBRANCH   9  45
BRANCH  11  48
HETATM   48  O3  UNL     1      -0.066  -0.337  -3.094  1.00  0.00    -0.272 OA
BRANCH  48  49
HETATM   49  C15 UNL     1       0.356  -0.630  -4.369  1.00  0.00     0.383 C 
HETATM   50  O4  UNL     1       0.312  -1.858  -4.694  1.00  0.00    -0.236 OA
HETATM   51  N11 UNL     1       0.816   0.326  -5.295  1.00  0.00    -0.252 N 
ATOM     52  H11 UNL     1       0.852   1.312  -5.038  1.00  0.00     0.191 HD
BRANCH  51  53
HETATM   53  N12 UNL     1       1.220  -0.081  -6.560  1.00  0.00    -0.341 N 
ATOM     54 2H12 UNL     1       1.177  -1.071  -6.801  1.00  0.00     0.177 HD
ATOM     55 1H12 UNL     1       1.553   0.611  -7.231  1.00  0.00     0.177 HD
ENDBRANCH  51  53
ENDBRANCH  48  49
ENDBRANCH  11  48
TORSDOF 13
