REMARK  6 active torsions:
REMARK  status: ('A' for Active; 'I' for Inactive)
REMARK    1  A    between atoms: N1_2  and  C2_3 
REMARK    2  A    between atoms: N1_2  and  C7_11 
REMARK    3  A    between atoms: C2_3  and  C3_4 
REMARK    4  A    between atoms: C7_11  and  O1_12 
REMARK    5  A    between atoms: C7_11  and  C8_14 
REMARK    6  A    between atoms: C9_17  and  C10_18 
ROOT
HETATM    1  C8  UNL     1      -1.965  -1.152   0.391  1.00  0.00     0.090 A 
HETATM    2  N4  UNL     1      -2.369   0.108   0.255  1.00  0.00    -0.353 N 
ATOM      3  H4  UNL     1      -1.690   0.848   0.431  1.00  0.00     0.166 HD
HETATM    4  C9  UNL     1      -3.625   0.472  -0.102  1.00  0.00     0.086 A 
HETATM    5  C11 UNL     1      -4.582  -0.498  -0.352  1.00  0.00     0.062 A 
HETATM    6 CL4  UNL     1      -6.227  -0.127  -0.818  1.00  0.00    -0.082 Cl
HETATM    7  C12 UNL     1      -4.203  -1.817  -0.222  1.00  0.00     0.052 A 
HETATM    8  C13 UNL     1      -2.917  -2.150   0.143  1.00  0.00     0.062 A 
HETATM    9 CL5  UNL     1      -2.529  -3.856   0.284  1.00  0.00    -0.082 Cl
ENDROOT
BRANCH   1  10
HETATM   10  C7  UNL     1      -0.610  -1.529   0.787  1.00  0.00     0.409 C 
BRANCH  10  11
HETATM   11  N1  UNL     1       0.468  -0.844   0.119  1.00  0.00     0.123 N 
HETATM   12  C1  UNL     1       1.696  -1.502   0.641  1.00  0.00     0.314 C 
BRANCH  11  13
HETATM   13  C2  UNL     1       0.614   0.552   0.505  1.00  0.00     0.317 C 
BRANCH  13  14
HETATM   14  C3  UNL     1       1.918   0.992  -0.128  1.00  0.00     0.004 A 
HETATM   15  C4  UNL     1       2.100   1.417  -1.434  1.00  0.00     0.117 A 
HETATM   16  N2  UNL     1       3.403   1.715  -1.574  1.00  0.00    -0.310 N 
HETATM   17  N3  UNL     1       4.068   1.511  -0.453  1.00  0.00    -0.308 N 
ATOM     18  H2  UNL     1       3.825   2.056  -2.438  1.00  0.00     0.186 HD
HETATM   19  C5  UNL     1       5.501   1.728  -0.236  1.00  0.00     0.177 C 
HETATM   20  C6  UNL     1       3.170   1.067   0.444  1.00  0.00     0.120 A 
ENDBRANCH  13  14
ENDBRANCH  11  13
ENDBRANCH  10  11
BRANCH  10  21
HETATM   21  O1  UNL     1      -0.418  -2.905   0.465  1.00  0.00    -0.363 OA
ATOM     22  H1  UNL     1      -1.129  -3.356   0.905  1.00  0.00     0.212 HD
ENDBRANCH  10  21
ENDBRANCH   1  10
BRANCH   4  23
HETATM   23  C10 UNL     1      -4.026   1.899  -0.238  1.00  0.00     0.232 C 
HETATM   24 CL1  UNL     1      -5.355   2.236   0.900  1.00  0.00    -0.077 Cl
HETATM   25 CL2  UNL     1      -2.712   3.027   0.060  1.00  0.00    -0.077 Cl
HETATM   26 CL3  UNL     1      -4.652   2.211  -1.891  1.00  0.00    -0.077 Cl
ENDBRANCH   4  23
TORSDOF 6
