REMARK  6 active torsions:
REMARK  status: ('A' for Active; 'I' for Inactive)
REMARK    1  A    between atoms: C5_9  and  C6_10 
REMARK    2  A    between atoms: C7_11  and  C8_12 
REMARK    3  A    between atoms: C11_15  and  N3_16 
REMARK    4  A    between atoms: N3_16  and  C12_18 
REMARK    5  A    between atoms: C12_18  and  C14_20 
REMARK    6  A    between atoms: C20_33  and  N7_34 
ROOT
HETATM    1  C8  UNL     1       1.207  -1.820   0.498  1.00  0.00     0.071 C 
HETATM    2  C9  UNL     1      -0.025  -1.249   0.820  1.00  0.00     0.004 C 
HETATM    3  C10 UNL     1       0.073   0.065   1.464  1.00  0.00     0.054 C 
HETATM    4  C11 UNL     1      -1.306  -1.772   0.619  1.00  0.00     0.110 C 
HETATM    5  N5  UNL     1      -1.564  -3.106   0.943  1.00  0.00    -0.338 N 
ATOM      6  H5  UNL     1      -2.436  -3.312   1.430  1.00  0.00     0.168 HD
HETATM    7  C19 UNL     1      -0.751  -4.138   0.662  1.00  0.00     0.183 C 
HETATM    8  N6  UNL     1       0.588  -4.195   0.409  1.00  0.00    -0.338 N 
ATOM      9  H6  UNL     1       0.975  -5.124   0.244  1.00  0.00     0.168 HD
HETATM   10  C20 UNL     1       1.471  -3.157   0.350  1.00  0.00     0.119 C 
ENDROOT
BRANCH   4  11
HETATM   11  N3  UNL     1      -2.198  -1.101   0.156  1.00  0.00    -0.366 N 
ATOM     12  H3  UNL     1      -3.037  -1.679   0.102  1.00  0.00     0.161 HD
BRANCH  11  13
HETATM   13  C12 UNL     1      -2.507   0.152  -0.326  1.00  0.00     0.129 C 
HETATM   14  C13 UNL     1      -2.703   0.168  -1.859  1.00  0.00     0.039 C 
BRANCH  13  15
HETATM   15  C14 UNL     1      -3.700   0.791   0.318  1.00  0.00     0.031 A 
HETATM   16  C15 UNL     1      -4.627   1.431  -0.470  1.00  0.00     0.028 A 
HETATM   17  C16 UNL     1      -5.702   1.994   0.182  1.00  0.00     0.022 A 
HETATM   18  C17 UNL     1      -5.846   1.922   1.559  1.00  0.00     0.026 A 
HETATM   19 BR1  UNL     1      -7.376   2.734   2.397  1.00  0.00    -0.050 Br
HETATM   20  C18 UNL     1      -4.887   1.269   2.294  1.00  0.00     0.107 A 
HETATM   21  N4  UNL     1      -3.843   0.723   1.649  1.00  0.00    -0.366 N 
ATOM     22  H4  UNL     1      -3.131   0.237   2.194  1.00  0.00     0.165 HD
ENDBRANCH  13  15
ENDBRANCH  11  13
ENDBRANCH   4  11
BRANCH   1  23
HETATM   23  C7  UNL     1       2.305  -0.905   0.305  1.00  0.00    -0.057 C 
HETATM   24  C6  UNL     1       3.222  -0.110   0.144  1.00  0.00    -0.058 C 
BRANCH  24  25
HETATM   25  C5  UNL     1       4.305   0.812  -0.066  1.00  0.00     0.055 A 
HETATM   26  C2  UNL     1       4.415   1.509  -1.265  1.00  0.00     0.026 A 
HETATM   27  C1  UNL     1       3.409   1.300  -2.337  1.00  0.00     0.070 C 
HETATM   28  N1  UNL     1       5.436   2.361  -1.428  1.00  0.00    -0.355 N 
HETATM   29  C3  UNL     1       6.371   2.587  -0.494  1.00  0.00     0.180 A 
ATOM     30  H1  UNL     1       5.506   2.866  -2.312  1.00  0.00     0.166 HD
HETATM   31  N2  UNL     1       6.274   1.915   0.677  1.00  0.00    -0.361 N 
HETATM   32  C4  UNL     1       5.269   1.054   0.880  1.00  0.00     0.111 A 
ATOM     33  H2  UNL     1       6.969   2.065   1.408  1.00  0.00     0.166 HD
ENDBRANCH  24  25
ENDBRANCH   1  23
BRANCH  10  34
HETATM   34  N7  UNL     1       2.701  -3.470   0.130  1.00  0.00    -0.384 N 
ATOM     35  H72 UNL     1       3.361  -2.694   0.086  1.00  0.00     0.157 HD
ATOM     36  H71 UNL     1       2.897  -4.465   0.020  1.00  0.00     0.157 HD
ENDBRANCH  10  34
TORSDOF 6
