REMARK  7 active torsions:
REMARK  status: ('A' for Active; 'I' for Inactive)
REMARK    1  A    between atoms: C2_2  and  C3_3 
REMARK    2  A    between atoms: C3_3  and  C4_4 
REMARK    3  A    between atoms: C4_4  and  S1_5 
REMARK    4  A    between atoms: S1_5  and  N1_8 
REMARK    5  A    between atoms: N1_8  and  O3_10 
REMARK    6  A    between atoms: O3_10  and  C5_11 
REMARK    7  A    between atoms: C5_11  and  C8_15 
REMARK       I    between atoms: N3_19  and  C12_20 
REMARK       I    between atoms: C12_20  and  N4_22 
ROOT
HETATM    1  C5  UNL     1      -0.921  -1.569  -0.121  1.00  0.00     0.178 C 
HETATM    2  C6  UNL     1      -1.362  -2.764   0.696  1.00  0.00     0.066 C 
HETATM    3  C7  UNL     1      -0.225  -1.988  -1.339  1.00  0.00     0.100 C 
HETATM    4  N2  UNL     1       0.342  -2.317  -2.296  1.00  0.00    -0.194 NA
ENDROOT
BRANCH   1   5
HETATM    5  O3  UNL     1      -0.005  -0.776   0.606  1.00  0.00    -0.244 OA
BRANCH   5   6
HETATM    6  N1  UNL     1       1.054  -1.530   0.901  1.00  0.00    -0.190 N 
ATOM      7  H1  UNL     1       0.977  -2.461   1.311  1.00  0.00     0.207 HD
BRANCH   6   8
HETATM    8  S1  UNL     1       2.555  -0.796   0.531  1.00  0.00     0.248 S 
HETATM    9  O1  UNL     1       3.530  -1.874   0.152  1.00  0.00    -0.204 OA
HETATM   10  O2  UNL     1       2.395   0.110  -0.647  1.00  0.00    -0.204 OA
BRANCH   8  11
HETATM   11  C4  UNL     1       3.184   0.154   1.910  1.00  0.00     0.165 C 
BRANCH  11  12
HETATM   12  C3  UNL     1       4.496   0.746   1.470  1.00  0.00     0.016 C 
BRANCH  12  13
HETATM   13  C2  UNL     1       5.146   1.580   2.543  1.00  0.00    -0.004 C 
HETATM   14  C1  UNL     1       6.457   2.106   1.945  1.00  0.00     0.005 C 
ENDBRANCH  12  13
ENDBRANCH  11  12
ENDBRANCH   8  11
ENDBRANCH   6   8
ENDBRANCH   5   6
ENDBRANCH   1   5
BRANCH   1  15
HETATM   15  C8  UNL     1      -2.153  -0.784  -0.474  1.00  0.00     0.055 C 
HETATM   16  C9  UNL     1      -3.074  -1.683  -1.240  1.00  0.00     0.012 C 
HETATM   17  C10 UNL     1      -4.331  -0.959  -1.720  1.00  0.00     0.020 C 
HETATM   18  C11 UNL     1      -3.815   0.177  -2.615  1.00  0.00     0.127 C 
HETATM   19  N3  UNL     1      -3.057   1.039  -1.739  1.00  0.00    -0.333 N 
HETATM   20  C12 UNL     1      -3.543   2.340  -1.461  1.00  0.00     0.332 C 
HETATM   21  C13 UNL     1      -1.838   0.509  -1.193  1.00  0.00     0.136 C 
HETATM   22  O4  UNL     1      -2.838   3.045  -0.693  1.00  0.00    -0.246 OA
HETATM   23  N4  UNL     1      -4.737   2.895  -1.972  1.00  0.00    -0.250 N 
HETATM   24 CL1  UNL     1      -5.176   4.520  -1.518  1.00  0.00     0.015 Cl
ATOM     25  H4  UNL     1      -5.334   2.353  -2.597  1.00  0.00     0.185 HD
ENDBRANCH   1  15
TORSDOF 7
