REMARK  13 active torsions:
REMARK  status: ('A' for Active; 'I' for Inactive)
REMARK    1  A    between atoms: O1_2  and  C2_3 
REMARK    2  A    between atoms: C2_3  and  C3_5 
REMARK    3  A    between atoms: C3_5  and  N1_6 
REMARK    4  A    between atoms: C3_5  and  C6_15 
REMARK       I    between atoms: N1_6  and  C4_8 
REMARK       I    between atoms: C4_8  and  N2_10 
REMARK    5  A    between atoms: N2_10  and  N3_12 
REMARK       I    between atoms: C6_15  and  N4_17 
REMARK    6  A    between atoms: N4_17  and  C7_19 
REMARK    7  A    between atoms: C7_19  and  C8_20 
REMARK    8  A    between atoms: C7_19  and  C11_23 
REMARK    9  A    between atoms: C11_23  and  N5_25 
REMARK   10  A    between atoms: N5_25  and  C12_27 
REMARK   11  A    between atoms: C14_29  and  O5_30 
REMARK   12  A    between atoms: C15_32  and  O6_33 
REMARK   13  A    between atoms: C17_35  and  C18_36 
ROOT
HETATM    1  C7  UNL     1      -0.336  -1.382  -0.628  1.00  0.00     0.126 C 
ENDROOT
BRANCH   1   2
HETATM    2  N4  UNL     1       1.153  -1.253  -0.512  1.00  0.00    -0.351 N 
HETATM    3  C6  UNL     1       1.807  -0.020  -0.405  1.00  0.00     0.251 C 
HETATM    4  O4  UNL     1       1.139   1.038  -0.400  1.00  0.00    -0.271 OA
ATOM      5  H4  UNL     1       1.716  -2.104  -0.511  1.00  0.00     0.163 HD
BRANCH   3   6
HETATM    6  C3  UNL     1       3.271   0.053  -0.296  1.00  0.00     0.278 C 
BRANCH   6   7
HETATM    7  C2  UNL     1       3.952  -0.511  -1.500  1.00  0.00     0.290 C 
HETATM    8  O2  UNL     1       4.781   0.153  -2.182  1.00  0.00    -0.262 OA
BRANCH   7   9
HETATM    9  O1  UNL     1       3.677  -1.797  -1.892  1.00  0.00    -0.324 OA
HETATM   10  C1  UNL     1       4.279  -2.403  -3.018  1.00  0.00     0.213 C 
ENDBRANCH   7   9
ENDBRANCH   6   7
BRANCH   6  11
HETATM   11  N1  UNL     1       3.765   1.405  -0.130  1.00  0.00    -0.320 N 
HETATM   12  C4  UNL     1       4.586   1.709   0.967  1.00  0.00     0.337 C 
HETATM   13  O3  UNL     1       4.885   0.810   1.804  1.00  0.00    -0.245 OA
HETATM   14  N2  UNL     1       5.123   3.000   1.211  1.00  0.00    -0.254 N 
HETATM   15  C5  UNL     1       5.971   3.278   2.349  1.00  0.00     0.182 C 
ATOM     16  H1  UNL     1       3.518   2.129  -0.804  1.00  0.00     0.165 HD
BRANCH  14  17
HETATM   17  N3  UNL     1       4.837   4.036   0.349  1.00  0.00    -0.339 N 
ATOM     18  H32 UNL     1       4.239   3.840  -0.454  1.00  0.00     0.177 HD
ATOM     19  H31 UNL     1       5.223   4.964   0.524  1.00  0.00     0.177 HD
ENDBRANCH  14  17
ENDBRANCH   6  11
ENDBRANCH   3   6
ENDBRANCH   1   2
BRANCH   1  20
HETATM   20  C8  UNL     1      -0.609  -2.053  -1.926  1.00  0.00     0.012 A 
HETATM   21  C9  UNL     1      -1.988  -2.368  -2.429  1.00  0.00     0.007 A 
HETATM   22  C10 UNL     1      -0.906  -3.448  -2.170  1.00  0.00     0.007 A 
ENDBRANCH   1  20
BRANCH   1  23
HETATM   23  C11 UNL     1      -0.729  -2.095   0.619  1.00  0.00     0.202 C 
HETATM   24 CL1  UNL     1       0.145  -3.681   0.604  1.00  0.00    -0.100 Cl
BRANCH  23  25
HETATM   25  N5  UNL     1      -2.048  -2.192   0.975  1.00  0.00    -0.376 N 
ATOM     26  H5  UNL     1      -2.440  -3.134   0.963  1.00  0.00     0.160 HD
BRANCH  25  27
HETATM   27  C12 UNL     1      -2.915  -1.193   1.346  1.00  0.00     0.001 C 
HETATM   28  C13 UNL     1      -2.493  -0.421   2.597  1.00  0.00     0.087 C 
HETATM   29  C14 UNL     1      -2.327   1.001   2.130  1.00  0.00     0.153 C 
HETATM   30  C15 UNL     1      -3.421   1.164   1.100  1.00  0.00     0.168 C 
HETATM   31  C17 UNL     1      -3.462  -0.206   0.387  1.00  0.00     0.151 C 
BRANCH  29  32
HETATM   32  O5  UNL     1      -2.641   1.853   3.205  1.00  0.00    -0.393 OA
ATOM     33  H5  UNL     1      -2.536   2.750   2.910  1.00  0.00     0.210 HD
ENDBRANCH  29  32
BRANCH  30  34
HETATM   34  O6  UNL     1      -3.041   2.161   0.219  1.00  0.00    -0.387 OA
HETATM   35  C16 UNL     1      -4.002   3.170   0.129  1.00  0.00     0.202 C 
ENDBRANCH  30  34
BRANCH  31  36
HETATM   36  C18 UNL     1      -4.884  -0.500   0.029  1.00  0.00     0.243 C 
HETATM   37  N6  UNL     1      -5.892  -0.526   1.017  1.00  0.00    -0.061 NA
HETATM   38  O7  UNL     1      -5.175  -0.723  -1.159  1.00  0.00    -0.276 OA
ENDBRANCH  31  36
ENDBRANCH  25  27
ENDBRANCH  23  25
ENDBRANCH   1  23
TORSDOF 13
