REMARK  12 active torsions:
REMARK  status: ('A' for Active; 'I' for Inactive)
REMARK    1  A    between atoms: C2_2  and  C3_3 
REMARK    2  A    between atoms: C3_3  and  N1_4 
REMARK    3  A    between atoms: N1_4  and  C4_5 
REMARK    4  A    between atoms: N1_4  and  S1_8 
REMARK    5  A    between atoms: C4_5  and  C5_6 
REMARK    6  A    between atoms: S1_8  and  O1_9 
REMARK    7  A    between atoms: S1_8  and  C7_11 
REMARK    8  A    between atoms: S1_8  and  C14_18 
REMARK    9  A    between atoms: S1_8  and  C26_40 
REMARK   10  A    between atoms: C7_11  and  C8_12 
REMARK   11  A    between atoms: C18_27  and  N4_28 
REMARK   12  A    between atoms: N5_31  and  C21_32 
ROOT
HETATM    1  S1  UNL     1      -1.937  -0.619  -0.474  1.00  0.00    -0.079 SA
ENDROOT
BRANCH   1   2
HETATM    2  N1  UNL     1      -2.830  -2.317  -0.400  1.00  0.00    -0.256 NA
BRANCH   2   3
HETATM    3  C3  UNL     1      -4.182  -2.318  -0.855  1.00  0.00     0.102 C 
BRANCH   3   4
HETATM    4  C2  UNL     1      -5.264  -1.849   0.013  1.00  0.00     0.011 C 
HETATM    5  C1  UNL     1      -6.582  -1.982  -0.793  1.00  0.00     0.006 C 
ENDBRANCH   3   4
ENDBRANCH   2   3
BRANCH   2   6
HETATM    6  C4  UNL     1      -2.114  -3.188  -1.333  1.00  0.00     0.102 C 
BRANCH   6   7
HETATM    7  C5  UNL     1      -2.491  -4.613  -1.276  1.00  0.00     0.011 C 
HETATM    8  C6  UNL     1      -2.304  -5.332   0.013  1.00  0.00     0.006 C 
ENDBRANCH   6   7
ENDBRANCH   2   6
ENDBRANCH   1   2
BRANCH   1   9
HETATM    9  O1  UNL     1      -2.447  -0.487  -1.929  1.00  0.00    -0.338 OA
ATOM     10  H1  UNL     1      -2.005   0.353  -1.966  1.00  0.00     0.227 HD
ENDBRANCH   1   9
BRANCH   1  11
HETATM   11  C7  UNL     1      -2.795   0.936   0.059  1.00  0.00     0.039 C 
BRANCH  11  12
HETATM   12  C8  UNL     1      -3.155   2.049  -0.936  1.00  0.00     0.016 C 
HETATM   13  C9  UNL     1      -3.875   3.185  -0.259  1.00  0.00     0.009 C 
HETATM   14  C10 UNL     1      -2.979   4.344   0.100  1.00  0.00     0.001 C 
HETATM   15  C11 UNL     1      -2.462   5.034  -1.152  1.00  0.00     0.000 C 
HETATM   16  C12 UNL     1      -2.206   3.954  -2.179  1.00  0.00     0.001 C 
HETATM   17  C13 UNL     1      -1.888   2.641  -1.530  1.00  0.00     0.009 C 
ENDBRANCH  11  12
ENDBRANCH   1  11
BRANCH   1  18
HETATM   18  C14 UNL     1      -0.117  -0.583  -1.086  1.00  0.00     0.097 A 
HETATM   19  C15 UNL     1       0.410  -1.192  -2.211  1.00  0.00     0.128 A 
HETATM   20  N2  UNL     1       1.675  -1.128  -2.572  1.00  0.00    -0.348 N 
HETATM   21  C16 UNL     1       2.563  -0.457  -1.866  1.00  0.00     0.135 A 
ATOM     22  H2  UNL     1       1.975  -1.610  -3.419  1.00  0.00     0.167 HD
HETATM   23  N3  UNL     1       3.850  -0.428  -2.257  1.00  0.00    -0.306 N 
HETATM   24  C25 UNL     1       2.116   0.178  -0.733  1.00  0.00     0.080 A 
HETATM   25  C17 UNL     1       4.795   0.218  -1.578  1.00  0.00     0.273 A 
ATOM     26  H3  UNL     1       4.113  -0.922  -3.110  1.00  0.00     0.170 HD
HETATM   27  O2  UNL     1       5.972   0.191  -2.019  1.00  0.00    -0.266 OA
HETATM   28  C18 UNL     1       4.411   0.879  -0.423  1.00  0.00     0.101 A 
HETATM   29  C24 UNL     1       3.071   0.853  -0.011  1.00  0.00     0.068 A 
HETATM   30  N6  UNL     1       0.827   0.106  -0.374  1.00  0.00    -0.346 N 
ATOM     31  H6  UNL     1       0.534   0.590   0.475  1.00  0.00     0.167 HD
BRANCH  28  32
HETATM   32  N4  UNL     1       5.419   1.544   0.322  1.00  0.00    -0.373 N 
HETATM   33  C19 UNL     1       6.216   2.548  -0.339  1.00  0.00     0.143 C 
HETATM   34  C20 UNL     1       7.685   2.333  -0.156  1.00  0.00     0.145 C 
HETATM   35  N5  UNL     1       7.919   1.749   1.148  1.00  0.00    -0.356 N 
HETATM   36  C22 UNL     1       6.927   1.841   2.219  1.00  0.00     0.145 C 
HETATM   37  C23 UNL     1       5.653   1.232   1.713  1.00  0.00     0.143 C 
BRANCH  35  38
HETATM   38  C21 UNL     1       9.164   1.079   1.349  1.00  0.00     0.350 C 
HETATM   39  O3  UNL     1      10.030   0.984   0.462  1.00  0.00    -0.284 OA
ENDBRANCH  35  38
ENDBRANCH  28  32
ENDBRANCH   1  18
BRANCH   1  40
HETATM   40  C26 UNL     1      -1.393  -1.062   1.271  1.00  0.00     0.070 C 
HETATM   41  C27 UNL     1      -2.492  -1.302   2.324  1.00  0.00     0.043 C 
HETATM   42  C28 UNL     1      -1.766  -1.387   3.619  1.00  0.00     0.168 C 
HETATM   43  O4  UNL     1      -0.423  -1.058   3.553  1.00  0.00    -0.391 OA
HETATM   44  C29 UNL     1       0.339  -1.952   2.788  1.00  0.00     0.168 C 
HETATM   45  C30 UNL     1      -0.426  -2.197   1.493  1.00  0.00     0.043 C 
ENDBRANCH   1  40
TORSDOF 12
