REMARK  14 active torsions:
REMARK  status: ('A' for Active; 'I' for Inactive)
REMARK    1  A    between atoms: C4_4  and  C5_5 
REMARK    2  A    between atoms: C5_5  and  C6_6 
REMARK    3  A    between atoms: C6_6  and  C7_7 
REMARK    4  A    between atoms: C7_7  and  C8_8 
REMARK       I    between atoms: C8_8  and  N1_10 
REMARK    5  A    between atoms: N1_10  and  C9_12 
REMARK    6  A    between atoms: C10_17  and  C11_18 
REMARK    7  A    between atoms: C11_18  and  C12_19 
REMARK    8  A    between atoms: C12_19  and  C13_20 
REMARK    9  A    between atoms: C13_20  and  C14_21 
REMARK   10  A    between atoms: C14_21  and  C15_22 
REMARK       I    between atoms: N6_28  and  C17_30 
REMARK   11  A    between atoms: C17_30  and  C18_32 
REMARK   12  A    between atoms: C18_32  and  C19_33 
REMARK   13  A    between atoms: C27_44  and  C28_45 
REMARK   14  A    between atoms: C28_45  and  N8_46 
ROOT
HETATM    1  C9  UNL     1      -3.472   0.609  -1.192  1.00  0.00     0.167 A 
HETATM    2  N2  UNL     1      -2.726   0.871  -2.271  1.00  0.00    -0.279 N 
ATOM      3  H2  UNL     1      -3.146   1.277  -3.107  1.00  0.00     0.189 HD
HETATM    4  N3  UNL     1      -1.485   0.604  -2.234  1.00  0.00    -0.296 N 
ATOM      5  H3  UNL     1      -0.901   0.797  -3.047  1.00  0.00     0.187 HD
HETATM    6  C10 UNL     1      -0.946   0.078  -1.149  1.00  0.00     0.069 A 
HETATM    7  S1  UNL     1      -2.312  -0.039  -0.118  1.00  0.00    -0.038 SA
ENDROOT
BRANCH   6   8
HETATM    8  C11 UNL     1       0.487  -0.313  -0.887  1.00  0.00     0.066 C 
BRANCH   8   9
HETATM    9  C12 UNL     1       1.149   0.913  -0.294  1.00  0.00     0.007 C 
BRANCH   9  10
HETATM   10  C13 UNL     1       2.591   0.695   0.039  1.00  0.00     0.008 C 
BRANCH  10  11
HETATM   11  C14 UNL     1       3.366   0.329  -1.201  1.00  0.00     0.078 C 
BRANCH  11  12
HETATM   12  C15 UNL     1       4.784   0.125  -0.754  1.00  0.00     0.100 A 
HETATM   13  N4  UNL     1       5.654   1.156  -0.717  1.00  0.00    -0.287 N 
HETATM   14  N5  UNL     1       6.916   1.037  -0.330  1.00  0.00    -0.280 N 
ATOM     15  H4  UNL     1       5.322   2.077  -1.003  1.00  0.00     0.188 HD
HETATM   16  C16 UNL     1       7.419  -0.148   0.060  1.00  0.00     0.192 A 
ATOM     17  H5  UNL     1       7.518   1.860  -0.328  1.00  0.00     0.189 HD
HETATM   18  N6  UNL     1       8.634  -0.326   0.452  1.00  0.00    -0.307 N 
HETATM   19  C23 UNL     1       6.547  -1.217   0.030  1.00  0.00     0.294 A 
HETATM   20  C17 UNL     1       9.530   0.769   0.491  1.00  0.00     0.224 C 
ATOM     21  H6  UNL     1       8.949  -1.254   0.734  1.00  0.00     0.170 HD
HETATM   22  O2  UNL     1       9.343   1.650   1.367  1.00  0.00    -0.273 OA
HETATM   23  O3  UNL     1       6.953  -2.349   0.380  1.00  0.00    -0.264 OA
HETATM   24  N7  UNL     1       5.248  -1.077  -0.372  1.00  0.00    -0.304 N 
HETATM   25  C24 UNL     1       4.374  -2.221  -0.395  1.00  0.00     0.161 C 
BRANCH  20  26
HETATM   26  C18 UNL     1      10.663   0.910  -0.451  1.00  0.00     0.111 C 
BRANCH  26  27
HETATM   27  C19 UNL     1      11.918   0.437   0.281  1.00  0.00    -0.043 C 
HETATM   28  C20 UNL     1      11.727  -1.026   0.694  1.00  0.00     0.015 C 
HETATM   29  C21 UNL     1      13.147   0.564  -0.599  1.00  0.00     0.015 C 
HETATM   30  C22 UNL     1      12.040   1.282   1.531  1.00  0.00     0.015 C 
ENDBRANCH  26  27
ENDBRANCH  20  26
ENDBRANCH  11  12
ENDBRANCH  10  11
ENDBRANCH   9  10
ENDBRANCH   8   9
ENDBRANCH   6   8
BRANCH   1  31
HETATM   31  N1  UNL     1      -4.762   0.805  -1.020  1.00  0.00    -0.306 N 
HETATM   32  C8  UNL     1      -5.262   0.419   0.251  1.00  0.00     0.223 C 
HETATM   33  O1  UNL     1      -4.643   0.823   1.266  1.00  0.00    -0.273 OA
ATOM     34  H1  UNL     1      -5.358   1.204  -1.745  1.00  0.00     0.171 HD
BRANCH  32  35
HETATM   35  C7  UNL     1      -6.475  -0.430   0.302  1.00  0.00     0.103 C 
BRANCH  35  36
HETATM   36  C6  UNL     1      -6.804  -0.757   1.748  1.00  0.00     0.014 C 
BRANCH  36  37
HETATM   37  C5  UNL     1      -8.022  -1.613   1.825  1.00  0.00     0.039 C 
BRANCH  37  38
HETATM   38  C4  UNL     1      -9.244  -1.016   1.260  1.00  0.00    -0.058 A 
HETATM   39  C3  UNL     1      -9.630  -1.163  -0.054  1.00  0.00     0.014 A 
HETATM   40  C2  UNL     1     -10.772  -0.600  -0.557  1.00  0.00    -0.053 A 
HETATM   41  C1  UNL     1     -11.102  -0.816  -1.983  1.00  0.00     0.049 C 
HETATM   42  C27 UNL     1     -11.609   0.159   0.246  1.00  0.00    -0.028 A 
HETATM   43  C26 UNL     1     -11.243   0.320   1.561  1.00  0.00     0.010 A 
HETATM   44  C25 UNL     1     -10.076  -0.262   2.057  1.00  0.00     0.007 A 
BRANCH  42  45
HETATM   45  C28 UNL     1     -12.824   0.764  -0.308  1.00  0.00     0.240 C 
BRANCH  45  46
HETATM   46  N8  UNL     1     -13.576   1.495   0.660  1.00  0.00    -0.151 N 
HETATM   47  O4  UNL     1     -13.698   2.729   0.503  1.00  0.00    -0.536 OA
HETATM   48  O5  UNL     1     -14.174   0.934   1.750  1.00  0.00    -0.536 OA
ENDBRANCH  45  46
ENDBRANCH  42  45
ENDBRANCH  37  38
ENDBRANCH  36  37
ENDBRANCH  35  36
ENDBRANCH  32  35
ENDBRANCH   1  31
TORSDOF 14
