REMARK  11 active torsions:
REMARK  status: ('A' for Active; 'I' for Inactive)
REMARK       I    between atoms: N1_2  and  C2_4 
REMARK    1  A    between atoms: C2_4  and  O2_6 
REMARK    2  A    between atoms: O2_6  and  C3_7 
REMARK    3  A    between atoms: C4_8  and  O3_9 
REMARK    4  A    between atoms: C5_11  and  N2_12 
REMARK    5  A    between atoms: C7_17  and  N3_18 
REMARK    6  A    between atoms: C8_22  and  O4_23 
REMARK    7  A    between atoms: O4_23  and  C9_24 
REMARK    8  A    between atoms: C9_24  and  C10_26 
REMARK    9  A    between atoms: C10_26  and  N4_27 
REMARK   10  A    between atoms: C10_26  and  C11_31 
REMARK   11  A    between atoms: C11_31  and  C12_32 
ROOT
HETATM    1  C3  UNL     1      -2.764  -0.316   0.663  1.00  0.00     0.196 C 
HETATM    2  C4  UNL     1      -4.026  -0.962   1.179  1.00  0.00     0.180 C 
HETATM    3  C5  UNL     1      -4.654  -1.886   0.180  1.00  0.00     0.216 C 
HETATM    4  C6  UNL     1      -4.282  -1.492  -1.244  1.00  0.00     0.071 C 
HETATM    5  C7  UNL     1      -2.794  -1.604  -1.488  1.00  0.00     0.217 C 
HETATM    6  C8  UNL     1      -2.017  -1.278  -0.236  1.00  0.00     0.194 C 
ENDROOT
BRANCH   6   7
HETATM    7  O4  UNL     1      -0.695  -0.915  -0.466  1.00  0.00    -0.309 OA
BRANCH   7   8
HETATM    8  C9  UNL     1       0.397  -1.627  -0.039  1.00  0.00     0.290 C 
HETATM    9  O5  UNL     1       0.131  -2.685   0.609  1.00  0.00    -0.263 OA
BRANCH   8  10
HETATM   10  C10 UNL     1       1.800  -1.201  -0.309  1.00  0.00     0.282 C 
BRANCH  10  11
HETATM   11  N4  UNL     1       2.721  -2.170   0.287  1.00  0.00    -0.066 N 
ATOM     12  H43 UNL     1       2.544  -2.311   1.282  1.00  0.00     0.275 HD
ATOM     13  H42 UNL     1       2.538  -3.123  -0.029  1.00  0.00     0.275 HD
ATOM     14  H41 UNL     1       3.681  -1.879   0.102  1.00  0.00     0.275 HD
ENDBRANCH  10  11
BRANCH  10  15
HETATM   15  C11 UNL     1       2.098   0.129   0.332  1.00  0.00     0.048 C 
BRANCH  15  16
HETATM   16  C12 UNL     1       3.504   0.527   0.054  1.00  0.00    -0.012 C 
HETATM   17  C13 UNL     1       3.859   1.864   0.698  1.00  0.00     0.005 C 
HETATM   18  C14 UNL     1       5.164   2.391   0.130  1.00  0.00     0.000 C 
HETATM   19  C15 UNL     1       5.985   1.282  -0.487  1.00  0.00     0.000 C 
HETATM   20  C16 UNL     1       5.303   0.544  -1.589  1.00  0.00     0.000 C 
HETATM   21  C17 UNL     1       3.801   0.694  -1.408  1.00  0.00     0.005 C 
ENDBRANCH  15  16
ENDBRANCH  10  15
ENDBRANCH   8  10
ENDBRANCH   7   8
ENDBRANCH   6   7
BRANCH   1  22
HETATM   22  O2  UNL     1      -3.092   0.884   0.065  1.00  0.00    -0.293 OA
BRANCH  22  23
HETATM   23  C2  UNL     1      -2.596   2.073   0.577  1.00  0.00     0.360 C 
HETATM   24  N1  UNL     1      -2.915   3.326  -0.015  1.00  0.00    -0.341 N 
HETATM   25  C1  UNL     1      -2.366   4.542   0.563  1.00  0.00     0.151 C 
ATOM     26  H1  UNL     1      -3.521   3.371  -0.834  1.00  0.00     0.164 HD
HETATM   27  O1  UNL     1      -1.837   2.026   1.604  1.00  0.00    -0.239 OA
ENDBRANCH  22  23
ENDBRANCH   1  22
BRANCH   5  28
HETATM   28  N3  UNL     1      -2.546  -2.956  -1.962  1.00  0.00    -0.072 N 
ATOM     29  H33 UNL     1      -2.905  -3.674  -1.333  1.00  0.00     0.274 HD
ATOM     30  H32 UNL     1      -3.107  -3.205  -2.777  1.00  0.00     0.274 HD
ATOM     31  H31 UNL     1      -1.542  -3.032  -2.127  1.00  0.00     0.274 HD
ENDBRANCH   5  28
BRANCH   2  32
HETATM   32  O3  UNL     1      -3.810  -1.637   2.399  1.00  0.00    -0.391 OA
ATOM     33  H3  UNL     1      -4.605  -2.044   2.724  1.00  0.00     0.210 HD
ENDBRANCH   2  32
BRANCH   3  34
HETATM   34  N2  UNL     1      -4.353  -3.279   0.446  1.00  0.00    -0.072 N 
ATOM     35  H23 UNL     1      -3.346  -3.432   0.505  1.00  0.00     0.274 HD
ATOM     36  H22 UNL     1      -4.614  -3.536   1.398  1.00  0.00     0.274 HD
ATOM     37  H21 UNL     1      -4.780  -3.908  -0.234  1.00  0.00     0.274 HD
ENDBRANCH   3  34
TORSDOF 11
