REMARK  8 active torsions:
REMARK  status: ('A' for Active; 'I' for Inactive)
REMARK    1  A    between atoms: C2_2  and  O1_3 
REMARK    2  A    between atoms: O1_3  and  C3_4 
REMARK    3  A    between atoms: C4_6  and  O3_7 
REMARK    4  A    between atoms: C7_11  and  O4_12 
REMARK    5  A    between atoms: O4_12  and  C8_13 
REMARK    6  A    between atoms: C8_13  and  N2_17 
REMARK    7  A    between atoms: N2_17  and  N3_19 
REMARK       I    between atoms: N3_19  and  C9_21 
REMARK    8  A    between atoms: C12_26  and  N5_27 
ROOT
HETATM    1  C3  UNL     1      -0.728  -1.749  -0.186  1.00  0.00     0.270 C 
HETATM    2  O2  UNL     1      -0.978  -1.438   1.151  1.00  0.00    -0.323 OA
HETATM    3  C4  UNL     1      -1.593  -0.198   1.326  1.00  0.00     0.185 C 
HETATM    4  C5  UNL     1      -0.687   0.876   1.806  1.00  0.00     0.073 C 
HETATM    5  C6  UNL     1       0.597   1.064   1.027  1.00  0.00     0.038 C 
HETATM    6  C7  UNL     1       0.943  -0.054   0.136  1.00  0.00     0.141 C 
HETATM    7  C10 UNL     1      -0.186  -0.477  -0.794  1.00  0.00     0.073 C 
HETATM    8  C11 UNL     1      -1.272   0.568  -0.936  1.00  0.00     0.043 C 
HETATM    9  C12 UNL     1      -2.326   0.227   0.051  1.00  0.00     0.149 C 
ENDROOT
BRANCH   6  10
HETATM   10  O4  UNL     1       2.115   0.139  -0.580  1.00  0.00    -0.315 OA
BRANCH  10  11
HETATM   11  C8  UNL     1       3.416   0.285  -0.083  1.00  0.00     0.232 C 
HETATM   12  N1  UNL     1       3.674   0.464   1.078  1.00  0.00    -0.364 N 
ATOM     13  H12 UNL     1       2.899   0.515   1.739  1.00  0.00     0.159 HD
ATOM     14  H11 UNL     1       4.622   0.570   1.440  1.00  0.00     0.159 HD
BRANCH  11  15
HETATM   15  N2  UNL     1       4.516   0.213  -1.022  1.00  0.00    -0.262 N 
ATOM     16  H2  UNL     1       4.340   0.040  -2.012  1.00  0.00     0.190 HD
BRANCH  15  17
HETATM   17  N3  UNL     1       5.799   0.381  -0.563  1.00  0.00    -0.251 N 
HETATM   18  C9  UNL     1       6.694   1.318  -1.130  1.00  0.00     0.347 C 
HETATM   19  N4  UNL     1       8.004   1.479  -0.655  1.00  0.00    -0.038 NA
HETATM   20  O5  UNL     1       6.306   2.041  -2.103  1.00  0.00    -0.249 OA
ATOM     21  H3  UNL     1       6.119  -0.192   0.217  1.00  0.00     0.191 HD
ENDBRANCH  15  17
ENDBRANCH  11  15
ENDBRANCH  10  11
ENDBRANCH   6  10
BRANCH   1  22
HETATM   22  O1  UNL     1       0.391  -2.623  -0.150  1.00  0.00    -0.361 OA
BRANCH  22  23
HETATM   23  C2  UNL     1       0.058  -3.815  -0.773  1.00  0.00     0.166 C 
HETATM   24  C1  UNL     1      -1.072  -4.429   0.036  1.00  0.00     0.033 C 
ENDBRANCH  22  23
ENDBRANCH   1  22
BRANCH   3  25
HETATM   25  O3  UNL     1      -2.549  -0.393   2.346  1.00  0.00    -0.364 OA
ATOM     26  H3  UNL     1      -2.968   0.451   2.465  1.00  0.00     0.213 HD
ENDBRANCH   3  25
BRANCH   9  27
HETATM   27  N5  UNL     1      -3.388   1.108   0.273  1.00  0.00    -0.344 N 
HETATM   28  C13 UNL     1      -4.549   0.780   1.124  1.00  0.00     0.146 C 
HETATM   29  C14 UNL     1      -5.645   1.482   0.303  1.00  0.00     0.142 C 
HETATM   30  N6  UNL     1      -4.938   2.634  -0.176  1.00  0.00    -0.363 N 
HETATM   31  C15 UNL     1      -3.670   2.404  -0.187  1.00  0.00     0.186 C 
ATOM     32  H6  UNL     1      -5.375   3.509  -0.466  1.00  0.00     0.162 HD
HETATM   33  N7  UNL     1      -2.700   3.328  -0.608  1.00  0.00    -0.064 NA
ENDBRANCH   9  27
TORSDOF 8
