REMARK  7 active torsions:
REMARK  status: ('A' for Active; 'I' for Inactive)
REMARK    1  A    between atoms: C2_2  and  N1_3 
REMARK    2  A    between atoms: C2_2  and  C14_26 
REMARK       I    between atoms: N1_3  and  C3_5 
REMARK    3  A    between atoms: C3_5  and  C4_7 
REMARK    4  A    between atoms: C4_7  and  N2_8 
REMARK       I    between atoms: N2_8  and  C5_10 
REMARK    5  A    between atoms: C5_10  and  O3_12 
REMARK    6  A    between atoms: O3_12  and  C6_13 
REMARK    7  A    between atoms: C12_21  and  O5_23 
ROOT
HETATM    1  N2  UNL     1       1.884   1.126  -2.862  1.00  0.00    -0.328 N 
ATOM      2  H2  UNL     1       1.866   0.525  -3.686  1.00  0.00     0.165 HD
HETATM    3  C5  UNL     1       0.837   1.002  -1.901  1.00  0.00     0.363 C 
HETATM    4  O2  UNL     1       0.867   1.756  -0.899  1.00  0.00    -0.238 OA
ENDROOT
BRANCH   3   5
HETATM    5  O3  UNL     1      -0.193   0.084  -2.045  1.00  0.00    -0.270 OA
BRANCH   5   6
HETATM    6  C6  UNL     1      -1.192   0.004  -1.073  1.00  0.00     0.298 C 
HETATM    7  C7  UNL     1      -1.162  -1.382  -0.415  1.00  0.00     0.231 C 
HETATM    8  O4  UNL     1      -1.958  -1.307   0.702  1.00  0.00    -0.359 OA
HETATM    9  C8  UNL     1      -3.107  -0.583   0.557  1.00  0.00     0.164 C 
HETATM   10  C9  UNL     1      -4.262  -1.289   1.234  1.00  0.00     0.056 C 
HETATM   11  S1  UNL     1      -3.057   0.979   1.521  1.00  0.00    -0.126 SA
HETATM   12  C12 UNL     1      -3.484  -0.248  -0.843  1.00  0.00     0.202 C 
HETATM   13  C10 UNL     1      -4.145  -1.021   2.706  1.00  0.00     0.014 C 
HETATM   14  C11 UNL     1      -4.235   0.498   2.848  1.00  0.00     0.077 C 
HETATM   15  C13 UNL     1      -4.261  -1.370  -1.524  1.00  0.00     0.083 C 
HETATM   16  O6  UNL     1      -2.448   0.123  -1.658  1.00  0.00    -0.319 OA
BRANCH  12  17
HETATM   17  O5  UNL     1      -4.375   0.850  -0.785  1.00  0.00    -0.362 OA
ATOM     18  H5  UNL     1      -4.616   1.064  -1.679  1.00  0.00     0.213 HD
ENDBRANCH  12  17
ENDBRANCH   5   6
ENDBRANCH   3   5
BRANCH   1  19
HETATM   19  C4  UNL     1       2.952   2.054  -2.718  1.00  0.00     0.227 C 
BRANCH  19  20
HETATM   20  C3  UNL     1       3.852   1.863  -1.582  1.00  0.00     0.236 C 
HETATM   21  N1  UNL     1       3.782   0.811  -0.668  1.00  0.00    -0.347 N 
ATOM     22  H1  UNL     1       3.049   0.114  -0.801  1.00  0.00     0.163 HD
HETATM   23  O1  UNL     1       4.766   2.721  -1.424  1.00  0.00    -0.272 OA
BRANCH  21  24
HETATM   24  C2  UNL     1       4.679   0.641   0.457  1.00  0.00     0.169 C 
HETATM   25  C1  UNL     1       3.988   0.646   1.773  1.00  0.00     0.042 C 
BRANCH  24  26
HETATM   26  C14 UNL     1       5.426  -0.634   0.321  1.00  0.00     0.253 C 
HETATM   27  N3  UNL     1       6.370  -0.990   1.336  1.00  0.00    -0.060 NA
HETATM   28  O7  UNL     1       5.226  -1.366  -0.659  1.00  0.00    -0.275 OA
ENDBRANCH  24  26
ENDBRANCH  21  24
ENDBRANCH  19  20
ENDBRANCH   1  19
TORSDOF 7
