REMARK  4 active torsions:
REMARK  status: ('A' for Active; 'I' for Inactive)
REMARK    1  A    between atoms: N1_2  and  C3_4 
REMARK    2  A    between atoms: C5_6  and  N2_7 
REMARK    3  A    between atoms: C6_12  and  N4_13 
REMARK    4  A    between atoms: C8_17  and  N6_18 
ROOT
HETATM    1  C3  UNL     1       1.734  -0.387  -0.147  1.00  0.00     0.121 A 
HETATM    2  C4  UNL     1       1.780  -1.488  -0.973  1.00  0.00     0.097 A 
HETATM    3  C5  UNL     1       0.579  -1.997  -1.415  1.00  0.00     0.118 A 
HETATM    4  N3  UNL     1      -0.579  -1.403  -1.027  1.00  0.00    -0.176 N 
ATOM      5  H3  UNL     1      -1.460  -1.792  -1.364  1.00  0.00     0.186 HD
HETATM    6  C6  UNL     1      -0.623  -0.330  -0.222  1.00  0.00     0.697 A 
HETATM    7  N8  UNL     1       0.543   0.171   0.214  1.00  0.00    -0.176 N 
ATOM      8  H8  UNL     1       0.539   0.986   0.828  1.00  0.00     0.186 HD
ENDROOT
BRANCH   6   9
HETATM    9  N4  UNL     1      -1.881   0.272   0.141  1.00  0.00    -0.091 N 
HETATM   10  C7  UNL     1      -2.303   1.311  -0.607  1.00  0.00     0.229 A 
HETATM   11  N5  UNL     1      -3.454   1.908  -0.324  1.00  0.00    -0.187 N 
HETATM   12  C8  UNL     1      -4.245   1.521   0.697  1.00  0.00     0.680 A 
ATOM     13  H5  UNL     1      -3.753   2.693  -0.903  1.00  0.00     0.185 HD
HETATM   14  N7  UNL     1      -3.815   0.486   1.435  1.00  0.00    -0.141 N 
HETATM   15  C9  UNL     1      -2.634  -0.133   1.153  1.00  0.00     0.360 A 
ATOM     16  H7  UNL     1      -4.380   0.158   2.218  1.00  0.00     0.189 HD
HETATM   17  O1  UNL     1      -2.248  -1.103   1.860  1.00  0.00    -0.245 OA
BRANCH  12  18
HETATM   18  N6  UNL     1      -5.366   2.112   0.960  1.00  0.00    -0.234 N 
ATOM     19  H62 UNL     1      -5.693   2.899   0.399  1.00  0.00     0.174 HD
ATOM     20  H61 UNL     1      -5.964   1.819   1.732  1.00  0.00     0.174 HD
ENDBRANCH  12  18
ENDBRANCH   6   9
BRANCH   3  21
HETATM   21  N2  UNL     1       0.619  -3.028  -2.190  1.00  0.00    -0.385 N 
ATOM     22  H22 UNL     1       1.489  -3.474  -2.481  1.00  0.00     0.157 HD
ATOM     23  H21 UNL     1      -0.270  -3.405  -2.517  1.00  0.00     0.157 HD
ENDBRANCH   3  21
BRANCH   1  24
HETATM   24  N1  UNL     1       2.972   0.162   0.292  1.00  0.00    -0.376 N 
HETATM   25  C1  UNL     1       3.376   1.455  -0.285  1.00  0.00     0.150 C 
HETATM   26  C2  UNL     1       3.820  -0.491   1.245  1.00  0.00     0.150 C 
ENDBRANCH   1  24
TORSDOF 4
