REMARK  7 active torsions:
REMARK  status: ('A' for Active; 'I' for Inactive)
REMARK    1  A    between atoms: C2_2  and  S1_3 
REMARK    2  A    between atoms: S1_3  and  C3_4 
REMARK    3  A    between atoms: C3_4  and  C4_5 
REMARK    4  A    between atoms: C4_5  and  O1_7 
REMARK    5  A    between atoms: C4_5  and  C6_9 
REMARK    6  A    between atoms: C15_18  and  O2_19 
REMARK    7  A    between atoms: C23_28  and  C24_29 
ROOT
HETATM    1  C6  UNL     1       2.227  -0.068  -0.168  1.00  0.00     0.036 C 
HETATM    2  C7  UNL     1       2.316   0.078  -1.669  1.00  0.00     0.009 C 
HETATM    3  C8  UNL     1       0.895   0.429  -2.135  1.00  0.00     0.007 C 
HETATM    4  C9  UNL     1       0.145   0.496  -0.854  1.00  0.00     0.006 C 
HETATM    5  C10 UNL     1      -1.321   0.478  -0.899  1.00  0.00    -0.001 C 
HETATM    6  C11 UNL     1      -1.804   1.897  -0.697  1.00  0.00     0.033 C 
HETATM    7  C12 UNL     1      -3.195   1.994  -0.234  1.00  0.00    -0.023 C 
HETATM    8  C13 UNL     1      -3.921   1.004   0.213  1.00  0.00    -0.072 C 
HETATM    9  C14 UNL     1      -5.311   1.246   0.647  1.00  0.00     0.066 C 
HETATM   10  C15 UNL     1      -6.173   0.285  -0.140  1.00  0.00     0.122 C 
HETATM   11  C16 UNL     1      -5.441  -0.506  -1.168  1.00  0.00     0.033 C 
HETATM   12  C17 UNL     1      -4.185  -1.180  -0.719  1.00  0.00     0.016 C 
HETATM   13  C18 UNL     1      -3.400  -0.349   0.290  1.00  0.00    -0.017 C 
HETATM   14  C19 UNL     1      -3.723  -1.020   1.635  1.00  0.00     0.020 C 
HETATM   15  C20 UNL     1      -1.911  -0.492   0.083  1.00  0.00     0.003 C 
HETATM   16  C21 UNL     1      -1.217  -0.459   1.416  1.00  0.00     0.007 C 
HETATM   17  C22 UNL     1       0.262  -0.401   1.368  1.00  0.00     0.018 C 
HETATM   18  C23 UNL     1       0.824  -0.570   0.004  1.00  0.00     0.023 C 
ENDROOT
BRANCH   1  19
HETATM   19  C4  UNL     1       3.317  -0.774   0.476  1.00  0.00     0.067 C 
HETATM   20  C5  UNL     1       3.597  -2.174   0.045  1.00  0.00     0.047 C 
BRANCH  19  21
HETATM   21  C3  UNL     1       4.605   0.015   0.165  1.00  0.00     0.111 C 
BRANCH  21  22
HETATM   22  S1  UNL     1       6.001  -0.676   1.074  1.00  0.00    -0.167 SA
BRANCH  22  23
HETATM   23  C2  UNL     1       7.470   0.294   0.663  1.00  0.00     0.069 C 
HETATM   24  C1  UNL     1       7.385   1.706   1.162  1.00  0.00     0.016 C 
ENDBRANCH  22  23
ENDBRANCH  21  22
ENDBRANCH  19  21
BRANCH  19  25
HETATM   25  O1  UNL     1       3.208  -0.764   1.858  1.00  0.00    -0.389 OA
ATOM     26  H1  UNL     1       2.415  -1.250   2.050  1.00  0.00     0.210 HD
ENDBRANCH  19  25
ENDBRANCH   1  19
BRANCH  18  27
HETATM   27  C24 UNL     1       0.755  -1.928  -0.515  1.00  0.00     0.241 C 
HETATM   28  O3  UNL     1       0.816  -2.299  -1.650  1.00  0.00    -0.306 OA
ENDBRANCH  18  27
BRANCH  10  29
HETATM   29  O2  UNL     1      -7.124   1.065  -0.844  1.00  0.00    -0.395 OA
ATOM     30  H2  UNL     1      -7.666   0.461  -1.339  1.00  0.00     0.210 HD
ENDBRANCH  10  29
TORSDOF 7
