REMARK  5 active torsions:
REMARK  status: ('A' for Active; 'I' for Inactive)
REMARK    1  A    between atoms: C2_2  and  C3_3 
REMARK    2  A    between atoms: C3_3  and  C4_4 
REMARK    3  A    between atoms: C4_4  and  C5_5 
REMARK    4  A    between atoms: C5_5  and  C6_6 
REMARK    5  A    between atoms: C18_20  and  C19_21 
ROOT
HETATM    1  C6  UNL     1      -0.045   0.811  -0.264  1.00  0.00    -0.037 C 
HETATM    2  C7  UNL     1       0.178   2.055  -1.116  1.00  0.00     0.015 C 
HETATM    3  C8  UNL     1      -1.409   1.119   0.409  1.00  0.00     0.045 C 
HETATM    4  C9  UNL     1      -2.145  -0.055   0.904  1.00  0.00     0.229 C 
HETATM    5  C10 UNL     1      -3.623   0.033   0.480  1.00  0.00     0.073 C 
HETATM    6  C11 UNL     1      -3.719  -0.178  -1.009  1.00  0.00     0.058 C 
HETATM    7  C12 UNL     1      -4.547  -1.394  -1.365  1.00  0.00     0.045 C 
HETATM    8  C13 UNL     1      -4.483   1.033  -1.563  1.00  0.00     0.045 C 
HETATM    9  O1  UNL     1      -2.512  -0.211  -1.656  1.00  0.00    -0.346 OA
HETATM   10  C14 UNL     1      -1.563  -1.034  -1.105  1.00  0.00     0.360 C 
HETATM   11  C15 UNL     1      -0.219  -0.306  -1.274  1.00  0.00     0.073 C 
HETATM   12  N1  UNL     1      -1.648  -1.248   0.291  1.00  0.00     0.117 N 
HETATM   13  C16 UNL     1      -2.191  -2.465   0.733  1.00  0.00     0.314 C 
ENDROOT
BRANCH   1  14
HETATM   14  C5  UNL     1       0.889   0.576   0.819  1.00  0.00     0.019 C 
BRANCH  14  15
HETATM   15  C4  UNL     1       2.362   0.377   0.673  1.00  0.00    -0.025 A 
HETATM   16  C17 UNL     1       2.930  -0.116   2.031  1.00  0.00     0.026 A 
HETATM   17  C18 UNL     1       3.083  -0.897   0.813  1.00  0.00     0.096 A 
BRANCH  15  18
HETATM   18  C3  UNL     1       3.164   1.481   0.034  1.00  0.00     0.010 C 
BRANCH  18  19
HETATM   19  C2  UNL     1       4.608   1.389  -0.160  1.00  0.00    -0.004 C 
HETATM   20  C1  UNL     1       5.495   1.324   1.049  1.00  0.00     0.005 C 
ENDBRANCH  18  19
ENDBRANCH  15  18
BRANCH  17  21
HETATM   21  C19 UNL     1       2.496  -2.247   0.859  1.00  0.00     0.177 C 
HETATM   22  O2  UNL     1       1.420  -2.529   1.479  1.00  0.00    -0.648 OA
HETATM   23  O3  UNL     1       3.073  -3.356   0.218  1.00  0.00    -0.648 OA
ENDBRANCH  17  21
ENDBRANCH  14  15
ENDBRANCH   1  14
TORSDOF 5
