REMARK  5 active torsions:
REMARK  status: ('A' for Active; 'I' for Inactive)
REMARK    1  A    between atoms: C1_2  and  C2_3 
REMARK       I    between atoms: C1_2  and  N2_16 
REMARK    2  A    between atoms: C2_3  and  C3_4 
REMARK    3  A    between atoms: C3_4  and  C4_5 
REMARK    4  A    between atoms: C4_5  and  C5_6 
REMARK    5  A    between atoms: C5_6  and  N1_7 
ROOT
HETATM    1  C2  UNL     1       2.487  -0.218  -0.398  1.00  0.00     0.103 C 
ENDROOT
BRANCH   1   2
HETATM    2  C1  UNL     1       2.780   0.254   0.962  1.00  0.00     0.223 C 
HETATM    3  O1  UNL     1       2.114  -0.222   1.946  1.00  0.00    -0.273 OA
HETATM    4  N2  UNL     1       3.782   1.223   1.236  1.00  0.00    -0.308 N 
HETATM    5  C14 UNL     1       5.007   0.949   1.074  1.00  0.00     0.142 C 
ATOM      6  H2  UNL     1       3.511   2.149   1.567  1.00  0.00     0.171 HD
HETATM    7  N3  UNL     1       5.443  -0.317   0.618  1.00  0.00    -0.371 N 
HETATM    8  S1  UNL     1       6.304   2.167   1.419  1.00  0.00    -0.094 SA
HETATM    9  C15 UNL     1       6.591  -0.529  -0.244  1.00  0.00     0.122 C 
ATOM     10  H3  UNL     1       4.914  -1.137   0.915  1.00  0.00     0.161 HD
HETATM   11  C16 UNL     1       7.294   0.735  -0.612  1.00  0.00     0.030 C 
HETATM   12  C17 UNL     1       7.807   1.482   0.617  1.00  0.00     0.084 C 
ENDBRANCH   1   2
BRANCH   1  13
HETATM   13  C3  UNL     1       1.258  -1.049  -0.537  1.00  0.00     0.011 C 
BRANCH  13  14
HETATM   14  C4  UNL     1      -0.018  -0.327  -0.155  1.00  0.00     0.031 C 
BRANCH  14  15
HETATM   15  C5  UNL     1      -1.160  -1.297  -0.357  1.00  0.00     0.272 C 
BRANCH  15  16
HETATM   16  N1  UNL     1      -2.459  -0.748  -0.046  1.00  0.00     0.088 N 
HETATM   17  C6  UNL     1      -2.570  -0.527   1.324  1.00  0.00     0.272 C 
HETATM   18  C7  UNL     1      -3.922  -0.133   1.854  1.00  0.00     0.030 C 
HETATM   19  C8  UNL     1      -4.270   1.297   1.566  1.00  0.00     0.002 C 
HETATM   20  C9  UNL     1      -4.657   1.586   0.153  1.00  0.00     0.000 C 
HETATM   21  C10 UNL     1      -5.719   0.726  -0.409  1.00  0.00     0.000 C 
HETATM   22  C11 UNL     1      -5.415   0.016  -1.666  1.00  0.00     0.002 C 
HETATM   23  C12 UNL     1      -4.008  -0.437  -1.865  1.00  0.00     0.030 C 
HETATM   24  C13 UNL     1      -3.524  -1.360  -0.747  1.00  0.00     0.272 C 
ENDBRANCH  15  16
ENDBRANCH  14  15
ENDBRANCH  13  14
ENDBRANCH   1  13
TORSDOF 5
