REMARK  9 active torsions:
REMARK  status: ('A' for Active; 'I' for Inactive)
REMARK    1  A    between atoms: N1_1  and  C1_5 
REMARK    2  A    between atoms: C1_5  and  C2_6 
REMARK    3  A    between atoms: C1_5  and  C4_14 
REMARK    4  A    between atoms: C4_14  and  C5_15 
REMARK    5  A    between atoms: C4_14  and  N5_23 
REMARK    6  A    between atoms: C5_15  and  C6_16 
REMARK    7  A    between atoms: C6_16  and  C7_17 
REMARK    8  A    between atoms: N5_23  and  C13_25 
REMARK    9  A    between atoms: C13_25  and  C14_26 
ROOT
HETATM    1  C4  UNL     1       0.031  -0.813  -0.286  1.00  0.00     0.119 C 
ENDROOT
BRANCH   1   2
HETATM    2  C1  UNL     1      -0.465  -2.171  -0.774  1.00  0.00     0.274 C 
BRANCH   2   3
HETATM    3  N1  UNL     1      -1.201  -2.905   0.199  1.00  0.00    -0.066 N 
ATOM      4  H13 UNL     1      -1.559  -3.782  -0.180  1.00  0.00     0.275 HD
ATOM      5  H12 UNL     1      -0.594  -3.288   0.923  1.00  0.00     0.275 HD
ATOM      6  H11 UNL     1      -1.946  -2.331   0.594  1.00  0.00     0.275 HD
ENDBRANCH   2   3
BRANCH   2   7
HETATM    7  C2  UNL     1       0.601  -2.993  -1.340  1.00  0.00     0.130 A 
HETATM    8  N2  UNL     1       0.474  -4.314  -1.663  1.00  0.00    -0.338 N 
HETATM    9  C3  UNL     1       1.612  -4.784  -2.171  1.00  0.00     0.198 A 
ATOM     10  H2  UNL     1      -0.375  -4.864  -1.533  1.00  0.00     0.168 HD
HETATM   11  N3  UNL     1       2.463  -3.752  -2.168  1.00  0.00    -0.295 N 
HETATM   12  N4  UNL     1       1.863  -2.686  -1.674  1.00  0.00    -0.286 N 
ATOM     13  H3  UNL     1       3.428  -3.784  -2.497  1.00  0.00     0.187 HD
ATOM     14  H4  UNL     1       2.293  -1.768  -1.563  1.00  0.00     0.188 HD
ENDBRANCH   2   7
ENDBRANCH   1   2
BRANCH   1  15
HETATM   15  C5  UNL     1       0.889  -1.008   0.900  1.00  0.00     0.032 C 
BRANCH  15  16
HETATM   16  C6  UNL     1       1.500   0.175   1.540  1.00  0.00     0.041 C 
BRANCH  16  17
HETATM   17  C7  UNL     1       2.417   0.973   0.721  1.00  0.00    -0.058 A 
HETATM   18  C8  UNL     1       3.769   0.626   0.655  1.00  0.00     0.007 A 
HETATM   19  C9  UNL     1       4.672   1.342  -0.084  1.00  0.00     0.001 A 
HETATM   20  C10 UNL     1       4.276   2.444  -0.797  1.00  0.00     0.000 A 
HETATM   21  C11 UNL     1       2.955   2.811  -0.753  1.00  0.00     0.001 A 
HETATM   22  C12 UNL     1       2.038   2.077   0.003  1.00  0.00     0.007 A 
ENDBRANCH  16  17
ENDBRANCH  15  16
ENDBRANCH   1  15
BRANCH   1  23
HETATM   23  N5  UNL     1      -0.961   0.180  -0.197  1.00  0.00    -0.391 N 
ATOM     24  H5  UNL     1      -0.897   1.015  -0.780  1.00  0.00     0.159 HD
BRANCH  23  25
HETATM   25  C13 UNL     1      -2.040   0.029   0.690  1.00  0.00     0.095 C 
BRANCH  25  26
HETATM   26  C14 UNL     1      -2.986   1.195   0.680  1.00  0.00    -0.018 A 
HETATM   27  C15 UNL     1      -4.018   1.181   1.592  1.00  0.00     0.013 A 
HETATM   28  C16 UNL     1      -4.940   2.217   1.653  1.00  0.00     0.004 A 
HETATM   29  C17 UNL     1      -4.830   3.287   0.789  1.00  0.00     0.042 A 
HETATM   30  C18 UNL     1      -3.796   3.318  -0.137  1.00  0.00     0.117 A 
HETATM   31  F1  UNL     1      -3.682   4.365  -0.990  1.00  0.00    -0.206 F 
HETATM   32  C19 UNL     1      -2.886   2.257  -0.170  1.00  0.00     0.055 A 
ENDBRANCH  25  26
ENDBRANCH  23  25
ENDBRANCH   1  23
TORSDOF 9
