REMARK  11 active torsions:
REMARK  status: ('A' for Active; 'I' for Inactive)
REMARK    1  A    between atoms: N1_1  and  C1_4 
REMARK    2  A    between atoms: C2_8  and  O1_9 
REMARK    3  A    between atoms: O1_9  and  C3_10 
REMARK    4  A    between atoms: C3_10  and  C4_11 
REMARK    5  A    between atoms: C4_11  and  N3_12 
REMARK    6  A    between atoms: N3_12  and  C5_14 
REMARK    7  A    between atoms: C5_14  and  C6_15 
REMARK    8  A    between atoms: C6_15  and  N4_16 
REMARK    9  A    between atoms: C6_15  and  C7_20 
REMARK   10  A    between atoms: C13_27  and  N5_28 
REMARK   11  A    between atoms: N5_28  and  O2_30 
ROOT
HETATM    1  C4  UNL     1       0.417  -0.131   1.575  1.00  0.00     0.082 C 
ENDROOT
BRANCH   1   2
HETATM    2  C3  UNL     1       1.827  -0.428   1.256  1.00  0.00     0.220 C 
BRANCH   2   3
HETATM    3  O1  UNL     1       2.411   0.691   0.528  1.00  0.00    -0.336 OA
BRANCH   3   4
HETATM    4  C2  UNL     1       3.793   0.667   0.349  1.00  0.00     0.159 A 
HETATM    5  S1  UNL     1       4.848   1.550   1.443  1.00  0.00     0.015 SA
HETATM    6  N2  UNL     1       6.322   1.149   0.749  1.00  0.00    -0.309 N 
HETATM    7  C1  UNL     1       5.993   0.364  -0.295  1.00  0.00     0.137 A 
ATOM      8  H2  UNL     1       7.254   1.434   1.049  1.00  0.00     0.176 HD
HETATM    9  C13 UNL     1       4.673   0.120  -0.491  1.00  0.00     0.140 A 
BRANCH   7  10
HETATM   10  N1  UNL     1       6.977  -0.078  -1.042  1.00  0.00    -0.383 N 
ATOM     11  H12 UNL     1       7.969   0.105  -0.895  1.00  0.00     0.157 HD
ATOM     12  H11 UNL     1       6.728  -0.672  -1.833  1.00  0.00     0.157 HD
ENDBRANCH   7  10
BRANCH   9  13
HETATM   13  N5  UNL     1       4.213  -0.729  -1.580  1.00  0.00    -0.262 N 
ATOM     14  H5  UNL     1       3.566  -0.341  -2.266  1.00  0.00     0.194 HD
BRANCH  13  15
HETATM   15  O2  UNL     1       4.577  -1.897  -1.702  1.00  0.00    -0.289 OA
ATOM     16  H2  UNL     1       4.277  -2.451  -2.413  1.00  0.00     0.244 HD
ENDBRANCH  13  15
ENDBRANCH   9  13
ENDBRANCH   3   4
ENDBRANCH   2   3
ENDBRANCH   1   2
BRANCH   1  17
HETATM   17  N3  UNL     1      -0.543   0.077   0.608  1.00  0.00    -0.398 N 
ATOM     18  H3  UNL     1      -0.840   1.014   0.335  1.00  0.00     0.158 HD
BRANCH  17  19
HETATM   19  C5  UNL     1      -1.107  -1.118  -0.000  1.00  0.00     0.156 C 
BRANCH  19  20
HETATM   20  C6  UNL     1      -2.162  -0.545  -1.011  1.00  0.00     0.235 C 
BRANCH  20  21
HETATM   21  N4  UNL     1      -2.749  -1.794  -1.582  1.00  0.00    -0.069 N 
ATOM     22  H43 UNL     1      -2.074  -2.446  -1.983  1.00  0.00     0.275 HD
ATOM     23  H42 UNL     1      -3.119  -2.451  -0.896  1.00  0.00     0.275 HD
ATOM     24  H41 UNL     1      -3.435  -1.422  -2.239  1.00  0.00     0.275 HD
ENDBRANCH  20  21
BRANCH  20  25
HETATM   25  C7  UNL     1      -3.212   0.141  -0.212  1.00  0.00    -0.005 A 
HETATM   26  C8  UNL     1      -3.918  -0.461   0.772  1.00  0.00     0.011 A 
HETATM   27  C9  UNL     1      -4.961   0.137   1.413  1.00  0.00     0.001 A 
HETATM   28  C10 UNL     1      -5.290   1.446   1.003  1.00  0.00     0.002 A 
HETATM   29  C11 UNL     1      -4.573   2.057   0.008  1.00  0.00     0.024 A 
HETATM   30  C12 UNL     1      -3.522   1.447  -0.640  1.00  0.00     0.042 A 
HETATM   31 CL1  UNL     1      -2.589   2.244  -1.877  1.00  0.00    -0.084 Cl
ENDBRANCH  20  25
ENDBRANCH  19  20
ENDBRANCH  17  19
ENDBRANCH   1  17
TORSDOF 11
