REMARK  9 active torsions:
REMARK  status: ('A' for Active; 'I' for Inactive)
REMARK    1  A    between atoms: C2_3  and  C3_4 
REMARK    2  A    between atoms: C10_17  and  N4_18 
REMARK    3  A    between atoms: N5_20  and  C11_22 
REMARK    4  A    between atoms: C11_22  and  C12_23 
REMARK    5  A    between atoms: C12_23  and  C13_24 
REMARK    6  A    between atoms: C13_24  and  N6_25 
REMARK    7  A    between atoms: N6_25  and  C14_28 
REMARK    8  A    between atoms: C14_28  and  C15_29 
REMARK    9  A    between atoms: C15_29  and  O2_30 
ROOT
HETATM    1  N1  UNL     1      -2.321  -0.952   1.292  1.00  0.00    -0.097 NA
HETATM    2  C1  UNL     1      -2.055  -1.060  -0.099  1.00  0.00     0.108 A 
HETATM    3  C2  UNL     1      -3.022  -0.630  -0.994  1.00  0.00     0.085 A 
HETATM    4  N2  UNL     1      -2.707  -0.771  -2.308  1.00  0.00    -0.295 N 
ATOM      5  H2  UNL     1      -3.378  -0.472  -3.016  1.00  0.00     0.187 HD
HETATM    6  N3  UNL     1      -1.551  -1.286  -2.692  1.00  0.00    -0.264 N 
ATOM      7  H3  UNL     1      -1.369  -1.368  -3.692  1.00  0.00     0.190 HD
HETATM    8  C9  UNL     1      -0.611  -1.704  -1.845  1.00  0.00     0.289 A 
HETATM    9  O1  UNL     1       0.490  -2.194  -2.231  1.00  0.00    -0.264 OA
HETATM   10  C10 UNL     1      -0.847  -1.599  -0.506  1.00  0.00     0.144 A 
ENDROOT
BRANCH  10  11
HETATM   11  N4  UNL     1       0.058  -2.010   0.515  1.00  0.00    -0.298 N 
HETATM   12  N5  UNL     1       0.924  -1.233   0.969  1.00  0.00    -0.336 N 
ATOM     13  H5  UNL     1       1.538  -1.594   1.699  1.00  0.00     0.180 HD
ATOM     14  H4  UNL     1      -0.003  -2.959   0.883  1.00  0.00     0.186 HD
BRANCH  12  15
HETATM   15  C11 UNL     1       1.130   0.137   0.546  1.00  0.00     0.141 C 
BRANCH  15  16
HETATM   16  C12 UNL     1       2.610   0.424   0.829  1.00  0.00     0.048 C 
BRANCH  16  17
HETATM   17  C13 UNL     1       3.473  -0.551   0.045  1.00  0.00     0.234 C 
BRANCH  17  18
HETATM   18  N6  UNL     1       4.872  -0.308   0.283  1.00  0.00    -0.073 N 
ATOM     19  H62 UNL     1       5.101  -0.359   1.276  1.00  0.00     0.277 HD
ATOM     20  H61 UNL     1       5.451  -1.080  -0.048  1.00  0.00     0.277 HD
BRANCH  18  21
HETATM   21  C14 UNL     1       5.279   0.953  -0.296  1.00  0.00     0.258 C 
BRANCH  21  22
HETATM   22  C15 UNL     1       6.764   1.166  -0.024  1.00  0.00     0.191 C 
BRANCH  22  23
HETATM   23  O2  UNL     1       7.035   1.194   1.325  1.00  0.00    -0.399 OA
ATOM     24  H2  UNL     1       7.960   1.327   1.494  1.00  0.00     0.209 HD
ENDBRANCH  22  23
ENDBRANCH  21  22
ENDBRANCH  18  21
ENDBRANCH  17  18
ENDBRANCH  16  17
ENDBRANCH  15  16
ENDBRANCH  12  15
ENDBRANCH  10  11
BRANCH   3  25
HETATM   25  C3  UNL     1      -4.307  -0.075  -0.561  1.00  0.00    -0.004 A 
HETATM   26  C4  UNL     1      -5.502  -0.520  -1.108  1.00  0.00     0.014 A 
HETATM   27  C5  UNL     1      -6.712   0.028  -0.681  1.00  0.00     0.003 A 
HETATM   28  C6  UNL     1      -6.772   1.009   0.276  1.00  0.00     0.024 A 
HETATM   29  C7  UNL     1      -5.585   1.450   0.818  1.00  0.00     0.035 A 
HETATM   30 CL1  UNL     1      -5.644   2.702   2.040  1.00  0.00    -0.084 Cl
HETATM   31  C8  UNL     1      -4.381   0.912   0.400  1.00  0.00     0.037 A 
ENDBRANCH   3  25
TORSDOF 9
