REMARK  9 active torsions:
REMARK  status: ('A' for Active; 'I' for Inactive)
REMARK    1  A    between atoms: N1_1  and  C1_4 
REMARK    2  A    between atoms: C2_7  and  C3_8 
REMARK    3  A    between atoms: C6_14  and  N4_15 
REMARK    4  A    between atoms: N4_15  and  C7_17 
REMARK    5  A    between atoms: C7_17  and  C8_18 
REMARK    6  A    between atoms: C8_18  and  C9_19 
REMARK    7  A    between atoms: C9_19  and  C10_20 
REMARK    8  A    between atoms: C10_20  and  C11_21 
REMARK    9  A    between atoms: C11_21  and  N5_22 
ROOT
HETATM    1  C3  UNL     1      -3.381  -0.455   0.686  1.00  0.00     0.063 A 
HETATM    2  C4  UNL     1      -3.921  -1.695   0.946  1.00  0.00     0.107 A 
HETATM    3  N3  UNL     1      -3.012  -2.445   1.591  1.00  0.00    -0.354 N 
ATOM      4  H3  UNL     1      -3.163  -3.406   1.898  1.00  0.00     0.166 HD
HETATM    5  C5  UNL     1      -1.870  -1.748   1.776  1.00  0.00     0.131 A 
HETATM    6 CL1  UNL     1      -0.412  -2.334   2.596  1.00  0.00    -0.062 Cl
HETATM    7  C6  UNL     1      -2.094  -0.505   1.213  1.00  0.00     0.083 A 
ENDROOT
BRANCH   7   8
HETATM    8  N4  UNL     1      -1.197   0.571   1.156  1.00  0.00    -0.387 N 
ATOM      9  H4  UNL     1      -1.180   1.227   1.937  1.00  0.00     0.159 HD
BRANCH   8  10
HETATM   10  C7  UNL     1      -0.301   0.798   0.056  1.00  0.00     0.120 C 
BRANCH  10  11
HETATM   11  C8  UNL     1       0.653  -0.351  -0.062  1.00  0.00     0.020 C 
BRANCH  11  12
HETATM   12  C9  UNL     1       1.623  -0.161  -1.227  1.00  0.00     0.003 C 
BRANCH  12  13
HETATM   13  C10 UNL     1       2.527  -1.365  -1.256  1.00  0.00     0.022 C 
BRANCH  13  14
HETATM   14  C11 UNL     1       3.349  -1.555  -0.025  1.00  0.00     0.145 C 
BRANCH  14  15
HETATM   15  N5  UNL     1       4.218  -0.445   0.215  1.00  0.00    -0.296 N 
HETATM   16  C12 UNL     1       5.368  -0.047  -0.583  1.00  0.00     0.280 C 
HETATM   17  N6  UNL     1       5.367   1.395  -0.312  1.00  0.00    -0.103 NA
HETATM   18  N7  UNL     1       4.799   1.532   0.956  1.00  0.00    -0.231 N 
HETATM   19  N8  UNL     1       4.144   0.478   1.252  1.00  0.00    -0.232 N 
ATOM     20  H7  UNL     1       4.894   2.352   1.556  1.00  0.00     0.205 HD
ATOM     21  H8  UNL     1       3.638   0.333   2.126  1.00  0.00     0.209 HD
ENDBRANCH  14  15
ENDBRANCH  13  14
ENDBRANCH  12  13
ENDBRANCH  11  12
ENDBRANCH  10  11
ENDBRANCH   8  10
ENDBRANCH   7   8
BRANCH   1  22
HETATM   22  C2  UNL     1      -4.067   0.639   0.009  1.00  0.00     0.199 A 
HETATM   23  N2  UNL     1      -3.612   1.861  -0.254  1.00  0.00    -0.166 N 
HETATM   24  C1  UNL     1      -4.581   2.539  -0.893  1.00  0.00     0.698 A 
ATOM     25  H2  UNL     1      -2.689   2.221  -0.013  1.00  0.00     0.186 HD
HETATM   26  N9  UNL     1      -5.635   1.715  -1.017  1.00  0.00    -0.089 N 
HETATM   27  O1  UNL     1      -5.294   0.600  -0.471  1.00  0.00    -0.204 OA
ATOM     28  H9  UNL     1      -6.530   1.930  -1.457  1.00  0.00     0.213 HD
BRANCH  24  29
HETATM   29  N1  UNL     1      -4.561   3.754  -1.328  1.00  0.00    -0.233 N 
ATOM     30  H12 UNL     1      -3.761   4.380  -1.234  1.00  0.00     0.174 HD
ATOM     31  H11 UNL     1      -5.296   4.268  -1.813  1.00  0.00     0.174 HD
ENDBRANCH  24  29
ENDBRANCH   1  22
TORSDOF 9
