REMARK  6 active torsions:
REMARK  status: ('A' for Active; 'I' for Inactive)
REMARK    1  A    between atoms: C9_9  and  C10_10 
REMARK    2  A    between atoms: C12_12  and  C13_13 
REMARK    3  A    between atoms: C13_13  and  C14_14 
REMARK    4  A    between atoms: C14_14  and  C15_15 
REMARK    5  A    between atoms: C18_20  and  O3_21 
REMARK    6  A    between atoms: C21_25  and  O4_26 
ROOT
HETATM    1  C15 UNL     1       2.652  -1.105  -0.382  1.00  0.00     0.139 C 
HETATM    2  O1  UNL     1       2.855  -2.425  -0.784  1.00  0.00    -0.315 OA
HETATM    3  C16 UNL     1       3.955  -3.133  -0.327  1.00  0.00     0.262 C 
HETATM    4  O2  UNL     1       3.901  -4.345   0.012  1.00  0.00    -0.265 OA
HETATM    5  C17 UNL     1       5.298  -2.459  -0.215  1.00  0.00     0.149 C 
HETATM    6  C18 UNL     1       5.076  -0.933  -0.333  1.00  0.00     0.073 C 
HETATM    7  C19 UNL     1       6.336  -0.320   0.194  1.00  0.00     0.041 C 
HETATM    8  C20 UNL     1       6.211   1.037   0.767  1.00  0.00     0.034 C 
HETATM    9  C21 UNL     1       4.870   1.664   0.634  1.00  0.00     0.118 C 
HETATM   10  C22 UNL     1       3.703   0.777   0.892  1.00  0.00     0.042 C 
HETATM   11  C23 UNL     1       3.837  -0.639   0.426  1.00  0.00     0.052 C 
ENDROOT
BRANCH   1  12
HETATM   12  C14 UNL     1       1.333  -0.918   0.332  1.00  0.00     0.037 C 
BRANCH  12  13
HETATM   13  C13 UNL     1       0.245  -1.334  -0.678  1.00  0.00     0.030 C 
BRANCH  13  14
HETATM   14  C12 UNL     1      -1.052  -1.168  -0.026  1.00  0.00    -0.020 C 
HETATM   15  C10 UNL     1      -2.032  -0.299  -0.474  1.00  0.00    -0.065 C 
HETATM   16  C11 UNL     1      -1.639   0.451  -1.652  1.00  0.00     0.048 C 
BRANCH  15  17
HETATM   17  C9  UNL     1      -3.220  -0.308   0.321  1.00  0.00     0.014 C 
HETATM   18  C8  UNL     1      -4.362   0.298   0.302  1.00  0.00    -0.048 C 
HETATM   19  C2  UNL     1      -5.347  -0.018   1.361  1.00  0.00    -0.061 C 
HETATM   20  C6  UNL     1      -4.748   1.289  -0.724  1.00  0.00     0.015 C 
HETATM   21  C1  UNL     1      -4.915  -0.260   2.572  1.00  0.00     0.019 C 
HETATM   22  C3  UNL     1      -6.789  -0.053   1.043  1.00  0.00     0.038 C 
HETATM   23  C4  UNL     1      -6.932   0.135  -0.455  1.00  0.00     0.005 C 
HETATM   24  C5  UNL     1      -6.274   1.420  -0.843  1.00  0.00     0.009 C 
HETATM   25  C7  UNL     1      -4.195   2.634  -0.257  1.00  0.00     0.015 C 
ENDBRANCH  15  17
ENDBRANCH  13  14
ENDBRANCH  12  13
ENDBRANCH   1  12
BRANCH   6  26
HETATM   26  O3  UNL     1       4.933  -0.703  -1.706  1.00  0.00    -0.389 OA
ATOM     27  H3  UNL     1       4.797   0.234  -1.778  1.00  0.00     0.210 HD
ENDBRANCH   6  26
BRANCH   9  28
HETATM   28  O4  UNL     1       4.818   2.727   1.567  1.00  0.00    -0.396 OA
ATOM     29  H4  UNL     1       3.961   3.128   1.482  1.00  0.00     0.210 HD
ENDBRANCH   9  28
TORSDOF 6
