REMARK  8 active torsions:
REMARK  status: ('A' for Active; 'I' for Inactive)
REMARK    1  A    between atoms: C2_2  and  O1_3 
REMARK    2  A    between atoms: C2_2  and  C3_5 
REMARK    3  A    between atoms: C3_5  and  C4_6 
REMARK    4  A    between atoms: C4_6  and  C5_7 
REMARK    5  A    between atoms: C5_7  and  O3_9 
REMARK    6  A    between atoms: O3_9  and  C6_10 
REMARK    7  A    between atoms: C17_22  and  O5_23 
REMARK    8  A    between atoms: C17_22  and  O6_25 
ROOT
HETATM    1  C6  UNL     1       0.039  -1.455  -0.337  1.00  0.00     0.170 C 
HETATM    2  C7  UNL     1      -0.616  -2.564  -1.050  1.00  0.00     0.068 C 
HETATM    3  C8  UNL     1      -2.065  -2.089  -0.858  1.00  0.00     0.132 C 
HETATM    4  O4  UNL     1      -1.931  -0.718  -1.176  1.00  0.00    -0.371 OA
HETATM    5  C9  UNL     1      -1.223  -0.637   0.011  1.00  0.00     0.103 C 
HETATM    6  C10 UNL     1      -2.120  -1.666   0.571  1.00  0.00     0.056 C 
HETATM    7  C11 UNL     1      -3.448  -1.296   1.028  1.00  0.00    -0.009 C 
HETATM    8  C12 UNL     1      -4.506  -2.056   0.222  1.00  0.00     0.010 C 
HETATM    9  C13 UNL     1      -3.848   0.126   1.037  1.00  0.00     0.014 C 
HETATM   10  C14 UNL     1      -2.865   1.099   1.583  1.00  0.00     0.049 C 
HETATM   11  C15 UNL     1      -1.608   0.477   2.122  1.00  0.00     0.023 C 
HETATM   12  C16 UNL     1      -1.043   0.610   0.703  1.00  0.00     0.086 C 
HETATM   13  C17 UNL     1      -2.068   1.662   0.418  1.00  0.00     0.169 C 
ENDROOT
BRANCH   1  14
HETATM   14  O3  UNL     1       1.048  -0.743  -0.850  1.00  0.00    -0.313 OA
BRANCH  14  15
HETATM   15  C5  UNL     1       2.300  -0.468  -0.347  1.00  0.00     0.259 C 
HETATM   16  O2  UNL     1       2.483  -0.981   0.764  1.00  0.00    -0.265 OA
BRANCH  15  17
HETATM   17  C4  UNL     1       3.315   0.348  -1.049  1.00  0.00     0.113 C 
BRANCH  17  18
HETATM   18  C3  UNL     1       4.549   0.400  -0.144  1.00  0.00     0.041 C 
BRANCH  18  19
HETATM   19  C2  UNL     1       5.634   1.230  -0.815  1.00  0.00     0.114 C 
HETATM   20  C1  UNL     1       5.051   2.625  -1.024  1.00  0.00     0.039 C 
BRANCH  19  21
HETATM   21  O1  UNL     1       6.736   1.371  -0.002  1.00  0.00    -0.396 OA
ATOM     22  H1  UNL     1       7.099   0.503   0.128  1.00  0.00     0.210 HD
ENDBRANCH  19  21
ENDBRANCH  18  19
ENDBRANCH  17  18
ENDBRANCH  15  17
ENDBRANCH  14  15
ENDBRANCH   1  14
BRANCH  13  23
HETATM   23  O5  UNL     1      -2.640   1.527  -0.822  1.00  0.00    -0.365 OA
ATOM     24  H5  UNL     1      -2.142   1.879  -1.550  1.00  0.00     0.213 HD
ENDBRANCH  13  23
BRANCH  13  25
HETATM   25  O6  UNL     1      -1.562   2.938   0.708  1.00  0.00    -0.365 OA
ATOM     26  H6  UNL     1      -1.064   3.290  -0.020  1.00  0.00     0.213 HD
ENDBRANCH  13  25
TORSDOF 8
