REMARK  6 active torsions:
REMARK  status: ('A' for Active; 'I' for Inactive)
REMARK    1  A    between atoms: O1_2  and  C2_3 
REMARK    2  A    between atoms: C3_5  and  C4_6 
REMARK    3  A    between atoms: C4_6  and  N1_8 
REMARK    4  A    between atoms: C9_12  and  O3_13 
REMARK    5  A    between atoms: C10_15  and  O4_16 
REMARK    6  A    between atoms: C11_18  and  O5_19 
ROOT
HETATM    1  C2  UNL     1      -2.289  -0.251   0.029  1.00  0.00     0.290 C 
HETATM    2  O2  UNL     1      -1.282  -0.756   0.743  1.00  0.00    -0.348 OA
HETATM    3  C3  UNL     1      -0.071  -0.185   0.875  1.00  0.00     0.189 C 
HETATM    4  C9  UNL     1       0.020   1.300   0.737  1.00  0.00     0.180 C 
HETATM    5  C10 UNL     1      -1.047   1.943  -0.061  1.00  0.00     0.183 C 
HETATM    6  C11 UNL     1      -2.338   1.226  -0.201  1.00  0.00     0.204 C 
ENDROOT
BRANCH   3   7
HETATM    7  C4  UNL     1       1.047  -0.950   0.167  1.00  0.00     0.250 C 
HETATM    8  C5  UNL     1       0.831  -0.921  -1.345  1.00  0.00     0.045 C 
BRANCH   7   9
HETATM    9  N1  UNL     1       2.319  -0.391   0.382  1.00  0.00     0.095 N 
HETATM   10  C6  UNL     1       3.113   0.158  -0.652  1.00  0.00     0.275 C 
HETATM   11  C7  UNL     1       4.357  -0.305   0.104  1.00  0.00     0.060 C 
HETATM   12  C8  UNL     1       3.395  -1.271   0.741  1.00  0.00     0.275 C 
ENDBRANCH   7   9
ENDBRANCH   3   7
BRANCH   4  13
HETATM   13  O3  UNL     1       0.130   1.909   2.012  1.00  0.00    -0.390 OA
ATOM     14  H3  UNL     1       0.188   2.853   1.924  1.00  0.00     0.210 HD
ENDBRANCH   4  13
BRANCH   1  15
HETATM   15  O1  UNL     1      -3.489  -0.583   0.730  1.00  0.00    -0.363 OA
HETATM   16  C1  UNL     1      -4.216  -1.513   0.009  1.00  0.00     0.204 C 
ENDBRANCH   1  15
BRANCH   5  17
HETATM   17  O4  UNL     1      -1.344   3.195   0.536  1.00  0.00    -0.390 OA
ATOM     18  H4  UNL     1      -2.029   3.608   0.024  1.00  0.00     0.210 HD
ENDBRANCH   5  17
BRANCH   6  19
HETATM   19  O5  UNL     1      -2.828   1.408  -1.520  1.00  0.00    -0.388 OA
ATOM     20  H5  UNL     1      -2.859   2.346  -1.666  1.00  0.00     0.210 HD
ENDBRANCH   6  19
TORSDOF 6
