REMARK  13 active torsions:
REMARK  status: ('A' for Active; 'I' for Inactive)
REMARK    1  A    between atoms: C3_3  and  C4_4 
REMARK    2  A    between atoms: C4_4  and  N1_5 
REMARK    3  A    between atoms: N1_5  and  C5_6 
REMARK    4  A    between atoms: C12_13  and  O1_14 
REMARK    5  A    between atoms: C12_13  and  C13_16 
REMARK       I    between atoms: C13_16  and  N2_18 
REMARK    6  A    between atoms: N2_18  and  C14_20 
REMARK    7  A    between atoms: C14_20  and  C15_21 
REMARK    8  A    between atoms: C15_21  and  C16_22 
REMARK    9  A    between atoms: C17_23  and  C18_24 
REMARK   10  A    between atoms: C18_24  and  C19_25 
REMARK   11  A    between atoms: C19_25  and  C20_26 
REMARK   12  A    between atoms: C20_26  and  C21_27 
REMARK   13  A    between atoms: C21_27  and  N3_28 
ROOT
HETATM    1  C1  UNL     1      -5.533   3.550   5.482  1.00  0.00     0.112 C 
HETATM    2  C2  UNL     1      -4.788   2.530   4.745  1.00  0.00    -0.104 C 
HETATM    3  C3  UNL     1      -4.160   1.700   4.145  1.00  0.00    -0.048 C 
ENDROOT
BRANCH   3   4
HETATM    4  C4  UNL     1      -3.389   0.689   3.397  1.00  0.00     0.247 C 
BRANCH   4   5
HETATM    5  N1  UNL     1      -3.612   0.259   2.337  1.00  0.00    -0.409 NA
BRANCH   5   6
HETATM    6  C5  UNL     1      -3.856  -0.252   1.104  1.00  0.00     0.113 A 
HETATM    7  C6  UNL     1      -4.957  -1.125   0.976  1.00  0.00     0.046 A 
HETATM    8  C7  UNL     1      -5.232  -1.652  -0.239  1.00  0.00     0.015 A 
HETATM    9  C8  UNL     1      -4.437  -1.334  -1.341  1.00  0.00    -0.025 A 
HETATM   10  C9  UNL     1      -3.358  -0.487  -1.229  1.00  0.00     0.005 A 
HETATM   11  C28 UNL     1      -4.943  -1.947  -2.571  1.00  0.00     0.026 C 
HETATM   12  C10 UNL     1      -3.062   0.058  -0.019  1.00  0.00    -0.011 A 
HETATM   13  C12 UNL     1      -2.405  -0.113  -2.260  1.00  0.00     0.167 C 
HETATM   14  C11 UNL     1      -1.970   1.011   0.234  1.00  0.00     0.052 C 
HETATM   15  C25 UNL     1      -2.812  -0.335  -3.698  1.00  0.00     0.058 C 
HETATM   16  C26 UNL     1      -4.228  -0.117  -4.072  1.00  0.00     0.050 C 
HETATM   17  C27 UNL     1      -4.884  -1.463  -3.806  1.00  0.00    -0.011 C 
HETATM   18 BR1  UNL     1      -5.612  -2.443  -5.224  1.00  0.00    -0.056 Br
BRANCH  13  19
HETATM   19  O1  UNL     1      -1.927   1.180  -2.246  1.00  0.00    -0.375 OA
ATOM     20  H1  UNL     1      -1.304   1.425  -2.920  1.00  0.00     0.211 HD
ENDBRANCH  13  19
BRANCH  13  21
HETATM   21  C13 UNL     1      -1.261  -1.121  -2.153  1.00  0.00     0.257 C 
HETATM   22  O2  UNL     1      -1.639  -2.292  -1.939  1.00  0.00    -0.270 OA
HETATM   23  N2  UNL     1       0.072  -0.724  -2.295  1.00  0.00    -0.358 N 
ATOM     24  H2  UNL     1       0.286   0.257  -2.472  1.00  0.00     0.162 HD
BRANCH  23  25
HETATM   25  C14 UNL     1       1.166  -1.690  -2.194  1.00  0.00     0.126 C 
BRANCH  25  26
HETATM   26  C15 UNL     1       1.242  -2.371  -0.867  1.00  0.00     0.046 C 
BRANCH  26  27
HETATM   27  C16 UNL     1       2.354  -3.301  -0.679  1.00  0.00    -0.029 C 
HETATM   28  C17 UNL     1       3.719  -2.930  -0.410  1.00  0.00    -0.031 C 
BRANCH  28  29
HETATM   29  C18 UNL     1       4.574  -2.003  -1.121  1.00  0.00     0.027 C 
BRANCH  29  30
HETATM   30  C19 UNL     1       4.360  -0.543  -1.009  1.00  0.00     0.005 C 
BRANCH  30  31
HETATM   31  C20 UNL     1       4.473  -0.056   0.436  1.00  0.00     0.028 C 
BRANCH  31  32
HETATM   32  C21 UNL     1       4.239   1.424   0.436  1.00  0.00     0.236 C 
BRANCH  32  33
HETATM   33  N3  UNL     1       4.320   2.012   1.740  1.00  0.00    -0.079 N 
HETATM   34  C22 UNL     1       3.481   1.310   2.685  1.00  0.00     0.271 C 
HETATM   35  C23 UNL     1       3.814   3.372   1.642  1.00  0.00     0.271 C 
HETATM   36  C24 UNL     1       5.679   2.092   2.238  1.00  0.00     0.271 C 
ENDBRANCH  32  33
ENDBRANCH  31  32
ENDBRANCH  30  31
ENDBRANCH  29  30
ENDBRANCH  28  29
ENDBRANCH  26  27
ENDBRANCH  25  26
ENDBRANCH  23  25
ENDBRANCH  13  21
ENDBRANCH   5   6
ENDBRANCH   4   5
ENDBRANCH   3   4
TORSDOF 13
