REMARK  9 active torsions:
REMARK  status: ('A' for Active; 'I' for Inactive)
REMARK    1  A    between atoms: C10_10  and  C11_11 
REMARK    2  A    between atoms: C11_11  and  C12_12 
REMARK    3  A    between atoms: C12_12  and  C13_13 
REMARK    4  A    between atoms: C14_14  and  C15_15 
REMARK    5  A    between atoms: C20_20  and  O1_21 
REMARK    6  A    between atoms: O1_21  and  S1_22 
REMARK    7  A    between atoms: S1_22  and  O4_25 
REMARK    8  A    between atoms: O4_25  and  C21_26 
REMARK    9  A    between atoms: C21_26  and  C22_27 
ROOT
HETATM    1  C1  UNL     1      -1.560  -3.271   1.722  1.00  0.00     0.015 C 
HETATM    2  C2  UNL     1      -2.107  -2.888   0.561  1.00  0.00    -0.079 C 
HETATM    3  C3  UNL     1      -3.193  -3.811   0.198  1.00  0.00     0.034 C 
HETATM    4  C4  UNL     1      -3.663  -3.894  -1.185  1.00  0.00     0.005 C 
HETATM    5  C5  UNL     1      -2.935  -2.992  -2.154  1.00  0.00     0.010 C 
HETATM    6  C6  UNL     1      -2.765  -1.735  -1.373  1.00  0.00    -0.032 C 
HETATM    7  C7  UNL     1      -4.150  -1.315  -1.057  1.00  0.00     0.016 C 
HETATM    8  C8  UNL     1      -2.251  -0.555  -2.167  1.00  0.00     0.011 C 
HETATM    9  C9  UNL     1      -1.875   0.397  -1.066  1.00  0.00     0.012 C 
HETATM   10  C10 UNL     1      -1.591  -0.361   0.230  1.00  0.00    -0.018 C 
HETATM   11  C17 UNL     1      -0.236   0.123   0.648  1.00  0.00    -0.011 C 
HETATM   12  C18 UNL     1       0.028   0.282   2.131  1.00  0.00     0.018 C 
HETATM   13  C19 UNL     1       0.093   1.553   0.151  1.00  0.00     0.018 C 
HETATM   14  C20 UNL     1       0.928  -0.675   0.146  1.00  0.00     0.153 C 
HETATM   15  C26 UNL     1       0.656  -1.346  -1.179  1.00  0.00     0.035 C 
HETATM   16  C27 UNL     1      -0.397  -2.308  -0.858  1.00  0.00     0.018 C 
HETATM   17  C28 UNL     1      -1.712  -1.779  -0.292  1.00  0.00    -0.002 C 
ENDROOT
BRANCH  14  18
HETATM   18  O1  UNL     1       2.102   0.041  -0.042  1.00  0.00    -0.248 OA
BRANCH  18  19
HETATM   19  S1  UNL     1       3.468  -0.708   0.513  1.00  0.00     0.402 S 
HETATM   20  O2  UNL     1       3.299  -1.496   1.762  1.00  0.00    -0.169 OA
HETATM   21  O3  UNL     1       3.951  -1.602  -0.628  1.00  0.00    -0.169 OA
BRANCH  19  22
HETATM   22  O4  UNL     1       4.662   0.467   0.724  1.00  0.00    -0.253 OA
BRANCH  22  23
HETATM   23  C21 UNL     1       5.668   0.342  -0.217  1.00  0.00     0.200 C 
BRANCH  23  24
HETATM   24  C22 UNL     1       6.712   1.400   0.005  1.00  0.00    -0.028 C 
HETATM   25  C23 UNL     1       6.162   2.792  -0.102  1.00  0.00     0.016 C 
HETATM   26  C24 UNL     1       7.342   1.204   1.369  1.00  0.00     0.016 C 
HETATM   27  C25 UNL     1       7.837   1.245  -1.022  1.00  0.00     0.016 C 
ENDBRANCH  23  24
ENDBRANCH  22  23
ENDBRANCH  19  22
ENDBRANCH  18  19
ENDBRANCH  14  18
BRANCH  10  28
HETATM   28  C11 UNL     1      -2.576  -0.221   1.317  1.00  0.00     0.023 C 
BRANCH  28  29
HETATM   29  C12 UNL     1      -3.043   0.952   1.998  1.00  0.00     0.095 C 
BRANCH  29  30
HETATM   30  C13 UNL     1      -3.725   2.023   1.290  1.00  0.00    -0.107 C 
HETATM   31  C14 UNL     1      -4.307   2.924   0.732  1.00  0.00    -0.107 C 
BRANCH  31  32
HETATM   32  C15 UNL     1      -5.019   3.985   0.054  1.00  0.00     0.089 C 
HETATM   33  C16 UNL     1      -4.613   5.362   0.507  1.00  0.00     0.018 C 
ENDBRANCH  31  32
ENDBRANCH  29  30
ENDBRANCH  28  29
ENDBRANCH  10  28
TORSDOF 9
