REMARK  9 active torsions:
REMARK  status: ('A' for Active; 'I' for Inactive)
REMARK    1  A    between atoms: C2_2  and  C3_3 
REMARK    2  A    between atoms: C2_2  and  C22_34 
REMARK    3  A    between atoms: C4_7  and  C5_8 
REMARK    4  A    between atoms: C5_8  and  C7_10 
REMARK    5  A    between atoms: C7_10  and  C8_11 
REMARK    6  A    between atoms: C7_10  and  N2_15 
REMARK    7  A    between atoms: C8_11  and  C9_12 
REMARK       I    between atoms: N2_15  and  C12_17 
REMARK    8  A    between atoms: C12_17  and  C13_19 
REMARK    9  A    between atoms: C17_27  and  C18_28 
ROOT
HETATM    1  C3  UNL     1       1.989   0.755   1.656  1.00  0.00     0.360 C 
HETATM    2  N1  UNL     1       0.847   0.462   0.846  1.00  0.00    -0.039 N 
ATOM      3  H11 UNL     1       0.682   1.190   0.150  1.00  0.00     0.281 HD
ATOM      4  H12 UNL     1      -0.022   0.552   1.373  1.00  0.00     0.281 HD
HETATM    5  C4  UNL     1       0.967  -0.839   0.237  1.00  0.00     0.208 C 
HETATM    6  C17 UNL     1       0.956  -1.917   1.247  1.00  0.00     0.120 C 
HETATM    7  C21 UNL     1       2.248  -1.691   2.041  1.00  0.00     0.267 C 
HETATM    8  O4  UNL     1       2.955  -2.649   2.422  1.00  0.00    -0.265 OA
HETATM    9  O5  UNL     1       2.543  -0.382   2.286  1.00  0.00    -0.282 OA
ENDROOT
BRANCH   5  10
HETATM   10  C5  UNL     1       0.280  -1.027  -1.081  1.00  0.00     0.036 C 
HETATM   11  C6  UNL     1       0.680  -2.448  -1.497  1.00  0.00     0.014 C 
BRANCH  10  12
HETATM   12  C7  UNL     1      -1.121  -0.699  -1.262  1.00  0.00     0.090 C 
BRANCH  12  13
HETATM   13  C8  UNL     1      -1.669  -0.884  -2.653  1.00  0.00     0.029 C 
BRANCH  13  14
HETATM   14  C9  UNL     1      -1.722  -2.207  -3.293  1.00  0.00    -0.021 C 
HETATM   15  C10 UNL     1      -2.580  -3.238  -2.531  1.00  0.00     0.009 C 
HETATM   16  C11 UNL     1      -2.545  -1.966  -4.605  1.00  0.00     0.009 C 
ENDBRANCH  13  14
ENDBRANCH  12  13
BRANCH  12  17
HETATM   17  N2  UNL     1      -1.554   0.579  -0.786  1.00  0.00    -0.354 N 
HETATM   18  C12 UNL     1      -2.133   1.681  -1.392  1.00  0.00     0.243 C 
HETATM   19  O1  UNL     1      -2.379   1.695  -2.639  1.00  0.00    -0.271 OA
ATOM     20  H2  UNL     1      -1.404   0.705   0.215  1.00  0.00     0.162 HD
BRANCH  18  21
HETATM   21  C13 UNL     1      -2.473   2.873  -0.565  1.00  0.00     0.208 C 
HETATM   22  N3  UNL     1      -3.079   3.924  -1.385  1.00  0.00    -0.343 N 
HETATM   23  C14 UNL     1      -4.489   3.898  -1.071  1.00  0.00     0.250 C 
ATOM     24  H3  UNL     1      -2.605   4.545  -2.041  1.00  0.00     0.163 HD
HETATM   25  O2  UNL     1      -5.289   4.863  -1.228  1.00  0.00    -0.271 OA
HETATM   26  C15 UNL     1      -4.679   2.545  -0.566  1.00  0.00     0.245 A 
HETATM   27  O3  UNL     1      -4.577   1.967   0.593  1.00  0.00    -0.363 OA
HETATM   28  C16 UNL     1      -3.504   2.688   0.457  1.00  0.00     0.193 A 
ENDBRANCH  18  21
ENDBRANCH  12  17
ENDBRANCH  10  12
ENDBRANCH   5  10
BRANCH   6  29
HETATM   29  C18 UNL     1      -0.039  -2.094   2.286  1.00  0.00    -0.007 C 
HETATM   30  C19 UNL     1      -0.261  -1.005   3.299  1.00  0.00     0.010 C 
HETATM   31  C20 UNL     1      -1.338  -2.767   1.970  1.00  0.00     0.010 C 
ENDBRANCH   6  29
BRANCH   1  32
HETATM   32  C2  UNL     1       3.109   1.458   0.991  1.00  0.00    -0.022 C 
HETATM   33  C1  UNL     1       3.173   1.668  -0.296  1.00  0.00     0.019 C 
BRANCH  32  34
HETATM   34  C22 UNL     1       4.198   1.930   1.874  1.00  0.00     0.021 A 
HETATM   35  C23 UNL     1       3.718   2.968   2.898  1.00  0.00     0.023 C 
HETATM   36  C24 UNL     1       5.043   0.813   2.487  1.00  0.00     0.060 A 
HETATM   37  C25 UNL     1       5.617   1.918   1.573  1.00  0.00     0.125 A 
HETATM   38 CL1  UNL     1       6.346   1.300   0.102  1.00  0.00    -0.100 Cl
HETATM   39 CL2  UNL     1       6.685   3.048   2.484  1.00  0.00    -0.100 Cl
ENDBRANCH  32  34
ENDBRANCH   1  32
TORSDOF 9
