REMARK  12 active torsions:
REMARK  status: ('A' for Active; 'I' for Inactive)
REMARK    1  A    between atoms: C2_2  and  C4_4 
REMARK    2  A    between atoms: C4_4  and  N1_5 
REMARK    3  A    between atoms: C4_4  and  C11_16 
REMARK       I    between atoms: N1_5  and  C5_7 
REMARK    4  A    between atoms: C5_7  and  C6_9 
REMARK       I    between atoms: C11_16  and  N2_18 
REMARK    5  A    between atoms: N2_18  and  C12_20 
REMARK    6  A    between atoms: C12_20  and  C13_21 
REMARK    7  A    between atoms: C12_20  and  C16_24 
REMARK    8  A    between atoms: C16_24  and  C18_26 
REMARK    9  A    between atoms: C18_26  and  S1_27 
REMARK   10  A    between atoms: S1_27  and  C19_28 
REMARK   11  A    between atoms: C19_28  and  O3_29 
REMARK   12  A    between atoms: C19_28  and  N3_31 
REMARK       I    between atoms: N4_34  and  C22_35 
ROOT
HETATM    1  C12 UNL     1       0.424  -0.169  -0.313  1.00  0.00     0.092 C 
ENDROOT
BRANCH   1   2
HETATM    2  N2  UNL     1      -0.887  -0.561   0.164  1.00  0.00    -0.354 N 
HETATM    3  C11 UNL     1      -2.117  -0.127  -0.356  1.00  0.00     0.241 C 
HETATM    4  O2  UNL     1      -2.053   0.691  -1.344  1.00  0.00    -0.271 OA
ATOM      5  H2  UNL     1      -0.919  -1.211   0.949  1.00  0.00     0.162 HD
BRANCH   3   6
HETATM    6  C4  UNL     1      -3.469  -0.471   0.074  1.00  0.00     0.180 C 
BRANCH   6   7
HETATM    7  C2  UNL     1      -3.944  -1.733  -0.641  1.00  0.00     0.009 C 
HETATM    8  C1  UNL     1      -3.059  -2.925  -0.391  1.00  0.00     0.012 C 
HETATM    9  C3  UNL     1      -4.090  -1.542  -2.127  1.00  0.00     0.012 C 
ENDBRANCH   6   7
BRANCH   6  10
HETATM   10  N1  UNL     1      -4.425   0.583  -0.225  1.00  0.00    -0.347 N 
HETATM   11  C5  UNL     1      -5.284   1.083   0.775  1.00  0.00     0.222 C 
HETATM   12  O1  UNL     1      -5.174   0.558   1.935  1.00  0.00    -0.273 OA
ATOM     13  H1  UNL     1      -4.475   0.965  -1.169  1.00  0.00     0.163 HD
BRANCH  11  14
HETATM   14  C6  UNL     1      -6.279   2.138   0.605  1.00  0.00     0.084 C 
HETATM   15  C7  UNL     1      -7.297   1.865  -0.464  1.00  0.00     0.020 C 
HETATM   16  C8  UNL     1      -8.572   1.493   0.308  1.00  0.00     0.080 C 
HETATM   17  C9  UNL     1      -8.499   2.354   1.563  1.00  0.00     0.244 C 
HETATM   18  F1  UNL     1      -8.970   3.629   1.362  1.00  0.00    -0.206 F 
HETATM   19  F2  UNL     1      -9.209   1.718   2.578  1.00  0.00    -0.206 F 
HETATM   20  C10 UNL     1      -7.044   2.367   1.881  1.00  0.00     0.093 C 
ENDBRANCH  11  14
ENDBRANCH   6  10
ENDBRANCH   3   6
ENDBRANCH   1   2
BRANCH   1  21
HETATM   21  C13 UNL     1       1.096   0.754   0.689  1.00  0.00     0.001 C 
HETATM   22  C14 UNL     1       1.296   0.138   2.027  1.00  0.00     0.011 C 
HETATM   23  C15 UNL     1       0.117   1.924   0.902  1.00  0.00     0.011 C 
ENDBRANCH   1  21
BRANCH   1  24
HETATM   24  C16 UNL     1       1.270  -1.360  -0.667  1.00  0.00     0.014 C 
HETATM   25  C17 UNL     1       0.706  -2.215  -1.746  1.00  0.00     0.012 C 
BRANCH  24  26
HETATM   26  C18 UNL     1       2.727  -0.990  -0.910  1.00  0.00     0.089 C 
BRANCH  26  27
HETATM   27  S1  UNL     1       3.737  -2.372  -1.315  1.00  0.00    -0.086 SA
BRANCH  27  28
HETATM   28  C19 UNL     1       5.441  -2.225  -1.456  1.00  0.00     0.177 C 
BRANCH  28  29
HETATM   29  O3  UNL     1       6.054  -3.382  -1.723  1.00  0.00    -0.341 OA
ATOM     30  H3  UNL     1       6.997  -3.301  -1.801  1.00  0.00     0.220 HD
ENDBRANCH  28  29
BRANCH  28  31
HETATM   31  N3  UNL     1       6.262  -1.118  -1.334  1.00  0.00    -0.353 N 
HETATM   32  C20 UNL     1       5.828   0.218  -1.100  1.00  0.00     0.145 C 
HETATM   33  C21 UNL     1       6.199   0.512   0.368  1.00  0.00     0.147 C 
HETATM   34  N4  UNL     1       7.634   0.411   0.417  1.00  0.00    -0.333 N 
HETATM   35  C22 UNL     1       8.278   1.034   1.526  1.00  0.00     0.330 C 
HETATM   36  C23 UNL     1       8.427  -0.257  -0.556  1.00  0.00     0.147 C 
HETATM   37  N5  UNL     1       7.573   1.724   2.541  1.00  0.00    -0.040 NA
HETATM   38  O4  UNL     1       9.542   0.997   1.658  1.00  0.00    -0.251 OA
HETATM   39  C24 UNL     1       7.740  -1.265  -1.411  1.00  0.00     0.145 C 
ENDBRANCH  28  31
ENDBRANCH  27  28
ENDBRANCH  26  27
ENDBRANCH  24  26
ENDBRANCH   1  24
TORSDOF 12
