REMARK  9 active torsions:
REMARK  status: ('A' for Active; 'I' for Inactive)
REMARK    1  A    between atoms: C2_2  and  C4_4 
REMARK    2  A    between atoms: C4_4  and  C5_5 
REMARK    3  A    between atoms: C5_5  and  O2_7 
REMARK    4  A    between atoms: O2_7  and  C6_8 
REMARK    5  A    between atoms: C8_10  and  C9_11 
REMARK    6  A    between atoms: C9_11  and  C10_12 
REMARK    7  A    between atoms: C10_12  and  O3_13 
REMARK    8  A    between atoms: O3_13  and  C11_14 
REMARK       I    between atoms: C11_14  and  N1_16 
REMARK    9  A    between atoms: C15_26  and  O8_27 
ROOT
HETATM    1  C6  UNL     1      -1.061  -1.458  -0.294  1.00  0.00     0.146 C 
HETATM    2  C7  UNL     1       0.341  -1.906  -0.603  1.00  0.00     0.065 C 
HETATM    3  C8  UNL     1       1.289  -1.398   0.476  1.00  0.00     0.129 C 
HETATM    4  O5  UNL     1       0.836  -0.276   1.006  1.00  0.00    -0.351 OA
HETATM    5  C13 UNL     1       0.672   0.869   0.320  1.00  0.00     0.301 C 
HETATM    6  O6  UNL     1       0.304   1.814   1.325  1.00  0.00    -0.283 OA
HETATM    7  C14 UNL     1       0.424   3.176   1.529  1.00  0.00     0.291 C 
HETATM    8  O7  UNL     1       0.329   3.607   2.698  1.00  0.00    -0.262 OA
HETATM    9  C15 UNL     1       0.657   4.233   0.514  1.00  0.00     0.229 C 
HETATM   10  C16 UNL     1      -0.649   4.323  -0.259  1.00  0.00     0.005 C 
HETATM   11  C17 UNL     1      -1.837   4.321   0.714  1.00  0.00     0.022 C 
HETATM   12  C18 UNL     1      -0.651   5.757  -0.823  1.00  0.00     0.022 C 
HETATM   13  C19 UNL     1      -0.797   3.387  -1.351  1.00  0.00    -0.014 C 
HETATM   14  C20 UNL     1      -0.601   2.080  -1.503  1.00  0.00     0.005 C 
HETATM   15  C21 UNL     1      -0.188   0.841  -0.873  1.00  0.00    -0.015 C 
HETATM   16  C22 UNL     1      -1.378  -0.090  -0.805  1.00  0.00     0.007 C 
HETATM   17  C23 UNL     1      -2.034  -0.115  -2.176  1.00  0.00     0.022 C 
HETATM   18  C24 UNL     1      -2.402   0.514   0.133  1.00  0.00     0.022 C 
ENDROOT
BRANCH   3  19
HETATM   19  C9  UNL     1       2.691  -1.410  -0.074  1.00  0.00     0.059 C 
BRANCH  19  20
HETATM   20  C10 UNL     1       3.705  -0.932   0.907  1.00  0.00     0.183 C 
BRANCH  20  21
HETATM   21  O3  UNL     1       5.031  -0.924   0.443  1.00  0.00    -0.304 OA
BRANCH  21  22
HETATM   22  C11 UNL     1       5.507  -0.195  -0.627  1.00  0.00     0.366 C 
HETATM   23  O4  UNL     1       4.713   0.540  -1.266  1.00  0.00    -0.238 OA
HETATM   24  N1  UNL     1       6.862  -0.226  -1.058  1.00  0.00    -0.279 N 
HETATM   25  C12 UNL     1       7.762  -0.293  -0.123  1.00  0.00     0.205 C 
ATOM     26  H1  UNL     1       7.113  -0.197  -2.046  1.00  0.00     0.173 HD
HETATM   27  N2  UNL     1       9.112  -0.325  -0.530  1.00  0.00    -0.066 NA
HETATM   28  N3  UNL     1       7.460  -0.336   1.254  1.00  0.00    -0.066 NA
ENDBRANCH  21  22
ENDBRANCH  20  21
ENDBRANCH  19  20
ENDBRANCH   3  19
BRANCH   1  29
HETATM   29  O2  UNL     1      -2.052  -2.356  -0.692  1.00  0.00    -0.315 OA
BRANCH  29  30
HETATM   30  C5  UNL     1      -2.923  -3.029   0.108  1.00  0.00     0.259 C 
HETATM   31  O1  UNL     1      -2.815  -2.811   1.351  1.00  0.00    -0.265 OA
BRANCH  30  32
HETATM   32  C4  UNL     1      -3.959  -3.974  -0.378  1.00  0.00     0.115 C 
BRANCH  32  33
HETATM   33  C2  UNL     1      -4.773  -4.571   0.719  1.00  0.00    -0.013 C 
HETATM   34  C1  UNL     1      -5.785  -5.508   0.094  1.00  0.00     0.010 C 
HETATM   35  C3  UNL     1      -5.555  -3.494   1.441  1.00  0.00     0.010 C 
ENDBRANCH  32  33
ENDBRANCH  30  32
ENDBRANCH  29  30
ENDBRANCH   1  29
BRANCH   9  36
HETATM   36  O8  UNL     1       0.993   5.409   1.134  1.00  0.00    -0.385 OA
ATOM     37  H8  UNL     1       1.142   6.086   0.484  1.00  0.00     0.210 HD
ENDBRANCH   9  36
TORSDOF 9
