REMARK  10 active torsions:
REMARK  status: ('A' for Active; 'I' for Inactive)
REMARK    1  A    between atoms: C2_2  and  C3_3 
REMARK    2  A    between atoms: C3_3  and  O2_5 
REMARK    3  A    between atoms: O2_5  and  C4_6 
REMARK    4  A    between atoms: C8_10  and  O3_11 
REMARK    5  A    between atoms: C14_18  and  C26_36 
REMARK    6  A    between atoms: C18_22  and  O4_23 
REMARK    7  A    between atoms: C19_25  and  C20_26 
REMARK    8  A    between atoms: C20_26  and  C22_28 
REMARK    9  A    between atoms: C22_28  and  O6_30 
REMARK   10  A    between atoms: C24_32  and  O7_33 
ROOT
HETATM    1  C4  UNL     1       2.748   0.742   0.058  1.00  0.00     0.138 C 
HETATM    2  C5  UNL     1       2.445   0.568  -1.389  1.00  0.00     0.040 C 
HETATM    3  C6  UNL     1       1.493  -0.528  -1.770  1.00  0.00     0.020 C 
HETATM    4  C7  UNL     1       0.787  -0.152  -3.032  1.00  0.00     0.013 C 
HETATM    5  C8  UNL     1       0.743  -1.161  -0.688  1.00  0.00     0.080 C 
HETATM    6  C9  UNL     1       1.816  -1.554   0.340  1.00  0.00    -0.005 C 
HETATM    7  C10 UNL     1       3.007  -2.232  -0.272  1.00  0.00     0.019 C 
HETATM    8  C11 UNL     1       1.215  -2.560   1.272  1.00  0.00     0.013 C 
HETATM    9  C12 UNL     1       0.069  -2.001   2.049  1.00  0.00     0.007 C 
HETATM   10  C13 UNL     1      -0.177  -0.634   1.560  1.00  0.00     0.005 C 
HETATM   11  C14 UNL     1       1.092   0.174   1.910  1.00  0.00    -0.002 C 
HETATM   12  C15 UNL     1       0.593   1.565   1.924  1.00  0.00     0.006 C 
HETATM   13  C16 UNL     1      -0.541   1.800   0.978  1.00  0.00     0.009 C 
HETATM   14  C17 UNL     1      -0.659   0.898  -0.206  1.00  0.00     0.029 C 
HETATM   15  C18 UNL     1      -2.136   1.005  -0.665  1.00  0.00     0.130 C 
HETATM   16  C19 UNL     1      -2.783  -0.154   0.024  1.00  0.00     0.058 C 
HETATM   17  C24 UNL     1      -1.703  -1.228  -0.159  1.00  0.00     0.138 C 
HETATM   18  C25 UNL     1      -0.374  -0.533   0.031  1.00  0.00     0.028 C 
HETATM   19  C26 UNL     1       2.178  -0.238   1.024  1.00  0.00     0.031 C 
ENDROOT
BRANCH  16  20
HETATM   20  C20 UNL     1      -4.072  -0.592  -0.556  1.00  0.00     0.090 C 
HETATM   21  C21 UNL     1      -4.703  -1.759   0.161  1.00  0.00     0.021 C 
BRANCH  20  22
HETATM   22  C22 UNL     1      -5.048   0.506  -0.627  1.00  0.00     0.262 C 
HETATM   23  O5  UNL     1      -6.027   0.483   0.205  1.00  0.00    -0.265 OA
BRANCH  22  24
HETATM   24  O6  UNL     1      -5.039   1.566  -1.488  1.00  0.00    -0.326 OA
HETATM   25  C23 UNL     1      -6.057   2.544  -1.431  1.00  0.00     0.213 C 
ENDBRANCH  22  24
ENDBRANCH  20  22
ENDBRANCH  16  20
BRANCH  15  26
HETATM   26  O4  UNL     1      -2.675   2.185  -0.142  1.00  0.00    -0.395 OA
ATOM     27  H4  UNL     1      -3.580   2.251  -0.423  1.00  0.00     0.210 HD
ENDBRANCH  15  26
BRANCH  17  28
HETATM   28  O7  UNL     1      -1.935  -1.758  -1.404  1.00  0.00    -0.394 OA
ATOM     29  H7  UNL     1      -1.266  -2.423  -1.517  1.00  0.00     0.210 HD
ENDBRANCH  17  28
BRANCH   5  30
HETATM   30  O3  UNL     1       0.302  -2.428  -1.155  1.00  0.00    -0.388 OA
ATOM     31  H3  UNL     1      -0.186  -2.840  -0.451  1.00  0.00     0.210 HD
ENDBRANCH   5  30
BRANCH   1  32
HETATM   32  O2  UNL     1       4.145   0.945   0.254  1.00  0.00    -0.312 OA
BRANCH  32  33
HETATM   33  C3  UNL     1       4.711   2.139   0.658  1.00  0.00     0.282 C 
HETATM   34  O1  UNL     1       3.947   3.117   0.868  1.00  0.00    -0.260 OA
BRANCH  33  35
HETATM   35  C2  UNL     1       6.166   2.255   0.834  1.00  0.00     0.072 C 
HETATM   36  C1  UNL     1       6.924   1.207   0.602  1.00  0.00     0.017 C 
ENDBRANCH  33  35
ENDBRANCH  32  33
ENDBRANCH   1  32
TORSDOF 10
