REMARK  11 active torsions:
REMARK  status: ('A' for Active; 'I' for Inactive)
REMARK    1  A    between atoms: C2_2  and  O1_3 
REMARK    2  A    between atoms: O1_3  and  C3_4 
REMARK       I    between atoms: C3_4  and  N1_6 
REMARK    3  A    between atoms: N1_6  and  C4_8 
REMARK    4  A    between atoms: C4_8  and  C5_9 
REMARK    5  A    between atoms: C4_8  and  C22_39 
REMARK       I    between atoms: C5_9  and  N2_11 
REMARK    6  A    between atoms: N2_11  and  C6_13 
REMARK    7  A    between atoms: C9_16  and  O4_17 
REMARK    8  A    between atoms: C10_21  and  C11_22 
REMARK    9  A    between atoms: C11_22  and  C12_23 
REMARK   10  A    between atoms: C16_29  and  C17_30 
REMARK   11  A    between atoms: C17_30  and  C18_31 
ROOT
HETATM    1  C6  UNL     1       0.075  -0.166   0.946  1.00  0.00     0.177 C 
HETATM    2  C7  UNL     1       0.800  -0.883   2.035  1.00  0.00     0.043 C 
HETATM    3  C8  UNL     1       2.178  -1.428   1.767  1.00  0.00     0.086 C 
HETATM    4  C9  UNL     1       2.779  -0.907   0.515  1.00  0.00     0.111 C 
HETATM    5  N3  UNL     1       3.692   0.025   0.159  1.00  0.00    -0.361 N 
ATOM      6  H3  UNL     1       3.294   0.920   0.444  1.00  0.00     0.162 HD
HETATM    7  C10 UNL     1       4.937   0.334  -0.422  1.00  0.00     0.183 C 
HETATM    8  C15 UNL     1       4.724   1.470  -1.460  1.00  0.00     0.282 C 
HETATM    9  O5  UNL     1       5.745   1.746  -2.102  1.00  0.00    -0.263 OA
HETATM   10  O6  UNL     1       3.459   1.993  -1.511  1.00  0.00    -0.309 OA
HETATM   11  C16 UNL     1       2.294   1.640  -2.129  1.00  0.00     0.192 C 
HETATM   12  C19 UNL     1       0.963   1.798  -1.556  1.00  0.00     0.303 C 
HETATM   13  F1  UNL     1       0.297   2.792  -2.307  1.00  0.00    -0.224 F 
HETATM   14  N4  UNL     1       0.716   2.114  -0.199  1.00  0.00    -0.322 N 
HETATM   15  C20 UNL     1       0.944   3.543   0.130  1.00  0.00     0.155 C 
HETATM   16  C21 UNL     1       0.298   1.308   0.876  1.00  0.00     0.244 C 
HETATM   17  O8  UNL     1       0.061   1.898   1.991  1.00  0.00    -0.271 OA
ENDROOT
BRANCH   1  18
HETATM   18  N2  UNL     1      -1.352  -0.213   1.393  1.00  0.00    -0.346 N 
HETATM   19  C5  UNL     1      -2.403  -0.506   0.533  1.00  0.00     0.242 C 
HETATM   20  O3  UNL     1      -2.117  -0.724  -0.682  1.00  0.00    -0.271 OA
ATOM     21  H2  UNL     1      -1.563  -0.021   2.372  1.00  0.00     0.163 HD
BRANCH  19  22
HETATM   22  C4  UNL     1      -3.791  -0.549   1.034  1.00  0.00     0.186 C 
BRANCH  22  23
HETATM   23  N1  UNL     1      -4.716  -0.583  -0.140  1.00  0.00    -0.323 N 
HETATM   24  C3  UNL     1      -5.607   0.486  -0.365  1.00  0.00     0.361 C 
HETATM   25  O2  UNL     1      -5.640   1.489   0.426  1.00  0.00    -0.238 OA
ATOM     26  H1  UNL     1      -4.702  -1.379  -0.778  1.00  0.00     0.165 HD
BRANCH  24  27
HETATM   27  O1  UNL     1      -6.464   0.476  -1.439  1.00  0.00    -0.304 OA
BRANCH  27  28
HETATM   28  C2  UNL     1      -7.360   1.563  -1.650  1.00  0.00     0.176 C 
HETATM   29  C1  UNL     1      -8.168   1.345  -2.879  1.00  0.00     0.034 C 
ENDBRANCH  27  28
ENDBRANCH  24  27
ENDBRANCH  22  23
BRANCH  22  30
HETATM   30  C22 UNL     1      -4.115  -1.718   1.918  1.00  0.00    -0.022 C 
HETATM   31  C23 UNL     1      -5.568  -1.557   2.352  1.00  0.00     0.017 C 
HETATM   32  C24 UNL     1      -3.970  -3.054   1.238  1.00  0.00     0.017 C 
HETATM   33  C25 UNL     1      -3.277  -1.734   3.155  1.00  0.00     0.017 C 
ENDBRANCH  22  30
ENDBRANCH  19  22
ENDBRANCH   1  18
BRANCH   4  34
HETATM   34  O4  UNL     1       2.193  -1.604  -0.434  1.00  0.00    -0.350 OA
ATOM     35  H4  UNL     1       2.578  -1.270  -1.236  1.00  0.00     0.219 HD
ENDBRANCH   4  34
BRANCH  11  36
HETATM   36  C17 UNL     1       2.293   2.084  -3.613  1.00  0.00     0.106 C 
BRANCH  36  37
HETATM   37  C18 UNL     1       2.454   3.518  -3.797  1.00  0.00     0.233 C 
HETATM   38  O7  UNL     1       2.635   4.355  -2.943  1.00  0.00    -0.307 OA
ENDBRANCH  36  37
ENDBRANCH  11  36
BRANCH   7  39
HETATM   39  C11 UNL     1       5.874  -0.661  -0.917  1.00  0.00     0.039 C 
BRANCH  39  40
HETATM   40  C12 UNL     1       6.451  -1.669  -0.007  1.00  0.00    -0.020 C 
HETATM   41  C13 UNL     1       7.220  -1.087   1.161  1.00  0.00     0.009 C 
HETATM   42  C14 UNL     1       5.566  -2.781   0.413  1.00  0.00     0.009 C 
ENDBRANCH  39  40
ENDBRANCH   7  39
TORSDOF 11
