REMARK  2 active torsions:
REMARK  status: ('A' for Active; 'I' for Inactive)
REMARK    1  A    between atoms: C1_2  and  C2_3 
REMARK    2  A    between atoms: C12_16  and  C13_17 
ROOT
HETATM    1  C2  UNL     1      -0.742   0.875  -1.716  1.00  0.00    -0.047 C 
HETATM    2  C3  UNL     1       0.527   1.288  -1.126  1.00  0.00    -0.021 C 
HETATM    3  C4  UNL     1       0.659   2.533  -0.332  1.00  0.00     0.027 C 
HETATM    4  C5  UNL     1       2.071   2.508   0.245  1.00  0.00     0.004 C 
HETATM    5  C6  UNL     1       2.390   1.312   1.059  1.00  0.00     0.000 C 
HETATM    6  C7  UNL     1       3.348   0.373   0.419  1.00  0.00     0.002 C 
HETATM    7  C8  UNL     1       3.460  -0.980   0.970  1.00  0.00     0.027 C 
HETATM    8  C9  UNL     1       2.249  -1.764   1.256  1.00  0.00     0.232 C 
HETATM    9  N1  UNL     1       1.611  -2.394   0.116  1.00  0.00    -0.075 N 
ATOM     10  H11 UNL     1       1.748  -3.405   0.120  1.00  0.00     0.277 HD
ATOM     11  H12 UNL     1       2.096  -2.175  -0.754  1.00  0.00     0.277 HD
HETATM   12  C10 UNL     1       0.176  -2.038   0.046  1.00  0.00     0.233 C 
HETATM   13  C11 UNL     1      -0.206  -1.496  -1.269  1.00  0.00     0.041 C 
HETATM   14  C12 UNL     1      -1.304  -0.471  -1.342  1.00  0.00     0.051 C 
ENDROOT
BRANCH  14  15
HETATM   15  C13 UNL     1      -2.243  -0.565  -0.265  1.00  0.00    -0.044 A 
HETATM   16  C14 UNL     1      -2.154   0.039   0.968  1.00  0.00     0.050 A 
HETATM   17  C15 UNL     1      -3.089  -0.094   1.975  1.00  0.00     0.119 A 
HETATM   18  F2  UNL     1      -2.953   0.526   3.178  1.00  0.00    -0.206 F 
HETATM   19  C16 UNL     1      -4.203  -0.889   1.745  1.00  0.00     0.084 A 
HETATM   20  C17 UNL     1      -4.321  -1.503   0.530  1.00  0.00     0.119 A 
HETATM   21  F3  UNL     1      -5.432  -2.279   0.338  1.00  0.00    -0.206 F 
HETATM   22  C18 UNL     1      -3.366  -1.344  -0.446  1.00  0.00     0.050 A 
ENDBRANCH  14  15
BRANCH   1  23
HETATM   23  C1  UNL     1      -1.788   1.923  -1.943  1.00  0.00     0.257 C 
HETATM   24  F1  UNL     1      -2.216   2.582  -0.834  1.00  0.00    -0.251 F 
ENDBRANCH   1  23
TORSDOF 2
