REMARK  3 active torsions:
REMARK  status: ('A' for Active; 'I' for Inactive)
REMARK    1  A    between atoms: C2_2  and  C4_4 
REMARK    2  A    between atoms: C2_2  and  C18_21 
REMARK    3  A    between atoms: C5_5  and  C6_6 
ROOT
HETATM    1  C4  UNL     1      -1.026  -0.259   0.307  1.00  0.00    -0.002 A 
HETATM    2  C5  UNL     1       0.174   0.327  -0.065  1.00  0.00     0.043 A 
HETATM    3  N1  UNL     1      -0.093   1.678  -0.083  1.00  0.00    -0.353 N 
ATOM      4  H1  UNL     1       0.602   2.382  -0.329  1.00  0.00     0.166 HD
HETATM    5  C12 UNL     1      -1.328   1.971   0.247  1.00  0.00     0.068 A 
HETATM    6  C13 UNL     1      -1.961   3.213   0.350  1.00  0.00     0.073 A 
HETATM    7  N2  UNL     1      -1.204   4.393   0.057  1.00  0.00    -0.100 NA
HETATM    8  C14 UNL     1      -3.253   3.301   0.719  1.00  0.00     0.029 A 
HETATM    9  C15 UNL     1      -3.917   2.145   0.985  1.00  0.00     0.003 A 
HETATM   10  C16 UNL     1      -3.290   0.899   0.884  1.00  0.00     0.014 A 
HETATM   11  C17 UNL     1      -1.962   0.777   0.507  1.00  0.00     0.002 A 
ENDROOT
BRANCH   1  12
HETATM   12  C2  UNL     1      -1.343  -1.665   0.288  1.00  0.00     0.080 C 
HETATM   13  C1  UNL     1      -0.605  -2.702   0.993  1.00  0.00     0.029 C 
HETATM   14  C3  UNL     1      -2.787  -1.900   0.836  1.00  0.00     0.029 C 
BRANCH  12  15
HETATM   15  C18 UNL     1      -1.426  -2.114  -1.188  1.00  0.00     0.398 C 
HETATM   16  F1  UNL     1      -0.265  -2.293  -1.847  1.00  0.00    -0.170 F 
HETATM   17  F2  UNL     1      -2.109  -1.140  -1.929  1.00  0.00    -0.170 F 
HETATM   18  F3  UNL     1      -2.113  -3.310  -1.266  1.00  0.00    -0.170 F 
ENDBRANCH  12  15
ENDBRANCH   1  12
BRANCH   2  19
HETATM   19  C6  UNL     1       1.548  -0.115  -0.269  1.00  0.00    -0.053 C 
HETATM   20  C7  UNL     1       2.277   0.710  -1.327  1.00  0.00     0.036 C 
HETATM   21  C8  UNL     1       3.403  -0.168  -1.830  1.00  0.00     0.004 C 
HETATM   22  C9  UNL     1       4.341  -0.333  -0.650  1.00  0.00     0.001 C 
HETATM   23  C10 UNL     1       3.758  -1.112   0.475  1.00  0.00     0.004 C 
HETATM   24  C11 UNL     1       2.234  -1.249   0.304  1.00  0.00     0.036 C 
ENDBRANCH   2  19
TORSDOF 3
