REMARK  16 active torsions:
REMARK  status: ('A' for Active; 'I' for Inactive)
REMARK    1  A    between atoms: N1_2  and  C2_4 
REMARK    2  A    between atoms: C4_6  and  S1_7 
REMARK    3  A    between atoms: S1_7  and  C5_8 
REMARK    4  A    between atoms: C6_11  and  N3_12 
REMARK    5  A    between atoms: N3_12  and  N4_14 
REMARK    6  A    between atoms: C7_17  and  N5_18 
REMARK    7  A    between atoms: N5_18  and  O1_20 
REMARK    8  A    between atoms: O1_20  and  C8_21 
REMARK       I    between atoms: C8_21  and  N6_23 
REMARK    9  A    between atoms: N6_23  and  N7_25 
REMARK   10  A    between atoms: N8_28  and  C9_29 
REMARK   11  A    between atoms: C9_29  and  C10_30 
REMARK   12  A    between atoms: C10_30  and  O3_31 
REMARK   13  A    between atoms: C10_30  and  C11_33 
REMARK   14  A    between atoms: C11_33  and  O4_34 
REMARK   15  A    between atoms: O4_34  and  S2_35 
REMARK   16  A    between atoms: N11_47  and  O9_48 
ROOT
HETATM    1  C5  UNL     1      -0.130  -0.224  -0.912  1.00  0.00     0.256 A 
HETATM    2  N2  UNL     1      -0.588   1.061  -1.322  1.00  0.00    -0.342 N 
ATOM      3  H2  UNL     1      -1.530   1.272  -1.651  1.00  0.00     0.164 HD
HETATM    4  C6  UNL     1       0.358   1.904  -1.215  1.00  0.00     0.164 A 
HETATM    5  C7  UNL     1       1.539   1.218  -0.720  1.00  0.00     0.172 A 
HETATM    6  N8  UNL     1       1.253  -0.026  -0.545  1.00  0.00    -0.330 N 
ENDROOT
BRANCH   1   7
HETATM    7  S1  UNL     1      -1.039  -0.710   0.590  1.00  0.00    -0.081 SA
BRANCH   7   8
HETATM    8  C4  UNL     1      -2.765  -0.947   0.308  1.00  0.00     0.041 A 
HETATM    9  C3  UNL     1      -3.210  -2.155  -0.199  1.00  0.00     0.069 A 
HETATM   10  C2  UNL     1      -4.584  -2.319  -0.408  1.00  0.00     0.103 A 
HETATM   11  N9  UNL     1      -5.466  -1.360  -0.136  1.00  0.00    -0.327 N 
HETATM   12  C13 UNL     1      -5.009  -0.192   0.359  1.00  0.00     0.142 A 
ATOM     13  H9  UNL     1      -6.463  -1.505  -0.298  1.00  0.00     0.169 HD
HETATM   14  C12 UNL     1      -3.673   0.051   0.594  1.00  0.00     0.129 A 
HETATM   15  N10 UNL     1      -5.701   0.915   0.720  1.00  0.00    -0.291 N 
HETATM   16  N11 UNL     1      -3.601   1.295   1.090  1.00  0.00    -0.168 N 
HETATM   17  C14 UNL     1      -4.834   1.827   1.169  1.00  0.00     0.352 A 
HETATM   18  O8  UNL     1      -5.075   2.999   1.604  1.00  0.00    -0.244 OA
ATOM     19  H10 UNL     1      -6.712   1.032   0.659  1.00  0.00     0.172 HD
BRANCH  10  20
HETATM   20  N1  UNL     1      -4.980  -3.435  -0.875  1.00  0.00    -0.381 N 
HETATM   21  C1  UNL     1      -6.357  -3.730  -1.134  1.00  0.00     0.147 C 
ATOM     22  H1  UNL     1      -4.283  -4.153  -1.074  1.00  0.00     0.160 HD
ENDBRANCH  10  20
BRANCH  16  23
HETATM   23  O9  UNL     1      -2.429   1.936   1.484  1.00  0.00    -0.278 OA
ATOM     24  H9  UNL     1      -2.378   2.817   1.835  1.00  0.00     0.245 HD
ENDBRANCH  16  23
ENDBRANCH   7   8
ENDBRANCH   1   7
BRANCH   6  25
HETATM   25  C9  UNL     1       2.221  -0.992  -0.073  1.00  0.00     0.161 C 
BRANCH  25  26
HETATM   26  C10 UNL     1       1.969  -1.552   1.277  1.00  0.00     0.161 C 
BRANCH  26  27
HETATM   27  O3  UNL     1       1.926  -0.606   2.294  1.00  0.00    -0.392 OA
ATOM     28  H3  UNL     1       1.765  -0.965   3.159  1.00  0.00     0.210 HD
ENDBRANCH  26  27
BRANCH  26  29
HETATM   29  C11 UNL     1       3.148  -2.515   1.545  1.00  0.00     0.226 C 
BRANCH  29  30
HETATM   30  O4  UNL     1       2.964  -3.156   2.768  1.00  0.00    -0.254 OA
BRANCH  30  31
HETATM   31  S2  UNL     1       4.222  -4.204   3.084  1.00  0.00     0.251 S 
HETATM   32  O5  UNL     1       3.637  -5.599   3.249  1.00  0.00    -0.572 OA
HETATM   33  O6  UNL     1       5.192  -4.295   1.942  1.00  0.00    -0.572 OA
HETATM   34  O7  UNL     1       4.997  -3.771   4.524  1.00  0.00    -0.572 OA
ENDBRANCH  30  31
ENDBRANCH  29  30
ENDBRANCH  26  29
ENDBRANCH  25  26
ENDBRANCH   6  25
BRANCH   4  35
HETATM   35  N3  UNL     1       0.249   3.278  -1.538  1.00  0.00    -0.289 N 
ATOM     36  H3  UNL     1       0.179   3.975  -0.797  1.00  0.00     0.188 HD
BRANCH  35  37
HETATM   37  N4  UNL     1       0.238   3.671  -2.872  1.00  0.00    -0.344 N 
ATOM     38  H42 UNL     1       0.309   2.961  -3.601  1.00  0.00     0.176 HD
ATOM     39  H41 UNL     1       0.159   4.661  -3.105  1.00  0.00     0.176 HD
ENDBRANCH  35  37
ENDBRANCH   4  35
BRANCH   5  40
HETATM   40  N5  UNL     1       2.821   1.829  -0.464  1.00  0.00    -0.237 N 
ATOM     41  H5  UNL     1       3.172   1.880   0.492  1.00  0.00     0.197 HD
BRANCH  40  42
HETATM   42  O1  UNL     1       3.579   2.346  -1.495  1.00  0.00    -0.178 OA
BRANCH  42  43
HETATM   43  C8  UNL     1       3.895   3.700  -1.562  1.00  0.00     0.401 C 
HETATM   44  O2  UNL     1       3.468   4.464  -0.646  1.00  0.00    -0.235 OA
HETATM   45  N6  UNL     1       4.681   4.236  -2.631  1.00  0.00    -0.250 N 
ATOM     46  H6  UNL     1       5.028   3.626  -3.371  1.00  0.00     0.191 HD
BRANCH  45  47
HETATM   47  N7  UNL     1       4.966   5.595  -2.650  1.00  0.00    -0.341 N 
ATOM     48  H72 UNL     1       4.611   6.191  -1.902  1.00  0.00     0.177 HD
ATOM     49  H71 UNL     1       5.526   5.977  -3.412  1.00  0.00     0.177 HD
ENDBRANCH  45  47
ENDBRANCH  42  43
ENDBRANCH  40  42
ENDBRANCH   5  40
TORSDOF 16
