REMARK  12 active torsions:
REMARK  status: ('A' for Active; 'I' for Inactive)
REMARK    1  A    between atoms: N1_1  and  C1_4 
REMARK    2  A    between atoms: C3_10  and  S1_11 
REMARK    3  A    between atoms: S1_11  and  C4_12 
REMARK    4  A    between atoms: C6_15  and  O2_16 
REMARK    5  A    between atoms: C6_15  and  C7_18 
REMARK    6  A    between atoms: C7_18  and  N4_19 
REMARK    7  A    between atoms: C7_18  and  O3_23 
REMARK    8  A    between atoms: C8_25  and  C9_26 
REMARK    9  A    between atoms: C11_30  and  N5_31 
REMARK   10  A    between atoms: C13_35  and  C14_36 
REMARK   11  A    between atoms: C15_41  and  C16_42 
REMARK   12  A    between atoms: N8_46  and  N9_47 
ROOT
HETATM    1  C4  UNL     1      -0.194   0.037  -0.742  1.00  0.00     0.164 C 
HETATM    2  C5  UNL     1      -0.949   1.243   0.119  1.00  0.00     0.187 C 
HETATM    3  O1  UNL     1      -0.282   2.008   0.502  1.00  0.00    -0.293 OA
HETATM    4  C6  UNL     1      -2.509   1.141   0.264  1.00  0.00     0.206 C 
HETATM    5  C8  UNL     1      -3.072  -0.105   0.624  1.00  0.00     0.168 C 
HETATM    6  C10 UNL     1      -3.504  -1.123  -0.570  1.00  0.00     0.110 C 
HETATM    7  C11 UNL     1      -2.456  -0.955  -1.650  1.00  0.00     0.094 C 
HETATM    8  C12 UNL     1      -1.465  -0.499  -1.086  1.00  0.00     0.026 C 
HETATM    9  C13 UNL     1      -1.438  -1.664   0.219  1.00  0.00     0.117 C 
HETATM   10  N6  UNL     1      -2.088  -1.032   1.241  1.00  0.00    -0.362 N 
ATOM     11  H6  UNL     1      -1.928  -1.170   2.239  1.00  0.00     0.161 HD
ENDROOT
BRANCH   1  12
HETATM   12  S1  UNL     1       0.964   0.671  -1.916  1.00  0.00    -0.091 SA
BRANCH  12  13
HETATM   13  C3  UNL     1       2.641   0.126  -1.497  1.00  0.00     0.123 A 
HETATM   14  N3  UNL     1       3.245  -1.027  -1.950  1.00  0.00    -0.181 N 
HETATM   15  C2  UNL     1       4.391  -1.179  -1.295  1.00  0.00     0.722 A 
ATOM     16  H3  UNL     1       2.876  -1.655  -2.664  1.00  0.00     0.185 HD
HETATM   17  N2  UNL     1       5.468  -2.016  -1.125  1.00  0.00    -0.018 N 
HETATM   18  N7  UNL     1       4.558  -0.182  -0.444  1.00  0.00    -0.040 N 
HETATM   19  C1  UNL     1       6.269  -1.512  -0.165  1.00  0.00     0.727 A 
ATOM     20  H2  UNL     1       5.634  -2.879  -1.642  1.00  0.00     0.203 HD
HETATM   21  N8  UNL     1       5.695  -0.384   0.240  1.00  0.00    -0.005 N 
HETATM   22  C15 UNL     1       3.480   0.652  -0.563  1.00  0.00     0.187 A 
BRANCH  19  23
HETATM   23  N1  UNL     1       7.375  -2.029   0.264  1.00  0.00    -0.231 N 
ATOM     24  H12 UNL     1       7.816  -2.895  -0.047  1.00  0.00     0.174 HD
ATOM     25  H11 UNL     1       7.981  -1.648   0.990  1.00  0.00     0.174 HD
ENDBRANCH  19  23
BRANCH  21  26
HETATM   26  N9  UNL     1       6.199   0.476   1.242  1.00  0.00    -0.308 N 
ATOM     27  H92 UNL     1       7.063   0.322   1.762  1.00  0.00     0.179 HD
ATOM     28  H91 UNL     1       5.758   1.342   1.553  1.00  0.00     0.179 HD
ENDBRANCH  21  26
BRANCH  22  29
HETATM   29  C16 UNL     1       3.352   1.962   0.041  1.00  0.00     0.232 C 
HETATM   30  O10 UNL     1       2.467   2.736  -0.497  1.00  0.00    -0.643 OA
HETATM   31  O11 UNL     1       4.060   2.461   1.108  1.00  0.00    -0.643 OA
ENDBRANCH  22  29
ENDBRANCH  12  13
ENDBRANCH   1  12
BRANCH   4  32
HETATM   32  O2  UNL     1      -2.997   1.499  -1.007  1.00  0.00    -0.375 OA
ATOM     33  H2  UNL     1      -3.941   1.437  -0.919  1.00  0.00     0.211 HD
ENDBRANCH   4  32
BRANCH   4  34
HETATM   34  C7  UNL     1      -2.724   2.314   1.199  1.00  0.00     0.361 C 
BRANCH  34  35
HETATM   35  N4  UNL     1      -2.109   3.508   0.589  1.00  0.00    -0.050 N 
ATOM     36  H43 UNL     1      -1.127   3.368   0.354  1.00  0.00     0.277 HD
ATOM     37  H42 UNL     1      -2.452   3.689  -0.354  1.00  0.00     0.277 HD
ATOM     38  H41 UNL     1      -2.254   4.298   1.218  1.00  0.00     0.277 HD
ENDBRANCH  34  35
BRANCH  34  39
HETATM   39  O3  UNL     1      -3.925   2.621   1.671  1.00  0.00    -0.367 OA
ATOM     40  H3  UNL     1      -4.060   3.356   2.257  1.00  0.00     0.212 HD
ENDBRANCH  34  39
ENDBRANCH   4  34
BRANCH   7  41
HETATM   41  N5  UNL     1      -2.860  -1.244  -2.997  1.00  0.00    -0.119 N 
HETATM   42  O6  UNL     1      -2.243  -1.910  -3.821  1.00  0.00    -0.532 OA
HETATM   43  O7  UNL     1      -4.037  -0.686  -3.429  1.00  0.00    -0.532 OA
ENDBRANCH   7  41
BRANCH   9  44
HETATM   44  C14 UNL     1      -1.558  -2.995  -0.130  1.00  0.00     0.227 C 
HETATM   45  O8  UNL     1      -1.783  -3.740   0.938  1.00  0.00    -0.643 OA
HETATM   46  O9  UNL     1      -1.517  -3.746  -1.256  1.00  0.00    -0.643 OA
ENDBRANCH   9  44
BRANCH   5  47
HETATM   47  C9  UNL     1      -4.275  -0.244   1.431  1.00  0.00     0.206 C 
HETATM   48  O4  UNL     1      -5.341  -0.831   1.043  1.00  0.00    -0.646 OA
HETATM   49  O5  UNL     1      -4.400   0.244   2.770  1.00  0.00    -0.646 OA
ENDBRANCH   5  47
TORSDOF 12
