REMARK  8 active torsions:
REMARK  status: ('A' for Active; 'I' for Inactive)
REMARK    1  A    between atoms: C2_2  and  C3_3 
REMARK    2  A    between atoms: C7_12  and  C8_13 
REMARK    3  A    between atoms: C8_13  and  O3_15 
REMARK    4  A    between atoms: O3_15  and  C9_16 
REMARK    5  A    between atoms: C9_16  and  C11_18 
REMARK    6  A    between atoms: C11_18  and  C13_22 
REMARK    7  A    between atoms: C13_22  and  O4_23 
REMARK    8  A    between atoms: C13_22  and  C14_25 
ROOT
HETATM    1  C11 UNL     1       1.920  -1.087   0.636  1.00  0.00     0.246 C 
HETATM    2  F1  UNL     1       1.273  -1.895   1.597  1.00  0.00    -0.221 F 
HETATM    3  C12 UNL     1       1.499  -1.651  -0.647  1.00  0.00     0.109 C 
HETATM    4  N3  UNL     1       1.133  -2.106  -1.673  1.00  0.00    -0.193 NA
ENDROOT
BRANCH   1   5
HETATM    5  C9  UNL     1       1.351   0.291   0.858  1.00  0.00     0.185 C 
HETATM    6  C10 UNL     1       1.758   0.914   2.140  1.00  0.00     0.045 C 
BRANCH   5   7
HETATM    7  O3  UNL     1      -0.056   0.277   0.655  1.00  0.00    -0.311 OA
BRANCH   7   8
HETATM    8  C8  UNL     1      -0.701   0.940  -0.362  1.00  0.00     0.271 C 
HETATM    9  O2  UNL     1       0.068   1.584  -1.129  1.00  0.00    -0.264 OA
BRANCH   8  10
HETATM   10  C7  UNL     1      -2.174   0.893  -0.530  1.00  0.00     0.153 C 
HETATM   11  C3  UNL     1      -2.692  -0.494  -0.739  1.00  0.00     0.104 C 
HETATM   12  N1  UNL     1      -3.046  -1.151   0.500  1.00  0.00    -0.337 N 
HETATM   13  C4  UNL     1      -3.652  -0.360   1.528  1.00  0.00     0.320 C 
ATOM     14  H1  UNL     1      -2.870  -2.146   0.637  1.00  0.00     0.164 HD
HETATM   15  O1  UNL     1      -4.308  -0.941   2.443  1.00  0.00    -0.247 OA
HETATM   16  N2  UNL     1      -3.478   1.038   1.456  1.00  0.00    -0.316 N 
HETATM   17  C5  UNL     1      -2.820   1.652   0.542  1.00  0.00     0.003 C 
ATOM     18  H2  UNL     1      -3.909   1.604   2.187  1.00  0.00     0.170 HD
HETATM   19  C6  UNL     1      -2.707   3.165   0.579  1.00  0.00     0.064 C 
BRANCH  11  20
HETATM   20  C2  UNL     1      -3.967  -0.485  -1.594  1.00  0.00     0.022 C 
HETATM   21  C1  UNL     1      -4.450  -1.875  -1.862  1.00  0.00     0.007 C 
ENDBRANCH  11  20
ENDBRANCH   8  10
ENDBRANCH   7   8
ENDBRANCH   5   7
ENDBRANCH   1   5
BRANCH   1  22
HETATM   22  C13 UNL     1       3.351  -1.280   0.845  1.00  0.00     0.208 C 
BRANCH  22  23
HETATM   23  O4  UNL     1       3.675  -2.613   0.588  1.00  0.00    -0.386 OA
ATOM     24  H4  UNL     1       4.607  -2.739   0.724  1.00  0.00     0.210 HD
ENDBRANCH  22  23
BRANCH  22  25
HETATM   25  C14 UNL     1       4.268  -0.449  -0.026  1.00  0.00    -0.018 A 
HETATM   26  C15 UNL     1       4.891   0.663   0.424  1.00  0.00     0.017 A 
HETATM   27  C16 UNL     1       5.697   1.331  -0.453  1.00  0.00     0.050 A 
HETATM   28  S1  UNL     1       5.572   0.402  -1.875  1.00  0.00    -0.113 SA
HETATM   29  C17 UNL     1       4.503  -0.807  -1.322  1.00  0.00     0.059 A 
ENDBRANCH  22  25
ENDBRANCH   1  22
TORSDOF 8
