REMARK  12 active torsions:
REMARK  status: ('A' for Active; 'I' for Inactive)
REMARK    1  A    between atoms: N1_1  and  C1_4 
REMARK    2  A    between atoms: N4_9  and  C2_10 
REMARK    3  A    between atoms: C2_10  and  C3_16 
REMARK    4  A    between atoms: N5_11  and  N6_13 
REMARK    5  A    between atoms: C3_16  and  N7_17 
REMARK    6  A    between atoms: C3_16  and  C9_30 
REMARK    7  A    between atoms: N7_17  and  N8_19 
REMARK    8  A    between atoms: C4_21  and  C5_22 
REMARK    9  A    between atoms: C8_25  and  N9_26 
REMARK   10  A    between atoms: N10_32  and  O4_33 
REMARK   11  A    between atoms: C11_37  and  N12_38 
REMARK   12  A    between atoms: C12_41  and  N13_42 
ROOT
HETATM    1  C3  UNL     1      -0.482   0.895   0.268  1.00  0.00     0.209 C 
ENDROOT
BRANCH   1   2
HETATM    2  C2  UNL     1      -1.050  -0.241  -0.511  1.00  0.00     0.166 C 
HETATM    3  N5  UNL     1      -0.496  -0.627  -1.609  1.00  0.00    -0.291 N 
ATOM      4  H5  UNL     1       0.340  -0.143  -1.938  1.00  0.00     0.188 HD
BRANCH   2   5
HETATM    5  N4  UNL     1      -2.211  -0.929  -0.072  1.00  0.00    -0.055 N 
HETATM    6  N3  UNL     1      -3.351  -0.724  -0.706  1.00  0.00    -0.206 N 
HETATM    7  N2  UNL     1      -4.484  -1.340  -0.345  1.00  0.00    -0.116 N 
ATOM      8  H3  UNL     1      -3.369  -0.077  -1.494  1.00  0.00     0.210 HD
HETATM    9  C1  UNL     1      -4.508  -2.201   0.689  1.00  0.00     0.706 A 
ATOM     10  H2  UNL     1      -5.343  -1.153  -0.862  1.00  0.00     0.207 HD
HETATM   11  N14 UNL     1      -3.366  -2.424   1.345  1.00  0.00    -0.020 N 
HETATM   12  C12 UNL     1      -2.222  -1.791   0.967  1.00  0.00     0.714 A 
ATOM     13  H14 UNL     1      -3.351  -3.072   2.133  1.00  0.00     0.203 HD
BRANCH   9  14
HETATM   14  N1  UNL     1      -5.632  -2.765   0.991  1.00  0.00    -0.233 N 
ATOM     15  H12 UNL     1      -6.504  -2.595   0.490  1.00  0.00     0.174 HD
ATOM     16  H11 UNL     1      -5.650  -3.418   1.775  1.00  0.00     0.174 HD
ENDBRANCH   9  14
BRANCH  12  17
HETATM   17  N13 UNL     1      -1.107  -1.985   1.579  1.00  0.00    -0.232 N 
ATOM     18 2H13 UNL     1      -0.250  -1.511   1.296  1.00  0.00     0.174 HD
ATOM     19 1H13 UNL     1      -1.115  -2.636   2.364  1.00  0.00     0.174 HD
ENDBRANCH  12  17
ENDBRANCH   2   5
BRANCH   3  20
HETATM   20  N6  UNL     1      -1.003  -1.684  -2.360  1.00  0.00    -0.344 N 
ATOM     21  H62 UNL     1      -1.839  -2.157  -2.017  1.00  0.00     0.176 HD
ATOM     22  H61 UNL     1      -0.565  -1.989  -3.229  1.00  0.00     0.176 HD
ENDBRANCH   3  20
ENDBRANCH   1   2
BRANCH   1  23
HETATM   23  N7  UNL     1       0.708   1.425  -0.386  1.00  0.00    -0.320 N 
ATOM     24  H7  UNL     1       0.711   2.401  -0.682  1.00  0.00     0.181 HD
BRANCH  23  25
HETATM   25  N8  UNL     1       1.832   0.657  -0.621  1.00  0.00    -0.312 N 
HETATM   26  C4  UNL     1       3.029   1.000  -0.428  1.00  0.00     0.144 C 
ATOM     27  H8  UNL     1       1.677  -0.282  -0.988  1.00  0.00     0.185 HD
BRANCH  26  28
HETATM   28  C5  UNL     1       4.119   0.070  -0.727  1.00  0.00     0.095 A 
HETATM   29  C6  UNL     1       3.947  -1.214  -1.226  1.00  0.00     0.043 A 
HETATM   30  C7  UNL     1       5.200  -1.748  -1.366  1.00  0.00     0.065 A 
HETATM   31  C8  UNL     1       6.091  -0.788  -0.954  1.00  0.00     0.215 A 
HETATM   32  O3  UNL     1       5.397   0.250  -0.593  1.00  0.00    -0.287 OA
BRANCH  31  33
HETATM   33  N9  UNL     1       7.525  -0.917  -0.930  1.00  0.00    -0.090 N 
HETATM   34  O1  UNL     1       8.037  -1.968  -1.305  1.00  0.00    -0.530 OA
HETATM   35  O2  UNL     1       8.275   0.132  -0.491  1.00  0.00    -0.530 OA
ENDBRANCH  31  33
ENDBRANCH  26  28
ENDBRANCH  23  25
ENDBRANCH   1  23
BRANCH   1  36
HETATM   36  C9  UNL     1      -1.472   1.947   0.513  1.00  0.00     0.044 A 
HETATM   37  C10 UNL     1      -2.366   2.430  -0.450  1.00  0.00     0.157 A 
HETATM   38  N10 UNL     1      -3.135   3.380   0.108  1.00  0.00    -0.173 N 
HETATM   39  N11 UNL     1      -2.757   3.501   1.359  1.00  0.00    -0.254 N 
HETATM   40  C11 UNL     1      -1.740   2.639   1.647  1.00  0.00     0.200 A 
ATOM     41  H11 UNL     1      -3.169   4.153   2.027  1.00  0.00     0.191 HD
BRANCH  38  42
HETATM   42  O4  UNL     1      -4.130   4.077  -0.555  1.00  0.00    -0.268 OA
ATOM     43  H4  UNL     1      -4.674   4.749  -0.160  1.00  0.00     0.247 HD
ENDBRANCH  38  42
BRANCH  40  44
HETATM   44  N12 UNL     1      -1.120   2.548   2.922  1.00  0.00    -0.096 N 
HETATM   45  O5  UNL     1      -1.527   3.293   3.866  1.00  0.00    -0.530 OA
HETATM   46  O6  UNL     1      -0.101   1.715   3.245  1.00  0.00    -0.530 OA
ENDBRANCH  40  44
ENDBRANCH   1  36
TORSDOF 12
