REMARK  8 active torsions:
REMARK  status: ('A' for Active; 'I' for Inactive)
REMARK    1  A    between atoms: N1_1  and  C1_4 
REMARK    2  A    between atoms: C3_8  and  C4_9 
REMARK       I    between atoms: C4_9  and  N3_11 
REMARK    3  A    between atoms: N3_11  and  N4_13 
REMARK    4  A    between atoms: N4_13  and  S1_15 
REMARK    5  A    between atoms: S1_15  and  C5_18 
REMARK    6  A    between atoms: C10_30  and  N9_31 
REMARK    7  A    between atoms: C11_38  and  S2_39 
REMARK    8  A    between atoms: S2_39  and  N13_40 
ROOT
HETATM    1  C1  UNL     1      -2.669   0.087   1.154  1.00  0.00     0.131 A 
HETATM    2  N2  UNL     1      -1.383   0.014   0.752  1.00  0.00    -0.324 N 
ATOM      3  H2  UNL     1      -0.685  -0.412   1.361  1.00  0.00     0.169 HD
HETATM    4  C2  UNL     1      -1.019   0.496  -0.438  1.00  0.00     0.163 A 
HETATM    5  C3  UNL     1       0.190   0.560  -1.076  1.00  0.00     0.165 A 
HETATM    6  N6  UNL     1      -0.094   1.193  -2.276  1.00  0.00    -0.277 N 
ATOM      7  H6  UNL     1       0.593   1.405  -3.000  1.00  0.00     0.189 HD
HETATM    8  N7  UNL     1      -1.364   1.479  -2.348  1.00  0.00    -0.234 N 
ATOM      9  H7  UNL     1      -1.822   1.945  -3.131  1.00  0.00     0.209 HD
HETATM   10  N8  UNL     1      -1.972   1.062  -1.227  1.00  0.00    -0.232 N 
HETATM   11  C9  UNL     1      -3.263   1.149  -0.853  1.00  0.00     0.155 A 
HETATM   12  C10 UNL     1      -3.654   0.655   0.369  1.00  0.00     0.121 A 
ENDROOT
BRANCH   5  13
HETATM   13  C4  UNL     1       1.497   0.052  -0.727  1.00  0.00     0.292 C 
HETATM   14  O1  UNL     1       2.507   0.626  -1.268  1.00  0.00    -0.264 OA
HETATM   15  N3  UNL     1       1.738  -1.012   0.141  1.00  0.00    -0.255 N 
ATOM     16  H3  UNL     1       0.920  -1.467   0.547  1.00  0.00     0.191 HD
BRANCH  15  17
HETATM   17  N4  UNL     1       2.987  -1.518   0.510  1.00  0.00    -0.219 N 
ATOM     18  H4  UNL     1       3.259  -2.481   0.312  1.00  0.00     0.200 HD
BRANCH  17  19
HETATM   19  S1  UNL     1       4.024  -0.441   1.305  1.00  0.00     0.291 S 
HETATM   20  O2  UNL     1       3.395   0.903   1.559  1.00  0.00    -0.197 OA
HETATM   21  O3  UNL     1       4.355  -1.010   2.658  1.00  0.00    -0.197 OA
BRANCH  19  22
HETATM   22  C5  UNL     1       5.503  -0.188   0.421  1.00  0.00     0.150 A 
HETATM   23  C6  UNL     1       6.594  -1.032   0.579  1.00  0.00     0.045 A 
HETATM   24  C7  UNL     1       7.583  -0.553  -0.243  1.00  0.00     0.020 A 
HETATM   25  C8  UNL     1       7.106   0.563  -0.890  1.00  0.00     0.089 A 
HETATM   26  N5  UNL     1       5.859   0.741  -0.461  1.00  0.00    -0.355 N 
ATOM     27  H5  UNL     1       5.250   1.498  -0.771  1.00  0.00     0.166 HD
ENDBRANCH  19  22
ENDBRANCH  17  19
ENDBRANCH  15  17
ENDBRANCH   5  13
BRANCH   1  28
HETATM   28  N1  UNL     1      -3.010  -0.385   2.304  1.00  0.00    -0.383 N 
ATOM     29  H12 UNL     1      -2.283  -0.804   2.884  1.00  0.00     0.157 HD
ATOM     30  H11 UNL     1      -3.982  -0.330   2.608  1.00  0.00     0.157 HD
ENDBRANCH   1  28
BRANCH  12  31
HETATM   31  N9  UNL     1      -4.984   0.681   0.857  1.00  0.00    -0.211 N 
HETATM   32  N10 UNL     1      -5.421   1.050   2.063  1.00  0.00    -0.219 N 
HETATM   33  N11 UNL     1      -6.732   0.922   2.125  1.00  0.00    -0.226 N 
ATOM     34  H10 UNL     1      -4.829   1.382   2.824  1.00  0.00     0.210 HD
HETATM   35  N12 UNL     1      -7.127   0.468   0.949  1.00  0.00    -0.261 N 
ATOM     36  H11 UNL     1      -7.327   1.133   2.927  1.00  0.00     0.210 HD
HETATM   37  C11 UNL     1      -6.061   0.309   0.141  1.00  0.00     0.203 A 
ATOM     38  H12 UNL     1      -8.094   0.268   0.692  1.00  0.00     0.190 HD
BRANCH  37  39
HETATM   39  S2  UNL     1      -6.004  -0.274  -1.544  1.00  0.00     0.019 SA
BRANCH  39  40
HETATM   40  N13 UNL     1      -7.606  -0.659  -2.136  1.00  0.00    -0.367 N 
ATOM     41 2H13 UNL     1      -8.453  -0.558  -1.577  1.00  0.00     0.164 HD
ATOM     42 1H13 UNL     1      -7.573  -0.992  -3.099  1.00  0.00     0.164 HD
ENDBRANCH  39  40
ENDBRANCH  37  39
ENDBRANCH  12  31
TORSDOF 8
