REMARK  9 active torsions:
REMARK  status: ('A' for Active; 'I' for Inactive)
REMARK    1  A    between atoms: N1_1  and  C1_5 
REMARK    2  A    between atoms: C1_5  and  C2_6 
REMARK    3  A    between atoms: N3_9  and  N4_10 
REMARK    4  A    between atoms: C3_12  and  C4_13 
REMARK    5  A    between atoms: C4_13  and  C5_14 
REMARK    6  A    between atoms: C5_14  and  N5_15 
REMARK    7  A    between atoms: C9_25  and  C10_26 
REMARK    8  A    between atoms: C12_28  and  O3_29 
REMARK    9  A    between atoms: C13_31  and  O4_32 
ROOT
HETATM    1  N5  UNL     1      -0.033   0.208   0.172  1.00  0.00    -0.239 N 
HETATM    2  N6  UNL     1      -0.387  -1.024   0.311  1.00  0.00    -0.273 N 
ATOM      3  H6  UNL     1       0.246  -1.822   0.365  1.00  0.00     0.189 HD
HETATM    4  C6  UNL     1      -1.758  -1.085   0.374  1.00  0.00     0.215 A 
HETATM    5  C7  UNL     1      -2.464  -2.302   0.474  1.00  0.00     0.295 C 
HETATM    6  O1  UNL     1      -2.026  -3.146   1.237  1.00  0.00    -0.264 OA
HETATM    7  N7  UNL     1      -3.600  -2.568  -0.255  1.00  0.00    -0.285 N 
ATOM      8  H7  UNL     1      -3.823  -3.537  -0.483  1.00  0.00     0.172 HD
HETATM    9  C8  UNL     1      -4.429  -1.593  -0.679  1.00  0.00     0.279 C 
HETATM   10  O2  UNL     1      -5.199  -1.867  -1.673  1.00  0.00    -0.265 OA
HETATM   11  C9  UNL     1      -4.555  -0.311  -0.213  1.00  0.00     0.151 C 
HETATM   12  N8  UNL     1      -3.563   0.545   0.218  1.00  0.00    -0.281 N 
ATOM     13  H8  UNL     1      -3.815   1.490   0.507  1.00  0.00     0.188 HD
HETATM   14  N9  UNL     1      -2.243   0.159   0.269  1.00  0.00    -0.180 N 
HETATM   15  C14 UNL     1      -1.180   0.958   0.142  1.00  0.00     0.364 A 
HETATM   16  O6  UNL     1      -1.186   2.216   0.021  1.00  0.00    -0.243 OA
ENDROOT
BRANCH   1  17
HETATM   17  C5  UNL     1       1.280   0.794   0.056  1.00  0.00     0.159 C 
BRANCH  17  18
HETATM   18  C4  UNL     1       2.157   0.714   1.252  1.00  0.00     0.068 C 
BRANCH  18  19
HETATM   19  C3  UNL     1       2.732  -0.658   1.360  1.00  0.00     0.084 C 
HETATM   20  N4  UNL     1       3.797  -1.086   1.009  1.00  0.00    -0.293 N 
ATOM     21  H4  UNL     1       3.905  -2.079   1.214  1.00  0.00     0.187 HD
BRANCH  20  22
HETATM   22  N3  UNL     1       4.914  -0.549   0.391  1.00  0.00    -0.181 N 
HETATM   23  N2  UNL     1       5.987  -1.244  -0.119  1.00  0.00    -0.277 N 
HETATM   24  C2  UNL     1       6.595  -0.150  -0.508  1.00  0.00     0.097 A 
ATOM     25  H2  UNL     1       6.221  -2.235  -0.174  1.00  0.00     0.189 HD
HETATM   26  C15 UNL     1       5.493   0.556   0.018  1.00  0.00     0.181 A 
HETATM   27  N10 UNL     1       5.383   1.994   0.106  1.00  0.00    -0.077 NA
BRANCH  24  28
HETATM   28  C1  UNL     1       7.812   0.179  -1.331  1.00  0.00     0.291 C 
BRANCH  28  29
HETATM   29  N1  UNL     1       8.997  -0.171  -0.510  1.00  0.00    -0.074 N 
ATOM     30  H13 UNL     1       8.998   0.279   0.405  1.00  0.00     0.274 HD
ATOM     31  H12 UNL     1       8.985  -1.136  -0.180  1.00  0.00     0.274 HD
ATOM     32  H11 UNL     1       9.822   0.052  -1.068  1.00  0.00     0.274 HD
ENDBRANCH  28  29
ENDBRANCH  24  28
ENDBRANCH  20  22
ENDBRANCH  18  19
ENDBRANCH  17  18
ENDBRANCH   1  17
BRANCH  11  33
HETATM   33  C10 UNL     1      -5.953   0.185  -0.202  1.00  0.00     0.115 A 
HETATM   34  C11 UNL     1      -6.557   1.071   0.626  1.00  0.00     0.081 A 
HETATM   35  C12 UNL     1      -7.893   1.228   0.255  1.00  0.00     0.127 A 
HETATM   36  C13 UNL     1      -8.009   0.385  -0.825  1.00  0.00     0.218 A 
HETATM   37  O5  UNL     1      -6.888  -0.221  -1.089  1.00  0.00    -0.283 OA
BRANCH  35  38
HETATM   38  O3  UNL     1      -8.794   2.038   0.903  1.00  0.00    -0.356 OA
ATOM     39  H3  UNL     1      -9.704   2.145   0.650  1.00  0.00     0.218 HD
ENDBRANCH  35  38
BRANCH  36  40
HETATM   40  O4  UNL     1      -9.177   0.118  -1.580  1.00  0.00    -0.339 OA
ATOM     41  H4  UNL     1      -9.257  -0.464  -2.326  1.00  0.00     0.220 HD
ENDBRANCH  36  40
ENDBRANCH  11  33
TORSDOF 9
