REMARK  4 active torsions:
REMARK  status: ('A' for Active; 'I' for Inactive)
REMARK    1  A    between atoms: C3_5  and  C4_6 
REMARK    2  A    between atoms: C6_8  and  N2_9 
REMARK    3  A    between atoms: N2_9  and  C7_11 
REMARK    4  A    between atoms: C14_24  and  C15_25 
ROOT
HETATM    1  C4  UNL     1       1.041   0.243  -1.124  1.00  0.00     0.019 A 
HETATM    2  C5  UNL     1       0.016   0.177  -0.232  1.00  0.00     0.063 A 
HETATM    3  C6  UNL     1      -1.301  -0.250  -0.581  1.00  0.00     0.102 A 
HETATM    4  N4  UNL     1      -1.512  -0.598  -1.867  1.00  0.00    -0.351 N 
ATOM      5  H4  UNL     1      -2.437  -0.908  -2.163  1.00  0.00     0.166 HD
HETATM    6  C12 UNL     1      -0.511  -0.538  -2.758  1.00  0.00     0.114 A 
HETATM    7  C13 UNL     1       0.775  -0.124  -2.425  1.00  0.00     0.062 A 
HETATM    8 CL1  UNL     1       2.015  -0.083  -3.665  1.00  0.00    -0.082 Cl
ENDROOT
BRANCH   1   9
HETATM    9  C3  UNL     1       2.380   0.688  -0.737  1.00  0.00     0.069 A 
HETATM   10  N1  UNL     1       3.072   1.714  -1.313  1.00  0.00    -0.344 N 
HETATM   11  C2  UNL     1       4.257   1.819  -0.698  1.00  0.00     0.077 A 
ATOM     12  H1  UNL     1       2.743   2.300  -2.080  1.00  0.00     0.167 HD
HETATM   13  C1  UNL     1       5.325   2.824  -1.021  1.00  0.00     0.089 C 
HETATM   14  N5  UNL     1       4.337   0.881   0.260  1.00  0.00    -0.347 N 
HETATM   15  C14 UNL     1       3.192   0.184   0.242  1.00  0.00     0.042 A 
ATOM     16  H5  UNL     1       5.126   0.727   0.888  1.00  0.00     0.167 HD
BRANCH  15  17
HETATM   17  C15 UNL     1       2.839  -0.954   1.126  1.00  0.00     0.038 A 
HETATM   18  C16 UNL     1       3.921  -1.371   2.138  1.00  0.00     0.011 A 
HETATM   19  C17 UNL     1       3.699  -2.240   0.941  1.00  0.00     0.011 A 
ENDBRANCH  15  17
ENDBRANCH   1   9
BRANCH   3  20
HETATM   20  N2  UNL     1      -2.180  -0.290   0.267  1.00  0.00    -0.369 N 
ATOM     21  H2  UNL     1      -1.707   0.026   1.114  1.00  0.00     0.161 HD
BRANCH  20  22
HETATM   22  C7  UNL     1      -3.443  -0.529   0.682  1.00  0.00     0.119 C 
HETATM   23  C8  UNL     1      -4.365   0.678   0.915  1.00  0.00     0.038 C 
HETATM   24  C9  UNL     1      -5.541  -0.014   1.531  1.00  0.00     0.239 C 
HETATM   25  C11 UNL     1      -4.705   0.551  -0.555  1.00  0.00     0.043 C 
HETATM   26  N3  UNL     1      -5.650  -1.168   0.641  1.00  0.00    -0.069 N 
HETATM   27  C10 UNL     1      -4.554  -0.928  -0.274  1.00  0.00     0.209 C 
ATOM     28  H32 UNL     1      -5.641  -2.077   1.103  1.00  0.00     0.277 HD
ATOM     29  H31 UNL     1      -6.563  -1.297   0.204  1.00  0.00     0.277 HD
ENDBRANCH  20  22
ENDBRANCH   3  20
TORSDOF 4
