REMARK  4 active torsions:
REMARK  status: ('A' for Active; 'I' for Inactive)
REMARK       I    between atoms: C1_2  and  N1_3 
REMARK    1  A    between atoms: C1_2  and  C9_18 
REMARK    2  A    between atoms: N1_3  and  C2_5 
REMARK    3  A    between atoms: C7_13  and  O2_14 
REMARK    4  A    between atoms: C7_13  and  C8_16 
ROOT
HETATM    1  C2  UNL     1      -1.370  -0.634   0.094  1.00  0.00     0.294 C 
HETATM    2  N2  UNL     1      -2.118  -0.537  -1.142  1.00  0.00    -0.047 N 
ATOM      3  H21 UNL     1      -2.230  -1.434  -1.614  1.00  0.00     0.280 HD
ATOM      4  H22 UNL     1      -1.605  -0.063  -1.885  1.00  0.00     0.280 HD
HETATM    5  C3  UNL     1      -3.377   0.100  -0.824  1.00  0.00     0.223 C 
HETATM    6  C4  UNL     1      -3.082   1.607  -0.777  1.00  0.00     0.037 C 
HETATM    7  C5  UNL     1      -2.139   1.658   0.434  1.00  0.00     0.014 C 
HETATM    8  C6  UNL     1      -2.115   0.258   1.011  1.00  0.00     0.073 C 
HETATM    9  C7  UNL     1      -3.569  -0.132   0.664  1.00  0.00     0.102 C 
ENDROOT
BRANCH   1  10
HETATM   10  N1  UNL     1       0.015  -0.191  -0.040  1.00  0.00    -0.329 N 
HETATM   11  C1  UNL     1       1.101  -1.038   0.282  1.00  0.00     0.248 C 
HETATM   12  O1  UNL     1       0.865  -2.193   0.689  1.00  0.00    -0.268 OA
ATOM     13  H1  UNL     1       0.204   0.754  -0.375  1.00  0.00     0.164 HD
BRANCH  11  14
HETATM   14  C9  UNL     1       2.507  -0.632   0.163  1.00  0.00     0.006 C 
HETATM   15  C10 UNL     1       3.484  -1.444   0.466  1.00  0.00    -0.014 C 
HETATM   16  C11 UNL     1       4.899  -1.074   0.359  1.00  0.00     0.028 C 
HETATM   17  C12 UNL     1       5.098   0.121  -0.520  1.00  0.00     0.004 C 
HETATM   18  C13 UNL     1       4.135   1.221  -0.065  1.00  0.00     0.005 C 
HETATM   19  C14 UNL     1       2.738   0.747  -0.317  1.00  0.00     0.044 C 
ENDBRANCH  11  14
ENDBRANCH   1  10
BRANCH   9  20
HETATM   20  O2  UNL     1      -4.435   0.853   1.166  1.00  0.00    -0.386 OA
ATOM     21  H2  UNL     1      -4.555   0.708   2.097  1.00  0.00     0.210 HD
ENDBRANCH   9  20
BRANCH   9  22
HETATM   22  C8  UNL     1      -3.953  -1.495   1.053  1.00  0.00     0.125 C 
HETATM   23 BR1  UNL     1      -5.656  -1.928   0.187  1.00  0.00    -0.093 Br
ENDBRANCH   9  22
TORSDOF 4
