REMARK  6 active torsions:
REMARK  status: ('A' for Active; 'I' for Inactive)
REMARK    1  A    between atoms: N1_1  and  C1_4 
REMARK    2  A    between atoms: C2_7  and  N3_8 
REMARK    3  A    between atoms: N4_11  and  C3_12 
REMARK    4  A    between atoms: C8_18  and  C9_19 
REMARK    5  A    between atoms: N5_23  and  C11_24 
REMARK    6  A    between atoms: C11_24  and  C12_25 
ROOT
HETATM    1  C1  UNL     1       0.870   0.460  -1.767  1.00  0.00     0.695 A 
HETATM    2  N2  UNL     1      -0.147  -0.183  -2.353  1.00  0.00    -0.022 N 
ATOM      3  H2  UNL     1      -0.099  -0.415  -3.345  1.00  0.00     0.203 HD
HETATM    4  C2  UNL     1      -1.234  -0.524  -1.634  1.00  0.00     0.699 A 
HETATM    5  N4  UNL     1      -1.335  -0.233  -0.327  1.00  0.00    -0.119 N 
HETATM    6  C10 UNL     1      -0.312   0.414   0.270  1.00  0.00     0.216 A 
HETATM    7  S1  UNL     1      -0.479   0.747   1.861  1.00  0.00    -0.039 SA
HETATM    8  N5  UNL     1       0.783   0.758  -0.444  1.00  0.00    -0.152 N 
ENDROOT
BRANCH   5   9
HETATM    9  C3  UNL     1      -2.505  -0.598   0.392  1.00  0.00     0.088 A 
HETATM   10  C4  UNL     1      -2.617  -1.921   0.856  1.00  0.00     0.062 A 
HETATM   11 CL1  UNL     1      -1.326  -3.036   0.453  1.00  0.00    -0.082 Cl
HETATM   12  C5  UNL     1      -3.713  -2.300   1.597  1.00  0.00     0.026 A 
HETATM   13  C6  UNL     1      -4.727  -1.419   1.911  1.00  0.00     0.002 A 
HETATM   14  C7  UNL     1      -4.619  -0.132   1.459  1.00  0.00     0.011 A 
HETATM   15  C8  UNL     1      -3.495   0.280   0.691  1.00  0.00    -0.015 A 
BRANCH  15  16
HETATM   16  C9  UNL     1      -3.506   1.663   0.204  1.00  0.00     0.155 C 
HETATM   17 CL2  UNL     1      -4.215   1.752  -1.450  1.00  0.00    -0.125 Cl
ENDBRANCH  15  16
ENDBRANCH   5   9
BRANCH   4  18
HETATM   18  N3  UNL     1      -2.181  -1.192  -2.243  1.00  0.00    -0.233 N 
ATOM     19  H32 UNL     1      -2.104  -1.413  -3.236  1.00  0.00     0.174 HD
ATOM     20  H31 UNL     1      -3.004  -1.450  -1.699  1.00  0.00     0.174 HD
ENDBRANCH   4  18
BRANCH   8  21
HETATM   21  C11 UNL     1       1.855   1.506   0.169  1.00  0.00     0.188 C 
BRANCH  21  22
HETATM   22  C12 UNL     1       3.050   0.780   0.559  1.00  0.00    -0.039 A 
HETATM   23  C13 UNL     1       4.245   1.051  -0.122  1.00  0.00     0.009 A 
HETATM   24  C14 UNL     1       5.407   0.391   0.204  1.00  0.00     0.001 A 
HETATM   25  C15 UNL     1       5.438  -0.553   1.207  1.00  0.00     0.000 A 
HETATM   26  C16 UNL     1       4.286  -0.830   1.882  1.00  0.00     0.001 A 
HETATM   27  C17 UNL     1       3.112  -0.153   1.541  1.00  0.00     0.009 A 
ENDBRANCH  21  22
ENDBRANCH   8  21
BRANCH   1  28
HETATM   28  N1  UNL     1       1.928   0.817  -2.394  1.00  0.00    -0.234 N 
ATOM     29  H12 UNL     1       1.993   0.593  -3.387  1.00  0.00     0.174 HD
ATOM     30  H11 UNL     1       2.703   1.307  -1.947  1.00  0.00     0.174 HD
ENDBRANCH   1  28
TORSDOF 6
