REMARK  6 active torsions:
REMARK  status: ('A' for Active; 'I' for Inactive)
REMARK    1  A    between atoms: C2_2  and  N1_4 
REMARK    2  A    between atoms: C5_6  and  C6_7 
REMARK    3  A    between atoms: C6_7  and  C8_15 
REMARK    4  A    between atoms: N2_8  and  N3_10 
REMARK    5  A    between atoms: N3_10  and  C7_12 
REMARK    6  A    between atoms: C14_24  and  N5_25 
ROOT
HETATM    1  C6  UNL     1      -1.216  -0.894   0.187  1.00  0.00     0.080 C 
HETATM    2  N2  UNL     1      -1.663  -0.529   1.339  1.00  0.00    -0.297 N 
ATOM      3  H2  UNL     1      -2.444  -1.093   1.674  1.00  0.00     0.187 HD
ENDROOT
BRANCH   1   4
HETATM    4  C5  UNL     1      -0.110  -0.134  -0.335  1.00  0.00     0.053 A 
HETATM    5  C4  UNL     1       0.920   0.445   0.372  1.00  0.00     0.115 A 
HETATM    6  N1  UNL     1       1.738   1.243  -0.245  1.00  0.00    -0.332 N 
HETATM    7  C14 UNL     1       1.547   1.472  -1.550  1.00  0.00     0.145 A 
HETATM    8  S2  UNL     1       0.188   0.541  -1.906  1.00  0.00    -0.051 SA
BRANCH   6   9
HETATM    9  C2  UNL     1       2.886   1.897   0.465  1.00  0.00     0.083 C 
HETATM   10  C1  UNL     1       2.733   1.772   1.938  1.00  0.00     0.032 C 
HETATM   11  C3  UNL     1       4.175   1.323  -0.001  1.00  0.00     0.032 C 
ENDBRANCH   6   9
BRANCH   7  12
HETATM   12  N5  UNL     1       2.280   2.252  -2.326  1.00  0.00    -0.379 N 
ATOM     13  H52 UNL     1       3.102   2.815  -2.111  1.00  0.00     0.158 HD
ATOM     14  H51 UNL     1       2.134   2.426  -3.320  1.00  0.00     0.158 HD
ENDBRANCH   7  12
ENDBRANCH   1   4
BRANCH   1  15
HETATM   15  C8  UNL     1      -1.883  -1.996  -0.444  1.00  0.00     0.037 A 
HETATM   16  C9  UNL     1      -3.027  -2.539   0.220  1.00  0.00     0.048 A 
HETATM   17 CL1  UNL     1      -3.587  -1.764   1.681  1.00  0.00    -0.083 Cl
HETATM   18  C10 UNL     1      -3.720  -3.624  -0.211  1.00  0.00     0.025 A 
HETATM   19  C11 UNL     1      -3.297  -4.245  -1.364  1.00  0.00     0.003 A 
HETATM   20  C12 UNL     1      -2.200  -3.774  -2.052  1.00  0.00     0.025 A 
HETATM   21  C13 UNL     1      -1.497  -2.645  -1.578  1.00  0.00     0.048 A 
HETATM   22 CL2  UNL     1      -0.045  -2.212  -2.435  1.00  0.00    -0.083 Cl
ENDBRANCH   1  15
BRANCH   2  23
HETATM   23  N3  UNL     1      -1.298   0.459   2.193  1.00  0.00    -0.278 N 
ATOM     24  H3  UNL     1      -0.741   0.215   3.012  1.00  0.00     0.189 HD
BRANCH  23  25
HETATM   25  C7  UNL     1      -1.655   1.810   1.999  1.00  0.00     0.199 C 
HETATM   26  N4  UNL     1      -2.428   2.154   0.859  1.00  0.00    -0.068 NA
HETATM   27  S1  UNL     1      -1.199   2.947   3.062  1.00  0.00    -0.043 SA
ENDBRANCH  23  25
ENDBRANCH   2  23
TORSDOF 6
