REMARK  6 active torsions:
REMARK  status: ('A' for Active; 'I' for Inactive)
REMARK    1  A    between atoms: S1_2  and  C2_3 
REMARK    2  A    between atoms: C5_6  and  C6_7 
REMARK    3  A    between atoms: N1_8  and  N2_10 
REMARK    4  A    between atoms: N2_10  and  C7_12 
REMARK    5  A    between atoms: C8_15  and  N4_16 
REMARK    6  A    between atoms: N5_19  and  C9_20 
ROOT
HETATM    1  C7  UNL     1      -1.277  -1.092  -0.010  1.00  0.00     0.726 A 
HETATM    2  N3  UNL     1      -1.056   0.122  -0.537  1.00  0.00    -0.018 N 
ATOM      3  H3  UNL     1      -0.152   0.543  -0.752  1.00  0.00     0.203 HD
HETATM    4  C8  UNL     1      -2.283   0.675  -0.725  1.00  0.00     0.712 A 
HETATM    5  N5  UNL     1      -3.241  -0.176  -0.325  1.00  0.00    -0.072 N 
HETATM    6  N6  UNL     1      -2.587  -1.254   0.109  1.00  0.00    -0.109 N 
ATOM      7  H6  UNL     1      -3.035  -2.091   0.482  1.00  0.00     0.207 HD
ENDROOT
BRANCH   1   8
HETATM    8  N2  UNL     1      -0.389  -1.955   0.323  1.00  0.00    -0.131 N 
ATOM      9  H2  UNL     1      -0.691  -2.847   0.714  1.00  0.00     0.205 HD
BRANCH   8  10
HETATM   10  N1  UNL     1       0.975  -1.715   0.168  1.00  0.00    -0.297 N 
HETATM   11  C6  UNL     1       1.608  -0.769   0.765  1.00  0.00     0.119 C 
ATOM     12  H1  UNL     1       1.502  -2.326  -0.456  1.00  0.00     0.186 HD
BRANCH  11  13
HETATM   13  C5  UNL     1       3.024  -0.609   0.532  1.00  0.00    -0.019 A 
HETATM   14  C4  UNL     1       3.669  -1.473  -0.323  1.00  0.00     0.014 A 
HETATM   15  C3  UNL     1       5.019  -1.329  -0.551  1.00  0.00     0.019 A 
HETATM   16  C2  UNL     1       5.736  -0.338   0.059  1.00  0.00    -0.000 A 
HETATM   17  C16 UNL     1       5.072   0.523   0.916  1.00  0.00     0.019 A 
HETATM   18  C15 UNL     1       3.717   0.400   1.163  1.00  0.00     0.014 A 
BRANCH  16  19
HETATM   19  S1  UNL     1       7.474  -0.209  -0.281  1.00  0.00    -0.134 SA
HETATM   20  C1  UNL     1       8.239   1.159   0.620  1.00  0.00     0.095 C 
ENDBRANCH  16  19
ENDBRANCH  11  13
ENDBRANCH   8  10
ENDBRANCH   1   8
BRANCH   4  21
HETATM   21  N4  UNL     1      -2.485   1.863  -1.224  1.00  0.00    -0.232 N 
ATOM     22  H42 UNL     1      -1.757   2.510  -1.528  1.00  0.00     0.174 HD
ATOM     23  H41 UNL     1      -3.406   2.278  -1.365  1.00  0.00     0.174 HD
ENDBRANCH   4  21
BRANCH   5  24
HETATM   24  C9  UNL     1      -4.653   0.033  -0.360  1.00  0.00     0.077 A 
HETATM   25  C10 UNL     1      -5.276   0.654  -1.423  1.00  0.00     0.034 A 
HETATM   26  C11 UNL     1      -6.631   0.851  -1.448  1.00  0.00     0.028 A 
HETATM   27  C12 UNL     1      -7.430   0.433  -0.404  1.00  0.00     0.055 A 
HETATM   28 CL1  UNL     1      -9.155   0.703  -0.474  1.00  0.00    -0.083 Cl
HETATM   29  C13 UNL     1      -6.826  -0.184   0.657  1.00  0.00     0.058 A 
HETATM   30 CL2  UNL     1      -7.854  -0.715   1.986  1.00  0.00    -0.082 Cl
HETATM   31  C14 UNL     1      -5.461  -0.383   0.684  1.00  0.00     0.057 A 
ENDBRANCH   5  24
TORSDOF 6
