REMARK  7 active torsions:
REMARK  status: ('A' for Active; 'I' for Inactive)
REMARK    1  A    between atoms: C2_2  and  N1_3 
REMARK    2  A    between atoms: N1_3  and  C3_4 
REMARK       I    between atoms: N1_3  and  C14_28 
REMARK    3  A    between atoms: C3_4  and  C4_5 
REMARK    4  A    between atoms: C5_8  and  C6_9 
REMARK    5  A    between atoms: C6_9  and  S1_11 
REMARK    6  A    between atoms: S1_11  and  C7_12 
REMARK    7  A    between atoms: C8_17  and  O2_18 
ROOT
HETATM    1  C4  UNL     1      -1.122   0.095  -0.576  1.00  0.00     0.071 A 
HETATM    2  N2  UNL     1       0.224   0.165  -0.211  1.00  0.00    -0.348 N 
ATOM      3  H2  UNL     1       0.499   0.861   0.482  1.00  0.00     0.166 HD
HETATM    4  C5  UNL     1       1.175  -0.631  -0.719  1.00  0.00     0.113 A 
HETATM    5  C10 UNL     1       0.831  -1.586  -1.657  1.00  0.00     0.037 A 
HETATM    6  C11 UNL     1       1.787  -2.531  -2.292  1.00  0.00     0.070 C 
HETATM    7  N5  UNL     1      -0.455  -1.654  -2.008  1.00  0.00    -0.360 N 
ATOM      8  H5  UNL     1      -0.726  -2.351  -2.701  1.00  0.00     0.165 HD
HETATM    9  C12 UNL     1      -1.435  -0.841  -1.492  1.00  0.00     0.034 A 
HETATM   10  C13 UNL     1      -2.829  -1.031  -1.876  1.00  0.00     0.070 C 
ENDROOT
BRANCH   4  11
HETATM   11  C6  UNL     1       2.573  -0.511  -0.369  1.00  0.00     0.243 C 
HETATM   12  O1  UNL     1       3.455  -1.232  -0.827  1.00  0.00    -0.278 OA
BRANCH  11  13
HETATM   13  S1  UNL     1       3.084   0.779   0.819  1.00  0.00    -0.023 SA
BRANCH  13  14
HETATM   14  C7  UNL     1       4.871   0.707   0.907  1.00  0.00     0.136 A 
HETATM   15  N3  UNL     1       5.545  -0.118   1.777  1.00  0.00    -0.289 N 
HETATM   16  N4  UNL     1       6.863   0.070   1.596  1.00  0.00    -0.277 N 
ATOM     17  H3  UNL     1       5.118  -0.761   2.444  1.00  0.00     0.188 HD
HETATM   18  C8  UNL     1       7.024   0.993   0.633  1.00  0.00     0.197 A 
ATOM     19  H4  UNL     1       7.611  -0.405   2.101  1.00  0.00     0.189 HD
HETATM   20  C9  UNL     1       5.786   1.398   0.194  1.00  0.00     0.203 A 
HETATM   21  F1  UNL     1       5.519   2.318  -0.763  1.00  0.00    -0.198 F 
BRANCH  18  22
HETATM   22  O2  UNL     1       8.207   1.504   0.109  1.00  0.00    -0.343 OA
ATOM     23  H2  UNL     1       8.321   2.157  -0.572  1.00  0.00     0.219 HD
ENDBRANCH  18  22
ENDBRANCH  13  14
ENDBRANCH  11  13
ENDBRANCH   4  11
BRANCH   1  24
HETATM   24  C3  UNL     1      -1.925   1.113   0.008  1.00  0.00     0.125 C 
BRANCH  24  25
HETATM   25  N1  UNL     1      -3.136   1.009   0.663  1.00  0.00    -0.327 N 
HETATM   26  C14 UNL     1      -4.399   1.259   0.100  1.00  0.00     0.219 C 
HETATM   27  C15 UNL     1      -5.712   0.950   0.733  1.00  0.00     0.117 C 
HETATM   28  O3  UNL     1      -4.506   1.799  -1.060  1.00  0.00    -0.274 OA
BRANCH  25  29
HETATM   29  C2  UNL     1      -3.203   0.499   2.030  1.00  0.00     0.127 C 
HETATM   30  C1  UNL     1      -3.313  -0.985   2.136  1.00  0.00     0.027 C 
ENDBRANCH  25  29
ENDBRANCH  24  25
ENDBRANCH   1  24
TORSDOF 7
