REMARK  6 active torsions:
REMARK  status: ('A' for Active; 'I' for Inactive)
REMARK    1  A    between atoms: C3_5  and  C4_6 
REMARK    2  A    between atoms: C4_6  and  N2_7 
REMARK    3  A    between atoms: N2_7  and  C5_8 
REMARK    4  A    between atoms: N2_7  and  C13_20 
REMARK    5  A    between atoms: C5_8  and  C6_9 
REMARK    6  A    between atoms: C13_20  and  C14_21 
ROOT
HETATM    1  C1  UNL     1      -1.785  -3.551  -1.660  1.00  0.00     0.070 C 
HETATM    2  C2  UNL     1      -2.235  -2.194  -1.241  1.00  0.00     0.029 A 
HETATM    3  N1  UNL     1      -1.428  -1.110  -1.358  1.00  0.00    -0.347 N 
ATOM      4  H1  UNL     1      -0.490  -1.224  -1.743  1.00  0.00     0.167 HD
HETATM    5  C3  UNL     1      -1.836   0.103  -0.980  1.00  0.00     0.100 A 
HETATM    6  N5  UNL     1      -3.065   0.239  -0.478  1.00  0.00    -0.347 N 
ATOM      7  H5  UNL     1      -3.373   1.168  -0.191  1.00  0.00     0.167 HD
HETATM    8  C17 UNL     1      -3.917  -0.791  -0.333  1.00  0.00     0.029 A 
HETATM    9  C18 UNL     1      -5.287  -0.583   0.239  1.00  0.00     0.070 C 
HETATM   10  C19 UNL     1      -3.497  -2.041  -0.722  1.00  0.00     0.088 A 
HETATM   11  C20 UNL     1      -4.393  -3.174  -0.578  1.00  0.00     0.103 C 
HETATM   12  N6  UNL     1      -5.126  -4.068  -0.465  1.00  0.00    -0.191 NA
ENDROOT
BRANCH   5  13
HETATM   13  C4  UNL     1      -0.895   1.254  -1.136  1.00  0.00     0.198 C 
BRANCH  13  14
HETATM   14  N2  UNL     1      -0.183   1.539   0.054  1.00  0.00    -0.381 N 
BRANCH  14  15
HETATM   15  C5  UNL     1       0.655   0.552   0.597  1.00  0.00     0.117 C 
BRANCH  15  16
HETATM   16  C6  UNL     1       1.892   0.219  -0.154  1.00  0.00     0.071 A 
HETATM   17  N3  UNL     1       2.378   0.787  -1.264  1.00  0.00    -0.299 N 
HETATM   18  N4  UNL     1       3.532   0.187  -1.563  1.00  0.00    -0.304 N 
ATOM     19  H3  UNL     1       1.943   1.545  -1.789  1.00  0.00     0.187 HD
HETATM   20  C7  UNL     1       3.819  -0.764  -0.674  1.00  0.00     0.034 A 
ATOM     21  H4  UNL     1       4.116   0.424  -2.365  1.00  0.00     0.186 HD
HETATM   22  C8  UNL     1       2.812  -0.776   0.229  1.00  0.00    -0.005 A 
HETATM   23  C12 UNL     1       4.935  -1.749  -0.479  1.00  0.00     0.059 C 
HETATM   24  C9  UNL     1       2.770  -1.697   1.375  1.00  0.00     0.043 C 
HETATM   25  C10 UNL     1       3.542  -2.954   1.222  1.00  0.00     0.005 C 
HETATM   26  C11 UNL     1       4.395  -3.073   0.011  1.00  0.00     0.006 C 
ENDBRANCH  15  16
ENDBRANCH  14  15
BRANCH  14  27
HETATM   27  C13 UNL     1      -0.806   2.416   0.985  1.00  0.00     0.126 C 
BRANCH  27  28
HETATM   28  C14 UNL     1      -0.869   3.822   0.448  1.00  0.00    -0.005 C 
HETATM   29  C15 UNL     1       0.505   4.375   0.156  1.00  0.00     0.011 C 
HETATM   30  C16 UNL     1      -1.495   4.765   1.491  1.00  0.00     0.011 C 
ENDBRANCH  27  28
ENDBRANCH  14  27
ENDBRANCH  13  14
ENDBRANCH   5  13
TORSDOF 6
