REMARK  9 active torsions:
REMARK  status: ('A' for Active; 'I' for Inactive)
REMARK    1  A    between atoms: O1_2  and  C2_3 
REMARK    2  A    between atoms: C7_8  and  O2_9 
REMARK    3  A    between atoms: O2_9  and  C8_10 
REMARK    4  A    between atoms: C8_10  and  C9_11 
REMARK    5  A    between atoms: C9_11  and  C10_12 
REMARK    6  A    between atoms: C10_12  and  C11_13 
REMARK    7  A    between atoms: C12_14  and  C13_15 
REMARK    8  A    between atoms: C13_15  and  N1_16 
REMARK    9  A    between atoms: C16_19  and  C17_20 
ROOT
HETATM    1  C10 UNL     1      -0.488   0.260  -1.174  1.00  0.00     0.029 C 
ENDROOT
BRANCH   1   2
HETATM    2  C9  UNL     1      -0.789   1.035   0.082  1.00  0.00     0.030 C 
BRANCH   2   3
HETATM    3  C8  UNL     1      -2.183   0.769   0.605  1.00  0.00     0.176 C 
BRANCH   3   4
HETATM    4  O2  UNL     1      -3.179   1.111  -0.289  1.00  0.00    -0.348 OA
BRANCH   4   5
HETATM    5  C7  UNL     1      -4.521   1.006  -0.173  1.00  0.00     0.102 A 
HETATM    6  C2  UNL     1      -5.396   1.403  -1.181  1.00  0.00     0.102 A 
HETATM    7  C3  UNL     1      -6.755   1.294  -1.059  1.00  0.00     0.047 A 
HETATM    8  C4  UNL     1      -7.292   0.766   0.119  1.00  0.00    -0.049 A 
HETATM    9  C5  UNL     1      -6.454   0.362   1.139  1.00  0.00    -0.049 A 
HETATM   10  C27 UNL     1      -8.764   0.667   0.202  1.00  0.00     0.039 C 
HETATM   11  C6  UNL     1      -5.089   0.492   0.968  1.00  0.00     0.047 A 
HETATM   12  C24 UNL     1      -6.994  -0.206   2.411  1.00  0.00     0.039 C 
HETATM   13  C25 UNL     1      -8.468   0.045   2.533  1.00  0.00     0.005 C 
HETATM   14  C26 UNL     1      -9.127  -0.400   1.240  1.00  0.00     0.005 C 
BRANCH   6  15
HETATM   15  O1  UNL     1      -4.821   1.912  -2.310  1.00  0.00    -0.353 OA
HETATM   16  C1  UNL     1      -5.485   2.379  -3.461  1.00  0.00     0.210 C 
ENDBRANCH   6  15
ENDBRANCH   4   5
ENDBRANCH   3   4
ENDBRANCH   2   3
ENDBRANCH   1   2
BRANCH   1  17
HETATM   17  C11 UNL     1      -0.568  -1.195  -1.047  1.00  0.00    -0.026 C 
HETATM   18  C12 UNL     1       0.188  -1.981  -0.095  1.00  0.00     0.007 C 
BRANCH  18  19
HETATM   19  C13 UNL     1       1.628  -2.171  -0.004  1.00  0.00     0.059 C 
BRANCH  19  20
HETATM   20  N1  UNL     1       2.581  -1.188   0.206  1.00  0.00    -0.293 NA
HETATM   21  C14 UNL     1       2.876  -0.342  -0.880  1.00  0.00     0.095 C 
HETATM   22  C15 UNL     1       4.371  -0.262  -1.180  1.00  0.00     0.020 C 
HETATM   23  C16 UNL     1       5.061   0.258   0.084  1.00  0.00    -0.008 C 
HETATM   24  C22 UNL     1       4.800  -0.726   1.170  1.00  0.00     0.020 C 
HETATM   25  C23 UNL     1       3.774  -1.780   0.817  1.00  0.00     0.095 C 
BRANCH  23  26
HETATM   26  C17 UNL     1       6.516   0.458  -0.261  1.00  0.00    -0.007 C 
HETATM   27  C18 UNL     1       7.181  -0.799  -0.695  1.00  0.00     0.024 C 
HETATM   28  C19 UNL     1       8.674  -0.474  -0.833  1.00  0.00     0.114 C 
HETATM   29  N2  UNL     1       9.182  -0.323   0.494  1.00  0.00    -0.421 N 
HETATM   30  C20 UNL     1       8.438   0.523   1.361  1.00  0.00     0.114 C 
ATOM     31  H2  UNL     1      10.031  -0.796   0.802  1.00  0.00     0.153 HD
HETATM   32  C21 UNL     1       7.274   1.227   0.782  1.00  0.00     0.024 C 
ENDBRANCH  23  26
ENDBRANCH  19  20
ENDBRANCH  18  19
ENDBRANCH   1  17
TORSDOF 9
