REMARK  5 active torsions:
REMARK  status: ('A' for Active; 'I' for Inactive)
REMARK    1  A    between atoms: N1_2  and  C3_4 
REMARK    2  A    between atoms: C3_4  and  C4_5 
REMARK    3  A    between atoms: C4_5  and  C5_6 
REMARK    4  A    between atoms: C5_6  and  N2_7 
REMARK    5  A    between atoms: C6_10  and  C7_11 
ROOT
HETATM    1  N2  UNL     1       0.394   0.821   0.150  1.00  0.00    -0.266 N 
HETATM    2  N3  UNL     1       1.233   0.533  -0.835  1.00  0.00    -0.284 N 
ATOM      3  H3  UNL     1       1.004   0.544  -1.829  1.00  0.00     0.188 HD
HETATM    4  C6  UNL     1       2.433   0.224  -0.315  1.00  0.00     0.102 A 
HETATM    5  N4  UNL     1       2.353   0.316   1.007  1.00  0.00    -0.320 N 
ATOM      6  H4  UNL     1       3.101   0.142   1.679  1.00  0.00     0.169 HD
HETATM    7  C11 UNL     1       1.076   0.689   1.287  1.00  0.00     0.194 A 
HETATM    8  S1  UNL     1       0.494   0.933   2.804  1.00  0.00    -0.039 SA
ENDROOT
BRANCH   1   9
HETATM    9  C5  UNL     1      -0.984   1.202   0.050  1.00  0.00     0.153 C 
BRANCH   9  10
HETATM   10  C4  UNL     1      -1.911  -0.016   0.083  1.00  0.00     0.052 C 
BRANCH  10  11
HETATM   11  C3  UNL     1      -3.305   0.486  -0.026  1.00  0.00     0.273 C 
BRANCH  11  12
HETATM   12  N1  UNL     1      -4.316  -0.523  -0.012  1.00  0.00     0.080 N 
HETATM   13  C1  UNL     1      -5.603   0.150  -0.127  1.00  0.00     0.309 C 
HETATM   14  C2  UNL     1      -4.345  -1.314   1.178  1.00  0.00     0.309 C 
ENDBRANCH  11  12
ENDBRANCH  10  11
ENDBRANCH   9  10
ENDBRANCH   1   9
BRANCH   4  15
HETATM   15  C7  UNL     1       3.617  -0.150  -1.096  1.00  0.00     0.055 C 
HETATM   16  C8  UNL     1       4.352  -1.385  -0.591  1.00  0.00     0.012 C 
HETATM   17  C9  UNL     1       5.651  -0.658  -0.929  1.00  0.00     0.002 C 
HETATM   18  C10 UNL     1       4.877   0.646  -0.753  1.00  0.00     0.012 C 
ENDBRANCH   4  15
TORSDOF 5
