REMARK  3 active torsions:
REMARK  status: ('A' for Active; 'I' for Inactive)
REMARK    1  A    between atoms: N1_1  and  N2_4 
REMARK    2  A    between atoms: N2_4  and  C1_6 
REMARK    3  A    between atoms: C1_6  and  N3_8 
ROOT
HETATM    1  C1  UNL     1       0.513  -0.484   1.118  1.00  0.00     0.214 C 
HETATM    2  S1  UNL     1       0.210  -0.851   2.679  1.00  0.00    -0.037 SA
ENDROOT
BRANCH   1   3
HETATM    3  N2  UNL     1       1.758  -0.664   0.499  1.00  0.00    -0.281 N 
ATOM      4  H2  UNL     1       2.543  -1.045   1.028  1.00  0.00     0.189 HD
BRANCH   3   5
HETATM    5  N1  UNL     1       1.917  -0.323  -0.829  1.00  0.00    -0.343 N 
ATOM      6  H12 UNL     1       1.122   0.057  -1.343  1.00  0.00     0.176 HD
ATOM      7  H11 UNL     1       2.823  -0.454  -1.279  1.00  0.00     0.176 HD
ENDBRANCH   3   5
ENDBRANCH   1   3
BRANCH   1   8
HETATM    8  N3  UNL     1      -0.565   0.049   0.360  1.00  0.00    -0.160 N 
HETATM    9  N4  UNL     1      -0.996   1.229  -0.052  1.00  0.00    -0.005 NA
HETATM   10  N5  UNL     1      -2.049   0.732  -0.677  1.00  0.00    -0.233 N 
HETATM   11  C2  UNL     1      -1.644  -0.487  -0.277  1.00  0.00     0.359 A 
ATOM     12  H5  UNL     1      -2.826   1.107  -1.222  1.00  0.00     0.189 HD
HETATM   13  O1  UNL     1      -2.044  -1.685  -0.401  1.00  0.00    -0.244 OA
ENDBRANCH   1   8
TORSDOF 3
