REMARK  6 active torsions:
REMARK  status: ('A' for Active; 'I' for Inactive)
REMARK    1  A    between atoms: C3_3  and  N1_6 
REMARK    2  A    between atoms: N1_6  and  C6_8 
REMARK    3  A    between atoms: C7_11  and  N3_12 
REMARK    4  A    between atoms: N3_12  and  C8_14 
REMARK    5  A    between atoms: C8_14  and  C9_15 
REMARK    6  A    between atoms: C9_15  and  O1_16 
ROOT
HETATM    1  C1  UNL     1       5.627   0.317   0.055  1.00  0.00     0.015 C 
HETATM    2  C2  UNL     1       4.439   0.499  -0.040  1.00  0.00    -0.086 C 
HETATM    3  C3  UNL     1       2.964   0.703  -0.173  1.00  0.00     0.087 C 
HETATM    4  C4  UNL     1       2.654   1.827   0.805  1.00  0.00     0.052 C 
HETATM    5  C5  UNL     1       2.705   1.127  -1.602  1.00  0.00     0.052 C 
ENDROOT
BRANCH   3   6
HETATM    6  N1  UNL     1       2.317  -0.519   0.126  1.00  0.00    -0.355 N 
ATOM      7  H1  UNL     1       2.921  -1.311   0.344  1.00  0.00     0.162 HD
BRANCH   6   8
HETATM    8  C6  UNL     1       1.056  -0.740   0.153  1.00  0.00     0.137 A 
HETATM    9  N2  UNL     1       0.105   0.157  -0.098  1.00  0.00    -0.176 N 
HETATM   10  C7  UNL     1      -1.234  -0.113  -0.060  1.00  0.00     0.680 A 
ATOM     11  H2  UNL     1       0.394   1.106  -0.334  1.00  0.00     0.186 HD
HETATM   12  N4  UNL     1      -1.582  -1.362   0.252  1.00  0.00    -0.195 N 
HETATM   13  C10 UNL     1      -0.695  -2.332   0.521  1.00  0.00     0.043 A 
ATOM     14  H4  UNL     1      -2.575  -1.592   0.288  1.00  0.00     0.184 HD
HETATM   15  C11 UNL     1      -1.164  -3.706   0.862  1.00  0.00     0.070 C 
HETATM   16  C12 UNL     1       0.644  -2.048   0.479  1.00  0.00     0.078 A 
HETATM   17 BR1  UNL     1       1.958  -3.402   0.856  1.00  0.00    -0.045 Br
BRANCH  10  18
HETATM   18  N3  UNL     1      -2.028   0.851  -0.325  1.00  0.00    -0.224 N 
ATOM     19  H3  UNL     1      -1.599   1.750  -0.545  1.00  0.00     0.177 HD
BRANCH  18  20
HETATM   20  C8  UNL     1      -3.447   0.801  -0.345  1.00  0.00     0.164 C 
BRANCH  20  21
HETATM   21  C9  UNL     1      -4.072   1.802  -1.293  1.00  0.00     0.184 C 
BRANCH  21  22
HETATM   22  O1  UNL     1      -5.457   1.720  -1.281  1.00  0.00    -0.399 OA
ATOM     23  H1  UNL     1      -5.849   2.348  -1.876  1.00  0.00     0.209 HD
ENDBRANCH  21  22
ENDBRANCH  20  21
ENDBRANCH  18  20
ENDBRANCH  10  18
ENDBRANCH   6   8
ENDBRANCH   3   6
TORSDOF 6
