REMARK  9 active torsions:
REMARK  status: ('A' for Active; 'I' for Inactive)
REMARK    1  A    between atoms: C2_2  and  C3_3 
REMARK    2  A    between atoms: C3_3  and  C4_4 
REMARK    3  A    between atoms: C3_3  and  C6_6 
REMARK    4  A    between atoms: C9_11  and  C10_12 
REMARK    5  A    between atoms: C10_12  and  N2_13 
REMARK    6  A    between atoms: N3_16  and  C13_17 
REMARK    7  A    between atoms: C13_17  and  C14_18 
REMARK    8  A    between atoms: C14_18  and  O1_19 
REMARK    9  A    between atoms: C17_23  and  C18_24 
ROOT
HETATM    1  C18 UNL     1      -1.762   1.463  -1.210  1.00  0.00     0.165 C 
HETATM    2  C19 UNL     1      -2.041   0.846  -2.572  1.00  0.00     0.063 C 
HETATM    3  N4  UNL     1      -2.300   0.352  -3.609  1.00  0.00    -0.197 NA
ENDROOT
BRANCH   1   4
HETATM    4  C17 UNL     1      -1.763   0.315  -0.302  1.00  0.00    -0.008 A 
HETATM    5  C6  UNL     1      -2.906  -0.359   0.161  1.00  0.00     0.042 A 
HETATM    6  N1  UNL     1      -2.343  -1.465   0.752  1.00  0.00    -0.359 N 
HETATM    7  C7  UNL     1      -1.048  -1.526   0.705  1.00  0.00     0.014 A 
ATOM      8  H1  UNL     1      -2.906  -2.189   1.198  1.00  0.00     0.166 HD
HETATM    9  C8  UNL     1      -0.094  -2.563   1.225  1.00  0.00     0.068 C 
HETATM   10  C9  UNL     1      -0.623  -0.384   0.038  1.00  0.00     0.002 A 
BRANCH   5  11
HETATM   11  C3  UNL     1      -4.296   0.057   0.324  1.00  0.00    -0.053 C 
BRANCH  11  12
HETATM   12  C2  UNL     1      -5.372  -0.823  -0.211  1.00  0.00     0.032 C 
HETATM   13  C1  UNL     1      -6.071  -0.223  -1.453  1.00  0.00     0.010 C 
ENDBRANCH  11  12
BRANCH  11  14
HETATM   14  C4  UNL     1      -4.638   1.442   0.734  1.00  0.00     0.032 C 
HETATM   15  C5  UNL     1      -3.588   2.243   1.428  1.00  0.00     0.010 C 
ENDBRANCH  11  14
ENDBRANCH   5  11
BRANCH  10  16
HETATM   16  C10 UNL     1       0.752   0.099  -0.071  1.00  0.00     0.313 C 
BRANCH  16  17
HETATM   17  N2  UNL     1       1.798  -0.857  -0.096  1.00  0.00     0.096 N 
HETATM   18  C11 UNL     1       2.419  -1.057  -1.383  1.00  0.00     0.303 C 
HETATM   19  C12 UNL     1       3.940  -0.835  -1.314  1.00  0.00     0.302 C 
HETATM   20  N3  UNL     1       4.207   0.466  -0.812  1.00  0.00     0.093 N 
HETATM   21  C15 UNL     1       3.554   0.729   0.468  1.00  0.00     0.302 C 
HETATM   22  C16 UNL     1       2.809  -0.512   0.928  1.00  0.00     0.303 C 
BRANCH  20  23
HETATM   23  C13 UNL     1       5.564   0.902  -0.809  1.00  0.00     0.298 C 
BRANCH  23  24
HETATM   24  C14 UNL     1       6.467   0.225   0.185  1.00  0.00     0.194 C 
BRANCH  24  25
HETATM   25  O1  UNL     1       7.752   0.788   0.043  1.00  0.00    -0.399 OA
ATOM     26  H1  UNL     1       8.322   0.360   0.671  1.00  0.00     0.209 HD
ENDBRANCH  24  25
ENDBRANCH  23  24
ENDBRANCH  20  23
ENDBRANCH  16  17
ENDBRANCH  10  16
ENDBRANCH   1   4
TORSDOF 9
