REMARK  4 active torsions:
REMARK  status: ('A' for Active; 'I' for Inactive)
REMARK    1  A    between atoms: N1_1  and  C1_5 
REMARK    2  A    between atoms: C5_9  and  O1_10 
REMARK    3  A    between atoms: O1_10  and  C6_11 
REMARK       I    between atoms: C6_11  and  N2_13 
REMARK    4  A    between atoms: C8_17  and  N4_18 
ROOT
HETATM    1  C6  UNL     1       0.051   0.511  -0.167  1.00  0.00     0.382 C 
HETATM    2  O2  UNL     1       0.166   1.722  -0.473  1.00  0.00    -0.237 OA
HETATM    3  N2  UNL     1      -1.233   0.005   0.121  1.00  0.00    -0.121 N 
HETATM    4  C7  UNL     1      -2.321   0.920   0.043  1.00  0.00     0.693 A 
HETATM    5  N3  UNL     1      -2.220   2.245  -0.184  1.00  0.00    -0.169 N 
ATOM      6  H3  UNL     1      -1.342   2.744  -0.327  1.00  0.00     0.186 HD
HETATM    7  C8  UNL     1      -3.435   2.816  -0.196  1.00  0.00     0.204 A 
HETATM    8  C9  UNL     1      -4.357   1.817   0.033  1.00  0.00     0.165 A 
HETATM    9  N5  UNL     1      -3.671   0.698   0.172  1.00  0.00    -0.178 N 
HETATM   10  C10 UNL     1      -4.186  -0.660   0.432  1.00  0.00     0.179 C 
HETATM   11  C11 UNL     1      -3.634  -1.215   1.701  1.00  0.00     0.034 C 
HETATM   12  C12 UNL     1      -2.169  -1.363   1.800  1.00  0.00     0.029 C 
HETATM   13  C13 UNL     1      -1.417  -1.393   0.481  1.00  0.00     0.119 C 
HETATM   14  C14 UNL     1      -2.285  -2.000  -0.590  1.00  0.00     0.107 C 
HETATM   15  C15 UNL     1      -3.666  -1.511  -0.700  1.00  0.00     0.266 C 
HETATM   16  F1  UNL     1      -4.519  -2.621  -0.775  1.00  0.00    -0.204 F 
HETATM   17  F2  UNL     1      -3.912  -0.795  -1.876  1.00  0.00    -0.204 F 
ENDROOT
BRANCH   1  18
HETATM   18  O1  UNL     1       1.203  -0.237  -0.136  1.00  0.00    -0.298 OA
BRANCH  18  19
HETATM   19  C5  UNL     1       2.493   0.258  -0.423  1.00  0.00     0.135 C 
HETATM   20  C4  UNL     1       3.050  -0.401  -1.693  1.00  0.00     0.033 C 
HETATM   21  C3  UNL     1       4.381   0.331  -1.903  1.00  0.00     0.004 C 
HETATM   22  C2  UNL     1       5.337  -0.268  -0.900  1.00  0.00     0.033 C 
HETATM   23  C1  UNL     1       4.722  -0.574   0.416  1.00  0.00     0.186 C 
HETATM   24  C16 UNL     1       3.428   0.088   0.717  1.00  0.00     0.065 C 
BRANCH  23  25
HETATM   25  N1  UNL     1       5.674  -0.204   1.454  1.00  0.00    -0.075 N 
ATOM     26  H13 UNL     1       6.584  -0.648   1.331  1.00  0.00     0.274 HD
ATOM     27  H12 UNL     1       5.983   0.765   1.379  1.00  0.00     0.274 HD
ATOM     28  H11 UNL     1       5.251  -0.414   2.358  1.00  0.00     0.274 HD
ENDBRANCH  23  25
ENDBRANCH  18  19
ENDBRANCH   1  18
BRANCH   7  29
HETATM   29  N4  UNL     1      -3.751   4.189  -0.402  1.00  0.00    -0.096 N 
HETATM   30  O3  UNL     1      -2.800   4.993  -0.600  1.00  0.00    -0.530 OA
HETATM   31  O4  UNL     1      -5.045   4.621  -0.386  1.00  0.00    -0.530 OA
ENDBRANCH   7  29
TORSDOF 4
