REMARK  5 active torsions:
REMARK  status: ('A' for Active; 'I' for Inactive)
REMARK    1  A    between atoms: C1_2  and  C2_3 
REMARK       I    between atoms: C1_2  and  N4_14 
REMARK    2  A    between atoms: C2_3  and  C3_4 
REMARK    3  A    between atoms: C3_4  and  C4_5 
REMARK    4  A    between atoms: C8_17  and  C9_19 
REMARK    5  A    between atoms: C13_25  and  C14_26 
ROOT
HETATM    1  O1  UNL     1      -3.496  -2.755   0.757  1.00  0.00    -0.273 OA
HETATM    2  C1  UNL     1      -3.280  -1.605   0.362  1.00  0.00     0.220 C 
HETATM    3  N4  UNL     1      -1.919  -1.144   0.262  1.00  0.00    -0.352 N 
HETATM    4  C6  UNL     1      -0.821  -1.940   0.715  1.00  0.00     0.129 C 
HETATM    5  C7  UNL     1      -0.060  -1.083   1.696  1.00  0.00     0.070 C 
HETATM    6  C8  UNL     1       0.395   0.230   1.175  1.00  0.00     0.148 C 
HETATM    7  F1  UNL     1       0.665   1.038   2.282  1.00  0.00    -0.236 F 
HETATM    8  C18 UNL     1      -0.626   0.974   0.373  1.00  0.00     0.070 C 
HETATM    9  C19 UNL     1      -1.621   0.148  -0.334  1.00  0.00     0.129 C 
ENDROOT
BRANCH   6  10
HETATM   10  C9  UNL     1       1.695   0.095   0.451  1.00  0.00     0.050 A 
HETATM   11  C10 UNL     1       1.778  -0.412  -0.829  1.00  0.00     0.031 A 
HETATM   12  C11 UNL     1       2.956  -0.539  -1.524  1.00  0.00     0.034 A 
HETATM   13  C12 UNL     1       4.163  -0.138  -0.925  1.00  0.00     0.067 A 
HETATM   14  N5  UNL     1       5.354  -0.181  -1.462  1.00  0.00    -0.351 N 
HETATM   15  C17 UNL     1       4.055   0.360   0.341  1.00  0.00     0.103 A 
HETATM   16  C13 UNL     1       6.393   0.246  -0.779  1.00  0.00     0.057 A 
ATOM     17  H5  UNL     1       5.477  -0.544  -2.407  1.00  0.00     0.166 HD
HETATM   18  S2  UNL     1       5.683   0.739   0.695  1.00  0.00    -0.056 SA
HETATM   19  N6  UNL     1       2.856   0.470   1.000  1.00  0.00    -0.349 N 
ATOM     20  H6  UNL     1       2.850   0.853   1.945  1.00  0.00     0.166 HD
BRANCH  16  21
HETATM   21  C14 UNL     1       7.836   0.302  -1.223  1.00  0.00     0.043 A 
HETATM   22  C15 UNL     1       8.519   1.563  -0.728  1.00  0.00     0.012 A 
HETATM   23  C16 UNL     1       8.895   0.186  -0.224  1.00  0.00     0.012 A 
ENDBRANCH  16  21
ENDBRANCH   6  10
BRANCH   2  24
HETATM   24  C2  UNL     1      -4.340  -0.660  -0.016  1.00  0.00     0.110 C 
BRANCH  24  25
HETATM   25  C3  UNL     1      -5.754  -1.122   0.241  1.00  0.00     0.087 C 
BRANCH  25  26
HETATM   26  C4  UNL     1      -6.615   0.040  -0.099  1.00  0.00     0.098 A 
HETATM   27  N1  UNL     1      -6.915   0.994   0.840  1.00  0.00    -0.321 N 
HETATM   28  C5  UNL     1      -7.659   1.944   0.284  1.00  0.00     0.192 A 
ATOM     29  H1  UNL     1      -6.614   0.977   1.814  1.00  0.00     0.169 HD
HETATM   30  S1  UNL     1      -8.251   3.284   0.991  1.00  0.00    -0.039 SA
HETATM   31  N2  UNL     1      -7.817   1.580  -0.996  1.00  0.00    -0.275 N 
HETATM   32  N3  UNL     1      -7.179   0.412  -1.227  1.00  0.00    -0.287 N 
ATOM     33  H2  UNL     1      -8.342   2.108  -1.693  1.00  0.00     0.189 HD
ATOM     34  H3  UNL     1      -7.142  -0.090  -2.114  1.00  0.00     0.188 HD
ENDBRANCH  25  26
ENDBRANCH  24  25
ENDBRANCH   2  24
TORSDOF 5
