REMARK  5 active torsions:
REMARK  status: ('A' for Active; 'I' for Inactive)
REMARK    1  A    between atoms: C2_2  and  N1_3 
REMARK    2  A    between atoms: C2_2  and  C3_8 
REMARK    3  A    between atoms: C3_8  and  N2_9 
REMARK    4  A    between atoms: C6_12  and  C7_13 
REMARK    5  A    between atoms: C7_13  and  N3_14 
ROOT
HETATM    1  N2  UNL     1       0.410  -0.807   0.516  1.00  0.00     0.092 N 
HETATM    2  C4  UNL     1      -0.527  -1.857   0.078  1.00  0.00     0.273 C 
HETATM    3  C5  UNL     1      -1.846  -1.179  -0.163  1.00  0.00     0.038 C 
HETATM    4  C6  UNL     1      -1.747   0.012   0.765  1.00  0.00     0.041 C 
HETATM    5  C8  UNL     1      -0.287   0.422   0.507  1.00  0.00     0.279 C 
ENDROOT
BRANCH   1   6
HETATM    6  C3  UNL     1       1.565  -0.926  -0.286  1.00  0.00     0.327 C 
BRANCH   6   7
HETATM    7  C2  UNL     1       2.687  -0.014  -0.082  1.00  0.00     0.221 C 
HETATM    8  C1  UNL     1       2.457   1.438  -0.256  1.00  0.00     0.066 C 
HETATM    9 CL1  UNL     1       3.419  -0.244   1.542  1.00  0.00    -0.087 Cl
BRANCH   7  10
HETATM   10  N1  UNL     1       3.749  -0.393  -1.033  1.00  0.00    -0.055 N 
ATOM     11  H13 UNL     1       3.539  -0.132  -1.996  1.00  0.00     0.276 HD
ATOM     12  H12 UNL     1       4.598   0.164  -0.931  1.00  0.00     0.276 HD
ATOM     13  H11 UNL     1       3.907  -1.393  -0.913  1.00  0.00     0.276 HD
ENDBRANCH   7  10
ENDBRANCH   6   7
ENDBRANCH   1   6
BRANCH   4  14
HETATM   14  C7  UNL     1      -2.688   1.112   0.369  1.00  0.00     0.236 C 
BRANCH  14  15
HETATM   15  N3  UNL     1      -4.037   0.566   0.425  1.00  0.00    -0.079 N 
ATOM     16  H33 UNL     1      -4.150  -0.278  -0.137  1.00  0.00     0.274 HD
ATOM     17  H32 UNL     1      -4.264   0.153   1.330  1.00  0.00     0.274 HD
ATOM     18  H31 UNL     1      -4.677   1.314   0.156  1.00  0.00     0.274 HD
ENDBRANCH  14  15
ENDBRANCH   4  14
TORSDOF 5
