REMARK  2 active torsions:
REMARK  status: ('A' for Active; 'I' for Inactive)
REMARK    1  A    between atoms: N1_1  and  C1_5 
REMARK    2  A    between atoms: C1_5  and  C2_6 
ROOT
HETATM    1  C1  UNL     1      -0.258   0.205  -0.048  1.00  0.00     0.504 C 
HETATM    2  N2  UNL     1       0.901  -0.526  -0.444  1.00  0.00     0.087 N 
ATOM      3  H21 UNL     1       1.345  -0.348  -1.345  1.00  0.00     0.294 HD
ATOM      4  H22 UNL     1       0.834  -1.514  -0.687  1.00  0.00     0.294 HD
HETATM    5  C3  UNL     1       1.537  -0.112   0.785  1.00  0.00     0.542 C 
HETATM    6  F4  UNL     1       2.512   0.857   0.620  1.00  0.00    -0.149 F 
HETATM    7  F5  UNL     1       2.016  -1.168   1.559  1.00  0.00    -0.149 F 
HETATM    8  O1  UNL     1       0.303   0.380   1.202  1.00  0.00    -0.233 OA
ENDROOT
BRANCH   1   9
HETATM    9  N1  UNL     1      -0.364   1.441  -0.810  1.00  0.00    -0.012 N 
ATOM     10  H13 UNL     1      -0.715   1.268  -1.752  1.00  0.00     0.280 HD
ATOM     11  H12 UNL     1      -1.122   2.028  -0.463  1.00  0.00     0.280 HD
ATOM     12  H11 UNL     1       0.521   1.949  -0.830  1.00  0.00     0.280 HD
ENDBRANCH   1   9
BRANCH   1  13
HETATM   13  C2  UNL     1      -1.560  -0.542  -0.019  1.00  0.00     0.476 C 
HETATM   14  F1  UNL     1      -2.022  -0.899  -1.242  1.00  0.00    -0.164 F 
HETATM   15  F2  UNL     1      -2.521   0.234   0.600  1.00  0.00    -0.164 F 
HETATM   16  F3  UNL     1      -1.421  -1.686   0.758  1.00  0.00    -0.164 F 
ENDBRANCH   1  13
TORSDOF 2
