REMARK  9 active torsions:
REMARK  status: ('A' for Active; 'I' for Inactive)
REMARK    1  A    between atoms: C2_2  and  O1_3 
REMARK    2  A    between atoms: C2_2  and  N1_5 
REMARK    3  A    between atoms: N1_5  and  C3_7 
REMARK    4  A    between atoms: C4_8  and  C5_9 
REMARK    5  A    between atoms: C5_9  and  C6_11 
REMARK    6  A    between atoms: C6_11  and  N2_12 
REMARK    7  A    between atoms: N4_16  and  N5_17 
REMARK    8  A    between atoms: C9_24  and  N7_25 
REMARK    9  A    between atoms: C10_30  and  N9_31 
ROOT
HETATM    1  C3  UNL     1      -1.899  -0.639  -0.380  1.00  0.00     0.106 A 
HETATM    2  C4  UNL     1      -0.700  -1.055   0.172  1.00  0.00     0.127 A 
HETATM    3  N6  UNL     1      -0.751  -2.093   1.048  1.00  0.00    -0.186 N 
ATOM      4  H6  UNL     1       0.111  -2.428   1.479  1.00  0.00     0.184 HD
HETATM    5  C9  UNL     1      -1.920  -2.688   1.358  1.00  0.00     0.678 A 
HETATM    6  N8  UNL     1      -3.074  -2.284   0.818  1.00  0.00    -0.175 N 
ATOM      7  H8  UNL     1      -3.943  -2.754   1.070  1.00  0.00     0.186 HD
HETATM    8  C10 UNL     1      -3.097  -1.263  -0.054  1.00  0.00     0.143 A 
ENDROOT
BRANCH   2   9
HETATM    9  C5  UNL     1       0.578  -0.509  -0.171  1.00  0.00     0.198 C 
HETATM   10  O2  UNL     1       0.668   0.372  -1.039  1.00  0.00    -0.289 OA
BRANCH   9  11
HETATM   11  C6  UNL     1       1.795  -0.981   0.497  1.00  0.00     0.239 C 
BRANCH  11  12
HETATM   12  N2  UNL     1       2.997  -0.332   0.039  1.00  0.00    -0.233 N 
HETATM   13  N3  UNL     1       3.706  -0.822  -0.985  1.00  0.00    -0.288 N 
HETATM   14  C7  UNL     1       4.770  -0.025  -1.198  1.00  0.00     0.228 A 
ATOM     15  H3  UNL     1       3.478  -1.662  -1.517  1.00  0.00     0.188 HD
HETATM   16  N4  UNL     1       4.704   0.963  -0.290  1.00  0.00    -0.205 N 
HETATM   17  C8  UNL     1       3.611   0.781   0.479  1.00  0.00     0.363 A 
HETATM   18  O3  UNL     1       3.188   1.467   1.429  1.00  0.00    -0.243 OA
BRANCH  16  19
HETATM   19  N5  UNL     1       5.585   2.033  -0.112  1.00  0.00    -0.334 N 
ATOM     20  H52 UNL     1       6.412   2.171  -0.694  1.00  0.00     0.177 HD
ATOM     21  H51 UNL     1       5.535   2.783   0.577  1.00  0.00     0.177 HD
ENDBRANCH  16  19
ENDBRANCH  11  12
ENDBRANCH   9  11
ENDBRANCH   2   9
BRANCH   1  22
HETATM   22  N1  UNL     1      -1.853   0.466  -1.258  1.00  0.00    -0.359 N 
ATOM     23  H1  UNL     1      -1.688   0.301  -2.251  1.00  0.00     0.162 HD
BRANCH  22  24
HETATM   24  C2  UNL     1      -2.030   1.802  -0.801  1.00  0.00     0.213 C 
HETATM   25  C1  UNL     1      -3.371   2.161  -0.244  1.00  0.00     0.063 C 
BRANCH  24  26
HETATM   26  O1  UNL     1      -1.793   2.726  -1.851  1.00  0.00    -0.377 OA
ATOM     27  H1  UNL     1      -0.941   2.498  -2.205  1.00  0.00     0.212 HD
ENDBRANCH  24  26
ENDBRANCH  22  24
ENDBRANCH   1  22
BRANCH   8  28
HETATM   28  N9  UNL     1      -4.202  -0.892  -0.593  1.00  0.00    -0.383 N 
ATOM     29  H92 UNL     1      -4.219  -0.116  -1.255  1.00  0.00     0.157 HD
ATOM     30  H91 UNL     1      -5.081  -1.350  -0.354  1.00  0.00     0.157 HD
ENDBRANCH   8  28
BRANCH   5  31
HETATM   31  N7  UNL     1      -1.884  -3.675   2.204  1.00  0.00    -0.234 N 
ATOM     32  H72 UNL     1      -1.003  -3.983   2.616  1.00  0.00     0.174 HD
ATOM     33  H71 UNL     1      -2.769  -4.125   2.439  1.00  0.00     0.174 HD
ENDBRANCH   5  31
TORSDOF 9
