REMARK  8 active torsions:
REMARK  status: ('A' for Active; 'I' for Inactive)
REMARK    1  A    between atoms: N1_1  and  C1_4 
REMARK    2  A    between atoms: C2_9  and  N4_10 
REMARK    3  A    between atoms: N5_12  and  N6_14 
REMARK    4  A    between atoms: N6_14  and  C3_16 
REMARK    5  A    between atoms: N10_24  and  C6_25 
REMARK    6  A    between atoms: N11_26  and  O1_28 
REMARK    7  A    between atoms: C7_30  and  N12_31 
REMARK    8  A    between atoms: N12_31  and  C8_33 
ROOT
HETATM    1  N4  UNL     1       1.247  -0.257  -0.424  1.00  0.00    -0.267 N 
ATOM      2  H4  UNL     1       1.098  -0.502  -1.403  1.00  0.00     0.190 HD
HETATM    3  N5  UNL     1       0.270   0.225   0.226  1.00  0.00    -0.242 N 
ATOM      4  H5  UNL     1       0.385   0.480   1.207  1.00  0.00     0.208 HD
ENDROOT
BRANCH   1   5
HETATM    5  C2  UNL     1       2.526  -0.474   0.127  1.00  0.00     0.182 A 
HETATM    6  N3  UNL     1       2.717  -1.214   1.252  1.00  0.00    -0.267 N 
HETATM    7  N2  UNL     1       3.949  -1.377   1.716  1.00  0.00    -0.131 N 
ATOM      8  H3  UNL     1       1.923  -1.638   1.733  1.00  0.00     0.189 HD
HETATM    9  C1  UNL     1       5.024  -0.835   1.112  1.00  0.00     0.692 A 
ATOM     10  H2  UNL     1       4.087  -1.933   2.560  1.00  0.00     0.205 HD
HETATM   11  N13 UNL     1       4.845  -0.102  -0.002  1.00  0.00    -0.172 N 
HETATM   12  C7  UNL     1       3.616   0.095  -0.514  1.00  0.00     0.170 A 
ATOM     13  H13 UNL     1       5.654   0.311  -0.466  1.00  0.00     0.186 HD
BRANCH   9  14
HETATM   14  N1  UNL     1       6.231  -1.010   1.588  1.00  0.00    -0.233 N 
ATOM     15  H12 UNL     1       6.367  -1.566   2.433  1.00  0.00     0.174 HD
ATOM     16  H11 UNL     1       7.045  -0.600   1.131  1.00  0.00     0.174 HD
ENDBRANCH   9  14
BRANCH  12  17
HETATM   17  N12 UNL     1       3.420   0.795  -1.581  1.00  0.00    -0.317 N 
ATOM     18  H12 UNL     1       2.481   0.933  -1.955  1.00  0.00     0.169 HD
BRANCH  17  19
HETATM   19  C8  UNL     1       4.554   1.366  -2.217  1.00  0.00     0.354 C 
HETATM   20  O2  UNL     1       5.291   0.613  -2.901  1.00  0.00    -0.283 OA
ENDBRANCH  17  19
ENDBRANCH  12  17
ENDBRANCH   1   5
BRANCH   3  21
HETATM   21  N6  UNL     1      -0.952   0.404  -0.399  1.00  0.00    -0.281 N 
ATOM     22  H6  UNL     1      -0.968   0.452  -1.418  1.00  0.00     0.186 HD
BRANCH  21  23
HETATM   23  C3  UNL     1      -2.207   0.527   0.308  1.00  0.00     0.311 C 
HETATM   24  N7  UNL     1      -2.498  -0.645   1.107  1.00  0.00    -0.326 N 
HETATM   25  C4  UNL     1      -3.163  -1.726   0.504  1.00  0.00     0.188 C 
ATOM     26  H7  UNL     1      -2.225  -0.685   2.089  1.00  0.00     0.166 HD
HETATM   27  N8  UNL     1      -3.224  -2.985   1.184  1.00  0.00    -0.064 NA
HETATM   28  N9  UNL     1      -3.713  -1.609  -0.635  1.00  0.00    -0.348 N 
HETATM   29  C5  UNL     1      -3.722  -0.398  -1.422  1.00  0.00     0.253 C 
ATOM     30  H9  UNL     1      -4.182  -2.429  -1.021  1.00  0.00     0.163 HD
HETATM   31  N10 UNL     1      -3.317   0.720  -0.597  1.00  0.00    -0.320 N 
BRANCH  31  32
HETATM   32  C6  UNL     1      -3.953   1.983  -0.639  1.00  0.00     0.206 C 
HETATM   33  N11 UNL     1      -4.390   2.503   0.436  1.00  0.00    -0.265 N 
ATOM     34  H11 UNL     1      -4.260   1.976   1.300  1.00  0.00     0.194 HD
BRANCH  33  35
HETATM   35  O1  UNL     1      -5.018   3.708   0.524  1.00  0.00    -0.289 OA
ATOM     36  H1  UNL     1      -5.344   4.096   1.327  1.00  0.00     0.244 HD
ENDBRANCH  33  35
ENDBRANCH  31  32
ENDBRANCH  21  23
ENDBRANCH   3  21
TORSDOF 8
