REMARK  9 active torsions:
REMARK  status: ('A' for Active; 'I' for Inactive)
REMARK    1  A    between atoms: C2_2  and  O1_3 
REMARK    2  A    between atoms: C2_2  and  C3_5 
REMARK    3  A    between atoms: C2_2  and  C10_30 
REMARK    4  A    between atoms: C3_5  and  C4_6 
REMARK    5  A    between atoms: C4_6  and  N1_7 
REMARK    6  A    between atoms: C5_8  and  N2_9 
REMARK    7  A    between atoms: C6_14  and  N4_15 
REMARK    8  A    between atoms: C8_21  and  N7_22 
REMARK    9  A    between atoms: N7_22  and  N8_24 
ROOT
HETATM    1  N1  UNL     1      -0.150  -1.203  -0.418  1.00  0.00    -0.013 N 
HETATM    2  C5  UNL     1      -0.542  -2.167  -1.286  1.00  0.00     0.707 A 
HETATM    3  N3  UNL     1      -1.825  -2.329  -1.648  1.00  0.00    -0.021 N 
ATOM      4  H3  UNL     1      -2.088  -3.064  -2.305  1.00  0.00     0.203 HD
HETATM    5  C6  UNL     1      -2.758  -1.511  -1.134  1.00  0.00     0.713 A 
HETATM    6  N5  UNL     1      -2.398  -0.543  -0.268  1.00  0.00     0.041 N 
HETATM    7  C7  UNL     1      -3.087   0.408   0.398  1.00  0.00     0.203 A 
HETATM    8  N6  UNL     1      -4.490   0.573   0.287  1.00  0.00    -0.077 NA
HETATM    9  C8  UNL     1      -2.226   1.162   1.176  1.00  0.00     0.178 A 
HETATM   10  N9  UNL     1      -1.003   0.636   0.956  1.00  0.00    -0.170 N 
ATOM     11  H9  UNL     1      -0.138   0.966   1.383  1.00  0.00     0.186 HD
HETATM   12  C9  UNL     1      -1.095  -0.390   0.089  1.00  0.00     0.723 A 
ENDROOT
BRANCH   1  13
HETATM   13  C4  UNL     1       1.214  -1.033  -0.036  1.00  0.00     0.170 C 
BRANCH  13  14
HETATM   14  C3  UNL     1       1.971  -0.083  -0.937  1.00  0.00     0.068 C 
BRANCH  14  15
HETATM   15  C2  UNL     1       3.403   0.059  -0.489  1.00  0.00     0.134 C 
HETATM   16  C1  UNL     1       4.142   1.000  -1.386  1.00  0.00     0.056 C 
BRANCH  15  17
HETATM   17  O1  UNL     1       4.077  -1.169  -0.510  1.00  0.00    -0.381 OA
ATOM     18  H1  UNL     1       3.608  -1.767   0.060  1.00  0.00     0.211 HD
ENDBRANCH  15  17
BRANCH  15  19
HETATM   19  C10 UNL     1       3.406   0.521   0.921  1.00  0.00     0.265 C 
HETATM   20  N10 UNL     1       2.787   1.754   1.256  1.00  0.00    -0.059 NA
HETATM   21  O2  UNL     1       3.937  -0.127   1.864  1.00  0.00    -0.273 OA
ENDBRANCH  15  19
ENDBRANCH  14  15
ENDBRANCH  13  14
ENDBRANCH   1  13
BRANCH   2  22
HETATM   22  N2  UNL     1       0.338  -2.941  -1.772  1.00  0.00    -0.233 N 
ATOM     23  H22 UNL     1       1.313  -2.818  -1.497  1.00  0.00     0.174 HD
ATOM     24  H21 UNL     1       0.043  -3.667  -2.425  1.00  0.00     0.174 HD
ENDBRANCH   2  22
BRANCH   5  25
HETATM   25  N4  UNL     1      -4.001  -1.605  -1.431  1.00  0.00    -0.233 N 
ATOM     26  H42 UNL     1      -4.273  -2.338  -2.086  1.00  0.00     0.174 HD
ATOM     27  H41 UNL     1      -4.710  -0.984  -1.041  1.00  0.00     0.174 HD
ENDBRANCH   5  25
BRANCH   9  28
HETATM   28  N7  UNL     1      -2.589   2.252   2.016  1.00  0.00    -0.289 N 
ATOM     29  H7  UNL     1      -2.587   3.186   1.606  1.00  0.00     0.188 HD
BRANCH  28  30
HETATM   30  N8  UNL     1      -2.943   2.138   3.344  1.00  0.00    -0.344 N 
ATOM     31  H82 UNL     1      -2.939   1.197   3.737  1.00  0.00     0.176 HD
ATOM     32  H81 UNL     1      -3.203   2.919   3.946  1.00  0.00     0.176 HD
ENDBRANCH  28  30
ENDBRANCH   9  28
TORSDOF 9
