REMARK  12 active torsions:
REMARK  status: ('A' for Active; 'I' for Inactive)
REMARK       I    between atoms: C1_4  and  N3_6 
REMARK    1  A    between atoms: N3_6  and  C2_8 
REMARK    2  A    between atoms: C2_8  and  C3_9 
REMARK    3  A    between atoms: C3_9  and  C4_10 
REMARK    4  A    between atoms: C4_10  and  N4_11 
REMARK    5  A    between atoms: N4_11  and  C5_12 
REMARK    6  A    between atoms: C5_12  and  C6_13 
REMARK       I    between atoms: C6_13  and  N5_15 
REMARK    7  A    between atoms: N5_15  and  C7_17 
REMARK    8  A    between atoms: C7_17  and  C8_18 
REMARK    9  A    between atoms: C8_18  and  C9_19 
REMARK   10  A    between atoms: C9_19  and  N6_20 
REMARK   11  A    between atoms: N6_20  and  C10_22 
REMARK   12  A    between atoms: N7_23  and  N8_25 
ROOT
HETATM    1  C5  UNL     1       0.125  -1.237  -0.168  1.00  0.00     0.349 C 
ENDROOT
BRANCH   1   2
HETATM    2  N4  UNL     1      -1.194  -0.951  -0.728  1.00  0.00     0.004 N 
HETATM    3  C11 UNL     1      -1.728  -2.177  -1.261  1.00  0.00     0.257 A 
HETATM    4  C12 UNL     1      -1.627  -1.640  -2.626  1.00  0.00     0.140 A 
HETATM    5  C13 UNL     1      -1.193  -0.381  -1.988  1.00  0.00     0.320 A 
HETATM    6  O2  UNL     1      -0.958   0.704  -2.556  1.00  0.00    -0.265 OA
BRANCH   2   7
HETATM    7  C4  UNL     1      -2.050  -0.469   0.308  1.00  0.00     0.249 C 
BRANCH   7   8
HETATM    8  C3  UNL     1      -2.911   0.696   0.081  1.00  0.00     0.048 C 
BRANCH   8   9
HETATM    9  C2  UNL     1      -3.995   0.611  -0.941  1.00  0.00     0.124 C 
BRANCH   9  10
HETATM   10  N3  UNL     1      -4.963  -0.435  -0.626  1.00  0.00    -0.365 N 
HETATM   11  C1  UNL     1      -5.807  -0.280   0.498  1.00  0.00     0.181 C 
HETATM   12  N1  UNL     1      -6.249  -1.314   1.144  1.00  0.00    -0.374 N 
HETATM   13  N2  UNL     1      -6.202   0.998   0.973  1.00  0.00    -0.064 NA
ATOM     14  H12 UNL     1      -6.858  -1.202   1.955  1.00  0.00     0.158 HD
ATOM     15  H11 UNL     1      -5.965  -2.232   0.803  1.00  0.00     0.158 HD
ATOM     16  H3  UNL     1      -5.030  -1.269  -1.210  1.00  0.00     0.162 HD
ENDBRANCH   9  10
ENDBRANCH   8   9
ENDBRANCH   7   8
ENDBRANCH   2   7
ENDBRANCH   1   2
BRANCH   1  17
HETATM   17  C6  UNL     1       0.837  -0.108   0.396  1.00  0.00     0.244 C 
HETATM   18  O1  UNL     1       0.419   1.071   0.435  1.00  0.00    -0.272 OA
HETATM   19  N5  UNL     1       2.130  -0.313   0.968  1.00  0.00    -0.360 N 
ATOM     20  H5  UNL     1       2.521  -1.255   0.957  1.00  0.00     0.162 HD
BRANCH  19  21
HETATM   21  C7  UNL     1       2.910   0.746   1.560  1.00  0.00     0.124 C 
BRANCH  21  22
HETATM   22  C8  UNL     1       3.263   1.880   0.675  1.00  0.00     0.039 C 
BRANCH  22  23
HETATM   23  C9  UNL     1       4.083   1.549  -0.530  1.00  0.00     0.122 C 
BRANCH  23  24
HETATM   24  N6  UNL     1       5.370   0.993  -0.283  1.00  0.00    -0.385 N 
ATOM     25  H6  UNL     1       6.167   1.594  -0.494  1.00  0.00     0.160 HD
BRANCH  24  26
HETATM   26  C10 UNL     1       5.673  -0.279   0.215  1.00  0.00     0.192 C 
HETATM   27  N7  UNL     1       6.491  -0.530   1.176  1.00  0.00    -0.303 N 
ATOM     28  H7  UNL     1       6.636  -1.501   1.453  1.00  0.00     0.187 HD
BRANCH  27  29
HETATM   29  N8  UNL     1       7.185   0.464   1.852  1.00  0.00    -0.344 N 
ATOM     30  H82 UNL     1       7.028   1.429   1.562  1.00  0.00     0.176 HD
ATOM     31  H81 UNL     1       7.833   0.265   2.614  1.00  0.00     0.176 HD
ENDBRANCH  27  29
ENDBRANCH  24  26
ENDBRANCH  23  24
ENDBRANCH  22  23
ENDBRANCH  21  22
ENDBRANCH  19  21
ENDBRANCH   1  17
TORSDOF 12
