REMARK  12 active torsions:
REMARK  status: ('A' for Active; 'I' for Inactive)
REMARK    1  A    between atoms: N2_5  and  C4_6 
REMARK    2  A    between atoms: C4_6  and  C5_7 
REMARK    3  A    between atoms: C5_7  and  N3_8 
REMARK    4  A    between atoms: N3_8  and  S1_10 
REMARK    5  A    between atoms: S1_10  and  N4_13 
REMARK    6  A    between atoms: N4_13  and  C6_15 
REMARK    7  A    between atoms: C6_15  and  C7_16 
REMARK    8  A    between atoms: C6_15  and  C9_22 
REMARK    9  A    between atoms: C7_16  and  C8_17 
REMARK   10  A    between atoms: C8_17  and  N5_18 
REMARK   11  A    between atoms: C9_22  and  N6_23 
REMARK   12  A    between atoms: N6_23  and  N7_24 
ROOT
HETATM    1  S1  UNL     1      -1.710  -1.426  -0.595  1.00  0.00     0.315 S 
HETATM    2  O1  UNL     1      -2.293  -2.301  -1.656  1.00  0.00    -0.183 OA
HETATM    3  O2  UNL     1      -1.428  -2.395   0.621  1.00  0.00    -0.183 OA
ENDROOT
BRANCH   1   4
HETATM    4  N3  UNL     1      -0.110  -1.003  -1.090  1.00  0.00    -0.301 N 
ATOM      5  H3  UNL     1       0.334  -1.286  -1.964  1.00  0.00     0.173 HD
BRANCH   4   6
HETATM    6  C5  UNL     1       0.499  -0.184  -0.067  1.00  0.00     0.161 C 
BRANCH   6   7
HETATM    7  C4  UNL     1       1.881  -0.800   0.102  1.00  0.00     0.260 C 
BRANCH   7   8
HETATM    8  N2  UNL     1       2.970  -0.015  -0.096  1.00  0.00    -0.038 N 
HETATM    9  C3  UNL     1       2.968   1.266   0.553  1.00  0.00     0.267 C 
HETATM   10  C2  UNL     1       4.441   1.650   0.430  1.00  0.00     0.267 C 
HETATM   11  N1  UNL     1       5.100   0.458  -0.029  1.00  0.00    -0.043 N 
HETATM   12  C1  UNL     1       6.444   0.294   0.387  1.00  0.00     0.274 C 
HETATM   13  C11 UNL     1       4.866   0.337  -1.442  1.00  0.00     0.267 C 
HETATM   14  C12 UNL     1       4.197  -0.578   0.478  1.00  0.00     0.472 C 
HETATM   15  C10 UNL     1       3.360   0.097  -1.479  1.00  0.00     0.267 C 
ENDBRANCH   7   8
ENDBRANCH   6   7
ENDBRANCH   4   6
ENDBRANCH   1   4
BRANCH   1  16
HETATM   16  N4  UNL     1      -2.706  -0.244  -0.000  1.00  0.00    -0.297 N 
ATOM     17  H4  UNL     1      -2.403   0.447   0.687  1.00  0.00     0.174 HD
BRANCH  16  18
HETATM   18  C6  UNL     1      -4.036  -0.281  -0.540  1.00  0.00     0.112 C 
BRANCH  18  19
HETATM   19  C7  UNL     1      -4.639   1.086  -0.430  1.00  0.00     0.054 C 
BRANCH  19  20
HETATM   20  C8  UNL     1      -3.590   2.123  -0.746  1.00  0.00     0.231 C 
BRANCH  20  21
HETATM   21  N5  UNL     1      -4.208   3.425  -0.509  1.00  0.00    -0.079 N 
ATOM     22  H53 UNL     1      -5.077   3.559  -1.026  1.00  0.00     0.274 HD
ATOM     23  H52 UNL     1      -4.601   3.521   0.427  1.00  0.00     0.274 HD
ATOM     24  H51 UNL     1      -3.499   4.126  -0.723  1.00  0.00     0.274 HD
ENDBRANCH  20  21
ENDBRANCH  19  20
ENDBRANCH  18  19
BRANCH  18  25
HETATM   25  C9  UNL     1      -4.952  -1.200   0.304  1.00  0.00     0.160 C 
BRANCH  25  26
HETATM   26  N6  UNL     1      -4.694  -2.598   0.113  1.00  0.00    -0.146 NA
BRANCH  26  27
HETATM   27  N7  UNL     1      -5.922  -3.304  -0.007  1.00  0.00    -0.348 N 
ATOM     28  H72 UNL     1      -6.842  -2.867   0.038  1.00  0.00     0.172 HD
ATOM     29  H71 UNL     1      -5.739  -4.298  -0.143  1.00  0.00     0.172 HD
ENDBRANCH  26  27
ENDBRANCH  25  26
ENDBRANCH  18  25
ENDBRANCH  16  18
ENDBRANCH   1  16
TORSDOF 12
