REMARK  12 active torsions:
REMARK  status: ('A' for Active; 'I' for Inactive)
REMARK    1  A    between atoms: C2_2  and  C4_4 
REMARK    2  A    between atoms: C4_4  and  N1_5 
REMARK       I    between atoms: N1_5  and  C5_6 
REMARK    3  A    between atoms: N1_5  and  C25_37 
REMARK    4  A    between atoms: C5_6  and  O2_8 
REMARK    5  A    between atoms: O2_8  and  C6_9 
REMARK    6  A    between atoms: C10_13  and  N2_14 
REMARK       I    between atoms: N2_14  and  C11_16 
REMARK    7  A    between atoms: C11_16  and  O4_18 
REMARK    8  A    between atoms: O4_18  and  C12_19 
REMARK    9  A    between atoms: C16_23  and  N3_24 
REMARK       I    between atoms: N3_24  and  C17_26 
REMARK   10  A    between atoms: C17_26  and  C18_28 
REMARK   11  A    between atoms: C24_34  and  O6_35 
REMARK   12  A    between atoms: C28_40  and  C29_41 
ROOT
HETATM    1  C6  UNL     1      -3.052  -2.212   1.560  1.00  0.00     0.156 C 
HETATM    2  C7  UNL     1      -3.663  -3.480   2.166  1.00  0.00     0.035 C 
HETATM    3  C8  UNL     1      -2.598  -4.542   2.026  1.00  0.00     0.005 C 
HETATM    4  C9  UNL     1      -1.320  -3.717   2.241  1.00  0.00     0.028 C 
HETATM    5  C10 UNL     1      -1.634  -2.556   1.278  1.00  0.00     0.116 C 
ENDROOT
BRANCH   5   6
HETATM    6  N2  UNL     1      -0.681  -1.510   1.588  1.00  0.00    -0.330 N 
HETATM    7  C11 UNL     1       0.378  -1.205   0.670  1.00  0.00     0.361 C 
HETATM    8  O3  UNL     1       0.467  -1.858  -0.402  1.00  0.00    -0.238 OA
ATOM      9  H2  UNL     1      -0.763  -0.989   2.461  1.00  0.00     0.165 HD
BRANCH   7  10
HETATM   10  O4  UNL     1       1.324  -0.221   0.895  1.00  0.00    -0.296 OA
BRANCH  10  11
HETATM   11  C12 UNL     1       2.355   0.049  -0.030  1.00  0.00     0.164 C 
HETATM   12  C13 UNL     1       2.247   1.414  -0.646  1.00  0.00     0.035 C 
HETATM   13  C14 UNL     1       3.039   1.376  -1.953  1.00  0.00     0.005 C 
HETATM   14  C15 UNL     1       4.393   0.780  -1.698  1.00  0.00     0.028 C 
HETATM   15  C16 UNL     1       4.723   0.707  -0.224  1.00  0.00     0.115 C 
HETATM   16  C24 UNL     1       3.724  -0.127   0.538  1.00  0.00     0.170 C 
BRANCH  15  17
HETATM   17  N3  UNL     1       6.086   0.282  -0.051  1.00  0.00    -0.354 N 
HETATM   18  C17 UNL     1       7.087   1.118   0.525  1.00  0.00     0.222 C 
HETATM   19  O5  UNL     1       6.762   2.288   0.902  1.00  0.00    -0.273 OA
ATOM     20  H3  UNL     1       6.347  -0.657  -0.353  1.00  0.00     0.163 HD
BRANCH  18  21
HETATM   21  C18 UNL     1       8.483   0.697   0.707  1.00  0.00     0.078 C 
HETATM   22  C19 UNL     1       9.320   1.773   1.330  1.00  0.00     0.014 C 
HETATM   23  C20 UNL     1      10.351   2.340   0.367  1.00  0.00     0.001 C 
HETATM   24  C21 UNL     1      11.312   1.276  -0.114  1.00  0.00     0.000 C 
HETATM   25  C22 UNL     1      10.541  -0.011  -0.382  1.00  0.00     0.001 C 
HETATM   26  C23 UNL     1       9.090   0.327  -0.632  1.00  0.00     0.014 C 
ENDBRANCH  18  21
ENDBRANCH  15  17
BRANCH  16  27
HETATM   27  O6  UNL     1       4.146  -1.469   0.394  1.00  0.00    -0.391 OA
ATOM     28  H6  UNL     1       5.017  -1.581   0.756  1.00  0.00     0.210 HD
ENDBRANCH  16  27
ENDBRANCH  10  11
ENDBRANCH   7  10
ENDBRANCH   5   6
BRANCH   1  29
HETATM   29  O2  UNL     1      -3.825  -1.870   0.430  1.00  0.00    -0.296 OA
BRANCH  29  30
HETATM   30  C5  UNL     1      -4.591  -0.707   0.378  1.00  0.00     0.368 C 
HETATM   31  N1  UNL     1      -5.384  -0.297  -0.707  1.00  0.00    -0.290 N 
HETATM   32  O1  UNL     1      -4.536   0.001   1.412  1.00  0.00    -0.238 OA
BRANCH  31  33
HETATM   33  C4  UNL     1      -5.378  -1.085  -1.909  1.00  0.00     0.138 C 
BRANCH  33  34
HETATM   34  C2  UNL     1      -6.388  -2.166  -2.002  1.00  0.00    -0.004 C 
HETATM   35  C1  UNL     1      -7.818  -1.679  -1.927  1.00  0.00     0.011 C 
HETATM   36  C3  UNL     1      -6.197  -3.306  -1.036  1.00  0.00     0.011 C 
ENDBRANCH  33  34
ENDBRANCH  31  33
BRANCH  31  37
HETATM   37  C25 UNL     1      -6.146   0.874  -0.603  1.00  0.00     0.078 A 
HETATM   38  C26 UNL     1      -5.913   1.907  -1.486  1.00  0.00     0.034 A 
HETATM   39  C27 UNL     1      -6.611   3.087  -1.457  1.00  0.00     0.017 A 
HETATM   40  C28 UNL     1      -7.608   3.288  -0.506  1.00  0.00     0.008 A 
HETATM   41  C30 UNL     1      -7.853   2.273   0.379  1.00  0.00     0.059 A 
HETATM   42  C31 UNL     1      -7.132   1.087   0.328  1.00  0.00     0.144 A 
HETATM   43  F1  UNL     1      -7.399   0.115   1.213  1.00  0.00    -0.204 F 
BRANCH  40  44
HETATM   44  C29 UNL     1      -8.338   4.561  -0.498  1.00  0.00     0.120 C 
HETATM   45  N4  UNL     1      -9.250   4.759   0.363  1.00  0.00    -0.387 N 
ATOM     46  H42 UNL     1      -9.471   4.033   1.045  1.00  0.00     0.157 HD
ATOM     47  H41 UNL     1      -9.757   5.644   0.369  1.00  0.00     0.157 HD
HETATM   48  N5  UNL     1      -8.032   5.566  -1.442  1.00  0.00    -0.082 NA
ENDBRANCH  40  44
ENDBRANCH  31  37
ENDBRANCH  29  30
ENDBRANCH   1  29
TORSDOF 12
