REMARK  5 active torsions:
REMARK  status: ('A' for Active; 'I' for Inactive)
REMARK    1  A    between atoms: C2_2  and  N1_3 
REMARK    2  A    between atoms: C3_4  and  S1_5 
REMARK    3  A    between atoms: S1_5  and  C4_6 
REMARK    4  A    between atoms: C4_6  and  C5_7 
REMARK       I    between atoms: C5_7  and  N2_9 
REMARK    5  A    between atoms: N2_9  and  C6_11 
ROOT
HETATM    1  S1  UNL     1      -1.748   0.818  -1.142  1.00  0.00    -0.103 SA
ENDROOT
BRANCH   1   2
HETATM    2  C3  UNL     1      -3.274   0.187  -0.490  1.00  0.00     0.075 A 
HETATM    3  N1  UNL     1      -3.906   1.070   0.363  1.00  0.00    -0.308 N 
HETATM    4  C18 UNL     1      -5.079   0.686   0.860  1.00  0.00     0.266 A 
HETATM    5  C17 UNL     1      -5.629  -0.547   0.527  1.00  0.00     0.083 A 
HETATM    6  O2  UNL     1      -5.709   1.452   1.649  1.00  0.00    -0.266 OA
HETATM    7  C14 UNL     1      -5.029  -1.437  -0.312  1.00  0.00    -0.010 A 
HETATM    8  S2  UNL     1      -7.076  -1.324   0.958  1.00  0.00    -0.096 SA
HETATM    9  C13 UNL     1      -3.779  -1.020  -0.834  1.00  0.00     0.050 A 
HETATM   10  C15 UNL     1      -5.687  -2.596  -0.554  1.00  0.00     0.020 A 
HETATM   11  C16 UNL     1      -6.896  -2.767   0.066  1.00  0.00     0.051 A 
BRANCH   3  12
HETATM   12  C2  UNL     1      -3.290   2.348   0.671  1.00  0.00     0.128 C 
HETATM   13  C1  UNL     1      -3.723   3.406  -0.301  1.00  0.00     0.027 C 
ENDBRANCH   3  12
ENDBRANCH   1   2
BRANCH   1  14
HETATM   14  C4  UNL     1      -0.384   0.435  -0.058  1.00  0.00     0.183 C 
BRANCH  14  15
HETATM   15  C5  UNL     1       0.662  -0.447  -0.640  1.00  0.00     0.227 C 
HETATM   16  O1  UNL     1       0.415  -1.067  -1.687  1.00  0.00    -0.273 OA
HETATM   17  N2  UNL     1       1.893  -0.500   0.049  1.00  0.00    -0.356 N 
ATOM     18  H2  UNL     1       1.994   0.018   0.922  1.00  0.00     0.162 HD
BRANCH  17  19
HETATM   19  C6  UNL     1       3.026  -1.274  -0.451  1.00  0.00     0.084 C 
HETATM   20  C7  UNL     1       3.762  -0.257  -1.344  1.00  0.00     0.025 C 
HETATM   21  C8  UNL     1       4.005   1.002  -0.601  1.00  0.00     0.002 C 
HETATM   22  C9  UNL     1       5.373   1.042   0.056  1.00  0.00     0.000 C 
HETATM   23  C10 UNL     1       5.479   0.002   1.138  1.00  0.00     0.000 C 
HETATM   24  C11 UNL     1       5.325  -1.397   0.595  1.00  0.00     0.002 C 
HETATM   25  C12 UNL     1       3.879  -1.826   0.609  1.00  0.00     0.025 C 
ENDBRANCH  17  19
ENDBRANCH  14  15
ENDBRANCH   1  14
TORSDOF 5
