REMARK  20 active torsions:
REMARK  status: ('A' for Active; 'I' for Inactive)
REMARK    1  A    between atoms: C2_3  and  O1_4 
REMARK    2  A    between atoms: C3_6  and  C4_7 
REMARK    3  A    between atoms: C4_7  and  C5_8 
REMARK    4  A    between atoms: C7_15  and  O3_16 
REMARK    5  A    between atoms: C9_19  and  C10_20 
REMARK    6  A    between atoms: C10_20  and  O5_22 
REMARK    7  A    between atoms: O5_22  and  C11_23 
REMARK    8  A    between atoms: C12_25  and  C13_26 
REMARK    9  A    between atoms: C13_26  and  N4_27 
REMARK   10  A    between atoms: C15_29  and  C16_30 
REMARK   11  A    between atoms: C16_30  and  N5_31 
REMARK       I    between atoms: N5_31  and  C17_33 
REMARK   12  A    between atoms: C17_33  and  O8_35 
REMARK   13  A    between atoms: O8_35  and  C18_36 
REMARK   14  A    between atoms: C22_45  and  C23_46 
REMARK   15  A    between atoms: C23_46  and  O10_47 
REMARK   16  A    between atoms: C23_46  and  C24_49 
REMARK   17  A    between atoms: C24_49  and  C25_50 
REMARK   18  A    between atoms: C24_49  and  C26_53 
REMARK   19  A    between atoms: C25_50  and  O11_51 
REMARK   20  A    between atoms: C26_53  and  O12_54 
ROOT
HETATM    1  C11 UNL     1      -0.922  -0.304   1.249  1.00  0.00     0.426 C 
HETATM    2  O6  UNL     1      -0.009   0.673   0.899  1.00  0.00    -0.306 OA
HETATM    3  C12 UNL     1       0.806   0.388  -0.154  1.00  0.00     0.288 C 
HETATM    4  O9  UNL     1       0.080  -0.035  -1.270  1.00  0.00    -0.327 OA
HETATM    5  C22 UNL     1      -1.141  -0.547  -0.956  1.00  0.00     0.297 C 
HETATM    6  O13 UNL     1      -0.997  -1.267   0.247  1.00  0.00    -0.305 OA
ENDROOT
BRANCH   1   7
HETATM    7  O5  UNL     1      -2.234   0.210   1.392  1.00  0.00    -0.261 OA
BRANCH   7   8
HETATM    8  C10 UNL     1      -2.997   0.193   2.514  1.00  0.00     0.302 C 
HETATM    9  O4  UNL     1      -2.486  -0.338   3.559  1.00  0.00    -0.259 OA
BRANCH   8  10
HETATM   10  C9  UNL     1      -4.351   0.723   2.654  1.00  0.00     0.108 A 
HETATM   11  C8  UNL     1      -5.044   1.227   1.571  1.00  0.00     0.035 A 
HETATM   12  C3  UNL     1      -6.307   1.700   1.763  1.00  0.00    -0.000 A 
HETATM   13  C2  UNL     1      -6.863   1.670   3.015  1.00  0.00     0.151 A 
HETATM   14  N1  UNL     1      -6.204   1.186   4.064  1.00  0.00    -0.298 N 
HETATM   15  C1  UNL     1      -6.783   1.148   5.402  1.00  0.00     0.161 C 
HETATM   16  C27 UNL     1      -4.967   0.722   3.879  1.00  0.00     0.265 A 
HETATM   17  O14 UNL     1      -4.351   0.263   4.897  1.00  0.00    -0.267 OA
BRANCH  12  18
HETATM   18  C4  UNL     1      -7.131   2.262   0.673  1.00  0.00     0.104 C 
BRANCH  18  19
HETATM   19  C5  UNL     1      -6.537   2.163  -0.657  1.00  0.00     0.069 A 
HETATM   20  N2  UNL     1      -5.958   3.160  -1.339  1.00  0.00    -0.308 N 
HETATM   21  C6  UNL     1      -5.536   2.665  -2.530  1.00  0.00     0.326 A 
ATOM     22  H2  UNL     1      -5.853   4.123  -1.019  1.00  0.00     0.170 HD
HETATM   23  O2  UNL     1      -4.945   3.303  -3.441  1.00  0.00    -0.247 OA
HETATM   24  N3  UNL     1      -5.854   1.361  -2.587  1.00  0.00    -0.287 N 
HETATM   25  C7  UNL     1      -6.474   1.034  -1.434  1.00  0.00     0.167 A 
ATOM     26  H3  UNL     1      -5.661   0.730  -3.365  1.00  0.00     0.172 HD
BRANCH  25  27
HETATM   27  O3  UNL     1      -6.933  -0.250  -1.172  1.00  0.00    -0.345 OA
ATOM     28  H3  UNL     1      -6.889  -1.032  -1.710  1.00  0.00     0.219 HD
ENDBRANCH  25  27
ENDBRANCH  18  19
ENDBRANCH  12  18
BRANCH  13  29
HETATM   29  O1  UNL     1      -8.162   2.152   3.231  1.00  0.00    -0.345 OA
ATOM     30  H1  UNL     1      -8.633   2.498   2.482  1.00  0.00     0.219 HD
ENDBRANCH  13  29
ENDBRANCH   8  10
ENDBRANCH   7   8
ENDBRANCH   1   7
BRANCH   3  31
HETATM   31  C13 UNL     1       1.892  -0.604   0.087  1.00  0.00     0.210 C 
BRANCH  31  32
HETATM   32  N4  UNL     1       2.836  -0.270   1.113  1.00  0.00    -0.282 N 
HETATM   33  C14 UNL     1       3.968   0.449   0.897  1.00  0.00     0.140 A 
HETATM   34  C15 UNL     1       4.624   0.538   2.081  1.00  0.00     0.062 A 
HETATM   35  N6  UNL     1       3.838  -0.145   2.968  1.00  0.00    -0.287 N 
HETATM   36  N7  UNL     1       2.771  -0.623   2.378  1.00  0.00    -0.241 N 
ATOM     37  H6  UNL     1       4.054  -0.266   3.957  1.00  0.00     0.188 HD
ATOM     38  H7  UNL     1       2.029  -1.167   2.817  1.00  0.00     0.208 HD
BRANCH  34  39
HETATM   39  C16 UNL     1       5.908   1.193   2.449  1.00  0.00     0.185 C 
BRANCH  39  40
HETATM   40  N5  UNL     1       7.005   0.323   2.132  1.00  0.00    -0.331 N 
HETATM   41  C17 UNL     1       7.505   0.272   0.809  1.00  0.00     0.361 C 
HETATM   42  O7  UNL     1       7.048   0.964  -0.127  1.00  0.00    -0.238 OA
ATOM     43  H5  UNL     1       7.423  -0.257   2.859  1.00  0.00     0.165 HD
BRANCH  41  44
HETATM   44  O8  UNL     1       8.557  -0.579   0.485  1.00  0.00    -0.294 OA
BRANCH  44  45
HETATM   45  C18 UNL     1       9.045  -0.614  -0.834  1.00  0.00     0.061 C 
HETATM   46  C19 UNL     1      10.179  -1.610  -0.987  1.00  0.00     0.046 C 
HETATM   47  C20 UNL     1       8.007  -0.871  -1.878  1.00  0.00     0.046 C 
HETATM   48  C21 UNL     1       9.655   0.745  -1.138  1.00  0.00     0.046 C 
ENDBRANCH  44  45
ENDBRANCH  41  44
ENDBRANCH  39  40
ENDBRANCH  34  39
ENDBRANCH  31  32
ENDBRANCH   3  31
BRANCH   5  49
HETATM   49  C23 UNL     1      -1.859  -1.321  -1.993  1.00  0.00     0.181 C 
BRANCH  49  50
HETATM   50  O10 UNL     1      -3.091  -1.705  -1.385  1.00  0.00    -0.390 OA
ATOM     51  H10 UNL     1      -3.552  -2.202  -2.051  1.00  0.00     0.210 HD
ENDBRANCH  49  50
BRANCH  49  52
HETATM   52  C24 UNL     1      -1.249  -2.593  -2.452  1.00  0.00     0.066 C 
BRANCH  52  53
HETATM   53  C25 UNL     1       0.107  -2.511  -3.069  1.00  0.00     0.173 C 
BRANCH  53  54
HETATM   54  O11 UNL     1       0.159  -1.712  -4.205  1.00  0.00    -0.400 OA
ATOM     55  H11 UNL     1       1.022  -1.660  -4.598  1.00  0.00     0.209 HD
ENDBRANCH  53  54
ENDBRANCH  52  53
BRANCH  52  56
HETATM   56  C26 UNL     1      -2.174  -3.168  -3.534  1.00  0.00     0.173 C 
BRANCH  56  57
HETATM   57  O12 UNL     1      -2.221  -2.200  -4.557  1.00  0.00    -0.400 OA
ATOM     58  H12 UNL     1      -2.793  -2.556  -5.227  1.00  0.00     0.209 HD
ENDBRANCH  56  57
ENDBRANCH  52  56
ENDBRANCH  49  52
ENDBRANCH   5  49
TORSDOF 20
