REMARK  12 active torsions:
REMARK  status: ('A' for Active; 'I' for Inactive)
REMARK    1  A    between atoms: N1_1  and  C1_4 
REMARK    2  A    between atoms: C4_9  and  N3_10 
REMARK    3  A    between atoms: N3_10  and  C5_12 
REMARK    4  A    between atoms: C5_12  and  C6_13 
REMARK    5  A    between atoms: C6_13  and  N4_14 
REMARK    6  A    between atoms: N4_14  and  C7_17 
REMARK    7  A    between atoms: C7_17  and  C8_18 
REMARK    8  A    between atoms: C8_18  and  O1_19 
REMARK    9  A    between atoms: O1_19  and  C9_20 
REMARK   10  A    between atoms: C9_20  and  C10_21 
REMARK   11  A    between atoms: C10_21  and  N5_22 
REMARK   12  A    between atoms: N5_22  and  C11_24 
ROOT
HETATM    1  N4  UNL     1      -0.446  -0.974   0.465  1.00  0.00    -0.072 N 
ATOM      2  H41 UNL     1       0.019  -1.849   0.223  1.00  0.00     0.277 HD
ATOM      3  H42 UNL     1      -0.753  -1.222   1.405  1.00  0.00     0.277 HD
ENDROOT
BRANCH   1   4
HETATM    4  C6  UNL     1      -1.556  -0.697  -0.407  1.00  0.00     0.251 C 
BRANCH   4   5
HETATM    5  C5  UNL     1      -2.400   0.397   0.190  1.00  0.00     0.148 C 
BRANCH   5   6
HETATM    6  N3  UNL     1      -3.491   0.712  -0.670  1.00  0.00    -0.374 N 
ATOM      7  H3  UNL     1      -3.259   1.163  -1.555  1.00  0.00     0.161 HD
BRANCH   6   8
HETATM    8  C4  UNL     1      -4.701   0.494  -0.454  1.00  0.00     0.118 A 
HETATM    9  C3  UNL     1      -5.252  -0.093   0.652  1.00  0.00     0.066 A 
HETATM   10  C2  UNL     1      -6.625  -0.265   0.784  1.00  0.00     0.110 A 
HETATM   11  N2  UNL     1      -7.430   0.150  -0.188  1.00  0.00    -0.202 N 
HETATM   12  C1  UNL     1      -6.914   0.733  -1.292  1.00  0.00     0.677 A 
ATOM     13  H2  UNL     1      -8.439   0.028  -0.101  1.00  0.00     0.183 HD
HETATM   14  N9  UNL     1      -5.587   0.896  -1.411  1.00  0.00    -0.177 N 
ATOM     15  H9  UNL     1      -5.225   1.340  -2.255  1.00  0.00     0.185 HD
BRANCH  12  16
HETATM   16  N1  UNL     1      -7.700   1.135  -2.227  1.00  0.00    -0.234 N 
ATOM     17  H12 UNL     1      -8.708   1.011  -2.137  1.00  0.00     0.174 HD
ATOM     18  H11 UNL     1      -7.310   1.575  -3.061  1.00  0.00     0.174 HD
ENDBRANCH  12  16
ENDBRANCH   6   8
ENDBRANCH   5   6
ENDBRANCH   4   5
ENDBRANCH   1   4
BRANCH   1  19
HETATM   19  C7  UNL     1       0.477   0.146   0.475  1.00  0.00     0.258 C 
BRANCH  19  20
HETATM   20  C8  UNL     1       1.676  -0.233   1.343  1.00  0.00     0.195 C 
BRANCH  20  21
HETATM   21  O1  UNL     1       2.338  -1.336   0.874  1.00  0.00    -0.388 OA
BRANCH  21  22
HETATM   22  C9  UNL     1       2.845  -1.245  -0.393  1.00  0.00     0.187 C 
BRANCH  22  23
HETATM   23  C10 UNL     1       3.822  -0.117  -0.487  1.00  0.00     0.164 C 
BRANCH  23  24
HETATM   24  N5  UNL     1       4.897  -0.377   0.453  1.00  0.00    -0.223 N 
ATOM     25  H5  UNL     1       4.703  -0.953   1.272  1.00  0.00     0.177 HD
BRANCH  24  26
HETATM   26  C11 UNL     1       6.072   0.085   0.295  1.00  0.00     0.693 A 
HETATM   27  N6  UNL     1       6.577   0.853  -0.680  1.00  0.00    -0.185 N 
HETATM   28  C12 UNL     1       7.877   1.128  -0.467  1.00  0.00     0.215 A 
ATOM     29  H6  UNL     1       6.043   1.187  -1.482  1.00  0.00     0.185 HD
HETATM   30  N7  UNL     1       8.181   0.495   0.698  1.00  0.00    -0.281 N 
HETATM   31  N8  UNL     1       7.110  -0.123   1.150  1.00  0.00    -0.131 N 
ATOM     32  H7  UNL     1       9.095   0.499   1.150  1.00  0.00     0.188 HD
ATOM     33  H8  UNL     1       7.065  -0.673   2.008  1.00  0.00     0.205 HD
ENDBRANCH  24  26
ENDBRANCH  23  24
ENDBRANCH  22  23
ENDBRANCH  21  22
ENDBRANCH  20  21
ENDBRANCH  19  20
ENDBRANCH   1  19
TORSDOF 12
