REMARK  3 active torsions:
REMARK  status: ('A' for Active; 'I' for Inactive)
REMARK    1  A    between atoms: C2_2  and  N1_3 
REMARK    2  A    between atoms: C2_2  and  C3_7 
REMARK    3  A    between atoms: C3_7  and  C5_9 
ROOT
HETATM    1  C3  UNL     1      -0.327  -0.120  -0.471  1.00  0.00     0.032 C 
HETATM    2  C4  UNL     1       0.209  -1.451  -0.869  1.00  0.00     0.014 C 
ENDROOT
BRANCH   1   3
HETATM    3  C2  UNL     1      -1.465  -0.243   0.549  1.00  0.00     0.184 C 
HETATM    4  C1  UNL     1      -2.554  -1.049  -0.105  1.00  0.00     0.040 C 
BRANCH   3   5
HETATM    5  N1  UNL     1      -2.000   1.092   0.781  1.00  0.00    -0.075 N 
ATOM      6  H13 UNL     1      -2.368   1.528  -0.065  1.00  0.00     0.274 HD
ATOM      7  H12 UNL     1      -2.869   1.087   1.314  1.00  0.00     0.274 HD
ATOM      8  H11 UNL     1      -1.262   1.638   1.224  1.00  0.00     0.274 HD
ENDBRANCH   3   5
ENDBRANCH   1   3
BRANCH   1   9
HETATM    9  C5  UNL     1       0.744   0.836   0.067  1.00  0.00     0.094 C 
HETATM   10  C6  UNL     1       1.350   0.431   1.316  1.00  0.00     0.034 C 
HETATM   11  C7  UNL     1       2.836   0.496   1.301  1.00  0.00     0.094 C 
HETATM   12  S1  UNL     1       3.158   0.390  -0.503  1.00  0.00    -0.066 SA
HETATM   13  N2  UNL     1       1.632   1.128  -0.987  1.00  0.00    -0.174 NA
ENDBRANCH   1   9
TORSDOF 3
