REMARK  9 active torsions:
REMARK  status: ('A' for Active; 'I' for Inactive)
REMARK    1  A    between atoms: N1_1  and  C1_4 
REMARK    2  A    between atoms: N3_8  and  C3_10 
REMARK    3  A    between atoms: C3_10  and  N4_11 
REMARK    4  A    between atoms: N7_23  and  C7_24 
REMARK    5  A    between atoms: C7_24  and  C8_25 
REMARK    6  A    between atoms: C8_25  and  O2_26 
REMARK    7  A    between atoms: O2_26  and  C9_27 
REMARK       I    between atoms: C9_27  and  N8_29 
REMARK    8  A    between atoms: N8_29  and  C10_31 
REMARK    9  A    between atoms: C10_31  and  N9_32 
ROOT
HETATM    1  C1  UNL     1      -4.307   0.957   0.866  1.00  0.00     0.679 A 
HETATM    2  N2  UNL     1      -3.577   0.692  -0.227  1.00  0.00    -0.175 N 
ATOM      3  H2  UNL     1      -3.946   0.960  -1.139  1.00  0.00     0.186 HD
HETATM    4  C2  UNL     1      -2.379   0.088  -0.168  1.00  0.00     0.149 A 
HETATM    5  N3  UNL     1      -1.675  -0.172  -1.209  1.00  0.00    -0.351 N 
ATOM      6  H3  UNL     1      -0.770  -0.632  -1.108  1.00  0.00     0.162 HD
HETATM    7  C4  UNL     1      -1.888  -0.269   1.072  1.00  0.00     0.128 A 
HETATM    8  C5  UNL     1      -2.651   0.008   2.219  1.00  0.00     0.156 A 
HETATM    9  N5  UNL     1      -3.837   0.614   2.059  1.00  0.00    -0.174 N 
ATOM     10  H5  UNL     1      -4.399   0.819   2.885  1.00  0.00     0.186 HD
HETATM   11  N6  UNL     1      -1.979  -0.428   3.306  1.00  0.00    -0.292 N 
ATOM     12  H6  UNL     1      -2.297  -0.358   4.273  1.00  0.00     0.172 HD
HETATM   13  C6  UNL     1      -0.825  -0.968   2.899  1.00  0.00     0.328 A 
HETATM   14  O1  UNL     1       0.099  -1.492   3.569  1.00  0.00    -0.246 OA
HETATM   15  N7  UNL     1      -0.777  -0.867   1.534  1.00  0.00    -0.291 N 
ENDROOT
BRANCH  15  16
HETATM   16  C7  UNL     1       0.322  -1.336   0.731  1.00  0.00     0.161 C 
BRANCH  16  17
HETATM   17  C8  UNL     1       1.368  -0.265   0.565  1.00  0.00     0.200 C 
BRANCH  17  18
HETATM   18  O2  UNL     1       2.454  -0.692  -0.221  1.00  0.00    -0.302 OA
BRANCH  18  19
HETATM   19  C9  UNL     1       3.540   0.095  -0.524  1.00  0.00     0.361 C 
HETATM   20  O3  UNL     1       3.522   1.273  -0.045  1.00  0.00    -0.238 OA
HETATM   21  N8  UNL     1       4.634  -0.335  -1.314  1.00  0.00    -0.313 N 
ATOM     22  H8  UNL     1       4.651  -1.280  -1.698  1.00  0.00     0.166 HD
BRANCH  21  23
HETATM   23  C10 UNL     1       5.726   0.576  -1.571  1.00  0.00     0.356 C 
BRANCH  23  24
HETATM   24  N9  UNL     1       6.294   0.946  -0.282  1.00  0.00    -0.063 N 
ATOM     25  H93 UNL     1       5.602   1.325   0.365  1.00  0.00     0.276 HD
ATOM     26  H92 UNL     1       6.571   0.140   0.278  1.00  0.00     0.276 HD
ATOM     27  H91 UNL     1       7.065   1.589  -0.463  1.00  0.00     0.276 HD
ENDBRANCH  23  24
ENDBRANCH  21  23
ENDBRANCH  18  19
ENDBRANCH  17  18
ENDBRANCH  16  17
ENDBRANCH  15  16
BRANCH   5  28
HETATM   28  C3  UNL     1      -2.158   0.184  -2.524  1.00  0.00     0.353 C 
BRANCH  28  29
HETATM   29  N4  UNL     1      -3.203  -0.703  -2.995  1.00  0.00    -0.064 N 
ATOM     30  H43 UNL     1      -2.897  -1.676  -2.969  1.00  0.00     0.276 HD
ATOM     31  H42 UNL     1      -3.970  -0.753  -2.325  1.00  0.00     0.276 HD
ATOM     32  H41 UNL     1      -3.544  -0.452  -3.923  1.00  0.00     0.276 HD
ENDBRANCH  28  29
ENDBRANCH   5  28
BRANCH   1  33
HETATM   33  N1  UNL     1      -5.473   1.548   0.770  1.00  0.00    -0.234 N 
ATOM     34  H12 UNL     1      -5.834   1.812  -0.147  1.00  0.00     0.174 HD
ATOM     35  H11 UNL     1      -6.028   1.750   1.601  1.00  0.00     0.174 HD
ENDBRANCH   1  33
TORSDOF 9
