REMARK  6 active torsions:
REMARK  status: ('A' for Active; 'I' for Inactive)
REMARK    1  A    between atoms: N1_2  and  C2_4 
REMARK    2  A    between atoms: C3_9  and  N4_10 
REMARK    3  A    between atoms: N4_10  and  C4_12 
REMARK    4  A    between atoms: C4_12  and  C5_13 
REMARK    5  A    between atoms: C14_24  and  C15_25 
REMARK    6  A    between atoms: C15_25  and  O2_26 
ROOT
HETATM    1  C2  UNL     1       0.155   2.955   0.249  1.00  0.00     0.132 A 
HETATM    2  N2  UNL     1       1.433   2.670   0.473  1.00  0.00    -0.283 N 
ATOM      3  H2  UNL     1       2.099   3.438   0.554  1.00  0.00     0.188 HD
HETATM    4  N3  UNL     1       1.874   1.435   0.595  1.00  0.00    -0.283 N 
ATOM      5  H3  UNL     1       2.868   1.281   0.766  1.00  0.00     0.188 HD
HETATM    6  C3  UNL     1       1.039   0.347   0.499  1.00  0.00     0.128 A 
HETATM    7  C8  UNL     1      -0.269   0.600   0.272  1.00  0.00     0.046 A 
HETATM    8  C9  UNL     1      -0.730   1.930   0.142  1.00  0.00     0.092 A 
HETATM    9  C10 UNL     1      -2.068   2.181  -0.091  1.00  0.00     0.262 A 
HETATM   10  O1  UNL     1      -2.404   3.398  -0.195  1.00  0.00    -0.267 OA
HETATM   11  N5  UNL     1      -2.951   1.192  -0.200  1.00  0.00    -0.317 N 
HETATM   12  C11 UNL     1      -4.349   1.444  -0.444  1.00  0.00     0.159 C 
HETATM   13  C12 UNL     1      -2.532  -0.079  -0.080  1.00  0.00     0.055 A 
HETATM   14  C13 UNL     1      -3.461  -1.103  -0.194  1.00  0.00     0.058 A 
HETATM   15  C14 UNL     1      -3.056  -2.404  -0.074  1.00  0.00     0.038 A 
HETATM   16  N6  UNL     1      -1.780  -2.699   0.151  1.00  0.00    -0.324 N 
ATOM     17  H6  UNL     1      -1.506  -3.678   0.236  1.00  0.00     0.169 HD
HETATM   18  C16 UNL     1      -0.818  -1.725   0.273  1.00  0.00     0.259 A 
HETATM   19  O3  UNL     1       0.271  -2.176   0.473  1.00  0.00    -0.267 OA
HETATM   20  C17 UNL     1      -1.191  -0.436   0.158  1.00  0.00     0.074 A 
ENDROOT
BRANCH   6  21
HETATM   21  N4  UNL     1       1.603  -0.749   0.633  1.00  0.00    -0.374 N 
ATOM     22  H4  UNL     1       1.021  -1.584   0.570  1.00  0.00     0.161 HD
BRANCH  21  23
HETATM   23  C4  UNL     1       3.034  -0.945   0.874  1.00  0.00     0.125 C 
BRANCH  23  24
HETATM   24  C5  UNL     1       3.872  -0.892  -0.349  1.00  0.00    -0.005 C 
HETATM   25  C6  UNL     1       3.450  -1.988  -1.342  1.00  0.00     0.011 C 
HETATM   26  C7  UNL     1       5.307  -1.218   0.063  1.00  0.00     0.011 C 
ENDBRANCH  23  24
ENDBRANCH  21  23
ENDBRANCH   6  21
BRANCH   1  27
HETATM   27  N1  UNL     1      -0.256   4.169   0.133  1.00  0.00    -0.379 N 
HETATM   28  C1  UNL     1       0.583   5.326   0.227  1.00  0.00     0.147 C 
ATOM     29  H1  UNL     1      -1.250   4.318  -0.038  1.00  0.00     0.160 HD
ENDBRANCH   1  27
BRANCH  15  30
HETATM   30  C15 UNL     1      -4.067  -3.469  -0.200  1.00  0.00     0.221 C 
BRANCH  30  31
HETATM   31  O2  UNL     1      -3.511  -4.736  -0.056  1.00  0.00    -0.395 OA
ATOM     32  H2  UNL     1      -4.163  -5.422  -0.137  1.00  0.00     0.209 HD
ENDBRANCH  30  31
ENDBRANCH  15  30
TORSDOF 6
