REMARK  5 active torsions:
REMARK  status: ('A' for Active; 'I' for Inactive)
REMARK    1  A    between atoms: C2_2  and  N1_5 
REMARK    2  A    between atoms: N1_5  and  S1_7 
REMARK    3  A    between atoms: S1_7  and  N2_10 
REMARK    4  A    between atoms: N2_10  and  C5_12 
REMARK    5  A    between atoms: C8_19  and  C10_21 
ROOT
HETATM    1  C5  UNL     1      -0.229  -0.345  -0.563  1.00  0.00     0.231 C 
HETATM    2  N3  UNL     1      -0.434  -1.771  -0.418  1.00  0.00    -0.318 N 
ATOM      3  H3  UNL     1       0.292  -2.488  -0.430  1.00  0.00     0.166 HD
HETATM    4  C6  UNL     1      -1.833  -1.993  -0.255  1.00  0.00     0.321 C 
HETATM    5  O3  UNL     1      -2.404  -3.051   0.141  1.00  0.00    -0.247 OA
HETATM    6  N4  UNL     1      -2.547  -0.819  -0.611  1.00  0.00    -0.315 N 
HETATM    7  C7  UNL     1      -3.859  -0.230  -0.653  1.00  0.00     0.160 C 
HETATM    8  C8  UNL     1      -3.798   1.024   0.231  1.00  0.00     0.111 C 
HETATM    9  C9  UNL     1      -3.858   0.686   1.683  1.00  0.00     0.040 C 
HETATM   10  S2  UNL     1      -2.132   1.641  -0.245  1.00  0.00    -0.117 SA
HETATM   11  C11 UNL     1      -1.565   0.125  -1.119  1.00  0.00     0.195 C 
ENDROOT
BRANCH   1  12
HETATM   12  N2  UNL     1       0.731  -0.138  -1.621  1.00  0.00    -0.278 N 
ATOM     13  H2  UNL     1       0.630  -0.569  -2.540  1.00  0.00     0.176 HD
BRANCH  12  14
HETATM   14  S1  UNL     1       2.043   0.874  -1.230  1.00  0.00     0.317 S 
HETATM   15  O1  UNL     1       1.611   1.765  -0.073  1.00  0.00    -0.183 OA
HETATM   16  O2  UNL     1       2.285   1.752  -2.458  1.00  0.00    -0.183 OA
BRANCH  14  17
HETATM   17  N1  UNL     1       3.419  -0.029  -0.850  1.00  0.00    -0.294 N 
ATOM     18  H1  UNL     1       3.994  -0.441  -1.585  1.00  0.00     0.174 HD
BRANCH  17  19
HETATM   19  C2  UNL     1       3.753  -0.198   0.514  1.00  0.00     0.031 C 
HETATM   20  C1  UNL     1       2.758  -0.903   1.374  1.00  0.00     0.038 C 
HETATM   21  C3  UNL     1       4.116   1.097   1.214  1.00  0.00     0.038 C 
HETATM   22  C4  UNL     1       5.044  -1.041   0.540  1.00  0.00     0.038 C 
ENDBRANCH  17  19
ENDBRANCH  14  17
ENDBRANCH  12  14
ENDBRANCH   1  12
BRANCH   8  23
HETATM   23  C10 UNL     1      -4.848   1.936  -0.228  1.00  0.00     0.193 C 
HETATM   24  O4  UNL     1      -4.634   3.098  -0.658  1.00  0.00    -0.647 OA
HETATM   25  O5  UNL     1      -6.167   1.504  -0.192  1.00  0.00    -0.647 OA
ENDBRANCH   8  23
TORSDOF 5
