REMARK  7 active torsions:
REMARK  status: ('A' for Active; 'I' for Inactive)
REMARK    1  A    between atoms: O1_2  and  C2_3 
REMARK    2  A    between atoms: C10_11  and  O2_12 
REMARK    3  A    between atoms: C10_11  and  C16_23 
REMARK    4  A    between atoms: C11_14  and  O3_15 
REMARK    5  A    between atoms: C12_17  and  C13_18 
REMARK    6  A    between atoms: C13_18  and  C15_20 
REMARK    7  A    between atoms: C15_20  and  O4_21 
ROOT
HETATM    1  C2  UNL     1       3.772   0.031  -0.528  1.00  0.00     0.132 A 
HETATM    2  C3  UNL     1       3.131  -0.681   0.354  1.00  0.00     0.023 A 
HETATM    3  C4  UNL     1       1.669  -0.943   0.453  1.00  0.00     0.050 A 
HETATM    4  C5  UNL     1       1.299  -0.372   1.791  1.00  0.00     0.018 C 
HETATM    5  C6  UNL     1       0.107  -0.830   2.496  1.00  0.00    -0.024 C 
HETATM    6  C7  UNL     1      -1.064  -0.853   1.870  1.00  0.00    -0.020 C 
HETATM    7  C8  UNL     1      -1.048  -0.425   0.538  1.00  0.00    -0.007 C 
HETATM    8  C9  UNL     1      -0.721  -1.773  -0.211  1.00  0.00     0.057 C 
HETATM    9  C10 UNL     1      -0.133  -1.082  -1.359  1.00  0.00     0.111 C 
HETATM   10  C11 UNL     1      -1.366  -0.204  -1.682  1.00  0.00     0.160 C 
HETATM   11  C12 UNL     1      -2.162  -0.116  -0.357  1.00  0.00     0.036 C 
HETATM   12  C16 UNL     1       0.948  -0.283  -0.635  1.00  0.00     0.079 A 
HETATM   13  N1  UNL     1       1.623   0.504  -1.582  1.00  0.00    -0.342 N 
ATOM     14  H1  UNL     1       1.074   0.967  -2.306  1.00  0.00     0.163 HD
HETATM   15  C17 UNL     1       3.017   0.686  -1.582  1.00  0.00     0.275 A 
HETATM   16  O5  UNL     1       3.598   1.394  -2.469  1.00  0.00    -0.265 OA
HETATM   17  C18 UNL     1      -0.015   0.572   0.211  1.00  0.00     0.031 C 
HETATM   18  C19 UNL     1       0.866   1.056   1.340  1.00  0.00     0.017 C 
ENDROOT
BRANCH  11  19
HETATM   19  C13 UNL     1      -2.889   1.151  -0.196  1.00  0.00     0.013 C 
HETATM   20  C14 UNL     1      -4.014   1.358  -1.175  1.00  0.00     0.012 C 
BRANCH  19  21
HETATM   21  C15 UNL     1      -3.534   1.175   1.191  1.00  0.00     0.168 C 
BRANCH  21  22
HETATM   22  O4  UNL     1      -4.417   0.141   1.380  1.00  0.00    -0.400 OA
ATOM     23  H4  UNL     1      -4.818   0.156   2.241  1.00  0.00     0.209 HD
ENDBRANCH  21  22
ENDBRANCH  19  21
ENDBRANCH  11  19
BRANCH  10  24
HETATM   24  O3  UNL     1      -2.152  -0.899  -2.597  1.00  0.00    -0.392 OA
ATOM     25  H3  UNL     1      -2.909  -0.360  -2.795  1.00  0.00     0.210 HD
ENDBRANCH  10  24
BRANCH   9  26
HETATM   26  O2  UNL     1       0.301  -1.802  -2.403  1.00  0.00    -0.385 OA
ATOM     27  H2  UNL     1       0.683  -1.353  -3.148  1.00  0.00     0.210 HD
ENDBRANCH   9  26
BRANCH   1  28
HETATM   28  O1  UNL     1       5.161   0.196  -0.505  1.00  0.00    -0.351 OA
HETATM   29  C1  UNL     1       5.905   0.179   0.693  1.00  0.00     0.210 C 
ENDBRANCH   1  28
TORSDOF 7
