REMARK  7 active torsions:
REMARK  status: ('A' for Active; 'I' for Inactive)
REMARK    1  A    between atoms: S1_2  and  C3_4 
REMARK    2  A    between atoms: C4_5  and  C5_6 
REMARK    3  A    between atoms: C6_8  and  C7_9 
REMARK    4  A    between atoms: C7_9  and  O2_10 
REMARK    5  A    between atoms: C8_12  and  O3_13 
REMARK    6  A    between atoms: C9_15  and  O4_16 
REMARK    7  A    between atoms: C10_18  and  O5_19 
ROOT
HETATM    1  C5  UNL     1       1.062   0.171  -0.501  1.00  0.00     0.194 C 
HETATM    2  O1  UNL     1       1.948   1.143  -0.077  1.00  0.00    -0.368 OA
HETATM    3  C6  UNL     1       3.232   0.846   0.131  1.00  0.00     0.177 C 
HETATM    4  C8  UNL     1       3.622  -0.496  -0.369  1.00  0.00     0.180 C 
HETATM    5  C9  UNL     1       2.707  -1.617   0.007  1.00  0.00     0.181 C 
HETATM    6  C10 UNL     1       1.267  -1.140   0.201  1.00  0.00     0.183 C 
ENDROOT
BRANCH   1   7
HETATM    7  C4  UNL     1      -0.300   0.689  -0.579  1.00  0.00     0.022 C 
HETATM    8  C3  UNL     1      -1.504   0.285  -0.256  1.00  0.00    -0.008 C 
HETATM    9  C12 UNL     1      -2.601   1.214  -0.521  1.00  0.00    -0.005 C 
HETATM   10  C11 UNL     1      -2.322   2.004  -1.782  1.00  0.00     0.093 C 
HETATM   11  C13 UNL     1      -3.894   0.484  -0.777  1.00  0.00     0.021 C 
HETATM   12  C14 UNL     1      -2.816   2.224   0.584  1.00  0.00     0.021 C 
HETATM   13  S2  UNL     1      -0.553   2.322  -1.380  1.00  0.00    -0.129 SA
BRANCH   8  14
HETATM   14  S1  UNL     1      -1.835  -1.287   0.493  1.00  0.00    -0.196 SA
HETATM   15  C1  UNL     1      -2.797  -1.161   1.944  1.00  0.00     0.083 C 
HETATM   16  C2  UNL     1      -2.409  -2.465  -0.664  1.00  0.00     0.083 C 
ENDBRANCH   8  14
ENDBRANCH   1   7
BRANCH   6  17
HETATM   17  O5  UNL     1       0.988  -1.093   1.567  1.00  0.00    -0.390 OA
ATOM     18  H5  UNL     1       1.118  -1.923   2.011  1.00  0.00     0.210 HD
ENDBRANCH   6  17
BRANCH   3  19
HETATM   19  C7  UNL     1       3.751   1.139   1.524  1.00  0.00     0.198 C 
BRANCH  19  20
HETATM   20  O2  UNL     1       5.095   0.793   1.650  1.00  0.00    -0.398 OA
ATOM     21  H2  UNL     1       5.420   0.977   2.523  1.00  0.00     0.209 HD
ENDBRANCH  19  20
ENDBRANCH   3  19
BRANCH   5  22
HETATM   22  O4  UNL     1       2.810  -2.596  -0.979  1.00  0.00    -0.390 OA
ATOM     23  H4  UNL     1       2.229  -3.308  -0.740  1.00  0.00     0.210 HD
ENDBRANCH   5  22
BRANCH   4  24
HETATM   24  O3  UNL     1       3.767  -0.418  -1.762  1.00  0.00    -0.390 OA
ATOM     25  H3  UNL     1       4.017  -1.277  -2.082  1.00  0.00     0.210 HD
ENDBRANCH   4  24
TORSDOF 7
