REMARK  3 active torsions:
REMARK  status: ('A' for Active; 'I' for Inactive)
REMARK    1  A    between atoms: O1_2  and  C2_3 
REMARK    2  A    between atoms: C6_8  and  N1_9 
REMARK       I    between atoms: N2_12  and  C9_13 
REMARK       I    between atoms: C9_13  and  N3_15 
REMARK    3  A    between atoms: N3_15  and  C10_17 
ROOT
HETATM    1  N1  UNL     1       3.002  -1.094   1.061  1.00  0.00    -0.363 N 
HETATM    2  C7  UNL     1       2.748  -1.901  -0.113  1.00  0.00     0.145 C 
HETATM    3  C8  UNL     1       1.238  -1.843  -0.173  1.00  0.00     0.149 C 
HETATM    4  N2  UNL     1       0.957  -0.479   0.173  1.00  0.00    -0.316 N 
HETATM    5  C9  UNL     1      -0.192   0.244  -0.229  1.00  0.00     0.320 C 
HETATM    6  O2  UNL     1      -0.282   1.439   0.168  1.00  0.00    -0.247 OA
HETATM    7  N3  UNL     1      -1.179  -0.369  -1.038  1.00  0.00    -0.334 N 
ATOM      8  H3  UNL     1      -1.033  -1.339  -1.318  1.00  0.00     0.165 HD
HETATM    9  C20 UNL     1       2.049  -0.002   0.995  1.00  0.00     0.254 C 
ENDROOT
BRANCH   7  10
HETATM   10  C10 UNL     1      -2.375   0.290  -1.490  1.00  0.00     0.035 C 
HETATM   11  C11 UNL     1      -2.030   1.495  -2.335  1.00  0.00     0.035 C 
HETATM   12  C12 UNL     1      -3.313   2.085  -2.937  1.00  0.00    -0.012 C 
HETATM   13  C13 UNL     1      -3.989   1.040  -3.762  1.00  0.00     0.009 C 
HETATM   14  C17 UNL     1      -4.145   2.570  -1.776  1.00  0.00     0.009 C 
HETATM   15  C14 UNL     1      -4.432  -0.087  -2.862  1.00  0.00    -0.012 C 
HETATM   16  C15 UNL     1      -5.302   0.424  -1.728  1.00  0.00     0.009 C 
HETATM   17  C19 UNL     1      -3.216  -0.704  -2.254  1.00  0.00     0.035 C 
HETATM   18  C16 UNL     1      -4.487   1.382  -0.914  1.00  0.00    -0.012 C 
HETATM   19  C18 UNL     1      -3.230   0.782  -0.343  1.00  0.00     0.035 C 
ENDBRANCH   7  10
BRANCH   1  20
HETATM   20  C6  UNL     1       3.971  -1.335   2.055  1.00  0.00     0.037 A 
HETATM   21  C5  UNL     1       4.743  -2.474   2.049  1.00  0.00     0.071 A 
HETATM   22  C4  UNL     1       5.699  -2.720   3.020  1.00  0.00     0.121 A 
HETATM   23  C3  UNL     1       5.913  -1.824   4.039  1.00  0.00     0.079 A 
HETATM   24  F1  UNL     1       6.446  -3.846   2.994  1.00  0.00    -0.206 F 
HETATM   25  C2  UNL     1       5.149  -0.666   4.070  1.00  0.00     0.073 A 
HETATM   26  C21 UNL     1       4.209  -0.451   3.091  1.00  0.00     0.066 A 
BRANCH  25  27
HETATM   27  O1  UNL     1       5.353   0.259   5.099  1.00  0.00    -0.356 OA
HETATM   28  C1  UNL     1       4.561   1.425   5.102  1.00  0.00     0.210 C 
ENDBRANCH  25  27
ENDBRANCH   1  20
TORSDOF 3
