REMARK  4 active torsions:
REMARK  status: ('A' for Active; 'I' for Inactive)
REMARK    1  A    between atoms: C2_2  and  N1_4 
REMARK    2  A    between atoms: C6_7  and  C7_8 
REMARK    3  A    between atoms: C6_7  and  N3_18 
REMARK       I    between atoms: C7_8  and  N2_10 
REMARK    4  A    between atoms: N2_10  and  C8_12 
ROOT
HETATM    1  N1  UNL     1      -2.429  -1.437   0.308  1.00  0.00     0.092 N 
HETATM    2  C4  UNL     1      -2.106  -0.500   1.331  1.00  0.00     0.276 C 
HETATM    3  C5  UNL     1      -0.713   0.023   1.206  1.00  0.00     0.072 C 
HETATM    4  C6  UNL     1      -0.406   0.559  -0.199  1.00  0.00     0.119 C 
HETATM    5  C19 UNL     1      -0.821  -0.509  -1.158  1.00  0.00     0.072 C 
HETATM    6  C20 UNL     1      -2.313  -0.821  -1.005  1.00  0.00     0.276 C 
ENDROOT
BRANCH   4   7
HETATM    7  C7  UNL     1       1.056   0.706  -0.277  1.00  0.00     0.246 C 
HETATM    8  O1  UNL     1       1.644   1.792  -0.513  1.00  0.00    -0.271 OA
HETATM    9  N2  UNL     1       1.877  -0.427  -0.077  1.00  0.00    -0.354 N 
ATOM     10  H2  UNL     1       1.436  -1.325   0.120  1.00  0.00     0.162 HD
BRANCH   9  11
HETATM   11  C8  UNL     1       3.346  -0.357  -0.143  1.00  0.00     0.084 C 
HETATM   12  C9  UNL     1       3.868  -0.649   1.221  1.00  0.00     0.025 C 
HETATM   13  C10 UNL     1       4.240  -2.119   1.288  1.00  0.00     0.002 C 
HETATM   14  C11 UNL     1       5.428  -2.304   0.369  1.00  0.00     0.000 C 
HETATM   15  C12 UNL     1       5.106  -1.914  -1.053  1.00  0.00     0.002 C 
HETATM   16  C13 UNL     1       3.766  -1.294  -1.216  1.00  0.00     0.025 C 
ENDBRANCH   9  11
ENDBRANCH   4   7
BRANCH   4  17
HETATM   17  N3  UNL     1      -1.134   1.767  -0.351  1.00  0.00    -0.355 N 
HETATM   18  C14 UNL     1      -1.474   2.224  -1.630  1.00  0.00     0.066 C 
HETATM   19  C15 UNL     1      -0.776   3.473  -2.104  1.00  0.00     0.065 C 
HETATM   20  C16 UNL     1      -0.768   4.490  -1.007  1.00  0.00     0.091 C 
HETATM   21 CL1  UNL     1      -1.507   6.036  -1.532  1.00  0.00    -0.124 Cl
HETATM   22  C17 UNL     1      -1.484   4.062   0.233  1.00  0.00     0.065 C 
HETATM   23  C18 UNL     1      -1.079   2.688   0.705  1.00  0.00     0.066 C 
ENDBRANCH   4  17
BRANCH   1  24
HETATM   24  C2  UNL     1      -3.615  -2.190   0.501  1.00  0.00     0.215 C 
HETATM   25  C1  UNL     1      -4.880  -1.367   0.549  1.00  0.00     0.042 C 
HETATM   26  C3  UNL     1      -3.452  -3.106   1.672  1.00  0.00     0.042 C 
ENDBRANCH   1  24
TORSDOF 4
