REMARK  15 active torsions:
REMARK  status: ('A' for Active; 'I' for Inactive)
REMARK    1  A    between atoms: N1_1  and  C1_5 
REMARK    2  A    between atoms: C1_5  and  C2_6 
REMARK    3  A    between atoms: N2_11  and  C6_13 
REMARK    4  A    between atoms: C6_13  and  C7_14 
REMARK    5  A    between atoms: C7_14  and  C8_15 
REMARK    6  A    between atoms: C8_15  and  C9_16 
REMARK    7  A    between atoms: C10_17  and  C11_18 
REMARK    8  A    between atoms: C11_18  and  C12_19 
REMARK    9  A    between atoms: C12_19  and  O2_20 
REMARK   10  A    between atoms: O2_20  and  C13_21 
REMARK   11  A    between atoms: C14_22  and  N3_23 
REMARK   12  A    between atoms: C15_27  and  N4_28 
REMARK   13  A    between atoms: C17_33  and  N5_34 
REMARK   14  A    between atoms: C18_38  and  O3_39 
REMARK   15  A    between atoms: C19_41  and  O4_42 
ROOT
HETATM    1  C13 UNL     1      -5.056  -0.106   0.414  1.00  0.00     0.185 C 
HETATM    2  C14 UNL     1      -5.409   1.325   0.178  1.00  0.00     0.245 C 
HETATM    3  C15 UNL     1      -6.882   1.615   0.271  1.00  0.00     0.218 C 
HETATM    4  C16 UNL     1      -7.502   1.250  -1.036  1.00  0.00     0.070 C 
HETATM    5  C17 UNL     1      -7.394  -0.182  -1.420  1.00  0.00     0.216 C 
HETATM    6  C18 UNL     1      -7.256  -1.150  -0.306  1.00  0.00     0.179 C 
HETATM    7  C19 UNL     1      -6.224  -0.999   0.685  1.00  0.00     0.180 C 
ENDROOT
BRANCH   1   8
HETATM    8  O2  UNL     1      -4.180  -0.615  -0.545  1.00  0.00    -0.380 OA
BRANCH   8   9
HETATM    9  C12 UNL     1      -2.946  -0.948  -0.054  1.00  0.00     0.180 C 
BRANCH   9  10
HETATM   10  C11 UNL     1      -2.115  -1.479  -1.201  1.00  0.00     0.120 C 
BRANCH  10  11
HETATM   11  C10 UNL     1      -0.789  -1.830  -0.638  1.00  0.00    -0.104 C 
HETATM   12  C9  UNL     1       0.280  -2.127  -0.166  1.00  0.00    -0.106 C 
BRANCH  12  13
HETATM   13  C8  UNL     1       1.561  -2.499   0.423  1.00  0.00     0.095 C 
BRANCH  13  14
HETATM   14  C7  UNL     1       2.454  -1.259   0.552  1.00  0.00     0.032 C 
BRANCH  14  15
HETATM   15  C6  UNL     1       3.786  -1.633   1.163  1.00  0.00     0.122 C 
BRANCH  15  16
HETATM   16  N2  UNL     1       4.635  -0.469   1.287  1.00  0.00    -0.374 N 
HETATM   17  C5  UNL     1       5.478  -0.071   0.427  1.00  0.00     0.123 C 
HETATM   18  O1  UNL     1       6.172   1.076   0.781  1.00  0.00    -0.334 OA
HETATM   19  C20 UNL     1       5.663  -0.818  -0.842  1.00  0.00     0.158 C 
HETATM   20  C4  UNL     1       7.381   1.594   0.213  1.00  0.00     0.212 C 
HETATM   21  C3  UNL     1       8.406   0.535   0.096  1.00  0.00    -0.049 C 
HETATM   22  C2  UNL     1       9.562   0.908  -0.393  1.00  0.00     0.006 C 
HETATM   23  C21 UNL     1       8.286  -0.897   0.464  1.00  0.00     0.110 C 
HETATM   24  S1  UNL     1       7.194  -1.803  -0.664  1.00  0.00    -0.157 SA
ATOM     25  H2  UNL     1       4.548   0.081   2.142  1.00  0.00     0.161 HD
BRANCH  22  26
HETATM   26  C1  UNL     1       9.869   2.296  -0.817  1.00  0.00     0.257 C 
BRANCH  26  27
HETATM   27  N1  UNL     1      10.979   2.860  -0.072  1.00  0.00    -0.076 N 
ATOM     28  H13 UNL     1      10.814   2.808   0.933  1.00  0.00     0.274 HD
ATOM     29  H12 UNL     1      11.805   2.264  -0.131  1.00  0.00     0.274 HD
ATOM     30  H11 UNL     1      11.190   3.814  -0.364  1.00  0.00     0.274 HD
ENDBRANCH  26  27
ENDBRANCH  22  26
ENDBRANCH  15  16
ENDBRANCH  14  15
ENDBRANCH  13  14
ENDBRANCH  12  13
ENDBRANCH  10  11
ENDBRANCH   9  10
ENDBRANCH   8   9
ENDBRANCH   1   8
BRANCH   2  31
HETATM   31  N3  UNL     1      -4.748   2.237   1.121  1.00  0.00    -0.070 N 
ATOM     32  H33 UNL     1      -4.940   1.967   2.086  1.00  0.00     0.274 HD
ATOM     33  H32 UNL     1      -3.737   2.104   1.110  1.00  0.00     0.274 HD
ATOM     34  H31 UNL     1      -4.989   3.215   0.960  1.00  0.00     0.274 HD
ENDBRANCH   2  31
BRANCH   7  35
HETATM   35  O4  UNL     1      -5.666  -2.263   1.012  1.00  0.00    -0.390 OA
ATOM     36  H4  UNL     1      -6.408  -2.830   1.184  1.00  0.00     0.210 HD
ENDBRANCH   7  35
BRANCH   3  37
HETATM   37  N4  UNL     1      -7.005   3.075   0.405  1.00  0.00    -0.073 N 
ATOM     38  H43 UNL     1      -6.466   3.458   1.182  1.00  0.00     0.274 HD
ATOM     39  H42 UNL     1      -6.536   3.592  -0.339  1.00  0.00     0.274 HD
ATOM     40  H41 UNL     1      -8.004   3.272   0.468  1.00  0.00     0.274 HD
ENDBRANCH   3  37
BRANCH   6  41
HETATM   41  O3  UNL     1      -8.522  -1.188   0.337  1.00  0.00    -0.391 OA
ATOM     42  H3  UNL     1      -8.434  -1.808   1.051  1.00  0.00     0.210 HD
ENDBRANCH   6  41
BRANCH   5  43
HETATM   43  N5  UNL     1      -6.456  -0.378  -2.503  1.00  0.00    -0.072 N 
ATOM     44  H53 UNL     1      -6.689   0.205  -3.307  1.00  0.00     0.274 HD
ATOM     45  H52 UNL     1      -5.542   0.016  -2.279  1.00  0.00     0.274 HD
ATOM     46  H51 UNL     1      -6.382  -1.361  -2.766  1.00  0.00     0.274 HD
ENDBRANCH   5  43
TORSDOF 15
