REMARK  5 active torsions:
REMARK  status: ('A' for Active; 'I' for Inactive)
REMARK    1  A    between atoms: O1_2  and  C2_3 
REMARK    2  A    between atoms: C6_7  and  C7_8 
REMARK       I    between atoms: C7_8  and  N1_10 
REMARK    3  A    between atoms: N1_10  and  C8_12 
REMARK    4  A    between atoms: C10_14  and  O3_15 
REMARK    5  A    between atoms: C12_17  and  O4_18 
ROOT
HETATM    1  C7  UNL     1      -0.773   0.340  -0.504  1.00  0.00     0.259 C 
HETATM    2  O2  UNL     1      -0.255   0.600  -1.663  1.00  0.00    -0.267 OA
HETATM    3  N1  UNL     1       0.112  -0.118   0.470  1.00  0.00    -0.322 N 
ATOM      4  H1  UNL     1      -0.309  -0.335   1.373  1.00  0.00     0.169 HD
ENDROOT
BRANCH   3   5
HETATM    5  C8  UNL     1       1.498  -0.324   0.389  1.00  0.00     0.043 A 
HETATM    6  C9  UNL     1       2.297  -0.117  -0.710  1.00  0.00     0.069 A 
HETATM    7  C10 UNL     1       3.679  -0.361  -0.671  1.00  0.00     0.103 A 
HETATM    8  C12 UNL     1       4.295  -0.816   0.463  1.00  0.00     0.102 A 
HETATM    9  C14 UNL     1       3.518  -1.031   1.574  1.00  0.00     0.048 A 
HETATM   10  C15 UNL     1       2.161  -0.792   1.539  1.00  0.00    -0.032 A 
HETATM   11  C16 UNL     1       1.360  -1.030   2.743  1.00  0.00     0.050 C 
BRANCH   7  12
HETATM   12  O3  UNL     1       4.447  -0.140  -1.801  1.00  0.00    -0.353 OA
HETATM   13  C11 UNL     1       3.800   0.330  -2.965  1.00  0.00     0.210 C 
ENDBRANCH   7  12
BRANCH   8  14
HETATM   14  O4  UNL     1       5.653  -1.032   0.423  1.00  0.00    -0.353 OA
HETATM   15  C13 UNL     1       6.411  -1.499   1.520  1.00  0.00     0.210 C 
ENDBRANCH   8  14
ENDBRANCH   3   5
BRANCH   1  16
HETATM   16  C6  UNL     1      -2.189   0.559  -0.405  1.00  0.00     0.076 A 
HETATM   17  C4  UNL     1      -2.895   0.865   0.701  1.00  0.00    -0.041 A 
HETATM   18  C3  UNL     1      -4.305   0.975   0.677  1.00  0.00     0.044 A 
HETATM   19  C5  UNL     1      -2.188   1.156   1.978  1.00  0.00     0.049 C 
HETATM   20  C2  UNL     1      -4.998   0.775  -0.474  1.00  0.00     0.071 A 
HETATM   21  C18 UNL     1      -4.307   0.463  -1.624  1.00  0.00     0.080 A 
HETATM   22  C17 UNL     1      -2.936   0.359  -1.586  1.00  0.00     0.135 A 
HETATM   23  F1  UNL     1      -2.274   0.047  -2.740  1.00  0.00    -0.205 F 
BRANCH  20  24
HETATM   24  O1  UNL     1      -6.375   0.893  -0.450  1.00  0.00    -0.356 OA
HETATM   25  C1  UNL     1      -7.191   0.708  -1.580  1.00  0.00     0.210 C 
ENDBRANCH  20  24
ENDBRANCH   1  16
TORSDOF 5
