REMARK  5 active torsions:
REMARK  status: ('A' for Active; 'I' for Inactive)
REMARK    1  A    between atoms: O1_2  and  C2_3 
REMARK    2  A    between atoms: C4_5  and  O2_6 
REMARK    3  A    between atoms: C6_8  and  C7_9 
REMARK    4  A    between atoms: C7_9  and  N1_10 
REMARK    5  A    between atoms: N1_10  and  C8_13 
ROOT
HETATM    1  C7  UNL     1       0.203   0.146  -0.513  1.00  0.00     0.277 C 
ENDROOT
BRANCH   1   2
HETATM    2  C6  UNL     1       1.682   0.090  -0.609  1.00  0.00     0.040 A 
HETATM    3  C4  UNL     1       2.422   0.449   0.520  1.00  0.00     0.081 A 
HETATM    4  C3  UNL     1       3.794   0.489   0.440  1.00  0.00     0.074 A 
HETATM    5  C2  UNL     1       4.450   0.179  -0.738  1.00  0.00     0.079 A 
HETATM    6  C18 UNL     1       3.738  -0.180  -1.871  1.00  0.00     0.011 A 
HETATM    7  C17 UNL     1       2.364  -0.212  -1.760  1.00  0.00     0.135 A 
HETATM    8  C19 UNL     1       4.405  -0.519  -3.169  1.00  0.00     0.054 C 
HETATM    9  F1  UNL     1       1.666  -0.569  -2.875  1.00  0.00    -0.205 F 
BRANCH   3  10
HETATM   10  O2  UNL     1       1.713   0.749   1.677  1.00  0.00    -0.355 OA
HETATM   11  C5  UNL     1       2.300   1.116   2.902  1.00  0.00     0.210 C 
ENDBRANCH   3  10
BRANCH   5  12
HETATM   12  O1  UNL     1       5.830   0.220  -0.802  1.00  0.00    -0.355 OA
HETATM   13  C1  UNL     1       6.688   0.554   0.245  1.00  0.00     0.210 C 
ENDBRANCH   5  12
ENDBRANCH   1   2
BRANCH   1  14
HETATM   14  N1  UNL     1      -0.206  -0.620   0.638  1.00  0.00    -0.067 N 
ATOM     15  H12 UNL     1       0.178  -1.564   0.602  1.00  0.00     0.277 HD
ATOM     16  H11 UNL     1       0.257  -0.284   1.482  1.00  0.00     0.277 HD
BRANCH  14  17
HETATM   17  C8  UNL     1      -1.633  -0.653   0.815  1.00  0.00     0.187 C 
HETATM   18  C9  UNL     1      -2.113   0.791   0.911  1.00  0.00     0.037 C 
HETATM   19  C10 UNL     1      -2.840   1.097  -0.407  1.00  0.00    -0.016 C 
HETATM   20  C11 UNL     1      -3.075   2.560  -0.528  1.00  0.00     0.010 C 
HETATM   21  C12 UNL     1      -4.122   0.287  -0.308  1.00  0.00     0.013 C 
HETATM   22  C13 UNL     1      -3.778  -1.175  -0.370  1.00  0.00    -0.045 C 
HETATM   23  C14 UNL     1      -4.641  -1.875   0.657  1.00  0.00     0.015 C 
HETATM   24  C15 UNL     1      -4.188  -1.673  -1.738  1.00  0.00     0.015 C 
HETATM   25  C16 UNL     1      -2.309  -1.470  -0.206  1.00  0.00     0.041 C 
ENDBRANCH  14  17
ENDBRANCH   1  14
TORSDOF 5
