REMARK  5 active torsions:
REMARK  status: ('A' for Active; 'I' for Inactive)
REMARK    1  A    between atoms: O1_2  and  C2_3 
REMARK    2  A    between atoms: C2_3  and  C3_5 
REMARK    3  A    between atoms: C8_10  and  N1_11 
REMARK       I    between atoms: N1_11  and  C9_13 
REMARK       I    between atoms: C9_13  and  N3_20 
REMARK    4  A    between atoms: N2_14  and  C10_16 
REMARK       I    between atoms: N3_20  and  C14_22 
REMARK    5  A    between atoms: C14_22  and  C15_24 
ROOT
HETATM    1  N1  UNL     1       0.393   0.119   0.721  1.00  0.00    -0.191 N 
ATOM      2  H1  UNL     1       0.358  -0.145   1.706  1.00  0.00     0.184 HD
HETATM    3  C9  UNL     1      -0.757   0.656   0.051  1.00  0.00     0.681 C 
HETATM    4  N2  UNL     1      -0.959   1.885   0.026  1.00  0.00    -0.218 N 
ATOM      5  H2  UNL     1      -1.820   2.048  -0.496  1.00  0.00     0.178 HD
HETATM    6  N3  UNL     1      -1.686  -0.242  -0.592  1.00  0.00    -0.159 N 
ATOM      7  H3  UNL     1      -2.486   0.157  -1.084  1.00  0.00     0.187 HD
HETATM    8  C14 UNL     1      -1.543  -1.623  -0.573  1.00  0.00     0.243 C 
HETATM    9  O3  UNL     1      -0.581  -2.159   0.026  1.00  0.00    -0.272 OA
ENDROOT
BRANCH   1  10
HETATM   10  C8  UNL     1       1.580  -0.030  -0.041  1.00  0.00     0.065 A 
HETATM   11  C3  UNL     1       2.748  -0.507   0.515  1.00  0.00     0.066 A 
HETATM   12  C4  UNL     1       3.852  -0.625  -0.325  1.00  0.00     0.020 A 
HETATM   13  C5  UNL     1       3.863  -0.302  -1.662  1.00  0.00     0.001 A 
HETATM   14  C6  UNL     1       2.672   0.179  -2.203  1.00  0.00     0.002 A 
HETATM   15  C7  UNL     1       1.569   0.307  -1.407  1.00  0.00     0.031 A 
BRANCH  11  16
HETATM   16  C2  UNL     1       2.919  -0.885   1.887  1.00  0.00     0.295 C 
HETATM   17  O2  UNL     1       4.072  -1.315   2.253  1.00  0.00    -0.259 OA
BRANCH  16  18
HETATM   18  O1  UNL     1       1.983  -0.837   2.855  1.00  0.00    -0.322 OA
HETATM   19  C1  UNL     1       2.160  -1.211   4.206  1.00  0.00     0.213 C 
ENDBRANCH  16  18
ENDBRANCH  11  16
ENDBRANCH   1  10
BRANCH   4  20
HETATM   20  C10 UNL     1      -0.477   3.102   0.425  1.00  0.00     0.036 C 
HETATM   21  C11 UNL     1       0.293   3.833  -0.693  1.00  0.00     0.038 C 
HETATM   22  C12 UNL     1       0.513   3.010   1.577  1.00  0.00     0.038 C 
HETATM   23  C13 UNL     1      -1.594   4.098   0.824  1.00  0.00     0.038 C 
ENDBRANCH   4  20
BRANCH   8  24
HETATM   24  C15 UNL     1      -2.493  -2.553  -1.244  1.00  0.00     0.031 C 
HETATM   25  C16 UNL     1      -3.885  -2.455  -0.724  1.00  0.00     0.025 C 
HETATM   26  C17 UNL     1      -2.503  -2.141  -2.717  1.00  0.00     0.025 C 
HETATM   27  C18 UNL     1      -1.963  -3.949  -1.188  1.00  0.00     0.025 C 
ENDBRANCH   8  24
TORSDOF 5
