REMARK  5 active torsions:
REMARK  status: ('A' for Active; 'I' for Inactive)
REMARK       I    between atoms: C3_3  and  N1_5 
REMARK    1  A    between atoms: N1_5  and  C4_7 
REMARK    2  A    between atoms: C4_7  and  C6_9 
REMARK       I    between atoms: C6_9  and  N2_11 
REMARK    3  A    between atoms: N3_14  and  C9_15 
REMARK    4  A    between atoms: C9_15  and  N4_16 
REMARK    5  A    between atoms: C10_23  and  N8_24 
ROOT
HETATM    1  C1  UNL     1      -7.815  -0.682   0.990  1.00  0.00     0.108 C 
HETATM    2  C2  UNL     1      -6.669  -0.802   0.588  1.00  0.00    -0.088 C 
HETATM    3  C3  UNL     1      -5.314  -0.937   0.137  1.00  0.00     0.284 C 
HETATM    4  O1  UNL     1      -4.987  -2.034  -0.384  1.00  0.00    -0.259 OA
HETATM    5  N1  UNL     1      -4.385   0.127   0.274  1.00  0.00    -0.338 N 
ATOM      6  H1  UNL     1      -4.686   1.003   0.700  1.00  0.00     0.164 HD
ENDROOT
BRANCH   5   7
HETATM    7  C4  UNL     1      -2.994  -0.013  -0.189  1.00  0.00     0.173 C 
HETATM    8  C5  UNL     1      -2.794   1.021  -1.280  1.00  0.00     0.042 C 
BRANCH   7   9
HETATM    9  C6  UNL     1      -2.053   0.208   0.931  1.00  0.00     0.242 C 
HETATM   10  O2  UNL     1      -2.575   0.532   2.053  1.00  0.00    -0.271 OA
HETATM   11  N2  UNL     1      -0.650   0.096   0.874  1.00  0.00    -0.348 N 
HETATM   12  C7  UNL     1       0.161   0.364   2.060  1.00  0.00     0.140 C 
HETATM   13  C12 UNL     1       0.085  -0.290  -0.299  1.00  0.00     0.140 C 
HETATM   14  C8  UNL     1       1.529  -0.205   1.885  1.00  0.00     0.116 C 
HETATM   15  N3  UNL     1       2.223   0.356   0.710  1.00  0.00    -0.274 NA
HETATM   16  C11 UNL     1       1.317   0.593  -0.364  1.00  0.00     0.116 C 
BRANCH  15  17
HETATM   17  C9  UNL     1       3.316  -0.511   0.455  1.00  0.00     0.198 C 
BRANCH  17  18
HETATM   18  N4  UNL     1       4.172  -0.198  -0.635  1.00  0.00    -0.070 N 
HETATM   19  N5  UNL     1       3.993  -0.659  -1.864  1.00  0.00    -0.206 N 
HETATM   20  N6  UNL     1       4.940  -0.208  -2.641  1.00  0.00    -0.213 N 
ATOM     21  H5  UNL     1       3.232  -1.272  -2.158  1.00  0.00     0.211 HD
HETATM   22  N7  UNL     1       5.745   0.554  -1.915  1.00  0.00    -0.115 N 
ATOM     23  H6  UNL     1       5.043  -0.408  -3.636  1.00  0.00     0.210 HD
HETATM   24  C10 UNL     1       5.285   0.570  -0.674  1.00  0.00     0.714 A 
ATOM     25  H7  UNL     1       6.574   1.043  -2.253  1.00  0.00     0.207 HD
BRANCH  24  26
HETATM   26  N8  UNL     1       5.767   1.182   0.334  1.00  0.00    -0.231 N 
ATOM     27  H82 UNL     1       5.413   1.194   1.290  1.00  0.00     0.174 HD
ATOM     28  H81 UNL     1       6.606   1.761   0.305  1.00  0.00     0.174 HD
ENDBRANCH  24  26
ENDBRANCH  17  18
ENDBRANCH  15  17
ENDBRANCH   7   9
ENDBRANCH   5   7
TORSDOF 5
