REMARK  7 active torsions:
REMARK  status: ('A' for Active; 'I' for Inactive)
REMARK    1  A    between atoms: N1_1  and  N2_4 
REMARK    2  A    between atoms: N4_9  and  C3_10 
REMARK    3  A    between atoms: C3_10  and  C4_11 
REMARK    4  A    between atoms: C4_11  and  N5_12 
REMARK    5  A    between atoms: N5_12  and  O1_13 
REMARK    6  A    between atoms: N5_12  and  N6_15 
REMARK    7  A    between atoms: C5_17  and  O2_18 
ROOT
HETATM    1  C3  UNL     1      -0.243  -0.204   0.427  1.00  0.00     0.175 C 
ENDROOT
BRANCH   1   2
HETATM    2  N4  UNL     1      -1.578  -0.373  -0.028  1.00  0.00    -0.265 N 
HETATM    3  N2  UNL     1      -2.602   0.467  -0.062  1.00  0.00    -0.136 N 
HETATM    4  N3  UNL     1      -3.662  -0.139  -0.581  1.00  0.00    -0.275 N 
HETATM    5  C1  UNL     1      -3.329  -1.404  -0.897  1.00  0.00     0.129 A 
ATOM      6  H3  UNL     1      -4.580   0.285  -0.718  1.00  0.00     0.189 HD
HETATM    7  C2  UNL     1      -2.023  -1.536  -0.545  1.00  0.00     0.132 A 
BRANCH   3   8
HETATM    8  N1  UNL     1      -2.536   1.763   0.384  1.00  0.00    -0.309 N 
ATOM      9  H12 UNL     1      -3.324   2.410   0.358  1.00  0.00     0.180 HD
ATOM     10  H11 UNL     1      -1.721   2.229   0.783  1.00  0.00     0.180 HD
ENDBRANCH   3   8
ENDBRANCH   1   2
BRANCH   1  11
HETATM   11  C4  UNL     1       0.733   0.272  -0.605  1.00  0.00     0.198 C 
BRANCH  11  12
HETATM   12  N5  UNL     1       2.029   0.378   0.062  1.00  0.00    -0.199 N 
BRANCH  12  13
HETATM   13  O1  UNL     1       2.107   1.234   1.121  1.00  0.00    -0.272 OA
ATOM     14  H1  UNL     1       2.949   1.303   1.555  1.00  0.00     0.246 HD
ENDBRANCH  12  13
BRANCH  12  15
HETATM   15  N6  UNL     1       3.148  -0.348  -0.343  1.00  0.00    -0.269 N 
HETATM   16  C5  UNL     1       4.339   0.093  -0.154  1.00  0.00     0.241 C 
ATOM     17  H6  UNL     1       3.018  -1.250  -0.800  1.00  0.00     0.190 HD
BRANCH  16  18
HETATM   18  O2  UNL     1       4.453   1.341   0.481  1.00  0.00    -0.355 OA
ATOM     19  H2  UNL     1       5.334   1.667   0.621  1.00  0.00     0.218 HD
ENDBRANCH  16  18
ENDBRANCH  12  15
ENDBRANCH  11  12
ENDBRANCH   1  11
TORSDOF 7
