REMARK  3 active torsions:
REMARK  status: ('A' for Active; 'I' for Inactive)
REMARK    1  A    between atoms: O1_2  and  C2_3 
REMARK    2  A    between atoms: C7_8  and  O2_9 
REMARK    3  A    between atoms: C9_11  and  C10_12 
ROOT
HETATM    1  C2  UNL     1       2.845  -0.570  -0.052  1.00  0.00     0.102 A 
HETATM    2  C3  UNL     1       2.484   0.751  -0.238  1.00  0.00     0.047 A 
HETATM    3  C4  UNL     1       1.175   1.130  -0.262  1.00  0.00    -0.041 A 
HETATM    4  C5  UNL     1       0.144   0.217  -0.103  1.00  0.00     0.000 A 
HETATM    5  C6  UNL     1       0.503  -1.120   0.090  1.00  0.00     0.054 A 
HETATM    6  C7  UNL     1       1.816  -1.490   0.110  1.00  0.00     0.102 A 
HETATM    7  C9  UNL     1      -1.197   0.636   0.128  1.00  0.00     0.051 C 
HETATM    8  N2  UNL     1      -1.371   1.942   0.223  1.00  0.00    -0.384 N 
ATOM      9  H2  UNL     1      -2.330   2.246   0.389  1.00  0.00     0.160 HD
HETATM   10  C15 UNL     1      -0.416   2.972   0.127  1.00  0.00     0.082 C 
HETATM   11  C16 UNL     1      -0.978   4.229  -0.546  1.00  0.00     0.032 C 
HETATM   12  C17 UNL     1       0.873   2.548  -0.492  1.00  0.00     0.064 C 
ENDROOT
BRANCH   7  13
HETATM   13  C10 UNL     1      -2.373  -0.197   0.357  1.00  0.00     0.014 A 
HETATM   14  C11 UNL     1      -3.513   0.296   1.071  1.00  0.00     0.101 A 
HETATM   15  N1  UNL     1      -4.524  -0.537   0.929  1.00  0.00    -0.374 N 
HETATM   16  C12 UNL     1      -4.187  -1.574   0.171  1.00  0.00     0.095 A 
ATOM     17  H1  UNL     1      -5.445  -0.403   1.347  1.00  0.00     0.164 HD
HETATM   18  C13 UNL     1      -2.831  -1.346  -0.189  1.00  0.00    -0.033 A 
HETATM   19  C14 UNL     1      -2.235  -2.244  -1.230  1.00  0.00     0.050 C 
ENDBRANCH   7  13
BRANCH   6  20
HETATM   20  O2  UNL     1       2.195  -2.816   0.296  1.00  0.00    -0.353 OA
HETATM   21  C8  UNL     1       1.220  -3.842   0.473  1.00  0.00     0.210 C 
ENDBRANCH   6  20
BRANCH   1  22
HETATM   22  O1  UNL     1       4.175  -0.946  -0.031  1.00  0.00    -0.353 OA
HETATM   23  C1  UNL     1       5.153   0.058  -0.204  1.00  0.00     0.210 C 
ENDBRANCH   1  22
TORSDOF 3
