REMARK  11 active torsions:
REMARK  status: ('A' for Active; 'I' for Inactive)
REMARK    1  A    between atoms: C2_2  and  C3_3 
REMARK    2  A    between atoms: C3_3  and  C4_4 
REMARK    3  A    between atoms: C4_4  and  O1_5 
REMARK    4  A    between atoms: O1_5  and  N1_6 
REMARK       I    between atoms: C5_8  and  N2_9 
REMARK       I    between atoms: C5_8  and  N4_13 
REMARK    5  A    between atoms: N4_13  and  C7_15 
REMARK    6  A    between atoms: C9_17  and  O2_18 
REMARK    7  A    between atoms: O2_18  and  C10_19 
REMARK    8  A    between atoms: C13_26  and  O3_27 
REMARK    9  A    between atoms: O3_27  and  C14_28 
REMARK   10  A    between atoms: C14_28  and  C15_30 
REMARK   11  A    between atoms: C15_30  and  N7_31 
REMARK       I    between atoms: N7_31  and  C16_33 
REMARK       I    between atoms: C16_33  and  N8_35 
ROOT
HETATM    1  N1  UNL     1       1.252  -1.549  -0.902  1.00  0.00    -0.096 N 
ATOM      2  H1  UNL     1       1.233  -2.544  -1.125  1.00  0.00     0.213 HD
HETATM    3  C5  UNL     1       0.748  -0.731  -1.761  1.00  0.00     0.707 C 
HETATM    4  N2  UNL     1       0.203  -1.255  -2.955  1.00  0.00    -0.124 N 
ATOM      5  H2  UNL     1       0.062  -0.645  -3.760  1.00  0.00     0.197 HD
HETATM    6  C6  UNL     1      -0.147  -2.617  -3.038  1.00  0.00     0.196 C 
HETATM    7  N3  UNL     1      -0.438  -3.718  -3.116  1.00  0.00    -0.171 NA
HETATM    8  N4  UNL     1       0.736   0.672  -1.545  1.00  0.00    -0.216 N 
ATOM      9  H4  UNL     1       1.625   1.121  -1.324  1.00  0.00     0.178 HD
ENDROOT
BRANCH   1  10
HETATM   10  O1  UNL     1       1.810  -1.174   0.287  1.00  0.00    -0.266 OA
BRANCH  10  11
HETATM   11  C4  UNL     1       3.172  -1.466   0.538  1.00  0.00     0.202 C 
BRANCH  11  12
HETATM   12  C3  UNL     1       3.595  -0.972   1.903  1.00  0.00     0.028 C 
BRANCH  12  13
HETATM   13  C2  UNL     1       5.055  -1.319   2.092  1.00  0.00    -0.002 C 
HETATM   14  C1  UNL     1       5.480  -0.827   3.455  1.00  0.00     0.005 C 
ENDBRANCH  12  13
ENDBRANCH  11  12
ENDBRANCH  10  11
ENDBRANCH   1  10
BRANCH   8  15
HETATM   15  C7  UNL     1      -0.434   1.513  -1.614  1.00  0.00     0.135 C 
HETATM   16  C8  UNL     1       0.033   2.939  -1.435  1.00  0.00     0.065 C 
HETATM   17  C9  UNL     1      -1.132   3.893  -1.449  1.00  0.00     0.156 C 
HETATM   18  C11 UNL     1      -2.223   3.420  -0.524  1.00  0.00     0.004 C 
HETATM   19  C12 UNL     1      -2.336   2.180  -0.161  1.00  0.00     0.006 C 
HETATM   20  C13 UNL     1      -1.423   1.080  -0.600  1.00  0.00     0.177 C 
BRANCH  17  21
HETATM   21  O2  UNL     1      -0.755   5.204  -1.184  1.00  0.00    -0.315 OA
BRANCH  21  22
HETATM   22  C10 UNL     1      -0.133   5.569   0.020  1.00  0.00     0.225 C 
HETATM   23  N5  UNL     1      -0.522   4.892   1.050  1.00  0.00    -0.368 N 
ATOM     24  H52 UNL     1      -1.223   4.153   0.996  1.00  0.00     0.159 HD
ATOM     25  H51 UNL     1      -0.070   5.157   1.925  1.00  0.00     0.159 HD
HETATM   26  N6  UNL     1       0.842   6.598   0.095  1.00  0.00    -0.057 NA
ENDBRANCH  21  22
ENDBRANCH  17  21
BRANCH  20  27
HETATM   27  O3  UNL     1      -2.290   0.034  -1.012  1.00  0.00    -0.309 OA
BRANCH  27  28
HETATM   28  C14 UNL     1      -2.466  -1.117  -0.288  1.00  0.00     0.277 C 
HETATM   29  O4  UNL     1      -1.826  -1.242   0.793  1.00  0.00    -0.263 OA
BRANCH  28  30
HETATM   30  C15 UNL     1      -3.356  -2.228  -0.685  1.00  0.00     0.235 C 
BRANCH  30  31
HETATM   31  N7  UNL     1      -3.327  -3.298   0.271  1.00  0.00    -0.333 N 
HETATM   32  C16 UNL     1      -4.125  -4.449   0.049  1.00  0.00     0.329 C 
HETATM   33  O5  UNL     1      -4.850  -4.555  -0.956  1.00  0.00    -0.246 OA
HETATM   34  N8  UNL     1      -4.105  -5.529   0.998  1.00  0.00    -0.245 N 
HETATM   35  C17 UNL     1      -4.880  -6.673   0.804  1.00  0.00     0.185 C 
ATOM     36  H8  UNL     1      -3.515  -5.458   1.827  1.00  0.00     0.183 HD
HETATM   37  N9  UNL     1      -5.546  -7.625   0.651  1.00  0.00    -0.172 NA
ATOM     38  H7  UNL     1      -2.739  -3.231   1.101  1.00  0.00     0.164 HD
ENDBRANCH  30  31
ENDBRANCH  28  30
ENDBRANCH  27  28
ENDBRANCH  20  27
ENDBRANCH   8  15
TORSDOF 11
