REMARK  13 active torsions:
REMARK  status: ('A' for Active; 'I' for Inactive)
REMARK    1  A    between atoms: O1_2  and  C2_3 
REMARK    2  A    between atoms: C3_4  and  N1_5 
REMARK       I    between atoms: N1_5  and  C4_7 
REMARK    3  A    between atoms: C6_10  and  N2_11 
REMARK    4  A    between atoms: N2_11  and  N3_13 
REMARK    5  A    between atoms: C7_18  and  C8_19 
REMARK    6  A    between atoms: C8_19  and  C9_20 
REMARK    7  A    between atoms: C9_20  and  O3_21 
REMARK    8  A    between atoms: C9_20  and  C10_23 
REMARK    9  A    between atoms: C10_23  and  C11_24 
REMARK   10  A    between atoms: C10_23  and  N6_31 
REMARK   11  A    between atoms: C11_24  and  C12_25 
REMARK   12  A    between atoms: C17_36  and  C18_37 
REMARK   13  A    between atoms: C18_37  and  O5_39 
ROOT
HETATM    1  N6  UNL     1       3.996  -0.892  -1.220  1.00  0.00    -0.321 N 
ATOM      2  H6  UNL     1       3.583  -0.114  -1.734  1.00  0.00     0.172 HD
HETATM    3  C16 UNL     1       5.208  -1.458  -1.630  1.00  0.00     0.177 C 
HETATM    4  N7  UNL     1       6.212  -1.925  -1.983  1.00  0.00    -0.172 NA
ENDROOT
BRANCH   1   5
HETATM    5  C10 UNL     1       3.348  -1.431  -0.060  1.00  0.00     0.126 C 
BRANCH   5   6
HETATM    6  C9  UNL     1       2.031  -0.736   0.225  1.00  0.00     0.144 C 
BRANCH   6   7
HETATM    7  C8  UNL     1       1.076  -0.883  -0.946  1.00  0.00     0.068 C 
BRANCH   7   8
HETATM    8  C7  UNL     1      -0.257  -0.240  -0.639  1.00  0.00     0.151 C 
HETATM    9  C6  UNL     1      -1.156  -0.417  -1.839  1.00  0.00     0.155 C 
HETATM   10  C3  UNL     1      -2.538   0.151  -1.602  1.00  0.00     0.142 C 
HETATM   11  C2  UNL     1      -2.877   0.126  -0.112  1.00  0.00     0.177 C 
HETATM   12  C17 UNL     1      -2.103  -0.996   0.562  1.00  0.00     0.181 C 
HETATM   13  O4  UNL     1      -0.745  -0.729   0.547  1.00  0.00    -0.373 OA
BRANCH   9  14
HETATM   14  N2  UNL     1      -1.169  -1.767  -2.312  1.00  0.00    -0.313 N 
ATOM     15  H2  UNL     1      -1.004  -2.503  -1.625  1.00  0.00     0.182 HD
BRANCH  14  16
HETATM   16  N3  UNL     1      -1.360  -2.115  -3.467  1.00  0.00    -0.253 N 
HETATM   17  N4  UNL     1      -2.111  -2.419  -4.420  1.00  0.00    -0.331 N 
ATOM     18  H42 UNL     1      -3.033  -2.319  -3.996  1.00  0.00     0.178 HD
ATOM     19  H41 UNL     1      -2.271  -2.710  -5.385  1.00  0.00     0.178 HD
ATOM     20  H3  UNL     1      -0.421  -2.204  -3.856  1.00  0.00     0.207 HD
ENDBRANCH  14  16
ENDBRANCH   9  14
BRANCH  10  21
HETATM   21  N1  UNL     1      -2.550   1.535  -2.019  1.00  0.00    -0.352 N 
HETATM   22  C4  UNL     1      -3.408   2.040  -3.021  1.00  0.00     0.214 C 
HETATM   23  C5  UNL     1      -3.386   3.461  -3.415  1.00  0.00     0.117 C 
HETATM   24  O2  UNL     1      -4.202   1.256  -3.581  1.00  0.00    -0.274 OA
ATOM     25  H1  UNL     1      -1.904   2.181  -1.565  1.00  0.00     0.163 HD
ENDBRANCH  10  21
BRANCH  11  26
HETATM   26  O1  UNL     1      -4.244   0.023   0.063  1.00  0.00    -0.386 OA
HETATM   27  C1  UNL     1      -4.801   1.165   0.652  1.00  0.00     0.202 C 
ENDBRANCH  11  26
BRANCH  12  28
HETATM   28  C18 UNL     1      -2.541  -1.073   1.999  1.00  0.00     0.145 C 
HETATM   29  C19 UNL     1      -1.773  -2.117   2.778  1.00  0.00     0.042 C 
BRANCH  28  30
HETATM   30  O5  UNL     1      -3.890  -1.371   2.156  1.00  0.00    -0.393 OA
ATOM     31  H5  UNL     1      -4.167  -1.420   3.064  1.00  0.00     0.210 HD
ENDBRANCH  28  30
ENDBRANCH  12  28
ENDBRANCH   7   8
ENDBRANCH   6   7
BRANCH   6  32
HETATM   32  O3  UNL     1       1.495  -1.348   1.356  1.00  0.00    -0.393 OA
ATOM     33  H3  UNL     1       2.093  -1.256   2.089  1.00  0.00     0.210 HD
ENDBRANCH   6  32
ENDBRANCH   5   6
BRANCH   5  34
HETATM   34  C11 UNL     1       4.218  -1.281   1.174  1.00  0.00     0.085 C 
BRANCH  34  35
HETATM   35  C12 UNL     1       4.497   0.128   1.526  1.00  0.00     0.011 A 
HETATM   36  C13 UNL     1       5.563   0.883   1.075  1.00  0.00     0.026 A 
HETATM   37  C14 UNL     1       5.473   2.148   1.632  1.00  0.00     0.019 A 
HETATM   38  C15 UNL     1       4.360   2.149   2.410  1.00  0.00     0.088 A 
HETATM   39  N5  UNL     1       3.796   0.935   2.330  1.00  0.00    -0.369 N 
ATOM     40  H5  UNL     1       2.943   0.662   2.819  1.00  0.00     0.165 HD
ENDBRANCH  34  35
ENDBRANCH   5  34
ENDBRANCH   1   5
TORSDOF 13
