REMARK  7 active torsions:
REMARK  status: ('A' for Active; 'I' for Inactive)
REMARK    1  A    between atoms: C2_2  and  C3_4 
REMARK    2  A    between atoms: C3_4  and  N1_6 
REMARK       I    between atoms: N1_6  and  C5_8 
REMARK    3  A    between atoms: C5_8  and  C6_10 
REMARK    4  A    between atoms: C6_10  and  N2_11 
REMARK    5  A    between atoms: C6_10  and  C15_26 
REMARK       I    between atoms: N2_11  and  C7_13 
REMARK    6  A    between atoms: C7_13  and  C8_15 
REMARK    7  A    between atoms: C11_18  and  C12_19 
ROOT
HETATM    1  N2  UNL     1       0.321  -0.341  -0.102  1.00  0.00    -0.343 N 
ATOM      2  H2  UNL     1       0.804   0.137   0.659  1.00  0.00     0.163 HD
HETATM    3  C7  UNL     1       1.008  -0.589  -1.325  1.00  0.00     0.252 C 
HETATM    4  O3  UNL     1       0.480  -1.169  -2.304  1.00  0.00    -0.268 OA
ENDROOT
BRANCH   1   5
HETATM    5  C6  UNL     1      -1.058  -0.760   0.075  1.00  0.00     0.180 C 
BRANCH   5   6
HETATM    6  C5  UNL     1      -1.901   0.339   0.567  1.00  0.00     0.241 C 
HETATM    7  N1  UNL     1      -3.277   0.159   0.800  1.00  0.00    -0.348 N 
ATOM      8  H1  UNL     1      -3.676  -0.761   0.611  1.00  0.00     0.163 HD
HETATM    9  O2  UNL     1      -1.393   1.454   0.788  1.00  0.00    -0.271 OA
BRANCH   7  10
HETATM   10  C3  UNL     1      -4.172   1.202   1.295  1.00  0.00     0.149 C 
HETATM   11  C4  UNL     1      -5.153   1.510   0.182  1.00  0.00     0.040 C 
BRANCH  10  12
HETATM   12  C2  UNL     1      -4.913   0.755   2.488  1.00  0.00     0.145 C 
HETATM   13  C1  UNL     1      -5.871   1.624   3.186  1.00  0.00     0.093 C 
HETATM   14  O1  UNL     1      -4.720  -0.374   2.905  1.00  0.00    -0.296 OA
ENDBRANCH  10  12
ENDBRANCH   7  10
ENDBRANCH   5   6
BRANCH   5  15
HETATM   15  C15 UNL     1      -1.129  -1.986   0.975  1.00  0.00     0.009 C 
HETATM   16  C16 UNL     1      -0.236  -3.060   0.387  1.00  0.00     0.012 C 
HETATM   17  C17 UNL     1      -0.688  -1.725   2.368  1.00  0.00     0.012 C 
ENDBRANCH   5  15
ENDBRANCH   1   5
BRANCH   3  18
HETATM   18  C8  UNL     1       2.397  -0.170  -1.499  1.00  0.00     0.032 A 
HETATM   19  C9  UNL     1       3.289  -0.901  -2.260  1.00  0.00     0.018 A 
HETATM   20  C10 UNL     1       4.576  -0.440  -2.374  1.00  0.00     0.016 A 
HETATM   21  C11 UNL     1       4.994   0.734  -1.747  1.00  0.00     0.004 A 
HETATM   22  C13 UNL     1       4.108   1.465  -0.990  1.00  0.00     0.016 A 
HETATM   23  C14 UNL     1       2.815   0.991  -0.881  1.00  0.00     0.018 A 
BRANCH  21  24
HETATM   24  C12 UNL     1       6.355   1.183  -1.872  1.00  0.00     0.120 C 
HETATM   25  N3  UNL     1       6.787   2.252  -1.349  1.00  0.00    -0.387 N 
ATOM     26  H32 UNL     1       6.122   2.818  -0.821  1.00  0.00     0.157 HD
ATOM     27  H31 UNL     1       7.752   2.570  -1.438  1.00  0.00     0.157 HD
HETATM   28  N4  UNL     1       7.291   0.386  -2.615  1.00  0.00    -0.082 NA
ENDBRANCH  21  24
ENDBRANCH   3  18
TORSDOF 7
