REMARK  6 active torsions:
REMARK  status: ('A' for Active; 'I' for Inactive)
REMARK    1  A    between atoms: S1_2  and  C2_3 
REMARK    2  A    between atoms: C4_7  and  C5_8 
REMARK    3  A    between atoms: C5_8  and  O1_9 
REMARK    4  A    between atoms: C8_13  and  N2_14 
REMARK    5  A    between atoms: N2_14  and  N3_16 
REMARK    6  A    between atoms: N3_16  and  N4_17 
ROOT
HETATM    1  C5  UNL     1      -0.576  -1.021  -0.084  1.00  0.00     0.087 C 
HETATM    2  C6  UNL     1      -1.345  -0.481  -1.253  1.00  0.00     0.045 C 
HETATM    3  C7  UNL     1      -2.821  -0.583  -0.956  1.00  0.00     0.031 C 
HETATM    4  C8  UNL     1      -3.022   0.428   0.183  1.00  0.00     0.114 C 
HETATM    5  C9  UNL     1      -2.441  -0.189   1.411  1.00  0.00     0.031 C 
HETATM    6  C10 UNL     1      -1.045  -0.693   1.265  1.00  0.00     0.045 C 
ENDROOT
BRANCH   1   7
HETATM    7  C4  UNL     1       0.834  -0.529  -0.293  1.00  0.00     0.007 A 
HETATM    8  C3  UNL     1       1.095   0.823  -0.309  1.00  0.00     0.101 A 
HETATM    9  N1  UNL     1       2.348   1.227  -0.521  1.00  0.00    -0.346 N 
HETATM   10  C2  UNL     1       3.394   0.402  -0.723  1.00  0.00     0.143 A 
ATOM     11  H1  UNL     1       2.527   2.231  -0.531  1.00  0.00     0.167 HD
HETATM   12  N5  UNL     1       3.115  -0.929  -0.703  1.00  0.00    -0.346 N 
HETATM   13  C11 UNL     1       1.877  -1.403  -0.495  1.00  0.00     0.101 A 
ATOM     14  H5  UNL     1       3.876  -1.592  -0.852  1.00  0.00     0.167 HD
BRANCH  10  15
HETATM   15  S1  UNL     1       5.053   1.008  -1.022  1.00  0.00    -0.098 SA
HETATM   16  C1  UNL     1       5.976   1.216   0.492  1.00  0.00     0.099 C 
ENDBRANCH  10  15
ENDBRANCH   1   7
BRANCH   1  17
HETATM   17  O1  UNL     1      -0.517  -2.414  -0.265  1.00  0.00    -0.385 OA
ATOM     18  H1  UNL     1      -1.405  -2.724  -0.133  1.00  0.00     0.211 HD
ENDBRANCH   1  17
BRANCH   4  19
HETATM   19  N2  UNL     1      -4.384   0.797   0.359  1.00  0.00    -0.248 N 
ATOM     20  H2  UNL     1      -5.084   0.064   0.476  1.00  0.00     0.197 HD
BRANCH  19  21
HETATM   21  N3  UNL     1      -4.748   1.988   0.375  1.00  0.00    -0.248 NA
BRANCH  21  22
HETATM   22  N4  UNL     1      -4.926   3.183   0.693  1.00  0.00    -0.261 N 
ATOM     23  H42 UNL     1      -4.375   3.116   1.548  1.00  0.00     0.193 HD
ATOM     24  H41 UNL     1      -5.224   4.158   0.706  1.00  0.00     0.193 HD
ENDBRANCH  21  22
ENDBRANCH  19  21
ENDBRANCH   4  19
TORSDOF 6
