REMARK  8 active torsions:
REMARK  status: ('A' for Active; 'I' for Inactive)
REMARK    1  A    between atoms: S1_2  and  C2_3 
REMARK    2  A    between atoms: C2_3  and  C3_4 
REMARK    3  A    between atoms: C2_3  and  N1_11 
REMARK    4  A    between atoms: C3_4  and  C4_5 
REMARK    5  A    between atoms: N1_11  and  C10_13 
REMARK    6  A    between atoms: C10_13  and  N2_15 
REMARK    7  A    between atoms: N2_15  and  C11_17 
REMARK    8  A    between atoms: C11_17  and  C12_18 
ROOT
HETATM    1  N1  UNL     1       0.889   0.572   1.188  1.00  0.00    -0.354 N 
ATOM      2  H1  UNL     1       1.045  -0.295   1.702  1.00  0.00     0.163 HD
ENDROOT
BRANCH   1   3
HETATM    3  C2  UNL     1       1.996   1.301   0.630  1.00  0.00     0.146 C 
BRANCH   3   4
HETATM    4  S1  UNL     1       2.100   2.973   1.393  1.00  0.00    -0.148 SA
HETATM    5  C1  UNL     1       3.350   3.969   0.570  1.00  0.00     0.092 C 
ENDBRANCH   3   4
BRANCH   3   6
HETATM    6  C3  UNL     1       3.270   0.589   0.906  1.00  0.00     0.040 C 
BRANCH   6   7
HETATM    7  C4  UNL     1       3.356  -0.812   0.332  1.00  0.00    -0.012 C 
HETATM    8  C5  UNL     1       3.209  -0.709  -1.135  1.00  0.00     0.005 C 
HETATM    9  C6  UNL     1       4.247  -1.429  -1.945  1.00  0.00     0.000 C 
HETATM   10  C7  UNL     1       5.590  -1.098  -1.299  1.00  0.00     0.000 C 
HETATM   11  C8  UNL     1       5.617  -1.919  -0.032  1.00  0.00     0.000 C 
HETATM   12  C9  UNL     1       4.560  -1.454   0.887  1.00  0.00     0.005 C 
ENDBRANCH   6   7
ENDBRANCH   3   6
ENDBRANCH   1   3
BRANCH   1  13
HETATM   13  C10 UNL     1      -0.439   1.086   1.008  1.00  0.00     0.168 C 
HETATM   14  S2  UNL     1      -0.612   2.489   0.212  1.00  0.00    -0.041 SA
BRANCH  13  15
HETATM   15  N2  UNL     1      -1.515   0.361   1.551  1.00  0.00    -0.367 N 
ATOM     16  H2  UNL     1      -1.315  -0.499   2.061  1.00  0.00     0.161 HD
BRANCH  15  17
HETATM   17  C11 UNL     1      -2.881   0.777   1.420  1.00  0.00     0.126 C 
BRANCH  17  18
HETATM   18  C12 UNL     1      -3.404   0.653   0.029  1.00  0.00     0.003 C 
HETATM   19  C13 UNL     1      -4.837   1.097  -0.049  1.00  0.00     0.006 C 
HETATM   20  C14 UNL     1      -5.806   0.333   0.773  1.00  0.00     0.000 C 
HETATM   21  C15 UNL     1      -6.310  -0.948   0.160  1.00  0.00     0.000 C 
HETATM   22  C16 UNL     1      -5.399  -1.482  -0.905  1.00  0.00     0.000 C 
HETATM   23  C17 UNL     1      -4.061  -1.765  -0.220  1.00  0.00     0.000 C 
HETATM   24  C18 UNL     1      -3.126  -0.675  -0.618  1.00  0.00     0.006 C 
ENDBRANCH  17  18
ENDBRANCH  15  17
ENDBRANCH  13  15
ENDBRANCH   1  13
TORSDOF 8
