REMARK  14 active torsions:
REMARK  status: ('A' for Active; 'I' for Inactive)
REMARK    1  A    between atoms: C2_2  and  C3_3 
REMARK    2  A    between atoms: C5_5  and  O1_6 
REMARK    3  A    between atoms: C5_5  and  C6_8 
REMARK    4  A    between atoms: C6_8  and  N1_9 
REMARK    5  A    between atoms: C14_18  and  N3_19 
REMARK    6  A    between atoms: N3_19  and  C15_21 
REMARK    7  A    between atoms: C15_21  and  C16_22 
REMARK    8  A    between atoms: C16_22  and  O2_23 
REMARK    9  A    between atoms: O2_23  and  C17_24 
REMARK   10  A    between atoms: N5_32  and  C23_33 
REMARK   11  A    between atoms: C24_36  and  C25_37 
REMARK   12  A    between atoms: C25_37  and  C26_38 
REMARK   13  A    between atoms: N7_40  and  C28_41 
REMARK   14  A    between atoms: C28_41  and  C29_42 
ROOT
HETATM    1  C17 UNL     1       0.586  -0.245  -0.122  1.00  0.00     0.142 A 
HETATM    2  C18 UNL     1       0.593  -1.387  -0.874  1.00  0.00     0.057 A 
HETATM    3  C19 UNL     1      -0.519  -2.218  -0.911  1.00  0.00     0.013 A 
HETATM    4  C20 UNL     1      -1.622  -1.842  -0.161  1.00  0.00    -0.032 A 
HETATM    5  C21 UNL     1      -1.616  -0.673   0.600  1.00  0.00     0.036 A 
HETATM    6  N4  UNL     1      -0.505   0.081   0.588  1.00  0.00    -0.339 N 
ATOM      7  H4  UNL     1      -0.490   0.937   1.142  1.00  0.00     0.168 HD
HETATM    8  C22 UNL     1      -2.798  -0.231   1.391  1.00  0.00     0.199 C 
HETATM    9  N5  UNL     1      -3.901  -1.141   1.174  1.00  0.00    -0.212 N 
HETATM   10  C36 UNL     1      -3.522  -2.566   1.168  1.00  0.00     0.146 C 
HETATM   11  C37 UNL     1      -2.802  -2.743  -0.179  1.00  0.00     0.061 C 
ENDROOT
BRANCH   1  12
HETATM   12  O2  UNL     1       1.739   0.563  -0.121  1.00  0.00    -0.331 OA
BRANCH  12  13
HETATM   13  C16 UNL     1       1.657   1.696   0.692  1.00  0.00     0.221 C 
BRANCH  13  14
HETATM   14  C15 UNL     1       2.843   2.602   0.694  1.00  0.00     0.082 C 
BRANCH  14  15
HETATM   15  N3  UNL     1       4.023   2.012   1.098  1.00  0.00    -0.395 N 
ATOM     16  H3  UNL     1       4.364   2.246   2.030  1.00  0.00     0.159 HD
BRANCH  15  17
HETATM   17  C14 UNL     1       4.795   1.119   0.341  1.00  0.00     0.088 C 
HETATM   18  C3  UNL     1       5.450   1.737  -0.823  1.00  0.00     0.033 C 
HETATM   19  C4  UNL     1       6.714   1.073  -1.328  1.00  0.00     0.050 C 
HETATM   20  C5  UNL     1       7.573   0.694  -0.174  1.00  0.00     0.085 C 
HETATM   21  C12 UNL     1       6.807  -0.379   0.568  1.00  0.00     0.041 C 
HETATM   22  C13 UNL     1       5.714   0.390   1.311  1.00  0.00     0.029 C 
BRANCH  18  23
HETATM   23  C2  UNL     1       5.662   3.206  -0.807  1.00  0.00    -0.030 C 
HETATM   24  C1  UNL     1       5.226   4.038  -1.753  1.00  0.00     0.007 C 
ENDBRANCH  18  23
BRANCH  20  25
HETATM   25  O1  UNL     1       7.543   1.812   0.746  1.00  0.00    -0.388 OA
ATOM     26  H1  UNL     1       8.092   1.570   1.483  1.00  0.00     0.210 HD
ENDBRANCH  20  25
BRANCH  20  27
HETATM   27  C6  UNL     1       8.989   0.455  -0.477  1.00  0.00     0.310 C 
BRANCH  27  28
HETATM   28  N1  UNL     1       9.418  -0.520  -1.391  1.00  0.00     0.094 N 
HETATM   29  C7  UNL     1      10.876  -0.325  -1.560  1.00  0.00     0.302 C 
HETATM   30  C8  UNL     1      11.663  -1.570  -1.342  1.00  0.00     0.302 C 
HETATM   31  N2  UNL     1      11.344  -2.312  -0.162  1.00  0.00     0.087 N 
HETATM   32  C9  UNL     1      12.164  -2.047   0.976  1.00  0.00     0.310 C 
HETATM   33  C10 UNL     1       9.919  -2.319   0.121  1.00  0.00     0.302 C 
HETATM   34  C11 UNL     1       9.155  -1.894  -1.120  1.00  0.00     0.302 C 
ENDBRANCH  27  28
ENDBRANCH  20  27
ENDBRANCH  15  17
ENDBRANCH  14  15
ENDBRANCH  13  14
ENDBRANCH  12  13
ENDBRANCH   1  12
BRANCH   9  35
HETATM   35  C23 UNL     1      -5.249  -0.755   0.947  1.00  0.00     0.686 A 
HETATM   36  N6  UNL     1      -5.579   0.234   0.118  1.00  0.00    -0.180 N 
HETATM   37  C24 UNL     1      -6.886   0.604  -0.085  1.00  0.00     0.103 A 
ATOM     38  H6  UNL     1      -4.840   0.731  -0.380  1.00  0.00     0.185 HD
HETATM   39  N7  UNL     1      -7.909  -0.008   0.534  1.00  0.00    -0.287 N 
HETATM   40  C35 UNL     1      -7.552  -1.020   1.387  1.00  0.00     0.342 A 
HETATM   41  O3  UNL     1      -8.489  -1.603   1.992  1.00  0.00    -0.246 OA
HETATM   42  N8  UNL     1      -6.271  -1.368   1.574  1.00  0.00    -0.141 N 
ATOM     43  H8  UNL     1      -6.061  -2.130   2.219  1.00  0.00     0.189 HD
BRANCH  37  44
HETATM   44  C25 UNL     1      -7.078   1.704  -1.038  1.00  0.00     0.077 C 
BRANCH  44  45
HETATM   45  C26 UNL     1      -6.763   3.061  -0.500  1.00  0.00     0.003 C 
HETATM   46  C27 UNL     1      -7.518   3.515   0.685  1.00  0.00     0.005 C 
ENDBRANCH  44  45
ENDBRANCH  37  44
BRANCH  39  47
HETATM   47  C28 UNL     1      -9.274   0.318   0.280  1.00  0.00     0.139 C 
BRANCH  47  48
HETATM   48  C29 UNL     1      -9.964  -0.388  -0.826  1.00  0.00     0.004 C 
HETATM   49  C30 UNL     1     -11.394   0.172  -0.874  1.00  0.00     0.006 C 
HETATM   50  C31 UNL     1     -12.207  -0.274   0.295  1.00  0.00     0.000 C 
HETATM   51  C32 UNL     1     -11.895  -1.643   0.809  1.00  0.00     0.000 C 
HETATM   52  C33 UNL     1     -11.183  -2.508  -0.180  1.00  0.00     0.000 C 
HETATM   53  C34 UNL     1     -10.002  -1.865  -0.851  1.00  0.00     0.006 C 
ENDBRANCH  47  48
ENDBRANCH  39  47
ENDBRANCH   9  35
TORSDOF 14
