REMARK  9 active torsions:
REMARK  status: ('A' for Active; 'I' for Inactive)
REMARK    1  A    between atoms: O1_2  and  C2_3 
REMARK    2  A    between atoms: C4_7  and  C5_8 
REMARK    3  A    between atoms: C7_11  and  C8_12 
REMARK    4  A    between atoms: C9_13  and  C10_14 
REMARK    5  A    between atoms: C11_15  and  O2_16 
REMARK    6  A    between atoms: C13_20  and  O4_21 
REMARK    7  A    between atoms: C14_23  and  O5_24 
REMARK    8  A    between atoms: C15_26  and  C16_27 
REMARK    9  A    between atoms: C16_27  and  C17_28 
ROOT
HETATM    1  C5  UNL     1       1.935  -3.605   1.067  1.00  0.00     0.176 C 
HETATM    2  C6  UNL     1       2.565  -4.358   2.140  1.00  0.00     0.064 C 
HETATM    3  N2  UNL     1       3.090  -4.961   2.995  1.00  0.00    -0.197 NA
ENDROOT
BRANCH   1   4
HETATM    4  C4  UNL     1       2.581  -2.283   0.951  1.00  0.00     0.004 C 
HETATM    5  N1  UNL     1       3.560  -1.880   1.644  1.00  0.00    -0.387 N 
HETATM    6  C3  UNL     1       3.904  -0.599   1.282  1.00  0.00     0.118 A 
ATOM      7  H1  UNL     1       4.027  -2.427   2.367  1.00  0.00     0.159 HD
HETATM    8  C2  UNL     1       4.600   0.111   0.282  1.00  0.00     0.151 A 
HETATM    9  C19 UNL     1       3.659  -0.769  -0.247  1.00  0.00     0.055 A 
HETATM   10  C7  UNL     1       2.251  -1.176  -0.048  1.00  0.00     0.063 C 
BRANCH   8  11
HETATM   11  O1  UNL     1       4.418   1.477   0.089  1.00  0.00    -0.388 OA
HETATM   12  C1  UNL     1       5.590   2.180  -0.127  1.00  0.00     0.202 C 
ENDBRANCH   8  11
BRANCH  10  13
HETATM   13  C8  UNL     1       1.274  -0.225   0.405  1.00  0.00    -0.019 C 
HETATM   14  C9  UNL     1       0.203   0.075  -0.332  1.00  0.00    -0.022 C 
BRANCH  14  15
HETATM   15  C10 UNL     1      -0.844   1.052   0.080  1.00  0.00     0.047 C 
HETATM   16  C11 UNL     1      -0.919   2.178  -0.906  1.00  0.00     0.158 C 
HETATM   17  C12 UNL     1      -2.364   2.538  -1.093  1.00  0.00     0.194 A 
HETATM   18  O3  UNL     1      -2.912   3.422  -0.188  1.00  0.00    -0.347 OA
HETATM   19  C14 UNL     1      -3.158   1.428  -0.440  1.00  0.00     0.140 A 
HETATM   20  C13 UNL     1      -3.679   2.507   0.496  1.00  0.00     0.294 A 
HETATM   21  C15 UNL     1      -2.213   0.466   0.184  1.00  0.00     0.045 C 
BRANCH  16  22
HETATM   22  O2  UNL     1      -0.321   1.830  -2.127  1.00  0.00    -0.392 OA
ATOM     23  H2  UNL     1      -0.369   2.544  -2.752  1.00  0.00     0.210 HD
ENDBRANCH  16  22
BRANCH  20  24
HETATM   24  O4  UNL     1      -5.040   2.740   0.382  1.00  0.00    -0.368 OA
ATOM     25  H4  UNL     1      -5.570   2.108   0.854  1.00  0.00     0.212 HD
ENDBRANCH  20  24
BRANCH  19  26
HETATM   26  O5  UNL     1      -4.134   0.976  -1.285  1.00  0.00    -0.382 OA
ATOM     27  H5  UNL     1      -4.633   0.279  -0.875  1.00  0.00     0.211 HD
ENDBRANCH  19  26
BRANCH  21  28
HETATM   28  C16 UNL     1      -2.287  -0.947  -0.274  1.00  0.00     0.086 C 
BRANCH  28  29
HETATM   29  C17 UNL     1      -3.640  -1.498  -0.165  1.00  0.00     0.123 C 
HETATM   30  C18 UNL     1      -4.313  -1.682   1.160  1.00  0.00     0.091 C 
HETATM   31  O6  UNL     1      -4.311  -1.843  -1.153  1.00  0.00    -0.298 OA
ENDBRANCH  28  29
ENDBRANCH  21  28
ENDBRANCH  14  15
ENDBRANCH  10  13
ENDBRANCH   1   4
TORSDOF 9
