REMARK  14 active torsions:
REMARK  status: ('A' for Active; 'I' for Inactive)
REMARK    1  A    between atoms: C1_2  and  C2_4 
REMARK       I    between atoms: C2_4  and  N2_6 
REMARK    2  A    between atoms: N2_6  and  C3_8 
REMARK    3  A    between atoms: C4_9  and  C5_10 
REMARK    4  A    between atoms: C6_15  and  C7_16 
REMARK    5  A    between atoms: N4_17  and  N5_19 
REMARK    6  A    between atoms: C9_25  and  S1_26 
REMARK    7  A    between atoms: S1_26  and  C10_27 
REMARK    8  A    between atoms: C10_27  and  C11_28 
REMARK       I    between atoms: C11_28  and  N8_30 
REMARK    9  A    between atoms: C12_32  and  C13_33 
REMARK   10  A    between atoms: C15_37  and  N10_38 
REMARK   11  A    between atoms: N10_38  and  O6_39 
REMARK       I    between atoms: N10_38  and  C16_44 
REMARK   12  A    between atoms: O6_39  and  S2_40 
REMARK   13  A    between atoms: C16_44  and  C17_46 
REMARK   14  A    between atoms: N11_50  and  O13_51 
ROOT
HETATM    1  N5  UNL     1      -1.484   0.753  -0.178  1.00  0.00    -0.227 N 
HETATM    2  C8  UNL     1      -1.682   0.852  -1.519  1.00  0.00     0.225 A 
HETATM    3  N6  UNL     1      -1.453  -0.360  -2.040  1.00  0.00    -0.292 N 
ATOM      4  H6  UNL     1      -1.524  -0.597  -3.030  1.00  0.00     0.187 HD
HETATM    5  N7  UNL     1      -1.126  -1.192  -1.090  1.00  0.00    -0.277 N 
ATOM      6  H7  UNL     1      -0.901  -2.179  -1.217  1.00  0.00     0.189 HD
HETATM    7  C9  UNL     1      -1.134  -0.543   0.071  1.00  0.00     0.182 A 
ENDROOT
BRANCH   7   8
HETATM    8  S1  UNL     1      -0.751  -1.129   1.711  1.00  0.00    -0.081 SA
BRANCH   8   9
HETATM    9  C10 UNL     1       1.066  -0.907   1.896  1.00  0.00     0.185 C 
BRANCH   9  10
HETATM   10  C11 UNL     1       1.673  -1.909   0.982  1.00  0.00     0.231 C 
HETATM   11  O5  UNL     1       1.991  -3.012   1.581  1.00  0.00    -0.272 OA
HETATM   12  N8  UNL     1       1.928  -1.824  -0.357  1.00  0.00    -0.336 N 
HETATM   13  C12 UNL     1       2.957  -1.586  -0.998  1.00  0.00     0.104 C 
ATOM     14  H8  UNL     1       1.109  -1.989  -0.942  1.00  0.00     0.168 HD
BRANCH  13  15
HETATM   15  C13 UNL     1       4.287  -1.303  -0.501  1.00  0.00    -0.002 A 
HETATM   16  C14 UNL     1       4.756  -1.132   0.776  1.00  0.00     0.102 A 
HETATM   17  N9  UNL     1       6.097  -0.901   0.790  1.00  0.00    -0.349 N 
HETATM   18  C15 UNL     1       6.485  -0.927  -0.490  1.00  0.00     0.139 A 
ATOM     19  H9  UNL     1       6.685  -0.741   1.608  1.00  0.00     0.166 HD
HETATM   20  C18 UNL     1       5.417  -1.169  -1.325  1.00  0.00     0.065 A 
BRANCH  18  21
HETATM   21  N10 UNL     1       7.826  -0.751  -0.923  1.00  0.00    -0.143 N 
HETATM   22  C16 UNL     1       8.234   0.431  -1.561  1.00  0.00     0.351 C 
HETATM   23  O10 UNL     1       9.451   0.488  -2.005  1.00  0.00    -0.258 OA
BRANCH  21  24
HETATM   24  O6  UNL     1       8.689  -1.761  -0.694  1.00  0.00    -0.120 OA
BRANCH  24  25
HETATM   25  S2  UNL     1       9.846  -1.409   0.463  1.00  0.00     0.274 S 
HETATM   26  O7  UNL     1       9.538  -2.160   1.752  1.00  0.00    -0.571 OA
HETATM   27  O8  UNL     1      11.205  -1.946   0.028  1.00  0.00    -0.571 OA
HETATM   28  O9  UNL     1       9.924   0.233   0.794  1.00  0.00    -0.571 OA
ENDBRANCH  24  25
ENDBRANCH  21  24
BRANCH  22  29
HETATM   29  C17 UNL     1       7.437   1.618  -1.783  1.00  0.00     0.272 C 
HETATM   30  O11 UNL     1       6.263   1.726  -1.392  1.00  0.00    -0.640 OA
HETATM   31  O12 UNL     1       7.946   2.744  -2.466  1.00  0.00    -0.640 OA
ENDBRANCH  22  29
ENDBRANCH  18  21
ENDBRANCH  13  15
ENDBRANCH   9  10
ENDBRANCH   8   9
ENDBRANCH   7   8
BRANCH   1  32
HETATM   32  N4  UNL     1      -1.595   1.742   0.770  1.00  0.00    -0.299 N 
HETATM   33  C7  UNL     1      -2.673   2.019   1.371  1.00  0.00     0.158 C 
ATOM     34  H4  UNL     1      -0.762   2.283   1.002  1.00  0.00     0.186 HD
BRANCH  33  35
HETATM   35  C6  UNL     1      -3.977   1.381   1.201  1.00  0.00     0.154 A 
HETATM   36  N3  UNL     1      -4.196   0.360   0.365  1.00  0.00    -0.332 N 
HETATM   37  C4  UNL     1      -5.440  -0.209   0.210  1.00  0.00     0.144 A 
ATOM     38  H3  UNL     1      -3.414  -0.010  -0.176  1.00  0.00     0.168 HD
HETATM   39  C3  UNL     1      -6.510   0.266   0.921  1.00  0.00     0.140 A 
HETATM   40  C19 UNL     1      -6.283   1.318   1.785  1.00  0.00     0.302 A 
HETATM   41  N11 UNL     1      -5.051   1.835   1.900  1.00  0.00    -0.167 N 
HETATM   42  O14 UNL     1      -7.267   1.760   2.449  1.00  0.00    -0.263 OA
BRANCH  37  43
HETATM   43  C5  UNL     1      -5.612  -1.334  -0.696  1.00  0.00     0.229 C 
HETATM   44  O3  UNL     1      -6.740  -1.862  -0.816  1.00  0.00    -0.643 OA
HETATM   45  O4  UNL     1      -4.581  -1.862  -1.446  1.00  0.00    -0.643 OA
ENDBRANCH  37  43
BRANCH  39  46
HETATM   46  N2  UNL     1      -7.835  -0.275   0.749  1.00  0.00    -0.312 N 
HETATM   47  C2  UNL     1      -8.759   0.289  -0.136  1.00  0.00     0.311 C 
HETATM   48  O2  UNL     1      -8.439   1.302  -0.805  1.00  0.00    -0.262 OA
ATOM     49  H2  UNL     1      -8.107  -1.096   1.290  1.00  0.00     0.169 HD
BRANCH  47  50
HETATM   50  C1  UNL     1     -10.081  -0.273  -0.300  1.00  0.00     0.322 C 
HETATM   51  N1  UNL     1     -11.045   0.294  -1.200  1.00  0.00    -0.053 NA
HETATM   52  O1  UNL     1     -10.468  -1.303   0.341  1.00  0.00    -0.266 OA
ENDBRANCH  47  50
ENDBRANCH  39  46
BRANCH  41  53
HETATM   53  O13 UNL     1      -4.839   2.880   2.763  1.00  0.00    -0.278 OA
ATOM     54  H13 UNL     1      -5.590   3.197   3.251  1.00  0.00     0.245 HD
ENDBRANCH  41  53
ENDBRANCH  33  35
ENDBRANCH   1  32
TORSDOF 14
