REMARK  4 active torsions:
REMARK  status: ('A' for Active; 'I' for Inactive)
REMARK    1  A    between atoms: N1_2  and  C2_3 
REMARK    2  A    between atoms: N1_2  and  C6_13 
REMARK    3  A    between atoms: C2_3  and  C3_4 
REMARK    4  A    between atoms: C5_10  and  O2_11 
ROOT
HETATM    1  C1  UNL     1       0.117  -1.963  -0.817  1.00  0.00     0.150 C 
HETATM    2  N1  UNL     1       0.183  -0.776  -0.010  1.00  0.00    -0.378 N 
ENDROOT
BRANCH   2   3
HETATM    3  C2  UNL     1      -0.912  -0.386   0.805  1.00  0.00     0.183 C 
BRANCH   3   4
HETATM    4  C3  UNL     1      -2.214  -0.106   0.116  1.00  0.00     0.071 A 
HETATM    5  N2  UNL     1      -2.447  -0.183  -1.160  1.00  0.00    -0.317 N 
HETATM    6  C4  UNL     1      -3.666   0.103  -1.624  1.00  0.00     0.290 A 
ATOM      7  H2  UNL     1      -1.704  -0.460  -1.802  1.00  0.00     0.169 HD
HETATM    8  O1  UNL     1      -4.082   0.083  -2.838  1.00  0.00    -0.260 OA
HETATM    9  S1  UNL     1      -4.534   0.499  -0.218  1.00  0.00    -0.002 SA
HETATM   10  C5  UNL     1      -3.280   0.278   0.917  1.00  0.00     0.136 A 
BRANCH  10  11
HETATM   11  O2  UNL     1      -3.315   0.443   2.318  1.00  0.00    -0.352 OA
ATOM     12  H2  UNL     1      -4.045   0.706   2.866  1.00  0.00     0.218 HD
ENDBRANCH  10  11
ENDBRANCH   3   4
ENDBRANCH   2   3
BRANCH   2  13
HETATM   13  C6  UNL     1       1.360   0.019   0.032  1.00  0.00     0.055 A 
HETATM   14  C7  UNL     1       2.043   0.170   1.259  1.00  0.00     0.058 A 
HETATM   15  C8  UNL     1       3.186   0.914   1.389  1.00  0.00     0.076 A 
HETATM   16 CL1  UNL     1       3.973   1.052   2.946  1.00  0.00    -0.081 Cl
HETATM   17  C9  UNL     1       3.713   1.552   0.295  1.00  0.00     0.161 A 
HETATM   18  F1  UNL     1       4.851   2.303   0.384  1.00  0.00    -0.202 F 
HETATM   19  C10 UNL     1       3.084   1.433  -0.916  1.00  0.00     0.098 A 
HETATM   20 CL2  UNL     1       3.683   2.210  -2.360  1.00  0.00    -0.079 Cl
HETATM   21  C11 UNL     1       1.928   0.675  -1.026  1.00  0.00     0.085 A 
HETATM   22 CL3  UNL     1       1.137   0.548  -2.603  1.00  0.00    -0.080 Cl
ENDBRANCH   2  13
TORSDOF 4
