REMARK  16 active torsions:
REMARK  status: ('A' for Active; 'I' for Inactive)
REMARK    1  A    between atoms: C2_2  and  N1_3 
REMARK    2  A    between atoms: C2_2  and  C3_7 
REMARK    3  A    between atoms: C3_7  and  N2_8 
REMARK    4  A    between atoms: C3_7  and  N5_32 
REMARK    5  A    between atoms: N2_8  and  C4_11 
REMARK    6  A    between atoms: C4_11  and  C5_12 
REMARK    7  A    between atoms: C6_13  and  O1_14 
REMARK    8  A    between atoms: O1_14  and  C7_15 
REMARK    9  A    between atoms: C7_15  and  C8_17 
REMARK   10  A    between atoms: C8_17  and  N3_18 
REMARK   11  A    between atoms: N3_18  and  C9_21 
REMARK   12  A    between atoms: C9_21  and  C10_22 
REMARK   13  A    between atoms: C10_22  and  S1_23 
REMARK   14  A    between atoms: S1_23  and  C11_24 
REMARK   15  A    between atoms: C11_24  and  C12_25 
REMARK   16  A    between atoms: N5_32  and  N6_34 
ROOT
HETATM    1  C5  UNL     1       3.501   0.720  -2.263  1.00  0.00     0.025 C 
HETATM    2  C6  UNL     1       2.563   1.205  -3.036  1.00  0.00     0.143 C 
ENDROOT
BRANCH   2   3
HETATM    3  O1  UNL     1       1.516   1.960  -2.551  1.00  0.00    -0.290 OA
BRANCH   3   4
HETATM    4  C7  UNL     1       0.305   1.426  -2.120  1.00  0.00     0.289 C 
HETATM    5  O2  UNL     1       0.161   0.192  -2.176  1.00  0.00    -0.263 OA
BRANCH   4   6
HETATM    6  C8  UNL     1      -0.703   2.387  -1.631  1.00  0.00     0.343 C 
BRANCH   6   7
HETATM    7  N3  UNL     1      -1.928   1.764  -1.198  1.00  0.00    -0.066 N 
ATOM      8  H32 UNL     1      -2.342   1.171  -1.917  1.00  0.00     0.277 HD
ATOM      9  H31 UNL     1      -1.773   1.042  -0.495  1.00  0.00     0.277 HD
BRANCH   7  10
HETATM   10  C9  UNL     1      -2.815   2.781  -0.751  1.00  0.00     0.243 C 
BRANCH  10  11
HETATM   11  C10 UNL     1      -4.144   2.266  -0.263  1.00  0.00     0.101 C 
BRANCH  11  12
HETATM   12  S1  UNL     1      -5.060   1.371  -1.510  1.00  0.00    -0.163 SA
BRANCH  12  13
HETATM   13  C11 UNL     1      -6.634   0.801  -0.832  1.00  0.00     0.113 C 
BRANCH  13  14
HETATM   14  C12 UNL     1      -6.407  -0.210   0.224  1.00  0.00    -0.034 A 
HETATM   15  C13 UNL     1      -6.345  -1.537  -0.096  1.00  0.00     0.011 A 
HETATM   16  C14 UNL     1      -6.137  -2.475   0.873  1.00  0.00     0.018 A 
HETATM   17  C15 UNL     1      -5.986  -2.095   2.193  1.00  0.00     0.087 A 
HETATM   18  N4  UNL     1      -6.045  -0.807   2.505  1.00  0.00    -0.375 N 
HETATM   19  C16 UNL     1      -6.252   0.143   1.557  1.00  0.00     0.095 A 
ATOM     20  H4  UNL     1      -5.932  -0.524   3.478  1.00  0.00     0.164 HD
ENDBRANCH  13  14
ENDBRANCH  12  13
ENDBRANCH  11  12
ENDBRANCH  10  11
ENDBRANCH   7  10
ENDBRANCH   6   7
ENDBRANCH   4   6
ENDBRANCH   3   4
ENDBRANCH   2   3
BRANCH   1  21
HETATM   21  C4  UNL     1       3.460   0.976  -0.811  1.00  0.00     0.264 C 
BRANCH  21  22
HETATM   22  N2  UNL     1       3.380  -0.272  -0.078  1.00  0.00    -0.048 N 
ATOM     23  H22 UNL     1       2.568  -0.815  -0.371  1.00  0.00     0.280 HD
ATOM     24  H21 UNL     1       3.128  -0.107   0.896  1.00  0.00     0.280 HD
BRANCH  22  25
HETATM   25  C3  UNL     1       4.574  -1.050  -0.171  1.00  0.00     0.334 C 
BRANCH  25  26
HETATM   26  C2  UNL     1       4.375  -2.415   0.458  1.00  0.00     0.230 C 
HETATM   27  C1  UNL     1       5.646  -3.241   0.351  1.00  0.00     0.044 C 
BRANCH  26  28
HETATM   28  N1  UNL     1       4.050  -2.330   1.844  1.00  0.00    -0.072 N 
ATOM     29  H13 UNL     1       3.975  -3.242   2.295  1.00  0.00     0.274 HD
ATOM     30  H12 UNL     1       4.814  -1.966   2.414  1.00  0.00     0.274 HD
ATOM     31  H11 UNL     1       3.197  -1.776   1.916  1.00  0.00     0.274 HD
ENDBRANCH  26  28
ENDBRANCH  25  26
BRANCH  25  32
HETATM   32  N5  UNL     1       5.756  -0.397   0.332  1.00  0.00    -0.244 N 
ATOM     33  H5  UNL     1       6.481  -0.149  -0.341  1.00  0.00     0.189 HD
BRANCH  32  34
HETATM   34  N6  UNL     1       5.982  -0.080   1.667  1.00  0.00    -0.042 N 
HETATM   35  O3  UNL     1       6.800  -0.685   2.379  1.00  0.00    -0.517 OA
HETATM   36  O4  UNL     1       5.275   0.948   2.233  1.00  0.00    -0.517 OA
ENDBRANCH  32  34
ENDBRANCH  25  32
ENDBRANCH  22  25
ENDBRANCH  21  22
ENDBRANCH   1  21
TORSDOF 16
