REMARK  5 active torsions:
REMARK  status: ('A' for Active; 'I' for Inactive)
REMARK    1  A    between atoms: C4_4  and  C5_5 
REMARK    2  A    between atoms: C5_5  and  C6_6 
REMARK    3  A    between atoms: C6_6  and  C7_7 
REMARK    4  A    between atoms: C7_7  and  C8_8 
REMARK    5  A    between atoms: C8_8  and  C9_9 
ROOT
HETATM    1  C6  UNL     1       0.166  -0.279  -0.091  1.00  0.00     0.005 C 
ENDROOT
BRANCH   1   2
HETATM    2  C5  UNL     1       1.066   0.662   0.661  1.00  0.00     0.038 C 
BRANCH   2   3
HETATM    3  C4  UNL     1       2.494   0.359   0.505  1.00  0.00    -0.058 A 
HETATM    4  C3  UNL     1       3.178   0.953  -0.535  1.00  0.00     0.007 A 
HETATM    5  C2  UNL     1       4.523   0.738  -0.775  1.00  0.00     0.001 A 
HETATM    6  C1  UNL     1       5.231  -0.107   0.053  1.00  0.00     0.000 A 
HETATM    7  C14 UNL     1       4.549  -0.703   1.095  1.00  0.00     0.001 A 
HETATM    8  C13 UNL     1       3.206  -0.484   1.328  1.00  0.00     0.007 A 
ENDBRANCH   2   3
ENDBRANCH   1   2
BRANCH   1   9
HETATM    9  C7  UNL     1      -1.261   0.155   0.164  1.00  0.00     0.005 C 
BRANCH   9  10
HETATM   10  C8  UNL     1      -2.217  -0.752  -0.566  1.00  0.00     0.040 C 
BRANCH  10  11
HETATM   11  C9  UNL     1      -3.612  -0.324  -0.314  1.00  0.00    -0.034 A 
HETATM   12  C10 UNL     1      -4.424  -0.755   0.712  1.00  0.00     0.033 A 
HETATM   13  C11 UNL     1      -5.617  -0.085   0.533  1.00  0.00     0.142 A 
HETATM   14  O1  UNL     1      -5.502   0.675  -0.515  1.00  0.00    -0.334 OA
HETATM   15  C12 UNL     1      -4.319   0.576  -1.070  1.00  0.00     0.148 A 
ENDBRANCH  10  11
ENDBRANCH   9  10
ENDBRANCH   1   9
TORSDOF 5
