REMARK  9 active torsions:
REMARK  status: ('A' for Active; 'I' for Inactive)
REMARK    1  A    between atoms: N1_2  and  C2_3 
REMARK    2  A    between atoms: N1_2  and  N2_5 
REMARK       I    between atoms: N2_5  and  C3_7 
REMARK       I    between atoms: C3_7  and  N4_11 
REMARK    3  A    between atoms: N4_11  and  O2_13 
REMARK    4  A    between atoms: O2_13  and  C4_14 
REMARK    5  A    between atoms: C4_14  and  C5_16 
REMARK    6  A    between atoms: C8_19  and  N5_20 
REMARK       I    between atoms: N5_20  and  C9_22 
REMARK    7  A    between atoms: C9_22  and  C10_24 
REMARK    8  A    between atoms: N6_26  and  C12_27 
REMARK    9  A    between atoms: C13_33  and  N9_34 
ROOT
HETATM    1  C5  UNL     1       1.505   0.936   0.512  1.00  0.00     0.041 A 
HETATM    2  C6  UNL     1       1.076   0.289  -0.622  1.00  0.00     0.020 A 
HETATM    3  C7  UNL     1      -0.270  -0.076  -0.802  1.00  0.00     0.030 A 
HETATM    4  C8  UNL     1      -1.199   0.206   0.159  1.00  0.00     0.035 A 
HETATM    5  C14 UNL     1      -0.741   0.872   1.319  1.00  0.00     0.030 A 
HETATM    6  C15 UNL     1       0.573   1.224   1.485  1.00  0.00     0.020 A 
ENDROOT
BRANCH   4   7
HETATM    7  N5  UNL     1      -2.563  -0.145   0.055  1.00  0.00    -0.322 N 
HETATM    8  C9  UNL     1      -3.149  -1.002  -0.884  1.00  0.00     0.275 C 
HETATM    9  O4  UNL     1      -2.550  -1.599  -1.783  1.00  0.00    -0.266 OA
ATOM     10  H5  UNL     1      -3.192   0.273   0.741  1.00  0.00     0.169 HD
BRANCH   8  11
HETATM   11  C10 UNL     1      -4.614  -1.229  -0.815  1.00  0.00     0.135 A 
HETATM   12  C11 UNL     1      -5.511  -0.681   0.100  1.00  0.00     0.156 A 
HETATM   13  N6  UNL     1      -6.745  -1.126  -0.166  1.00  0.00    -0.229 N 
HETATM   14  N10 UNL     1      -6.625  -1.921  -1.205  1.00  0.00    -0.234 N 
HETATM   15  N11 UNL     1      -5.372  -2.002  -1.613  1.00  0.00    -0.279 N 
ATOM     16  H10 UNL     1      -7.403  -2.414  -1.642  1.00  0.00     0.209 HD
ATOM     17  H11 UNL     1      -5.036  -2.557  -2.400  1.00  0.00     0.189 HD
BRANCH  13  18
HETATM   18  C12 UNL     1      -7.936  -0.812   0.524  1.00  0.00     0.195 A 
HETATM   19  N7  UNL     1      -8.141  -1.047   1.853  1.00  0.00    -0.220 N 
HETATM   20  O5  UNL     1      -9.337  -0.635   2.134  1.00  0.00    -0.153 OA
ATOM     21  H7  UNL     1      -7.477  -1.468   2.503  1.00  0.00     0.198 HD
HETATM   22  N8  UNL     1      -9.928  -0.150   1.099  1.00  0.00    -0.222 N 
HETATM   23  C13 UNL     1      -9.093  -0.236   0.054  1.00  0.00     0.169 A 
ATOM     24  H8  UNL     1     -10.872   0.235   1.077  1.00  0.00     0.198 HD
BRANCH  23  25
HETATM   25  N9  UNL     1      -9.286   0.133  -1.170  1.00  0.00    -0.381 N 
ATOM     26  H92 UNL     1      -8.651   0.068  -1.965  1.00  0.00     0.157 HD
ATOM     27  H91 UNL     1     -10.144   0.560  -1.519  1.00  0.00     0.157 HD
ENDBRANCH  23  25
ENDBRANCH  13  18
ENDBRANCH   8  11
ENDBRANCH   4   7
BRANCH   1  28
HETATM   28  C4  UNL     1       2.924   1.296   0.651  1.00  0.00     0.315 C 
HETATM   29  O3  UNL     1       3.386   1.879   1.650  1.00  0.00    -0.257 OA
BRANCH  28  30
HETATM   30  O2  UNL     1       3.806   0.976  -0.380  1.00  0.00    -0.180 OA
BRANCH  30  31
HETATM   31  N4  UNL     1       5.144   1.257  -0.370  1.00  0.00    -0.087 N 
HETATM   32  C3  UNL     1       5.985   0.560  -1.271  1.00  0.00     0.710 C 
HETATM   33  N2  UNL     1       7.386   0.578  -1.087  1.00  0.00    -0.127 N 
HETATM   34  N3  UNL     1       5.472  -0.097  -2.270  1.00  0.00    -0.232 N 
ATOM     35  H2  UNL     1       7.996   0.983  -1.797  1.00  0.00     0.206 HD
ATOM     36  H32 UNL     1       6.078  -0.599  -2.919  1.00  0.00     0.174 HD
ATOM     37  H31 UNL     1       4.461  -0.110  -2.403  1.00  0.00     0.174 HD
ATOM     38  H4  UNL     1       5.527   1.952   0.271  1.00  0.00     0.214 HD
BRANCH  33  39
HETATM   39  N1  UNL     1       7.921   0.034   0.078  1.00  0.00    -0.259 N 
HETATM   40  C1  UNL     1       7.624  -1.348   0.364  1.00  0.00     0.181 C 
BRANCH  39  41
HETATM   41  C2  UNL     1       8.735   0.830   0.949  1.00  0.00     0.371 C 
HETATM   42  O1  UNL     1       9.011   2.031   0.727  1.00  0.00    -0.282 OA
ENDBRANCH  39  41
ENDBRANCH  33  39
ENDBRANCH  30  31
ENDBRANCH  28  30
ENDBRANCH   1  28
TORSDOF 9
