REMARK  9 active torsions:
REMARK  status: ('A' for Active; 'I' for Inactive)
REMARK    1  A    between atoms: C9_13  and  S1_14 
REMARK    2  A    between atoms: C12_22  and  N2_23 
REMARK    3  A    between atoms: N2_23  and  S2_25 
REMARK    4  A    between atoms: S2_25  and  O8_28 
REMARK    5  A    between atoms: O8_28  and  C13_29 
REMARK    6  A    between atoms: C13_29  and  C14_30 
REMARK    7  A    between atoms: C14_30  and  C15_31 
REMARK    8  A    between atoms: C15_31  and  C16_32 
REMARK    9  A    between atoms: C16_32  and  C17_33 
ROOT
HETATM    1  C1  UNL     1       6.411   3.881   1.587  1.00  0.00     0.049 C 
HETATM    2  C2  UNL     1       5.367   3.296   0.714  1.00  0.00    -0.042 A 
HETATM    3  C3  UNL     1       4.556   4.033  -0.118  1.00  0.00     0.090 A 
HETATM    4  C4  UNL     1       3.617   3.381  -0.887  1.00  0.00     0.288 A 
HETATM    5  O1  UNL     1       2.901   4.098  -1.630  1.00  0.00    -0.260 OA
HETATM    6  O2  UNL     1       3.459   2.084  -0.861  1.00  0.00    -0.274 OA
HETATM    7  C5  UNL     1       4.202   1.331  -0.088  1.00  0.00     0.106 A 
HETATM    8  C6  UNL     1       5.170   1.911   0.716  1.00  0.00     0.020 A 
HETATM    9  C7  UNL     1       5.946   1.100   1.516  1.00  0.00     0.103 A 
HETATM   10  N1  UNL     1       5.755  -0.225   1.506  1.00  0.00    -0.363 N 
ATOM     11  H1  UNL     1       6.333  -0.820   2.100  1.00  0.00     0.165 HD
HETATM   12  C8  UNL     1       4.819  -0.781   0.730  1.00  0.00     0.074 A 
HETATM   13  C9  UNL     1       4.707  -2.161   0.762  1.00  0.00     0.133 A 
HETATM   14  C10 UNL     1       3.776  -2.770  -0.037  1.00  0.00     0.101 A 
HETATM   15 CL1  UNL     1       3.608  -4.532  -0.022  1.00  0.00    -0.079 Cl
HETATM   16  C11 UNL     1       2.958  -2.030  -0.862  1.00  0.00     0.168 A 
HETATM   17  F1  UNL     1       2.065  -2.715  -1.642  1.00  0.00    -0.202 F 
HETATM   18  C12 UNL     1       3.050  -0.639  -0.911  1.00  0.00     0.100 A 
HETATM   19  C28 UNL     1       3.984  -0.037  -0.114  1.00  0.00     0.058 A 
ENDROOT
BRANCH  18  20
HETATM   20  N2  UNL     1       2.169   0.091  -1.695  1.00  0.00    -0.258 N 
ATOM     21  H2  UNL     1       2.476   0.365  -2.629  1.00  0.00     0.181 HD
BRANCH  20  22
HETATM   22  S2  UNL     1       0.549   0.578  -1.181  1.00  0.00     0.363 S 
HETATM   23  O6  UNL     1       0.642   0.888   0.279  1.00  0.00    -0.175 OA
HETATM   24  O7  UNL     1       0.331   1.896  -1.916  1.00  0.00    -0.175 OA
BRANCH  22  25
HETATM   25  O8  UNL     1      -0.424  -0.607  -1.601  1.00  0.00    -0.248 OA
BRANCH  25  26
HETATM   26  C13 UNL     1      -1.501  -1.080  -0.940  1.00  0.00     0.082 C 
HETATM   27  C22 UNL     1      -1.052  -1.745   0.360  1.00  0.00     0.039 C 
HETATM   28  C23 UNL     1      -1.814  -2.918   0.799  1.00  0.00     0.003 C 
HETATM   29  C24 UNL     1      -2.102  -3.933  -0.281  1.00  0.00     0.004 C 
HETATM   30  C25 UNL     1      -2.919  -3.153  -1.321  1.00  0.00    -0.016 C 
HETATM   31  C26 UNL     1      -3.348  -4.110  -2.419  1.00  0.00     0.010 C 
HETATM   32  C27 UNL     1      -1.993  -2.176  -1.927  1.00  0.00     0.044 C 
BRANCH  26  33
HETATM   33  C14 UNL     1      -2.665  -0.206  -0.724  1.00  0.00     0.045 C 
BRANCH  33  34
HETATM   34  C15 UNL     1      -2.552   1.043   0.045  1.00  0.00     0.072 C 
BRANCH  34  35
HETATM   35  C16 UNL     1      -3.934   1.701   0.136  1.00  0.00     0.167 C 
HETATM   36  O9  UNL     1      -4.385   2.132  -1.089  1.00  0.00    -0.353 OA
HETATM   37  C20 UNL     1      -3.835   3.402  -1.293  1.00  0.00     0.197 C 
HETATM   38  C21 UNL     1      -3.406   3.873   0.061  1.00  0.00     0.197 C 
HETATM   39  O10 UNL     1      -3.767   2.854   0.904  1.00  0.00    -0.353 OA
BRANCH  35  40
HETATM   40  C17 UNL     1      -4.958   0.852   0.808  1.00  0.00     0.040 C 
HETATM   41  C18 UNL     1      -4.532   0.522   2.238  1.00  0.00     0.015 C 
HETATM   42  C19 UNL     1      -6.197   1.748   0.979  1.00  0.00     0.015 C 
ENDBRANCH  35  40
ENDBRANCH  34  35
ENDBRANCH  33  34
ENDBRANCH  26  33
ENDBRANCH  25  26
ENDBRANCH  22  25
ENDBRANCH  20  22
ENDBRANCH  18  20
BRANCH  13  43
HETATM   43  S1  UNL     1       5.734  -3.122   1.803  1.00  0.00     0.141 S 
HETATM   44  O3  UNL     1       6.059  -2.385   3.047  1.00  0.00    -0.591 OA
HETATM   45  O4  UNL     1       5.058  -4.418   2.185  1.00  0.00    -0.591 OA
HETATM   46  O5  UNL     1       7.156  -3.561   0.989  1.00  0.00    -0.591 OA
ENDBRANCH  13  43
TORSDOF 9
