REMARK  6 active torsions:
REMARK  status: ('A' for Active; 'I' for Inactive)
REMARK    1  A    between atoms: C2_2  and  O2_4 
REMARK    2  A    between atoms: O2_4  and  C3_5 
REMARK    3  A    between atoms: C10_12  and  O3_13 
REMARK    4  A    between atoms: O3_13  and  C11_14 
REMARK    5  A    between atoms: C24_29  and  C26_31 
REMARK    6  A    between atoms: C26_31  and  O5_32 
ROOT
HETATM    1  C3  UNL     1      -2.389   1.754  -0.749  1.00  0.00     0.060 C 
HETATM    2  C4  UNL     1      -1.210   1.476  -0.224  1.00  0.00    -0.038 C 
HETATM    3  C5  UNL     1      -0.106   2.385  -0.654  1.00  0.00     0.038 C 
HETATM    4  C6  UNL     1       1.195   1.739  -0.356  1.00  0.00     0.010 C 
HETATM    5  C7  UNL     1       1.111   0.271  -0.671  1.00  0.00    -0.004 C 
HETATM    6  C8  UNL     1       2.499  -0.253  -0.799  1.00  0.00     0.001 C 
HETATM    7  C9  UNL     1       3.558   0.556  -0.084  1.00  0.00     0.038 C 
HETATM    8  C10 UNL     1       4.661  -0.439   0.280  1.00  0.00     0.133 C 
HETATM    9  C13 UNL     1       4.232  -1.742  -0.301  1.00  0.00     0.042 C 
HETATM   10  C14 UNL     1       2.705  -1.621  -0.208  1.00  0.00    -0.038 C 
HETATM   11  C15 UNL     1       2.091  -2.726  -0.970  1.00  0.00     0.015 C 
HETATM   12  C16 UNL     1       2.242  -1.549   1.210  1.00  0.00     0.010 C 
HETATM   13  C17 UNL     1       0.743  -1.407   1.217  1.00  0.00     0.007 C 
HETATM   14  C18 UNL     1       0.183  -0.527   0.175  1.00  0.00     0.006 C 
HETATM   15  C19 UNL     1      -0.958   0.347   0.732  1.00  0.00     0.022 C 
HETATM   16  C20 UNL     1      -0.604   0.989   2.050  1.00  0.00     0.024 C 
HETATM   17  C21 UNL     1      -2.230  -0.362   0.908  1.00  0.00     0.120 C 
HETATM   18  F1  UNL     1      -2.998   0.288   1.890  1.00  0.00    -0.241 F 
HETATM   19  C22 UNL     1      -2.204  -1.799   1.306  1.00  0.00     0.046 C 
HETATM   20  C23 UNL     1      -3.726  -2.032   1.429  1.00  0.00     0.015 C 
HETATM   21  C24 UNL     1      -4.166  -1.427   0.090  1.00  0.00    -0.015 C 
HETATM   22  C25 UNL     1      -5.553  -0.858   0.177  1.00  0.00     0.018 C 
HETATM   23  C27 UNL     1      -3.123  -0.444  -0.314  1.00  0.00     0.043 C 
HETATM   24  C28 UNL     1      -3.636   0.980  -0.465  1.00  0.00     0.074 C 
ENDROOT
BRANCH   1  25
HETATM   25  O2  UNL     1      -2.561   2.830  -1.641  1.00  0.00    -0.283 OA
BRANCH  25  26
HETATM   26  C2  UNL     1      -2.884   4.068  -1.123  1.00  0.00     0.259 C 
HETATM   27  C1  UNL     1      -3.087   5.272  -1.982  1.00  0.00     0.126 C 
HETATM   28  O1  UNL     1      -3.010   4.185   0.113  1.00  0.00    -0.265 OA
ENDBRANCH  25  26
ENDBRANCH   1  25
BRANCH  21  29
HETATM   29  C26 UNL     1      -4.204  -2.572  -0.907  1.00  0.00     0.173 C 
BRANCH  29  30
HETATM   30  O5  UNL     1      -4.593  -2.143  -2.167  1.00  0.00    -0.400 OA
ATOM     31  H5  UNL     1      -4.617  -2.859  -2.791  1.00  0.00     0.209 HD
ENDBRANCH  29  30
ENDBRANCH  21  29
BRANCH   8  32
HETATM   32  O3  UNL     1       5.925  -0.008  -0.110  1.00  0.00    -0.316 OA
BRANCH  32  33
HETATM   33  C11 UNL     1       6.989   0.177   0.754  1.00  0.00     0.255 C 
HETATM   34  C12 UNL     1       8.273   0.640   0.187  1.00  0.00     0.126 C 
HETATM   35  O4  UNL     1       6.783  -0.063   1.951  1.00  0.00    -0.266 OA
ENDBRANCH  32  33
ENDBRANCH   8  32
TORSDOF 6
