REMARK  4 active torsions:
REMARK  status: ('A' for Active; 'I' for Inactive)
REMARK    1  A    between atoms: S1_2  and  C2_3 
REMARK    2  A    between atoms: C2_3  and  C3_4 
REMARK    3  A    between atoms: C3_4  and  C4_5 
REMARK    4  A    between atoms: N3_24  and  O2_26 
ROOT
HETATM    1  C4  UNL     1       3.345  -0.333  -1.225  1.00  0.00     0.143 C 
HETATM    2  N1  UNL     1       2.734   0.565  -2.175  1.00  0.00    -0.346 N 
ATOM      3  H1  UNL     1       3.238   0.731  -3.046  1.00  0.00     0.163 HD
HETATM    4  C5  UNL     1       1.462   1.256  -2.004  1.00  0.00     0.251 C 
HETATM    5  O1  UNL     1       1.469   2.526  -2.259  1.00  0.00    -0.268 OA
HETATM    6  C6  UNL     1       0.208   0.682  -1.579  1.00  0.00     0.049 C 
HETATM    7  C7  UNL     1      -0.671  -0.223  -1.946  1.00  0.00     0.093 C 
HETATM    8  S2  UNL     1      -0.848  -1.357  -3.367  1.00  0.00    -0.032 SA
HETATM    9  N2  UNL     1      -1.609  -0.636  -0.933  1.00  0.00    -0.356 N 
ATOM     10  H2  UNL     1      -2.533  -0.283  -1.182  1.00  0.00     0.166 HD
HETATM   11  C8  UNL     1      -1.697  -1.256   0.116  1.00  0.00    -0.007 C 
HETATM   12  C9  UNL     1      -3.033  -1.415   0.856  1.00  0.00     0.053 C 
HETATM   13  C10 UNL     1      -2.885  -1.063   2.294  1.00  0.00     0.006 C 
HETATM   14  C11 UNL     1      -4.002  -0.292   2.895  1.00  0.00     0.000 C 
HETATM   15  C12 UNL     1      -4.462   0.921   2.169  1.00  0.00     0.000 C 
HETATM   16  C13 UNL     1      -3.663   2.157   2.385  1.00  0.00     0.000 C 
HETATM   17  C14 UNL     1      -2.454   2.325   1.515  1.00  0.00     0.006 C 
HETATM   18  C15 UNL     1      -2.739   2.477   0.067  1.00  0.00     0.055 C 
HETATM   19  C16 UNL     1      -1.701   2.092  -0.865  1.00  0.00     0.014 C 
HETATM   20  N3  UNL     1      -1.904   2.191  -2.153  1.00  0.00    -0.277 N 
ATOM     21  H3  UNL     1      -1.163   1.915  -2.798  1.00  0.00     0.193 HD
HETATM   22  C17 UNL     1      -0.393   1.595  -0.434  1.00  0.00     0.101 C 
HETATM   23  C18 UNL     1      -0.634  -1.945   0.838  1.00  0.00     0.110 C 
HETATM   24  C19 UNL     1       0.573  -2.370   0.014  1.00  0.00     0.021 A 
HETATM   25  C20 UNL     1       0.899  -3.596  -0.576  1.00  0.00     0.077 A 
HETATM   26  S3  UNL     1       2.359  -3.199  -1.386  1.00  0.00    -0.085 SA
HETATM   27  C21 UNL     1       2.483  -1.554  -0.956  1.00  0.00     0.074 A 
HETATM   28  N4  UNL     1       1.413  -1.426  -0.226  1.00  0.00    -0.355 N 
ATOM     29  H4  UNL     1       1.227  -0.511   0.185  1.00  0.00     0.166 HD
ENDROOT
BRANCH   1  30
HETATM   30  C3  UNL     1       4.661  -0.833  -1.757  1.00  0.00     0.042 C 
BRANCH  30  31
HETATM   31  C2  UNL     1       5.394  -1.758  -0.860  1.00  0.00     0.076 C 
BRANCH  31  32
HETATM   32  S1  UNL     1       5.756  -0.930   0.711  1.00  0.00    -0.173 SA
HETATM   33  C1  UNL     1       6.923   0.431   0.437  1.00  0.00     0.089 C 
ENDBRANCH  31  32
ENDBRANCH  30  31
ENDBRANCH   1  30
BRANCH  20  34
HETATM   34  O2  UNL     1      -3.090   2.657  -2.654  1.00  0.00    -0.290 OA
ATOM     35  H2  UNL     1      -3.237   2.729  -3.590  1.00  0.00     0.244 HD
ENDBRANCH  20  34
TORSDOF 4
