REMARK  3 active torsions:
REMARK  status: ('A' for Active; 'I' for Inactive)
REMARK    1  A    between atoms: N1_2  and  C2_5 
REMARK    2  A    between atoms: C6_9  and  C7_10 
REMARK    3  A    between atoms: C7_10  and  N2_11 
ROOT
HETATM    1  C2  UNL     1      -1.680  -0.403   0.123  1.00  0.00     0.194 C 
HETATM    2  C3  UNL     1      -1.311  -1.851   0.389  1.00  0.00     0.034 C 
HETATM    3  C4  UNL     1       0.188  -1.947  -0.016  1.00  0.00     0.008 C 
HETATM    4  C5  UNL     1       0.595  -0.590   0.236  1.00  0.00     0.001 C 
HETATM    5  C6  UNL     1       1.763   0.065  -0.365  1.00  0.00     0.016 C 
HETATM    6  C8  UNL     1       1.426   1.523  -0.265  1.00  0.00     0.007 C 
HETATM    7  C9  UNL     1      -0.115   1.567  -0.105  1.00  0.00     0.012 C 
HETATM    8  C10 UNL     1      -0.498   0.200  -0.504  1.00  0.00    -0.012 C 
HETATM    9  C11 UNL     1      -0.442   0.023  -1.967  1.00  0.00     0.018 C 
ENDROOT
BRANCH   5  10
HETATM   10  C7  UNL     1       3.068  -0.236   0.322  1.00  0.00     0.234 C 
BRANCH  10  11
HETATM   11  N2  UNL     1       3.095   0.128   1.685  1.00  0.00    -0.079 N 
ATOM     12  H23 UNL     1       2.849   1.111   1.798  1.00  0.00     0.274 HD
ATOM     13  H22 UNL     1       2.318  -0.303   2.186  1.00  0.00     0.274 HD
ATOM     14  H21 UNL     1       3.979  -0.076   2.151  1.00  0.00     0.274 HD
ENDBRANCH  10  11
ENDBRANCH   5  10
BRANCH   1  15
HETATM   15  N1  UNL     1      -2.204   0.299   1.262  1.00  0.00    -0.074 N 
HETATM   16  C1  UNL     1      -3.455   0.942   0.917  1.00  0.00     0.267 C 
ATOM     17  H12 UNL     1      -1.529   0.959   1.647  1.00  0.00     0.277 HD
ATOM     18  H11 UNL     1      -2.299  -0.309   2.075  1.00  0.00     0.277 HD
ENDBRANCH   1  15
TORSDOF 3
