REMARK  7 active torsions:
REMARK  status: ('A' for Active; 'I' for Inactive)
REMARK    1  A    between atoms: C2_2  and  N1_3 
REMARK       I    between atoms: N1_3  and  C3_4 
REMARK    2  A    between atoms: N1_3  and  N3_7 
REMARK    3  A    between atoms: N3_7  and  C4_8 
REMARK    4  A    between atoms: N3_7  and  N11_33 
REMARK    5  A    between atoms: C7_13  and  C8_14 
REMARK    6  A    between atoms: C9_20  and  N6_21 
REMARK    7  A    between atoms: N8_26  and  O2_27 
ROOT
HETATM    1  C4  UNL     1      -0.985  -0.841   0.729  1.00  0.00     0.740 A 
HETATM    2  N4  UNL     1      -0.022  -0.134   0.150  1.00  0.00    -0.168 N 
ATOM      3  H4  UNL     1      -0.176   0.652  -0.481  1.00  0.00     0.186 HD
HETATM    4  C5  UNL     1       1.215  -0.612   0.522  1.00  0.00     0.169 A 
HETATM    5  C6  UNL     1       2.479  -0.079   0.062  1.00  0.00     0.159 A 
HETATM    6  C7  UNL     1       3.716  -0.504   0.446  1.00  0.00     0.167 A 
HETATM    7  N5  UNL     1       4.854   0.066  -0.081  1.00  0.00    -0.183 N 
ATOM      8  H5  UNL     1       5.767  -0.272   0.223  1.00  0.00     0.184 HD
HETATM    9  C9  UNL     1       4.790   1.047  -0.978  1.00  0.00     0.693 A 
HETATM   10  N7  UNL     1       3.571   1.458  -1.348  1.00  0.00    -0.105 N 
ATOM     11  H7  UNL     1       3.498   2.209  -2.034  1.00  0.00     0.208 HD
HETATM   12  N8  UNL     1       2.460   0.935  -0.865  1.00  0.00    -0.143 N 
HETATM   13  N9  UNL     1       0.909  -1.618   1.334  1.00  0.00    -0.269 N 
ATOM     14  H9  UNL     1       1.608  -2.201   1.795  1.00  0.00     0.189 HD
HETATM   15  N10 UNL     1      -0.390  -1.787   1.484  1.00  0.00    -0.127 N 
ATOM     16  H10 UNL     1      -0.853  -2.493   2.057  1.00  0.00     0.206 HD
ENDROOT
BRANCH   1  17
HETATM   17  N3  UNL     1      -2.404  -0.699   0.631  1.00  0.00     0.048 N 
BRANCH  17  18
HETATM   18  N1  UNL     1      -3.002   0.299  -0.158  1.00  0.00    -0.204 N 
HETATM   19  C3  UNL     1      -3.899  -0.119  -1.202  1.00  0.00     0.351 C 
HETATM   20  N2  UNL     1      -4.166  -1.481  -1.419  1.00  0.00    -0.038 NA
HETATM   21  O1  UNL     1      -4.438   0.772  -1.915  1.00  0.00    -0.249 OA
BRANCH  18  22
HETATM   22  C2  UNL     1      -2.726   1.689   0.069  1.00  0.00     0.152 C 
HETATM   23  C1  UNL     1      -3.720   2.289   1.073  1.00  0.00     0.029 C 
ENDBRANCH  18  22
ENDBRANCH  17  18
BRANCH  17  24
HETATM   24  N11 UNL     1      -3.266  -1.552   1.316  1.00  0.00    -0.001 N 
HETATM   25  O3  UNL     1      -3.129  -2.777   1.163  1.00  0.00    -0.515 OA
HETATM   26  O4  UNL     1      -4.254  -1.103   2.150  1.00  0.00    -0.515 OA
ENDBRANCH  17  24
ENDBRANCH   1  17
BRANCH   6  27
HETATM   27  C8  UNL     1       3.875  -1.569   1.451  1.00  0.00     0.435 C 
HETATM   28  F1  UNL     1       3.364  -1.297   2.684  1.00  0.00    -0.165 F 
HETATM   29  F2  UNL     1       5.271  -1.722   1.666  1.00  0.00    -0.165 F 
HETATM   30  F3  UNL     1       3.512  -2.811   0.939  1.00  0.00    -0.165 F 
ENDBRANCH   6  27
BRANCH  12  31
HETATM   31  O2  UNL     1       1.341   1.339  -1.230  1.00  0.00    -0.267 OA
ATOM     32  H2  UNL     1       1.328   2.040  -1.871  1.00  0.00     0.247 HD
ENDBRANCH  12  31
BRANCH   9  33
HETATM   33  N6  UNL     1       5.872   1.586  -1.475  1.00  0.00    -0.233 N 
ATOM     34  H62 UNL     1       6.801   1.273  -1.193  1.00  0.00     0.174 HD
ATOM     35  H61 UNL     1       5.823   2.338  -2.163  1.00  0.00     0.174 HD
ENDBRANCH   9  33
TORSDOF 7
