REMARK  4 active torsions:
REMARK  status: ('A' for Active; 'I' for Inactive)
REMARK    1  A    between atoms: C1_2  and  C2_4 
REMARK    2  A    between atoms: C5_7  and  N1_8 
REMARK    3  A    between atoms: C11_15  and  N2_16 
REMARK    4  A    between atoms: N3_19  and  C14_20 
ROOT
HETATM    1  C2  UNL     1       3.255   1.277  -1.399  1.00  0.00     0.098 A 
HETATM    2  C3  UNL     1       3.631   0.976  -2.802  1.00  0.00     0.036 A 
HETATM    3  C4  UNL     1       4.332   0.316  -1.609  1.00  0.00     0.051 A 
HETATM    4  C5  UNL     1       3.826  -1.035  -1.275  1.00  0.00     0.270 A 
HETATM    5  C10 UNL     1       2.379  -0.826  -0.874  1.00  0.00     0.044 A 
HETATM    6  S1  UNL     1       0.911  -1.527  -0.352  1.00  0.00    -0.054 SA
HETATM    7  C11 UNL     1      -0.040  -0.116  -0.243  1.00  0.00     0.147 A 
HETATM    8  N4  UNL     1       0.809   0.819  -0.610  1.00  0.00    -0.338 N 
ATOM      9  H4  UNL     1       0.512   1.794  -0.641  1.00  0.00     0.168 HD
HETATM   10  C21 UNL     1       2.039   0.495  -0.936  1.00  0.00     0.046 A 
ENDROOT
BRANCH   7  11
HETATM   11  N2  UNL     1      -1.422   0.046   0.146  1.00  0.00    -0.358 N 
HETATM   12  C12 UNL     1      -2.111  -1.175   0.476  1.00  0.00     0.144 C 
HETATM   13  C13 UNL     1      -3.267  -0.778   1.398  1.00  0.00     0.137 C 
HETATM   14  N3  UNL     1      -4.011   0.221   0.665  1.00  0.00    -0.405 N 
HETATM   15  C19 UNL     1      -3.374   1.485   0.584  1.00  0.00     0.137 C 
HETATM   16  C20 UNL     1      -1.953   1.365   0.166  1.00  0.00     0.144 C 
BRANCH  14  17
HETATM   17  C14 UNL     1      -5.389   0.180   0.945  1.00  0.00     0.079 C 
HETATM   18  C15 UNL     1      -5.930  -1.181   0.484  1.00  0.00     0.025 C 
HETATM   19  C16 UNL     1      -6.874  -0.885  -0.668  1.00  0.00     0.002 C 
HETATM   20  C17 UNL     1      -6.579   0.541  -1.083  1.00  0.00     0.002 C 
HETATM   21  C18 UNL     1      -6.246   1.171   0.253  1.00  0.00     0.025 C 
ENDBRANCH  14  17
ENDBRANCH   7  11
BRANCH   4  22
HETATM   22  N1  UNL     1       4.544  -1.709  -0.233  1.00  0.00     0.098 N 
HETATM   23  C6  UNL     1       5.917  -1.972  -0.553  1.00  0.00     0.273 C 
HETATM   24  C7  UNL     1       6.738  -1.068   0.286  1.00  0.00     0.032 C 
HETATM   25  C8  UNL     1       5.817  -0.437   1.264  1.00  0.00     0.032 C 
HETATM   26  C9  UNL     1       4.481  -1.080   1.045  1.00  0.00     0.273 C 
ENDBRANCH   4  22
BRANCH   1  27
HETATM   27  C1  UNL     1       3.475   2.637  -0.917  1.00  0.00     0.188 C 
HETATM   28  O1  UNL     1       3.522   3.571  -1.780  1.00  0.00    -0.647 OA
HETATM   29  O2  UNL     1       3.629   2.929   0.431  1.00  0.00    -0.647 OA
ENDBRANCH   1  27
TORSDOF 4
