REMARK  6 active torsions:
REMARK  status: ('A' for Active; 'I' for Inactive)
REMARK    1  A    between atoms: C4_4  and  C5_5 
REMARK    2  A    between atoms: C5_5  and  C6_7 
REMARK    3  A    between atoms: C8_10  and  C9_11 
REMARK    4  A    between atoms: C9_11  and  O4_13 
REMARK    5  A    between atoms: O4_13  and  C10_14 
REMARK    6  A    between atoms: C17_21  and  C19_23 
ROOT
HETATM    1  C6  UNL     1       4.538   0.331   2.006  1.00  0.00     0.118 C 
HETATM    2  C7  UNL     1       3.667   0.514   1.055  1.00  0.00     0.186 C 
HETATM    3  O2  UNL     1       2.287   0.616   1.428  1.00  0.00    -0.307 OA
HETATM    4  C8  UNL     1       1.326   0.647   0.390  1.00  0.00     0.302 C 
HETATM    5  C22 UNL     1       1.810  -0.225  -0.694  1.00  0.00     0.200 C 
HETATM    6  O6  UNL     1       1.168  -1.171  -1.058  1.00  0.00    -0.291 OA
HETATM    7  C23 UNL     1       3.105   0.101  -1.316  1.00  0.00     0.126 C 
HETATM    8  C24 UNL     1       2.838   1.138  -2.391  1.00  0.00     0.055 C 
HETATM    9  C25 UNL     1       3.669  -1.173  -1.900  1.00  0.00     0.055 C 
HETATM   10  O7  UNL     1       3.943   0.621  -0.295  1.00  0.00    -0.312 OA
ENDROOT
BRANCH   4  11
HETATM   11  C9  UNL     1      -0.016   0.218   0.879  1.00  0.00     0.296 C 
HETATM   12  O3  UNL     1      -0.209  -0.118   2.073  1.00  0.00    -0.262 OA
BRANCH  11  13
HETATM   13  O4  UNL     1      -1.092   0.179   0.016  1.00  0.00    -0.314 OA
BRANCH  13  14
HETATM   14  C10 UNL     1      -2.399  -0.219   0.410  1.00  0.00     0.132 C 
HETATM   15  C11 UNL     1      -2.886  -1.407  -0.393  1.00  0.00     0.037 C 
HETATM   16  C12 UNL     1      -4.139  -1.925   0.311  1.00  0.00    -0.012 C 
HETATM   17  C13 UNL     1      -4.599  -3.228  -0.303  1.00  0.00     0.010 C 
HETATM   18  C14 UNL     1      -5.179  -0.855   0.242  1.00  0.00    -0.005 C 
HETATM   19  C15 UNL     1      -5.755  -0.502   1.593  1.00  0.00     0.006 C 
HETATM   20  C20 UNL     1      -4.705   0.431  -0.350  1.00  0.00     0.007 C 
HETATM   21  C16 UNL     1      -6.036   0.965   1.515  1.00  0.00     0.017 C 
HETATM   22  C17 UNL     1      -5.830   1.385   0.072  1.00  0.00     0.013 C 
HETATM   23  C18 UNL     1      -7.053   1.040  -0.739  1.00  0.00     0.023 C 
HETATM   24  C21 UNL     1      -3.394   0.913   0.175  1.00  0.00     0.038 C 
BRANCH  22  25
HETATM   25  C19 UNL     1      -5.409   2.774  -0.065  1.00  0.00     0.240 C 
HETATM   26  O5  UNL     1      -4.800   3.141  -1.045  1.00  0.00    -0.306 OA
ENDBRANCH  22  25
ENDBRANCH  13  14
ENDBRANCH  11  13
ENDBRANCH   4  11
BRANCH   1  27
HETATM   27  C5  UNL     1       5.963   0.202   1.864  1.00  0.00     0.176 C 
HETATM   28  O1  UNL     1       6.646   0.024   2.944  1.00  0.00    -0.288 OA
BRANCH  27  29
HETATM   29  C4  UNL     1       6.678   0.253   0.627  1.00  0.00     0.057 C 
HETATM   30  C2  UNL     1       7.978   0.130   0.542  1.00  0.00    -0.084 C 
HETATM   31  C1  UNL     1       8.847  -0.073   1.698  1.00  0.00     0.043 C 
HETATM   32  C3  UNL     1       8.654   0.198  -0.811  1.00  0.00     0.043 C 
ENDBRANCH  27  29
ENDBRANCH   1  27
TORSDOF 6
