REMARK  13 active torsions:
REMARK  status: ('A' for Active; 'I' for Inactive)
REMARK    1  A    between atoms: C1_2  and  C2_4 
REMARK    2  A    between atoms: C2_4  and  C3_5 
REMARK    3  A    between atoms: C3_5  and  C4_6 
REMARK    4  A    between atoms: C4_6  and  C5_7 
REMARK    5  A    between atoms: C5_7  and  C6_8 
REMARK    6  A    between atoms: C6_8  and  C7_9 
REMARK    7  A    between atoms: C7_9  and  C8_10 
REMARK    8  A    between atoms: C8_10  and  N1_11 
REMARK    9  A    between atoms: C11_16  and  N3_17 
REMARK   10  A    between atoms: N3_17  and  C12_19 
REMARK   11  A    between atoms: C12_19  and  C13_20 
REMARK   12  A    between atoms: C18_30  and  N6_31 
REMARK   13  A    between atoms: N6_31  and  C19_33 
ROOT
HETATM    1  N1  UNL     1       0.888  -1.237  -1.805  1.00  0.00    -0.327 N 
HETATM    2  C9  UNL     1       0.438  -2.442  -2.191  1.00  0.00     0.185 A 
HETATM    3  N2  UNL     1      -0.846  -2.601  -1.799  1.00  0.00    -0.346 N 
ATOM      4  H2  UNL     1      -1.426  -3.423  -1.965  1.00  0.00     0.167 HD
HETATM    5  C10 UNL     1      -1.223  -1.485  -1.153  1.00  0.00     0.123 A 
HETATM    6  C11 UNL     1      -2.416  -1.129  -0.559  1.00  0.00     0.147 A 
HETATM    7  N5  UNL     1      -2.479   0.083   0.015  1.00  0.00    -0.175 N 
ATOM      8  H5  UNL     1      -3.347   0.377   0.462  1.00  0.00     0.186 HD
HETATM    9  C18 UNL     1      -1.412   0.931   0.015  1.00  0.00     0.681 A 
HETATM   10  N8  UNL     1      -0.259   0.577  -0.564  1.00  0.00    -0.174 N 
ATOM     11  H8  UNL     1       0.532   1.221  -0.558  1.00  0.00     0.186 HD
HETATM   12  C24 UNL     1      -0.139  -0.637  -1.160  1.00  0.00     0.155 A 
ENDROOT
BRANCH   6  13
HETATM   13  N3  UNL     1      -3.387  -1.971  -0.590  1.00  0.00    -0.373 N 
ATOM     14  H3  UNL     1      -3.264  -2.875  -1.046  1.00  0.00     0.161 HD
BRANCH  13  15
HETATM   15  C12 UNL     1      -4.654  -1.635   0.022  1.00  0.00     0.126 C 
BRANCH  15  16
HETATM   16  C13 UNL     1      -5.477  -2.889   0.226  1.00  0.00     0.006 C 
HETATM   17  C14 UNL     1      -5.767  -3.611  -1.080  1.00  0.00     0.034 C 
HETATM   18  C15 UNL     1      -6.460  -4.917  -0.670  1.00  0.00     0.232 C 
HETATM   19  N4  UNL     1      -7.734  -4.635  -0.061  1.00  0.00    -0.075 N 
HETATM   20  C16 UNL     1      -7.670  -3.733   1.055  1.00  0.00     0.232 C 
ATOM     21  H42 UNL     1      -8.394  -4.292  -0.759  1.00  0.00     0.277 HD
ATOM     22  H41 UNL     1      -8.200  -5.502   0.208  1.00  0.00     0.277 HD
HETATM   23  C17 UNL     1      -6.833  -2.502   0.788  1.00  0.00     0.034 C 
ENDBRANCH  15  16
ENDBRANCH  13  15
ENDBRANCH   6  13
BRANCH   9  24
HETATM   24  N6  UNL     1      -1.572   2.068   0.591  1.00  0.00    -0.221 N 
ATOM     25  H6  UNL     1      -2.485   2.255   1.006  1.00  0.00     0.178 HD
BRANCH  24  26
HETATM   26  C19 UNL     1      -0.586   3.092   0.701  1.00  0.00     0.102 C 
HETATM   27  C20 UNL     1      -0.850   4.020   1.883  1.00  0.00     0.053 C 
HETATM   28  C21 UNL     1      -0.237   5.382   1.598  1.00  0.00     0.234 C 
HETATM   29  N7  UNL     1      -0.992   6.078   0.586  1.00  0.00    -0.075 N 
HETATM   30  C22 UNL     1      -1.553   5.126  -0.362  1.00  0.00     0.234 C 
ATOM     31  H72 UNL     1      -1.708   6.681   0.991  1.00  0.00     0.277 HD
ATOM     32  H71 UNL     1      -0.437   6.797   0.122  1.00  0.00     0.277 HD
HETATM   33  C23 UNL     1      -0.572   3.982  -0.532  1.00  0.00     0.053 C 
ENDBRANCH  24  26
ENDBRANCH   9  24
BRANCH   1  34
HETATM   34  C8  UNL     1       2.209  -0.678  -2.025  1.00  0.00     0.131 C 
BRANCH  34  35
HETATM   35  C7  UNL     1       3.048  -1.092  -0.838  1.00  0.00     0.020 C 
BRANCH  35  36
HETATM   36  C6  UNL     1       4.477  -0.564  -0.937  1.00  0.00     0.002 C 
BRANCH  36  37
HETATM   37  C5  UNL     1       5.210  -1.035   0.282  1.00  0.00     0.000 C 
BRANCH  37  38
HETATM   38  C4  UNL     1       6.665  -0.574   0.305  1.00  0.00     0.001 C 
BRANCH  38  39
HETATM   39  C3  UNL     1       6.730   0.904   0.290  1.00  0.00     0.010 C 
BRANCH  39  40
HETATM   40  C2  UNL     1       8.130   1.439   0.314  1.00  0.00     0.113 C 
BRANCH  40  41
HETATM   41  C1  UNL     1       8.819   1.083   1.549  1.00  0.00     0.172 C 
HETATM   42  O1  UNL     1       8.271   0.524   2.500  1.00  0.00    -0.648 OA
HETATM   43  O2  UNL     1      10.185   1.406   1.629  1.00  0.00    -0.648 OA
ENDBRANCH  40  41
ENDBRANCH  39  40
ENDBRANCH  38  39
ENDBRANCH  37  38
ENDBRANCH  36  37
ENDBRANCH  35  36
ENDBRANCH  34  35
ENDBRANCH   1  34
TORSDOF 13
