REMARK  14 active torsions:
REMARK  status: ('A' for Active; 'I' for Inactive)
REMARK    1  A    between atoms: C2_2  and  C4_4 
REMARK    2  A    between atoms: C4_4  and  N1_5 
REMARK    3  A    between atoms: C4_4  and  C10_13 
REMARK       I    between atoms: N1_5  and  C5_6 
REMARK    4  A    between atoms: C5_6  and  O2_8 
REMARK    5  A    between atoms: O2_8  and  C6_9 
REMARK    6  A    between atoms: C10_13  and  O3_14 
REMARK    7  A    between atoms: C10_13  and  N2_16 
REMARK    8  A    between atoms: C17_24  and  O4_25 
REMARK    9  A    between atoms: C17_24  and  C18_27 
REMARK   10  A    between atoms: C18_27  and  N4_28 
REMARK   11  A    between atoms: C18_27  and  C25_40 
REMARK   12  A    between atoms: N4_28  and  S1_30 
REMARK   13  A    between atoms: S1_30  and  C19_33 
REMARK   14  A    between atoms: C29_44  and  C30_45 
ROOT
HETATM    1  N2  UNL     1       0.751  -1.492  -0.329  1.00  0.00    -0.332 N 
HETATM    2  C11 UNL     1       0.787  -2.691   0.627  1.00  0.00     0.133 C 
HETATM    3  C12 UNL     1       0.514  -3.848  -0.230  1.00  0.00     0.014 A 
HETATM    4  C13 UNL     1      -0.076  -5.136   0.054  1.00  0.00    -0.006 A 
HETATM    5  C14 UNL     1       0.188  -5.766   1.390  1.00  0.00     0.011 C 
HETATM    6  C15 UNL     1      -1.034  -4.072  -0.041  1.00  0.00     0.014 A 
HETATM    7  C16 UNL     1      -1.610  -3.386  -1.207  1.00  0.00     0.133 C 
HETATM    8  N3  UNL     1      -1.549  -1.933  -0.870  1.00  0.00    -0.333 N 
HETATM    9  C17 UNL     1      -2.752  -1.429  -0.473  1.00  0.00     0.140 C 
HETATM   10  C29 UNL     1      -0.382  -1.048  -1.016  1.00  0.00     0.293 C 
ENDROOT
BRANCH   9  11
HETATM   11  O4  UNL     1      -3.750  -2.291  -0.507  1.00  0.00    -0.348 OA
ATOM     12  H4  UNL     1      -4.588  -1.940  -0.230  1.00  0.00     0.219 HD
ENDBRANCH   9  11
BRANCH   9  13
HETATM   13  C18 UNL     1      -3.208  -0.096  -0.004  1.00  0.00     0.174 C 
BRANCH  13  14
HETATM   14  N4  UNL     1      -4.460   0.159  -0.687  1.00  0.00    -0.302 N 
ATOM     15  H4  UNL     1      -5.238  -0.495  -0.606  1.00  0.00     0.173 HD
BRANCH  14  16
HETATM   16  S1  UNL     1      -4.604   1.537  -1.604  1.00  0.00     0.259 S 
HETATM   17  O5  UNL     1      -3.341   2.343  -1.786  1.00  0.00    -0.201 OA
HETATM   18  O6  UNL     1      -5.045   1.152  -3.023  1.00  0.00    -0.201 OA
BRANCH  16  19
HETATM   19  C19 UNL     1      -5.840   2.694  -1.046  1.00  0.00     0.081 A 
HETATM   20  C20 UNL     1      -7.143   2.542  -1.427  1.00  0.00     0.025 A 
HETATM   21  C21 UNL     1      -8.113   3.419  -1.030  1.00  0.00     0.003 A 
HETATM   22  C22 UNL     1      -7.807   4.523  -0.215  1.00  0.00     0.024 A 
HETATM   23  C23 UNL     1      -6.480   4.652   0.152  1.00  0.00     0.035 A 
HETATM   24 CL1  UNL     1      -6.096   6.027   1.206  1.00  0.00    -0.084 Cl
HETATM   25  C24 UNL     1      -5.493   3.747  -0.256  1.00  0.00     0.049 A 
ENDBRANCH  16  19
ENDBRANCH  14  16
ENDBRANCH  13  14
BRANCH  13  26
HETATM   26  C25 UNL     1      -3.479  -0.154   1.516  1.00  0.00    -0.023 C 
HETATM   27  C26 UNL     1      -2.237  -0.510   2.285  1.00  0.00     0.017 C 
HETATM   28  C27 UNL     1      -3.942   1.175   2.056  1.00  0.00     0.017 C 
HETATM   29  C28 UNL     1      -4.511  -1.212   1.820  1.00  0.00     0.017 C 
ENDBRANCH  13  26
ENDBRANCH   9  13
BRANCH  10  30
HETATM   30  C30 UNL     1      -0.401  -0.714  -2.433  1.00  0.00     0.217 C 
HETATM   31  O7  UNL     1      -1.708  -0.421  -2.792  1.00  0.00    -0.645 OA
HETATM   32  O8  UNL     1       0.404  -0.603  -3.477  1.00  0.00    -0.645 OA
ENDBRANCH  10  30
BRANCH   1  33
HETATM   33  C10 UNL     1       1.982  -0.873  -0.316  1.00  0.00     0.153 C 
BRANCH  33  34
HETATM   34  C4  UNL     1       2.641   0.219  -1.051  1.00  0.00     0.246 C 
BRANCH  34  35
HETATM   35  C2  UNL     1       3.554  -0.438  -2.116  1.00  0.00     0.022 C 
HETATM   36  C1  UNL     1       4.605  -1.318  -1.517  1.00  0.00     0.013 C 
HETATM   37  C3  UNL     1       4.052   0.564  -3.104  1.00  0.00     0.013 C 
ENDBRANCH  34  35
BRANCH  34  38
HETATM   38  N1  UNL     1       3.458   0.978  -0.183  1.00  0.00    -0.376 NA
HETATM   39  C5  UNL     1       4.231   1.706   0.648  1.00  0.00     0.436 C 
HETATM   40  O1  UNL     1       3.874   2.581   1.474  1.00  0.00    -0.221 OA
BRANCH  39  41
HETATM   41  O2  UNL     1       5.643   1.513   0.633  1.00  0.00    -0.283 OA
BRANCH  41  42
HETATM   42  C6  UNL     1       6.588   2.153   1.394  1.00  0.00     0.062 C 
HETATM   43  C7  UNL     1       6.521   3.656   1.187  1.00  0.00     0.046 C 
HETATM   44  C8  UNL     1       7.959   1.707   0.811  1.00  0.00     0.046 C 
HETATM   45  C9  UNL     1       6.633   1.756   2.855  1.00  0.00     0.046 C 
ENDBRANCH  41  42
ENDBRANCH  39  41
ENDBRANCH  34  38
ENDBRANCH  33  34
BRANCH  33  46
HETATM   46  O3  UNL     1       2.849  -1.349   0.586  1.00  0.00    -0.347 OA
ATOM     47  H3  UNL     1       2.424  -2.054   1.060  1.00  0.00     0.219 HD
ENDBRANCH  33  46
ENDBRANCH   1  33
TORSDOF 14
