REMARK  8 active torsions:
REMARK  status: ('A' for Active; 'I' for Inactive)
REMARK    1  A    between atoms: O1_2  and  C2_3 
REMARK    2  A    between atoms: C2_3  and  C3_5 
REMARK    3  A    between atoms: C3_5  and  C4_6 
REMARK    4  A    between atoms: C4_6  and  C5_7 
REMARK    5  A    between atoms: C6_8  and  O3_9 
REMARK    6  A    between atoms: C8_13  and  C9_14 
REMARK    7  A    between atoms: C12_19  and  N1_20 
REMARK    8  A    between atoms: N2_23  and  O6_24 
ROOT
HETATM    1  C5  UNL     1       0.318   0.017  -0.425  1.00  0.00     0.076 A 
HETATM    2  C6  UNL     1      -0.024   0.253  -1.709  1.00  0.00     0.115 A 
HETATM    3  C7  UNL     1      -1.410   0.430  -1.735  1.00  0.00     0.099 A 
HETATM    4 CL1  UNL     1      -2.395   0.766  -3.143  1.00  0.00    -0.079 Cl
HETATM    5  C8  UNL     1      -1.893   0.292  -0.430  1.00  0.00     0.107 A 
HETATM    6  N2  UNL     1      -0.834   0.052   0.305  1.00  0.00    -0.223 N 
ENDROOT
BRANCH   5   7
HETATM    7  C9  UNL     1      -3.312   0.525  -0.091  1.00  0.00     0.070 A 
HETATM    8  S1  UNL     1      -4.294   1.656  -0.981  1.00  0.00    -0.078 SA
HETATM    9  C10 UNL     1      -5.760   1.452  -0.152  1.00  0.00     0.054 A 
HETATM   10 BR1  UNL     1      -7.461   2.316  -0.442  1.00  0.00    -0.043 Br
HETATM   11  C11 UNL     1      -5.452   0.518   0.782  1.00  0.00     0.064 A 
HETATM   12  C12 UNL     1      -4.176   0.036   0.808  1.00  0.00     0.124 A 
BRANCH  12  13
HETATM   13  N1  UNL     1      -3.847  -1.022   1.760  1.00  0.00    -0.114 N 
HETATM   14  O4  UNL     1      -3.131  -1.985   1.461  1.00  0.00    -0.532 OA
HETATM   15  O5  UNL     1      -4.437  -1.008   3.020  1.00  0.00    -0.532 OA
ENDBRANCH  12  13
ENDBRANCH   5   7
BRANCH   6  16
HETATM   16  O6  UNL     1      -0.796  -0.079   1.689  1.00  0.00    -0.282 OA
ATOM     17  H6  UNL     1      -1.598  -0.055   2.197  1.00  0.00     0.245 HD
ENDBRANCH   6  16
BRANCH   2  18
HETATM   18  O3  UNL     1       0.702   0.341  -2.885  1.00  0.00    -0.357 OA
ATOM     19  H3  UNL     1       0.461   0.507  -3.789  1.00  0.00     0.217 HD
ENDBRANCH   2  18
BRANCH   1  20
HETATM   20  C4  UNL     1       1.627  -0.235   0.188  1.00  0.00     0.072 C 
BRANCH  20  21
HETATM   21  C3  UNL     1       2.798  -0.158  -0.687  1.00  0.00     0.117 C 
BRANCH  21  22
HETATM   22  C2  UNL     1       4.025  -0.435   0.163  1.00  0.00     0.258 C 
HETATM   23  O2  UNL     1       3.904  -0.688   1.381  1.00  0.00    -0.265 OA
BRANCH  22  24
HETATM   24  O1  UNL     1       5.292  -0.414  -0.385  1.00  0.00    -0.326 OA
HETATM   25  C1  UNL     1       6.465  -0.665   0.367  1.00  0.00     0.213 C 
ENDBRANCH  22  24
ENDBRANCH  21  22
ENDBRANCH  20  21
ENDBRANCH   1  20
TORSDOF 8
