REMARK  15 active torsions:
REMARK  status: ('A' for Active; 'I' for Inactive)
REMARK    1  A    between atoms: O1_2  and  C2_3 
REMARK    2  A    between atoms: C2_3  and  C3_4 
REMARK    3  A    between atoms: C2_3  and  O3_10 
REMARK    4  A    between atoms: C2_3  and  C29_41 
REMARK    5  A    between atoms: C3_4  and  O2_5 
REMARK    6  A    between atoms: O2_5  and  C4_6 
REMARK    7  A    between atoms: O3_10  and  C8_11 
REMARK    8  A    between atoms: C10_13  and  N1_14 
REMARK    9  A    between atoms: N1_14  and  C11_15 
REMARK   10  A    between atoms: N1_14  and  C19_27 
REMARK   11  A    between atoms: C11_15  and  C12_16 
REMARK   12  A    between atoms: C12_16  and  N2_18 
REMARK       I    between atoms: N2_18  and  C14_20 
REMARK   13  A    between atoms: C14_20  and  O5_22 
REMARK   14  A    between atoms: O5_22  and  C15_23 
REMARK   15  A    between atoms: C25_34  and  C26_35 
ROOT
HETATM    1  C8  UNL     1      -1.824  -1.532  -1.604  1.00  0.00     0.082 A 
HETATM    2  C9  UNL     1      -1.033  -1.468  -0.448  1.00  0.00     0.066 A 
HETATM    3  C10 UNL     1       0.324  -1.638  -0.441  1.00  0.00     0.034 A 
HETATM    4  C24 UNL     1       0.926  -1.885  -1.645  1.00  0.00     0.046 A 
HETATM    5  C25 UNL     1       0.172  -1.955  -2.803  1.00  0.00     0.058 A 
HETATM    6  C27 UNL     1      -1.205  -1.782  -2.801  1.00  0.00    -0.013 A 
HETATM    7  C28 UNL     1      -1.978  -1.890  -4.080  1.00  0.00     0.052 C 
ENDROOT
BRANCH   3   8
HETATM    8  N1  UNL     1       1.100  -1.556   0.773  1.00  0.00    -0.374 N 
BRANCH   8   9
HETATM    9  C11 UNL     1       1.807  -0.342   0.980  1.00  0.00     0.148 C 
BRANCH   9  10
HETATM   10  C12 UNL     1       3.292  -0.368   0.840  1.00  0.00     0.100 C 
HETATM   11  C13 UNL     1       4.077  -1.231   1.756  1.00  0.00     0.034 C 
BRANCH  10  12
HETATM   12  N2  UNL     1       3.828   0.996   1.014  1.00  0.00    -0.331 N 
HETATM   13  C14 UNL     1       4.578   1.610  -0.021  1.00  0.00     0.361 C 
HETATM   14  O4  UNL     1       4.781   0.966  -1.098  1.00  0.00    -0.238 OA
ATOM     15  H2  UNL     1       3.658   1.500   1.884  1.00  0.00     0.165 HD
BRANCH  13  16
HETATM   16  O5  UNL     1       5.108   2.880   0.073  1.00  0.00    -0.294 OA
BRANCH  16  17
HETATM   17  C15 UNL     1       5.861   3.508  -0.941  1.00  0.00     0.061 C 
HETATM   18  C16 UNL     1       7.093   2.675  -1.230  1.00  0.00     0.046 C 
HETATM   19  C17 UNL     1       6.361   4.836  -0.414  1.00  0.00     0.046 C 
HETATM   20  C18 UNL     1       5.063   3.767  -2.190  1.00  0.00     0.046 C 
ENDBRANCH  16  17
ENDBRANCH  13  16
ENDBRANCH  10  12
ENDBRANCH   9  10
ENDBRANCH   8   9
BRANCH   8  21
HETATM   21  C19 UNL     1       1.143  -2.660   1.706  1.00  0.00     0.088 C 
HETATM   22  C20 UNL     1       0.715  -2.286   3.077  1.00  0.00     0.051 C 
HETATM   23  C21 UNL     1      -0.399  -3.028   3.706  1.00  0.00     0.169 C 
HETATM   24  O6  UNL     1      -0.537  -4.360   3.250  1.00  0.00    -0.391 OA
HETATM   25  C22 UNL     1      -0.889  -4.175   1.889  1.00  0.00     0.169 C 
HETATM   26  C23 UNL     1       0.386  -3.856   1.187  1.00  0.00     0.051 C 
ENDBRANCH   8  21
ENDBRANCH   3   8
BRANCH   1  27
HETATM   27  O3  UNL     1      -3.135  -1.348  -1.437  1.00  0.00    -0.303 OA
BRANCH  27  28
HETATM   28  C2  UNL     1      -4.025  -0.305  -1.341  1.00  0.00     0.291 C 
BRANCH  28  29
HETATM   29  O1  UNL     1      -5.292  -0.899  -1.157  1.00  0.00    -0.351 OA
HETATM   30  C1  UNL     1      -5.289  -1.673  -0.018  1.00  0.00     0.206 C 
ENDBRANCH  28  29
BRANCH  28  31
HETATM   31  C3  UNL     1      -3.763   0.521  -0.066  1.00  0.00     0.247 C 
BRANCH  31  32
HETATM   32  O2  UNL     1      -4.808   1.402   0.080  1.00  0.00    -0.376 OA
BRANCH  32  33
HETATM   33  C4  UNL     1      -4.742   2.261   1.137  1.00  0.00     0.050 C 
HETATM   34  C5  UNL     1      -4.676   1.529   2.429  1.00  0.00     0.045 C 
HETATM   35  C6  UNL     1      -6.012   3.106   1.142  1.00  0.00     0.045 C 
HETATM   36  C7  UNL     1      -3.594   3.227   0.939  1.00  0.00     0.045 C 
ENDBRANCH  32  33
ENDBRANCH  31  32
ENDBRANCH  28  31
BRANCH  28  37
HETATM   37  C29 UNL     1      -4.126   0.669  -2.462  1.00  0.00     0.447 C 
HETATM   38  F4  UNL     1      -5.071   1.664  -2.107  1.00  0.00    -0.165 F 
HETATM   39  F5  UNL     1      -2.995   1.351  -2.767  1.00  0.00    -0.165 F 
HETATM   40  F6  UNL     1      -4.769   0.124  -3.602  1.00  0.00    -0.165 F 
ENDBRANCH  28  37
ENDBRANCH  27  28
ENDBRANCH   1  27
BRANCH   5  41
HETATM   41  C26 UNL     1       0.876  -2.260  -4.083  1.00  0.00     0.418 C 
HETATM   42  F1  UNL     1       2.260  -2.289  -3.815  1.00  0.00    -0.166 F 
HETATM   43  F2  UNL     1       0.599  -3.584  -4.473  1.00  0.00    -0.166 F 
HETATM   44  F3  UNL     1       0.670  -1.351  -5.069  1.00  0.00    -0.166 F 
ENDBRANCH   5  41
TORSDOF 15
