REMARK  1 active torsions:
REMARK  status: ('A' for Active; 'I' for Inactive)
REMARK    1  A    between atoms: C1_2  and  C2_3 
ROOT
HETATM    1  C2  UNL     1       0.286   0.059  -0.266  1.00  0.00     0.046 A 
HETATM    2  C3  UNL     1      -0.229  -1.207  -0.438  1.00  0.00     0.030 A 
HETATM    3  C4  UNL     1      -1.572  -1.417  -0.181  1.00  0.00     0.005 A 
HETATM    4  C5  UNL     1      -2.364  -0.369   0.238  1.00  0.00     0.042 A 
HETATM    5  C6  UNL     1      -1.827   0.890   0.403  1.00  0.00     0.101 A 
HETATM    6  S1  UNL     1      -2.768   2.151   0.905  1.00  0.00    -0.060 SA
HETATM    7  N2  UNL     1      -0.512   1.056   0.143  1.00  0.00    -0.346 N 
ATOM      8  H2  UNL     1      -0.107   1.984   0.264  1.00  0.00     0.167 HD
ENDROOT
BRANCH   1   9
HETATM    9  C1  UNL     1       1.737   0.341  -0.530  1.00  0.00     0.129 C 
HETATM   10  N1  UNL     1       2.553   0.165   0.605  1.00  0.00    -0.113 NA
ENDBRANCH   1   9
TORSDOF 1
