REMARK  1 active torsions:
REMARK  status: ('A' for Active; 'I' for Inactive)
REMARK    1  A    between atoms: C2_2  and  C3_3 
ROOT
HETATM    1  C3  UNL     1       0.617  -0.242   0.025  1.00  0.00     0.011 A 
HETATM    2  C4  UNL     1       0.527   1.092   0.314  1.00  0.00     0.053 A 
HETATM    3  C5  UNL     1      -0.708   1.670   0.515  1.00  0.00     0.029 A 
HETATM    4  N1  UNL     1      -0.824   2.936   0.791  1.00  0.00    -0.399 N 
ATOM      5  H11 UNL     1      -1.738   3.364   0.940  1.00  0.00     0.156 HD
ATOM      6  H12 UNL     1       0.022   3.502   0.858  1.00  0.00     0.156 HD
HETATM    7  C6  UNL     1      -1.848   0.908   0.425  1.00  0.00     0.053 A 
HETATM    8  C7  UNL     1      -1.739  -0.436   0.133  1.00  0.00     0.007 A 
HETATM    9  C8  UNL     1      -2.968  -1.299   0.027  1.00  0.00     0.068 C 
HETATM   10  N2  UNL     1      -0.515  -0.960  -0.056  1.00  0.00    -0.363 N 
ATOM     11  H2  UNL     1      -0.443  -1.954  -0.272  1.00  0.00     0.165 HD
ENDROOT
BRANCH   1  12
HETATM   12  C2  UNL     1       1.893  -0.954  -0.208  1.00  0.00     0.052 C 
HETATM   13  C1  UNL     1       3.085  -0.042  -0.089  1.00  0.00     0.011 C 
ENDBRANCH   1  12
TORSDOF 1
