REMARK  5 active torsions:
REMARK  status: ('A' for Active; 'I' for Inactive)
REMARK    1  A    between atoms: C2_2  and  C3_3 
REMARK    2  A    between atoms: C3_3  and  N1_4 
REMARK    3  A    between atoms: N1_4  and  C4_6 
REMARK    4  A    between atoms: C8_19  and  S1_20 
REMARK    5  A    between atoms: S1_20  and  N7_21 
ROOT
HETATM    1  C4  UNL     1       0.642   0.464   0.021  1.00  0.00     0.146 A 
HETATM    2  N2  UNL     1       1.088   1.708   0.261  1.00  0.00    -0.171 N 
ATOM      3  H2  UNL     1       2.095   1.868   0.303  1.00  0.00     0.186 HD
HETATM    4  C5  UNL     1       0.250   2.765   0.450  1.00  0.00     0.722 A 
HETATM    5  N3  UNL     1       0.431   4.062   0.697  1.00  0.00    -0.114 N 
ATOM      6  H3  UNL     1       1.327   4.538   0.799  1.00  0.00     0.207 HD
HETATM    7  N4  UNL     1      -0.758   4.614   0.785  1.00  0.00    -0.213 N 
ATOM      8  H4  UNL     1      -0.943   5.600   0.968  1.00  0.00     0.210 HD
HETATM    9  N5  UNL     1      -1.661   3.694   0.600  1.00  0.00    -0.206 N 
ATOM     10  H5  UNL     1      -2.670   3.844   0.615  1.00  0.00     0.211 HD
HETATM   11  N6  UNL     1      -1.071   2.550   0.392  1.00  0.00    -0.067 N 
HETATM   12  C6  UNL     1      -1.565   1.301   0.150  1.00  0.00     0.109 A 
HETATM   13  C7  UNL     1      -2.855   0.848   0.047  1.00  0.00     0.078 A 
HETATM   14  C8  UNL     1      -2.803  -0.505  -0.207  1.00  0.00     0.151 A 
HETATM   15  N8  UNL     1      -1.501  -0.831  -0.251  1.00  0.00    -0.341 N 
ATOM     16  H8  UNL     1      -1.152  -1.774  -0.424  1.00  0.00     0.167 HD
HETATM   17  C9  UNL     1      -0.722   0.229  -0.041  1.00  0.00     0.107 A 
ENDROOT
BRANCH  14  18
HETATM   18  S1  UNL     1      -4.226  -1.495  -0.412  1.00  0.00     0.272 S 
HETATM   19  O1  UNL     1      -3.877  -2.655  -1.311  1.00  0.00    -0.199 OA
HETATM   20  O2  UNL     1      -5.303  -0.661  -1.012  1.00  0.00    -0.199 OA
BRANCH  18  21
HETATM   21  N7  UNL     1      -4.771  -2.147   1.088  1.00  0.00    -0.323 N 
ATOM     22  H72 UNL     1      -4.307  -1.967   1.978  1.00  0.00     0.169 HD
ATOM     23  H71 UNL     1      -5.603  -2.725   0.968  1.00  0.00     0.169 HD
ENDBRANCH  18  21
ENDBRANCH  14  18
BRANCH   1  24
HETATM   24  N1  UNL     1       1.427  -0.545  -0.159  1.00  0.00    -0.374 N 
ATOM     25  H1  UNL     1       1.043  -1.473  -0.339  1.00  0.00     0.161 HD
BRANCH  24  26
HETATM   26  C3  UNL     1       2.849  -0.345  -0.103  1.00  0.00     0.121 C 
BRANCH  26  27
HETATM   27  C2  UNL     1       3.531  -1.563  -0.686  1.00  0.00     0.015 C 
HETATM   28  C1  UNL     1       5.027  -1.421  -0.659  1.00  0.00     0.006 C 
ENDBRANCH  26  27
ENDBRANCH  24  26
ENDBRANCH   1  24
TORSDOF 5
