REMARK  4 active torsions:
REMARK  status: ('A' for Active; 'I' for Inactive)
REMARK    1  A    between atoms: S1_2  and  C2_5 
REMARK    2  A    between atoms: C5_8  and  C6_9 
REMARK    3  A    between atoms: N1_10  and  N2_12 
REMARK    4  A    between atoms: C7_13  and  N3_14 
ROOT
HETATM    1  N2  UNL     1      -3.070   0.191   0.619  1.00  0.00    -0.032 N 
HETATM    2  C7  UNL     1      -3.846  -0.825   0.208  1.00  0.00     0.705 A 
HETATM    3  N4  UNL     1      -5.193  -0.670   0.093  1.00  0.00    -0.139 N 
ATOM      4  H4  UNL     1      -5.766  -1.454  -0.220  1.00  0.00     0.189 HD
HETATM    5  C8  UNL     1      -5.780   0.511   0.389  1.00  0.00     0.342 A 
HETATM    6  O3  UNL     1      -7.026   0.648   0.281  1.00  0.00    -0.246 OA
HETATM    7  N5  UNL     1      -5.005   1.529   0.800  1.00  0.00    -0.258 N 
ATOM      8  H5  UNL     1      -5.421   2.431   1.030  1.00  0.00     0.175 HD
HETATM    9  C9  UNL     1      -3.682   1.349   0.905  1.00  0.00     0.364 A 
HETATM   10  O4  UNL     1      -2.931   2.297   1.291  1.00  0.00    -0.244 OA
ENDROOT
BRANCH   1  11
HETATM   11  N1  UNL     1      -1.697  -0.024   0.718  1.00  0.00    -0.286 N 
HETATM   12  C6  UNL     1      -0.984   0.109  -0.376  1.00  0.00     0.119 C 
ATOM     13  H1  UNL     1      -1.263  -0.275   1.606  1.00  0.00     0.187 HD
BRANCH  12  14
HETATM   14  C5  UNL     1       0.446  -0.097  -0.358  1.00  0.00    -0.019 A 
HETATM   15  C4  UNL     1       1.173   0.045  -1.505  1.00  0.00     0.014 A 
HETATM   16  C3  UNL     1       2.557  -0.143  -1.536  1.00  0.00     0.024 A 
HETATM   17  C2  UNL     1       3.204  -0.486  -0.353  1.00  0.00     0.058 A 
HETATM   18  C11 UNL     1       2.484  -0.632   0.808  1.00  0.00     0.024 A 
HETATM   19  C10 UNL     1       1.110  -0.437   0.802  1.00  0.00     0.014 A 
BRANCH  17  20
HETATM   20  S1  UNL     1       4.929  -0.714  -0.424  1.00  0.00     0.171 S 
HETATM   21  C1  UNL     1       5.798   0.807  -0.109  1.00  0.00     0.167 C 
HETATM   22  O1  UNL     1       5.396  -1.748   0.557  1.00  0.00    -0.223 OA
HETATM   23  O2  UNL     1       5.317  -1.161  -1.820  1.00  0.00    -0.223 OA
ENDBRANCH  17  20
ENDBRANCH  12  14
ENDBRANCH   1  11
BRANCH   2  24
HETATM   24  N3  UNL     1      -3.381  -1.989  -0.098  1.00  0.00    -0.233 N 
ATOM     25  H32 UNL     1      -2.371  -2.105  -0.012  1.00  0.00     0.174 HD
ATOM     26  H31 UNL     1      -3.970  -2.761  -0.410  1.00  0.00     0.174 HD
ENDBRANCH   2  24
TORSDOF 4
