REMARK  5 active torsions:
REMARK  status: ('A' for Active; 'I' for Inactive)
REMARK    1  A    between atoms: N2_5  and  C4_6 
REMARK    2  A    between atoms: C5_9  and  N4_10 
REMARK    3  A    between atoms: C10_18  and  N6_19 
REMARK    4  A    between atoms: C11_22  and  C12_23 
REMARK    5  A    between atoms: C12_23  and  N7_24 
ROOT
HETATM    1  C4  UNL     1      -0.338   0.623  -0.137  1.00  0.00     0.131 A 
HETATM    2  N3  UNL     1       0.743  -0.175   0.015  1.00  0.00    -0.176 N 
ATOM      3  H3  UNL     1       0.588  -1.174   0.153  1.00  0.00     0.186 HD
HETATM    4  C5  UNL     1       2.002   0.271  -0.006  1.00  0.00     0.683 A 
HETATM    5  N5  UNL     1       2.192   1.592  -0.188  1.00  0.00    -0.176 N 
ATOM      6  H5  UNL     1       3.151   1.939  -0.204  1.00  0.00     0.186 HD
HETATM    7  C10 UNL     1       1.204   2.476  -0.349  1.00  0.00     0.126 A 
HETATM    8  C11 UNL     1      -0.099   1.968  -0.321  1.00  0.00     0.056 A 
ENDROOT
BRANCH   1   9
HETATM    9  N2  UNL     1      -1.668   0.144  -0.114  1.00  0.00    -0.363 N 
HETATM   10  C3  UNL     1      -2.466   0.050   1.090  1.00  0.00     0.154 C 
HETATM   11  C2  UNL     1      -3.922   0.091   0.655  1.00  0.00     0.291 C 
HETATM   12  N1  UNL     1      -4.282  -0.999  -0.197  1.00  0.00     0.087 N 
HETATM   13  C1  UNL     1      -4.904  -2.097   0.472  1.00  0.00     0.310 C 
HETATM   14  C14 UNL     1      -3.156  -1.501  -0.973  1.00  0.00     0.291 C 
HETATM   15  C13 UNL     1      -2.308  -0.290  -1.351  1.00  0.00     0.154 C 
ENDBRANCH   1   9
BRANCH   8  16
HETATM   16  C12 UNL     1      -1.233   2.889  -0.492  1.00  0.00     0.275 C 
BRANCH  16  17
HETATM   17  N7  UNL     1      -0.747   4.259  -0.671  1.00  0.00    -0.075 N 
ATOM     18  H73 UNL     1      -0.132   4.548   0.090  1.00  0.00     0.274 HD
ATOM     19  H72 UNL     1      -0.079   4.330  -1.439  1.00  0.00     0.274 HD
ATOM     20  H71 UNL     1      -1.533   4.898  -0.790  1.00  0.00     0.274 HD
ENDBRANCH  16  17
ENDBRANCH   8  16
BRANCH   4  21
HETATM   21  N4  UNL     1       3.122  -0.593   0.157  1.00  0.00    -0.213 N 
HETATM   22  C6  UNL     1       4.461  -0.048   0.126  1.00  0.00     0.167 C 
HETATM   23  C7  UNL     1       5.331  -0.984   0.941  1.00  0.00     0.188 C 
HETATM   24  O1  UNL     1       5.391  -2.185   0.287  1.00  0.00    -0.388 OA
HETATM   25  C8  UNL     1       4.195  -2.785   0.011  1.00  0.00     0.188 C 
HETATM   26  C9  UNL     1       2.975  -2.003   0.354  1.00  0.00     0.167 C 
ENDBRANCH   4  21
BRANCH   7  27
HETATM   27  N6  UNL     1       1.431   3.726  -0.520  1.00  0.00    -0.384 N 
ATOM     28  H62 UNL     1       2.381   4.096  -0.540  1.00  0.00     0.157 HD
ATOM     29  H61 UNL     1       0.676   4.401  -0.643  1.00  0.00     0.157 HD
ENDBRANCH   7  27
TORSDOF 5
