REMARK  12 active torsions:
REMARK  status: ('A' for Active; 'I' for Inactive)
REMARK    1  A    between atoms: N1_1  and  C1_5 
REMARK    2  A    between atoms: C1_5  and  C2_6 
REMARK    3  A    between atoms: C2_6  and  C3_7 
REMARK    4  A    between atoms: C3_7  and  N2_8 
REMARK    5  A    between atoms: N2_8  and  C4_10 
REMARK    6  A    between atoms: C4_10  and  O1_11 
REMARK    7  A    between atoms: C4_10  and  C5_13 
REMARK    8  A    between atoms: C5_13  and  O2_14 
REMARK    9  A    between atoms: C5_13  and  C6_16 
REMARK   10  A    between atoms: C6_16  and  O3_17 
REMARK   11  A    between atoms: O3_17  and  C7_18 
REMARK   12  A    between atoms: C13_24  and  O4_25 
ROOT
HETATM    1  C7  UNL     1       0.982  -1.560  -1.472  1.00  0.00     0.309 C 
HETATM    2  C8  UNL     1       0.044  -2.526  -2.266  1.00  0.00     0.125 C 
HETATM    3  C9  UNL     1      -1.377  -2.083  -2.100  1.00  0.00     0.016 A 
HETATM    4  C10 UNL     1      -2.083  -1.069  -2.602  1.00  0.00     0.026 A 
HETATM    5  C11 UNL     1      -3.390  -0.760  -2.118  1.00  0.00     0.021 A 
HETATM    6  C12 UNL     1      -3.979  -1.507  -1.102  1.00  0.00     0.057 A 
HETATM    7  C13 UNL     1      -3.184  -2.540  -0.656  1.00  0.00     0.154 A 
HETATM    8  N3  UNL     1      -1.957  -2.802  -1.135  1.00  0.00    -0.340 N 
ATOM      9  H3  UNL     1      -1.442  -3.590  -0.742  1.00  0.00     0.167 HD
HETATM   10  C14 UNL     1      -5.262  -1.085  -0.440  1.00  0.00     0.145 C 
HETATM   11  N4  UNL     1      -6.661  -1.504  -0.627  1.00  0.00    -0.080 NA
HETATM   12  N5  UNL     1      -5.265  -0.138   0.474  1.00  0.00    -0.282 N 
ATOM     13  H5  UNL     1      -6.221   0.000   0.800  1.00  0.00     0.188 HD
HETATM   14  N6  UNL     1      -4.465   0.703   1.124  1.00  0.00    -0.257 N 
HETATM   15  C15 UNL     1      -5.445   1.723   1.766  1.00  0.00     0.267 C 
HETATM   16  N7  UNL     1      -5.376   2.960   1.055  1.00  0.00    -0.403 N 
ATOM     17  H7  UNL     1      -5.759   3.825   1.437  1.00  0.00     0.154 HD
HETATM   18  C16 UNL     1      -4.736   2.913  -0.227  1.00  0.00     0.135 C 
HETATM   19  C17 UNL     1      -3.251   2.962  -0.016  1.00  0.00     0.140 C 
HETATM   20  N8  UNL     1      -2.907   2.513   1.292  1.00  0.00    -0.372 N 
ATOM     21  H8  UNL     1      -2.551   3.117   2.033  1.00  0.00     0.161 HD
HETATM   22  C18 UNL     1      -3.138   1.029   1.439  1.00  0.00     0.135 C 
HETATM   23  C19 UNL     1      -1.869   0.432   1.212  1.00  0.00     0.141 C 
HETATM   24  N9  UNL     1      -0.877   1.092   0.400  1.00  0.00    -0.326 N 
ATOM     25  H9  UNL     1      -0.702   2.064   0.657  1.00  0.00     0.169 HD
HETATM   26  C20 UNL     1      -0.105   0.630  -0.688  1.00  0.00     0.264 C 
HETATM   27  N10 UNL     1       0.127   1.792  -1.611  1.00  0.00    -0.049 NA
HETATM   28  N11 UNL     1       0.409  -0.392  -1.065  1.00  0.00    -0.384 NA
ENDROOT
BRANCH   1  29
HETATM   29  O3  UNL     1       2.034  -1.367  -2.311  1.00  0.00    -0.352 OA
BRANCH  29  30
HETATM   30  C6  UNL     1       3.294  -1.692  -2.093  1.00  0.00     0.207 C 
BRANCH  30  31
HETATM   31  C5  UNL     1       4.048  -0.995  -1.016  1.00  0.00     0.190 C 
BRANCH  31  32
HETATM   32  C4  UNL     1       3.845  -1.369   0.386  1.00  0.00     0.244 C 
BRANCH  32  33
HETATM   33  N2  UNL     1       4.819  -0.881   1.323  1.00  0.00    -0.395 N 
ATOM     34  H2  UNL     1       5.409  -1.527   1.848  1.00  0.00     0.155 HD
BRANCH  33  35
HETATM   35  C3  UNL     1       4.939   0.512   1.498  1.00  0.00     0.118 C 
BRANCH  35  36
HETATM   36  C2  UNL     1       5.991   0.832   2.577  1.00  0.00     0.046 C 
BRANCH  36  37
HETATM   37  C1  UNL     1       7.302   0.241   2.108  1.00  0.00     0.231 C 
BRANCH  37  38
HETATM   38  N1  UNL     1       7.675   0.826   0.844  1.00  0.00    -0.079 N 
ATOM     39  H13 UNL     1       6.939   0.731   0.145  1.00  0.00     0.274 HD
ATOM     40  H12 UNL     1       7.706   1.845   0.887  1.00  0.00     0.274 HD
ATOM     41  H11 UNL     1       8.559   0.427   0.528  1.00  0.00     0.274 HD
ENDBRANCH  37  38
ENDBRANCH  36  37
ENDBRANCH  35  36
ENDBRANCH  33  35
ENDBRANCH  32  33
BRANCH  32  42
HETATM   42  O1  UNL     1       3.825  -2.765   0.583  1.00  0.00    -0.374 OA
ATOM     43  H1  UNL     1       3.181  -3.088  -0.036  1.00  0.00     0.212 HD
ENDBRANCH  32  42
ENDBRANCH  31  32
BRANCH  31  44
HETATM   44  O2  UNL     1       3.995   0.368  -1.237  1.00  0.00    -0.389 OA
ATOM     45  H2  UNL     1       4.127   0.610  -2.146  1.00  0.00     0.210 HD
ENDBRANCH  31  44
ENDBRANCH  30  31
ENDBRANCH  29  30
ENDBRANCH   1  29
BRANCH   7  46
HETATM   46  O4  UNL     1      -3.319  -3.591   0.351  1.00  0.00    -0.345 OA
ATOM     47  H4  UNL     1      -2.771  -4.303   0.659  1.00  0.00     0.219 HD
ENDBRANCH   7  46
TORSDOF 12
