REMARK  13 active torsions:
REMARK  status: ('A' for Active; 'I' for Inactive)
REMARK    1  A    between atoms: O1_2  and  C2_3 
REMARK    2  A    between atoms: C2_3  and  C3_5 
REMARK    3  A    between atoms: C3_5  and  C4_6 
REMARK    4  A    between atoms: C3_5  and  N1_11 
REMARK    5  A    between atoms: C4_6  and  C5_7 
REMARK    6  A    between atoms: C5_7  and  O3_9 
REMARK       I    between atoms: N1_11  and  C7_13 
REMARK    7  A    between atoms: C7_13  and  C8_15 
REMARK    8  A    between atoms: C9_18  and  N3_19 
REMARK    9  A    between atoms: C10_23  and  C11_24 
REMARK   10  A    between atoms: C11_24  and  O5_26 
REMARK   11  A    between atoms: C11_24  and  N6_28 
REMARK   12  A    between atoms: C14_32  and  N8_33 
REMARK   13  A    between atoms: C16_40  and  N11_41 
ROOT
HETATM    1  C8  UNL     1       1.102  -2.354  -1.000  1.00  0.00     0.144 A 
HETATM    2  N2  UNL     1       0.192  -1.345  -0.864  1.00  0.00    -0.331 N 
ATOM      3  H2  UNL     1       0.513  -0.440  -0.521  1.00  0.00     0.168 HD
HETATM    4  C9  UNL     1      -1.109  -1.497  -1.164  1.00  0.00     0.172 A 
HETATM    5  C16 UNL     1      -1.494  -2.745  -1.624  1.00  0.00     0.147 A 
HETATM    6  N12 UNL     1      -0.600  -3.752  -1.763  1.00  0.00    -0.326 N 
ATOM      7  H12 UNL     1      -0.919  -4.658  -2.106  1.00  0.00     0.168 HD
HETATM    8  C17 UNL     1       0.697  -3.586  -1.460  1.00  0.00     0.150 A 
HETATM    9  N13 UNL     1       1.649  -4.642  -1.602  1.00  0.00    -0.080 NA
ENDROOT
BRANCH   4  10
HETATM   10  N3  UNL     1      -2.072  -0.457  -1.029  1.00  0.00    -0.204 N 
HETATM   11  N4  UNL     1      -2.201   0.663  -1.750  1.00  0.00    -0.012 NA
HETATM   12  N5  UNL     1      -3.231   1.373  -1.304  1.00  0.00    -0.280 N 
HETATM   13  C10 UNL     1      -3.806   0.730  -0.272  1.00  0.00     0.123 A 
ATOM     14  H5  UNL     1      -3.538   2.268  -1.685  1.00  0.00     0.184 HD
HETATM   15  C15 UNL     1      -3.060  -0.417  -0.119  1.00  0.00     0.167 A 
HETATM   16  N10 UNL     1      -3.313  -1.406   0.867  1.00  0.00    -0.079 NA
BRANCH  13  17
HETATM   17  C11 UNL     1      -4.974   1.199   0.487  1.00  0.00     0.197 C 
HETATM   18  C12 UNL     1      -6.135   0.232   0.419  1.00  0.00     0.080 C 
BRANCH  17  19
HETATM   19  O5  UNL     1      -4.567   1.386   1.811  1.00  0.00    -0.364 OA
ATOM     20  H5  UNL     1      -5.322   1.689   2.302  1.00  0.00     0.213 HD
ENDBRANCH  17  19
BRANCH  17  21
HETATM   21  N6  UNL     1      -5.432   2.477  -0.040  1.00  0.00    -0.232 N 
HETATM   22  C13 UNL     1      -5.658   2.778  -1.330  1.00  0.00     0.222 A 
HETATM   23  N7  UNL     1      -6.070   4.055  -1.392  1.00  0.00    -0.185 N 
HETATM   24  C14 UNL     1      -6.098   4.547  -0.139  1.00  0.00     0.691 A 
ATOM     25  H7  UNL     1      -6.318   4.563  -2.241  1.00  0.00     0.185 HD
HETATM   26  N9  UNL     1      -5.703   3.556   0.667  1.00  0.00    -0.126 N 
ATOM     27  H9  UNL     1      -5.623   3.625   1.682  1.00  0.00     0.206 HD
BRANCH  24  28
HETATM   28  N8  UNL     1      -6.448   5.755   0.194  1.00  0.00    -0.233 N 
ATOM     29  H82 UNL     1      -6.749   6.511  -0.421  1.00  0.00     0.174 HD
ATOM     30  H81 UNL     1      -6.469   6.128   1.143  1.00  0.00     0.174 HD
ENDBRANCH  24  28
ENDBRANCH  17  21
ENDBRANCH  13  17
ENDBRANCH   4  10
BRANCH   5  31
HETATM   31  N11 UNL     1      -2.745  -2.897  -1.914  1.00  0.00    -0.382 N 
ATOM     32 2H11 UNL     1      -3.419  -2.138  -1.809  1.00  0.00     0.157 HD
ATOM     33 1H11 UNL     1      -3.029  -3.816  -2.253  1.00  0.00     0.157 HD
ENDBRANCH   5  31
BRANCH   1  34
HETATM   34  C7  UNL     1       2.504  -2.148  -0.665  1.00  0.00     0.272 C 
HETATM   35  N1  UNL     1       2.905  -0.882  -0.196  1.00  0.00    -0.342 N 
ATOM     36  H1  UNL     1       2.208  -0.143  -0.103  1.00  0.00     0.163 HD
HETATM   37  O4  UNL     1       3.308  -3.112  -0.808  1.00  0.00    -0.266 OA
BRANCH  35  38
HETATM   38  C3  UNL     1       4.319  -0.594   0.167  1.00  0.00     0.187 C 
BRANCH  38  39
HETATM   39  C2  UNL     1       4.273  -0.215   1.578  1.00  0.00     0.281 C 
HETATM   40  O2  UNL     1       3.286   0.362   2.118  1.00  0.00    -0.263 OA
BRANCH  39  41
HETATM   41  O1  UNL     1       5.375  -0.507   2.393  1.00  0.00    -0.325 OA
HETATM   42  C1  UNL     1       5.385  -0.176   3.771  1.00  0.00     0.213 C 
ENDBRANCH  39  41
ENDBRANCH  38  39
BRANCH  38  43
HETATM   43  C4  UNL     1       4.707   0.515  -0.742  1.00  0.00     0.066 C 
BRANCH  43  44
HETATM   44  C5  UNL     1       6.004   1.185  -0.628  1.00  0.00     0.116 C 
HETATM   45  C6  UNL     1       6.260   1.892   0.637  1.00  0.00     0.039 C 
BRANCH  44  46
HETATM   46  O3  UNL     1       7.021   0.223  -0.907  1.00  0.00    -0.396 OA
ATOM     47  H3  UNL     1       7.862   0.658  -0.833  1.00  0.00     0.210 HD
ENDBRANCH  44  46
ENDBRANCH  43  44
ENDBRANCH  38  43
ENDBRANCH  35  38
ENDBRANCH   1  34
TORSDOF 13
