REMARK  11 active torsions:
REMARK  status: ('A' for Active; 'I' for Inactive)
REMARK    1  A    between atoms: C1_4  and  C2_6 
REMARK    2  A    between atoms: C3_8  and  N3_9 
REMARK    3  A    between atoms: N3_9  and  C4_11 
REMARK    4  A    between atoms: C4_11  and  O1_12 
REMARK    5  A    between atoms: C4_11  and  C5_14 
REMARK    6  A    between atoms: C9_18  and  C10_19 
REMARK    7  A    between atoms: C10_19  and  N4_20 
REMARK    8  A    between atoms: N4_20  and  N5_22 
REMARK    9  A    between atoms: N10_34  and  C15_35 
REMARK   10  A    between atoms: C15_35  and  C16_36 
REMARK   11  A    between atoms: N13_43  and  N14_44 
ROOT
HETATM    1  C5  UNL     1      -0.219  -0.435   0.548  1.00  0.00     0.088 A 
HETATM    2  C6  UNL     1       0.894  -0.956  -0.135  1.00  0.00     0.049 A 
HETATM    3  C7  UNL     1       2.048  -0.494   0.450  1.00  0.00     0.011 A 
HETATM    4  C8  UNL     1       3.396  -0.663   0.217  1.00  0.00     0.025 A 
HETATM    5  C9  UNL     1       4.367  -0.048   0.998  1.00  0.00    -0.023 A 
HETATM    6  C13 UNL     1       3.884   0.743   2.020  1.00  0.00     0.098 A 
HETATM    7  N9  UNL     1       2.571   0.902   2.240  1.00  0.00    -0.351 N 
ATOM      8  H9  UNL     1       2.270   1.499   3.011  1.00  0.00     0.166 HD
HETATM    9  C14 UNL     1       1.639   0.304   1.482  1.00  0.00     0.118 A 
HETATM   10  N10 UNL     1       0.250   0.326   1.523  1.00  0.00    -0.319 N 
ENDROOT
BRANCH   1  11
HETATM   11  C4  UNL     1      -1.559  -0.767   0.143  1.00  0.00     0.165 C 
BRANCH  11  12
HETATM   12  N3  UNL     1      -2.785  -0.358   0.689  1.00  0.00    -0.338 N 
ATOM     13  H3  UNL     1      -2.813   0.268   1.494  1.00  0.00     0.164 HD
BRANCH  12  14
HETATM   14  C3  UNL     1      -4.011  -0.842   0.088  1.00  0.00     0.266 C 
HETATM   15  S1  UNL     1      -5.045   0.561  -0.510  1.00  0.00    -0.090 SA
HETATM   16  C2  UNL     1      -6.747  -0.152  -0.436  1.00  0.00     0.232 C 
HETATM   17  N13 UNL     1      -6.508  -1.586  -0.673  1.00  0.00    -0.111 NA
HETATM   18  N12 UNL     1      -5.968  -2.147   0.455  1.00  0.00    -0.245 N 
HETATM   19  N11 UNL     1      -4.854  -1.567   0.993  1.00  0.00    -0.292 N 
ATOM     20  H12 UNL     1      -6.386  -2.974   0.881  1.00  0.00     0.203 HD
ATOM     21  H11 UNL     1      -4.634  -1.646   1.986  1.00  0.00     0.184 HD
BRANCH  16  22
HETATM   22  C1  UNL     1      -7.517   0.459  -1.560  1.00  0.00     0.118 C 
HETATM   23  N1  UNL     1      -6.997   1.321  -2.359  1.00  0.00    -0.389 N 
ATOM     24  H12 UNL     1      -7.523   1.738  -3.127  1.00  0.00     0.157 HD
ATOM     25  H11 UNL     1      -6.023   1.581  -2.205  1.00  0.00     0.157 HD
HETATM   26  N2  UNL     1      -8.886   0.093  -1.776  1.00  0.00    -0.085 NA
ENDBRANCH  16  22
BRANCH  17  27
HETATM   27  N14 UNL     1      -7.639  -2.236  -1.119  1.00  0.00    -0.343 NA
ATOM     28 2H14 UNL     1      -8.041  -1.819  -1.958  1.00  0.00     0.172 HD
ATOM     29 1H14 UNL     1      -7.473  -3.229  -1.283  1.00  0.00     0.172 HD
ENDBRANCH  17  27
ENDBRANCH  12  14
ENDBRANCH  11  12
BRANCH  11  30
HETATM   30  O1  UNL     1      -1.637  -1.575  -0.894  1.00  0.00    -0.345 OA
ATOM     31  H1  UNL     1      -0.807  -1.852  -1.264  1.00  0.00     0.219 HD
ENDBRANCH  11  30
ENDBRANCH   1  11
BRANCH  10  32
HETATM   32  C15 UNL     1      -0.454   1.110   2.510  1.00  0.00     0.244 C 
BRANCH  32  33
HETATM   33  C16 UNL     1      -0.649   2.498   2.051  1.00  0.00     0.191 C 
HETATM   34  O2  UNL     1       0.232   3.392   2.198  1.00  0.00    -0.647 OA
HETATM   35  O3  UNL     1      -1.811   2.892   1.435  1.00  0.00    -0.647 OA
ENDBRANCH  32  33
ENDBRANCH  10  32
BRANCH   5  36
HETATM   36  C10 UNL     1       5.806  -0.222   0.764  1.00  0.00     0.181 C 
BRANCH  36  37
HETATM   37  N4  UNL     1       6.265   0.672  -0.283  1.00  0.00    -0.310 N 
ATOM     38  H4  UNL     1       5.607   1.310  -0.730  1.00  0.00     0.182 HD
BRANCH  37  39
HETATM   39  N5  UNL     1       7.611   0.663  -0.683  1.00  0.00    -0.194 N 
HETATM   40  C11 UNL     1       8.148   1.436  -1.634  1.00  0.00     0.229 A 
HETATM   41  N6  UNL     1       9.446   1.120  -1.710  1.00  0.00    -0.323 N 
HETATM   42  C12 UNL     1       9.744   0.154  -0.819  1.00  0.00     0.209 A 
ATOM     43  H6  UNL     1      10.114   1.549  -2.350  1.00  0.00     0.169 HD
HETATM   44  N7  UNL     1      11.028  -0.402  -0.649  1.00  0.00    -0.062 NA
HETATM   45  N8  UNL     1       8.586  -0.110  -0.195  1.00  0.00    -0.251 N 
ATOM     46  H8  UNL     1       8.467  -0.801   0.545  1.00  0.00     0.192 HD
ENDBRANCH  37  39
ENDBRANCH  36  37
ENDBRANCH   5  36
TORSDOF 11
