REMARK  0 active torsions:
REMARK  status: ('A' for Active; 'I' for Inactive)
ROOT
HETATM    1  C1  UNL     1      -0.598   1.101   0.169  1.00  0.00     0.005 C 
HETATM    2  C2  UNL     1      -1.221  -0.231  -0.128  1.00  0.00     0.005 C 
HETATM    3  C3  UNL     1       0.098  -0.864   0.315  1.00  0.00    -0.010 A 
HETATM    4  C4  UNL     1       1.304  -0.547  -0.487  1.00  0.00     0.010 A 
HETATM    5  C5  UNL     1       0.739   0.484   0.383  1.00  0.00    -0.010 A 
ENDROOT
TORSDOF 0
