REMARK  4 active torsions:
REMARK  status: ('A' for Active; 'I' for Inactive)
REMARK    1  A    between atoms: N1_2  and  C3_4 
REMARK    2  A    between atoms: C3_4  and  C4_5 
REMARK    3  A    between atoms: N2_10  and  C7_11 
REMARK    4  A    between atoms: C11_15  and  N3_16 
ROOT
HETATM    1  C7  UNL     1       1.169   0.263   0.366  1.00  0.00     0.061 C 
HETATM    2  C8  UNL     1       1.280   1.496   1.234  1.00  0.00     0.041 C 
HETATM    3  C9  UNL     1       0.778   0.699  -1.023  1.00  0.00     0.036 C 
HETATM    4  C10 UNL     1      -0.641   0.141  -1.261  1.00  0.00     0.030 C 
HETATM    5  C11 UNL     1      -1.189   0.139   0.167  1.00  0.00     0.117 C 
HETATM    6  C23 UNL     1      -0.074  -0.543   0.857  1.00  0.00     0.220 C 
HETATM    7  F1  UNL     1       0.208  -1.822   0.403  1.00  0.00    -0.245 F 
ENDROOT
BRANCH   5   8
HETATM    8  N3  UNL     1      -2.507  -0.379   0.254  1.00  0.00    -0.387 N 
HETATM    9  C12 UNL     1      -3.449   0.359  -0.531  1.00  0.00     0.109 C 
HETATM   10  C13 UNL     1      -3.819  -0.509  -1.733  1.00  0.00     0.027 C 
HETATM   11  C17 UNL     1      -4.658   0.888   0.143  1.00  0.00     0.094 C 
HETATM   12  C14 UNL     1      -4.566   0.309  -2.769  1.00  0.00     0.002 C 
HETATM   13  C15 UNL     1      -5.163   1.556  -2.148  1.00  0.00     0.002 C 
HETATM   14  C16 UNL     1      -5.791   1.148  -0.860  1.00  0.00     0.034 C 
HETATM   15 CL1  UNL     1      -4.359   2.452   0.959  1.00  0.00    -0.111 Cl
HETATM   16  C18 UNL     1      -5.224  -0.046   1.135  1.00  0.00     0.036 C 
HETATM   17 CL2  UNL     1      -6.952  -0.074   1.399  1.00  0.00    -0.087 Cl
HETATM   18  C19 UNL     1      -4.405  -0.816   1.784  1.00  0.00     0.024 C 
HETATM   19  C20 UNL     1      -2.951  -0.771   1.550  1.00  0.00     0.041 C 
HETATM   20  C21 UNL     1      -2.408   0.105   2.680  1.00  0.00     0.042 C 
HETATM   21  C22 UNL     1      -2.470  -2.197   1.919  1.00  0.00     0.042 C 
ENDBRANCH   5   8
BRANCH   1  22
HETATM   22  N2  UNL     1       2.334  -0.522   0.458  1.00  0.00    -0.378 N 
HETATM   23  C6  UNL     1       2.600  -1.489  -0.532  1.00  0.00     0.062 C 
HETATM   24  C5  UNL     1       3.944  -1.150  -1.159  1.00  0.00     0.099 C 
HETATM   25  C3  UNL     1       4.649  -0.364  -0.077  1.00  0.00     0.265 C 
HETATM   26  C24 UNL     1       3.544   0.136   0.827  1.00  0.00     0.176 C 
BRANCH  25  27
HETATM   27  N1  UNL     1       5.339   0.774  -0.619  1.00  0.00     0.102 N 
HETATM   28  C1  UNL     1       5.956   1.525   0.434  1.00  0.00     0.311 C 
HETATM   29  C2  UNL     1       6.277   0.462  -1.650  1.00  0.00     0.311 C 
ENDBRANCH  25  27
BRANCH  25  30
HETATM   30  C4  UNL     1       5.569  -1.305   0.602  1.00  0.00     0.215 C 
HETATM   31  O1  UNL     1       6.795  -1.081   0.657  1.00  0.00    -0.646 OA
HETATM   32  O2  UNL     1       5.067  -2.450   1.185  1.00  0.00    -0.646 OA
ENDBRANCH  25  30
ENDBRANCH   1  22
TORSDOF 4
