REMARK  1 active torsions:
REMARK  status: ('A' for Active; 'I' for Inactive)
REMARK    1  A    between atoms: N1_2  and  C2_4 
ROOT
HETATM    1  C2  UNL     1      -2.016  -0.661  -0.401  1.00  0.00     0.076 C 
HETATM    2  C3  UNL     1      -0.902  -1.329   0.374  1.00  0.00     0.029 C 
HETATM    3  C4  UNL     1       0.316  -1.462  -0.515  1.00  0.00    -0.012 C 
HETATM    4  C5  UNL     1       0.222  -0.549  -1.745  1.00  0.00     0.009 C 
HETATM    5  C6  UNL     1      -0.173   0.804  -1.193  1.00  0.00    -0.012 C 
HETATM    6  C7  UNL     1      -1.607   0.754  -0.786  1.00  0.00     0.029 C 
HETATM    7  C8  UNL     1       0.694   1.235  -0.058  1.00  0.00     0.013 C 
HETATM    8  C9  UNL     1       1.884   0.372   0.195  1.00  0.00    -0.047 C 
HETATM    9  C10 UNL     1       3.030   0.776  -0.707  1.00  0.00     0.015 C 
HETATM   10  C11 UNL     1       2.359   0.686   1.623  1.00  0.00     0.015 C 
HETATM   11  C12 UNL     1       1.601  -1.101   0.168  1.00  0.00     0.013 C 
ENDROOT
BRANCH   1  12
HETATM   12  N1  UNL     1      -3.248  -0.688   0.303  1.00  0.00    -0.421 N 
HETATM   13  C1  UNL     1      -3.336   0.066   1.503  1.00  0.00     0.140 C 
ATOM     14  H1  UNL     1      -4.041  -1.229  -0.041  1.00  0.00     0.153 HD
ENDBRANCH   1  12
TORSDOF 1
