REMARK  5 active torsions:
REMARK  status: ('A' for Active; 'I' for Inactive)
REMARK    1  A    between atoms: C2_2  and  C3_3 
REMARK    2  A    between atoms: C3_3  and  N1_4 
REMARK    3  A    between atoms: C13_14  and  C15_16 
REMARK    4  A    between atoms: C15_16  and  O1_17 
REMARK    5  A    between atoms: C16_19  and  C17_20 
ROOT
HETATM    1  N1  UNL     1      -1.317  -0.324   0.539  1.00  0.00    -0.349 N 
HETATM    2  C4  UNL     1      -1.674  -1.587  -0.100  1.00  0.00     0.327 C 
HETATM    3  C5  UNL     1      -0.941  -2.677   0.650  1.00  0.00     0.035 C 
HETATM    4  C6  UNL     1      -1.835  -3.479   1.551  1.00  0.00     0.014 C 
HETATM    5  C7  UNL     1       0.257  -2.104   1.388  1.00  0.00     0.008 C 
HETATM    6  C8  UNL     1       1.250  -1.602   0.388  1.00  0.00     0.006 C 
HETATM    7  C9  UNL     1       1.526  -0.154   0.593  1.00  0.00     0.003 C 
HETATM    8  C10 UNL     1       0.611   0.881   0.144  1.00  0.00     0.025 C 
HETATM    9  C11 UNL     1       1.690   1.532  -0.580  1.00  0.00    -0.001 C 
HETATM   10  C12 UNL     1       2.234   2.827   0.075  1.00  0.00     0.011 C 
HETATM   11  C13 UNL     1       2.670   0.376  -0.245  1.00  0.00    -0.015 C 
HETATM   12  C14 UNL     1       3.105  -0.433  -1.417  1.00  0.00     0.018 C 
HETATM   13  C16 UNL     1      -0.727   0.511  -0.424  1.00  0.00     0.064 C 
HETATM   14  C19 UNL     1      -0.779  -0.217  -1.701  1.00  0.00     0.306 C 
HETATM   15  N2  UNL     1      -1.256  -1.563  -1.442  1.00  0.00     0.110 N 
HETATM   16  C20 UNL     1      -2.170  -2.058  -2.414  1.00  0.00     0.312 C 
ENDROOT
BRANCH  11  17
HETATM   17  C15 UNL     1       3.868   0.783   0.559  1.00  0.00     0.173 C 
BRANCH  17  18
HETATM   18  O1  UNL     1       4.925   1.254  -0.137  1.00  0.00    -0.400 OA
ATOM     19  H1  UNL     1       5.684   1.512   0.373  1.00  0.00     0.209 HD
ENDBRANCH  17  18
ENDBRANCH  11  17
BRANCH  13  20
HETATM   20  C17 UNL     1      -1.456   1.831  -0.659  1.00  0.00     0.029 C 
HETATM   21  C18 UNL     1      -0.910   2.681  -1.767  1.00  0.00     0.007 C 
ENDBRANCH  13  20
BRANCH   1  22
HETATM   22  C3  UNL     1      -2.293  -0.030   1.458  1.00  0.00     0.088 C 
BRANCH  22  23
HETATM   23  C2  UNL     1      -2.227   1.133   2.353  1.00  0.00     0.007 C 
HETATM   24  C1  UNL     1      -3.197   2.057   2.399  1.00  0.00     0.012 C 
ENDBRANCH  22  23
ENDBRANCH   1  22
TORSDOF 5
