REMARK  8 active torsions:
REMARK  status: ('A' for Active; 'I' for Inactive)
REMARK    1  A    between atoms: C2_2  and  C3_3 
REMARK    2  A    between atoms: C3_3  and  C4_4 
REMARK    3  A    between atoms: C10_10  and  N1_11 
REMARK    4  A    between atoms: C17_22  and  C19_24 
REMARK    5  A    between atoms: C19_24  and  O3_26 
REMARK    6  A    between atoms: C21_28  and  C23_30 
REMARK    7  A    between atoms: C23_30  and  O4_31 
REMARK    8  A    between atoms: O4_31  and  C24_32 
ROOT
HETATM    1  C4  UNL     1      -0.620   0.530  -0.545  1.00  0.00     0.005 C 
HETATM    2  C5  UNL     1       0.735   0.244  -0.070  1.00  0.00    -0.004 C 
HETATM    3  C6  UNL     1       1.528   1.327   0.536  1.00  0.00     0.006 C 
HETATM    4  C7  UNL     1       2.554   0.791   1.532  1.00  0.00     0.012 C 
HETATM    5  C8  UNL     1       3.876   0.722   0.871  1.00  0.00    -0.009 A 
HETATM    6  C9  UNL     1       4.609   2.081   0.873  1.00  0.00     0.018 C 
HETATM    7  C10 UNL     1       4.756  -0.442   0.833  1.00  0.00     0.197 A 
HETATM    8  C11 UNL     1       3.845  -0.022  -0.369  1.00  0.00     0.031 A 
HETATM    9  C12 UNL     1       2.825  -1.041  -0.649  1.00  0.00    -0.007 C 
HETATM   10  C13 UNL     1       3.386  -1.917  -1.765  1.00  0.00     0.011 C 
HETATM   11  C14 UNL     1       1.495  -0.577  -1.095  1.00  0.00     0.001 C 
HETATM   12  C15 UNL     1       0.697  -1.800  -1.493  1.00  0.00     0.085 C 
HETATM   13  C16 UNL     1      -0.352  -2.140  -0.510  1.00  0.00     0.146 C 
HETATM   14  O1  UNL     1      -0.010  -2.976   0.294  1.00  0.00    -0.297 OA
HETATM   15  C17 UNL     1      -1.748  -1.644  -0.328  1.00  0.00     0.114 C 
HETATM   16  C18 UNL     1      -2.490  -1.611  -1.641  1.00  0.00     0.035 C 
HETATM   17  C21 UNL     1      -1.694  -0.216   0.237  1.00  0.00     0.006 C 
HETATM   18  C22 UNL     1      -1.314  -0.368   1.712  1.00  0.00     0.019 C 
ENDROOT
BRANCH  17  19
HETATM   19  C23 UNL     1      -3.047   0.376   0.196  1.00  0.00     0.190 C 
BRANCH  19  20
HETATM   20  O4  UNL     1      -3.040   1.710   0.767  1.00  0.00    -0.321 OA
BRANCH  20  21
HETATM   21  C24 UNL     1      -4.159   2.481   0.872  1.00  0.00     0.254 C 
HETATM   22  C25 UNL     1      -4.088   3.831   1.462  1.00  0.00     0.126 C 
HETATM   23  O5  UNL     1      -5.257   2.050   0.467  1.00  0.00    -0.266 OA
ENDBRANCH  20  21
ENDBRANCH  19  20
ENDBRANCH  17  19
BRANCH   1  24
HETATM   24  C3  UNL     1      -1.024   1.901  -0.920  1.00  0.00     0.032 C 
BRANCH  24  25
HETATM   25  C2  UNL     1      -0.208   2.462  -2.060  1.00  0.00    -0.036 C 
HETATM   26  C1  UNL     1      -0.788   2.824  -3.203  1.00  0.00     0.007 C 
ENDBRANCH  24  25
ENDBRANCH   1  24
BRANCH  15  27
HETATM   27  C19 UNL     1      -2.520  -2.507   0.587  1.00  0.00     0.275 C 
HETATM   28  O2  UNL     1      -1.981  -3.369   1.324  1.00  0.00    -0.264 OA
BRANCH  27  29
HETATM   29  O3  UNL     1      -3.919  -2.451   0.722  1.00  0.00    -0.326 OA
HETATM   30  C20 UNL     1      -4.629  -3.291   1.607  1.00  0.00     0.213 C 
ENDBRANCH  27  29
ENDBRANCH  15  27
BRANCH   7  31
HETATM   31  N1  UNL     1       4.422  -1.625   1.565  1.00  0.00    -0.074 N 
ATOM     32  H13 UNL     1       4.274  -1.367   2.541  1.00  0.00     0.274 HD
ATOM     33  H12 UNL     1       3.487  -1.921   1.286  1.00  0.00     0.274 HD
ATOM     34  H11 UNL     1       5.037  -2.438   1.538  1.00  0.00     0.274 HD
ENDBRANCH   7  31
TORSDOF 8
