REMARK  14 active torsions:
REMARK  status: ('A' for Active; 'I' for Inactive)
REMARK    1  A    between atoms: C2_2  and  C3_3 
REMARK    2  A    between atoms: C3_3  and  O1_4 
REMARK    3  A    between atoms: O1_4  and  C4_5 
REMARK    4  A    between atoms: C5_6  and  O2_7 
REMARK    5  A    between atoms: O2_7  and  C6_8 
REMARK    6  A    between atoms: C6_8  and  C7_9 
REMARK    7  A    between atoms: C7_9  and  C8_10 
REMARK    8  A    between atoms: C8_10  and  C9_11 
REMARK    9  A    between atoms: C9_11  and  N1_12 
REMARK       I    between atoms: N2_15  and  C12_16 
REMARK   10  A    between atoms: C12_16  and  C13_18 
REMARK   11  A    between atoms: C20_25  and  N3_26 
REMARK       I    between atoms: N3_26  and  C21_28 
REMARK       I    between atoms: C21_28  and  N4_30 
REMARK   12  A    between atoms: C28_38  and  C29_39 
REMARK   13  A    between atoms: C29_39  and  N6_40 
REMARK   14  A    between atoms: C29_39  and  N7_44 
ROOT
HETATM    1  C4  UNL     1      -2.457  -3.388  -0.297  1.00  0.00     0.112 A 
HETATM    2  C5  UNL     1      -1.608  -2.365  -0.630  1.00  0.00     0.104 A 
HETATM    3  C19 UNL     1      -2.061  -1.036  -0.646  1.00  0.00     0.069 A 
HETATM    4  C20 UNL     1      -3.348  -0.709  -0.336  1.00  0.00     0.039 A 
HETATM    5  C27 UNL     1      -4.214  -1.758   0.003  1.00  0.00     0.043 A 
HETATM    6  C28 UNL     1      -3.761  -3.061   0.017  1.00  0.00     0.037 A 
ENDROOT
BRANCH   2   7
HETATM    7  O2  UNL     1      -0.299  -2.699  -0.948  1.00  0.00    -0.348 OA
BRANCH   7   8
HETATM    8  C6  UNL     1       0.555  -1.598  -1.315  1.00  0.00     0.176 C 
BRANCH   8   9
HETATM    9  C7  UNL     1       1.936  -2.065  -1.630  1.00  0.00     0.028 C 
BRANCH   9  10
HETATM   10  C8  UNL     1       2.778  -0.893  -2.058  1.00  0.00     0.032 C 
BRANCH  10  11
HETATM   11  C9  UNL     1       2.845   0.120  -0.977  1.00  0.00     0.272 C 
BRANCH  11  12
HETATM   12  N1  UNL     1       3.457  -0.468   0.232  1.00  0.00     0.091 N 
HETATM   13  C10 UNL     1       3.407   0.551   1.220  1.00  0.00     0.292 C 
HETATM   14  C11 UNL     1       4.590   0.782   2.069  1.00  0.00     0.156 C 
HETATM   15  N2  UNL     1       5.818   0.482   1.364  1.00  0.00    -0.348 N 
HETATM   16  C12 UNL     1       6.879   1.381   1.195  1.00  0.00     0.224 C 
HETATM   17  C17 UNL     1       5.843  -0.863   0.824  1.00  0.00     0.156 C 
HETATM   18  O3  UNL     1       7.904   0.986   0.582  1.00  0.00    -0.273 OA
HETATM   19  C18 UNL     1       4.735  -0.920  -0.186  1.00  0.00     0.292 C 
BRANCH  16  20
HETATM   20  C13 UNL     1       6.881   2.774   1.687  1.00  0.00     0.078 C 
HETATM   21  C14 UNL     1       8.156   3.555   1.464  1.00  0.00     0.014 C 
HETATM   22  C15 UNL     1       7.268   4.766   1.181  1.00  0.00     0.002 C 
HETATM   23  C16 UNL     1       6.208   3.769   0.762  1.00  0.00     0.014 C 
ENDBRANCH  16  20
ENDBRANCH  11  12
ENDBRANCH  10  11
ENDBRANCH   9  10
ENDBRANCH   8   9
ENDBRANCH   7   8
ENDBRANCH   2   7
BRANCH   1  24
HETATM   24  O1  UNL     1      -2.103  -4.727  -0.252  1.00  0.00    -0.348 OA
BRANCH  24  25
HETATM   25  C3  UNL     1      -2.205  -5.590  -1.358  1.00  0.00     0.175 C 
BRANCH  25  26
HETATM   26  C2  UNL     1      -1.737  -6.970  -0.952  1.00  0.00     0.022 C 
HETATM   27  C1  UNL     1      -1.819  -7.948  -2.096  1.00  0.00     0.007 C 
ENDBRANCH  25  26
ENDBRANCH  24  25
ENDBRANCH   1  24
BRANCH   6  28
HETATM   28  C29 UNL     1      -4.756  -4.106   0.390  1.00  0.00     0.414 C 
BRANCH  28  29
HETATM   29  N6  UNL     1      -5.468  -3.595   1.558  1.00  0.00    -0.046 N 
ATOM     30  H63 UNL     1      -4.850  -3.331   2.326  1.00  0.00     0.277 HD
ATOM     31  H62 UNL     1      -5.883  -2.675   1.409  1.00  0.00     0.277 HD
ATOM     32  H61 UNL     1      -6.149  -4.310   1.813  1.00  0.00     0.277 HD
ENDBRANCH  28  29
BRANCH  28  33
HETATM   33  N7  UNL     1      -5.679  -4.244  -0.717  1.00  0.00    -0.046 N 
ATOM     34  H73 UNL     1      -6.112  -3.361  -0.986  1.00  0.00     0.277 HD
ATOM     35  H72 UNL     1      -5.211  -4.438  -1.602  1.00  0.00     0.277 HD
ATOM     36  H71 UNL     1      -6.360  -4.959  -0.462  1.00  0.00     0.277 HD
ENDBRANCH  28  33
ENDBRANCH   6  28
BRANCH   4  37
HETATM   37  N3  UNL     1      -3.859   0.629  -0.297  1.00  0.00    -0.309 N 
HETATM   38  C21 UNL     1      -3.135   1.798  -0.110  1.00  0.00     0.323 C 
HETATM   39  O4  UNL     1      -1.888   1.758   0.057  1.00  0.00    -0.247 OA
HETATM   40  N4  UNL     1      -3.739   3.077  -0.092  1.00  0.00    -0.331 N 
HETATM   41  C22 UNL     1      -5.133   3.351  -0.261  1.00  0.00     0.147 C 
HETATM   42  C26 UNL     1      -2.879   4.255   0.104  1.00  0.00     0.147 C 
HETATM   43  C23 UNL     1      -5.607   4.228   0.883  1.00  0.00     0.136 C 
HETATM   44  N5  UNL     1      -4.829   5.399   1.094  1.00  0.00    -0.414 N 
HETATM   45  C24 UNL     1      -5.263   6.577   0.408  1.00  0.00     0.143 C 
HETATM   46  C25 UNL     1      -3.422   5.182   1.136  1.00  0.00     0.136 C 
ATOM     47  H3  UNL     1      -4.866   0.734  -0.420  1.00  0.00     0.170 HD
ENDBRANCH   4  37
TORSDOF 14
