REMARK  16 active torsions:
REMARK  status: ('A' for Active; 'I' for Inactive)
REMARK    1  A    between atoms: O1_2  and  C2_3 
REMARK    2  A    between atoms: C6_7  and  C7_8 
REMARK    3  A    between atoms: C7_8  and  N1_9 
REMARK    4  A    between atoms: N1_9  and  C8_11 
REMARK    5  A    between atoms: C8_11  and  O2_12 
REMARK    6  A    between atoms: C8_11  and  C9_14 
REMARK    7  A    between atoms: C9_14  and  C10_15 
REMARK    8  A    between atoms: C10_15  and  C11_16 
REMARK    9  A    between atoms: C14_19  and  N2_20 
REMARK       I    between atoms: N2_20  and  C15_22 
REMARK   10  A    between atoms: C15_22  and  C16_24 
REMARK   11  A    between atoms: C16_24  and  N3_25 
REMARK       I    between atoms: N3_25  and  C17_27 
REMARK   12  A    between atoms: C17_27  and  C18_29 
REMARK   13  A    between atoms: C20_32  and  C21_33 
REMARK   14  A    between atoms: C23_35  and  O5_36 
REMARK   15  A    between atoms: C25_38  and  O6_39 
REMARK   16  A    between atoms: C27_41  and  O7_42 
ROOT
HETATM    1  C18 UNL     1      -4.316   1.381  -1.350  1.00  0.00     0.113 C 
HETATM    2  C19 UNL     1      -3.214   1.979  -2.113  1.00  0.00     0.105 C 
HETATM    3  N4  UNL     1      -2.358   2.450  -2.726  1.00  0.00    -0.191 NA
HETATM    4  C20 UNL     1      -5.495   1.845  -1.573  1.00  0.00     0.040 C 
ENDROOT
BRANCH   1   5
HETATM    5  C17 UNL     1      -3.940   0.339  -0.437  1.00  0.00     0.262 C 
HETATM    6  N3  UNL     1      -2.560  -0.060  -0.338  1.00  0.00    -0.348 N 
ATOM      7  H3  UNL     1      -1.876   0.415  -0.928  1.00  0.00     0.163 HD
HETATM    8  O4  UNL     1      -4.708  -0.296   0.324  1.00  0.00    -0.267 OA
BRANCH   6   9
HETATM    9  C16 UNL     1      -2.094  -1.094   0.550  1.00  0.00     0.226 C 
BRANCH   9  10
HETATM   10  C15 UNL     1      -0.606  -1.252   0.413  1.00  0.00     0.239 C 
HETATM   11  N2  UNL     1       0.031  -2.211   1.192  1.00  0.00    -0.326 N 
ATOM     12  H2  UNL     1      -0.562  -2.762   1.812  1.00  0.00     0.169 HD
HETATM   13  O3  UNL     1       0.022  -0.523  -0.392  1.00  0.00    -0.271 OA
BRANCH  11  14
HETATM   14  C14 UNL     1       1.410  -2.502   1.215  1.00  0.00     0.034 A 
HETATM   15  C13 UNL     1       1.825  -3.733   1.758  1.00  0.00     0.030 A 
HETATM   16  C12 UNL     1       3.114  -4.134   1.862  1.00  0.00     0.013 A 
HETATM   17  C11 UNL     1       4.143  -3.269   1.397  1.00  0.00    -0.036 A 
HETATM   18  C31 UNL     1       3.752  -2.074   0.866  1.00  0.00     0.013 A 
HETATM   19  C30 UNL     1       2.414  -1.686   0.774  1.00  0.00     0.030 A 
BRANCH  17  20
HETATM   20  C10 UNL     1       5.471  -3.760   1.402  1.00  0.00     0.015 C 
BRANCH  20  21
HETATM   21  C9  UNL     1       6.638  -3.285   1.477  1.00  0.00     0.056 C 
BRANCH  21  22
HETATM   22  C8  UNL     1       7.264  -2.029   1.612  1.00  0.00     0.135 C 
BRANCH  22  23
HETATM   23  N1  UNL     1       6.862  -0.705   1.801  1.00  0.00    -0.367 N 
ATOM     24  H1  UNL     1       5.872  -0.480   1.895  1.00  0.00     0.161 HD
BRANCH  23  25
HETATM   25  C7  UNL     1       7.876   0.371   1.865  1.00  0.00     0.160 C 
BRANCH  25  26
HETATM   26  C6  UNL     1       8.373   0.725   0.516  1.00  0.00    -0.038 A 
HETATM   27  C5  UNL     1       7.759   0.184  -0.588  1.00  0.00     0.009 A 
HETATM   28  C4  UNL     1       8.241   0.533  -1.838  1.00  0.00     0.003 A 
HETATM   29  C3  UNL     1       9.311   1.399  -2.004  1.00  0.00     0.037 A 
HETATM   30  C2  UNL     1       9.920   1.936  -0.893  1.00  0.00     0.068 A 
HETATM   31  C32 UNL     1       9.450   1.597   0.352  1.00  0.00     0.045 A 
BRANCH  30  32
HETATM   32  O1  UNL     1      10.984   2.799  -1.033  1.00  0.00    -0.356 OA
HETATM   33  C1  UNL     1      11.453   3.136  -2.316  1.00  0.00     0.210 C 
ENDBRANCH  30  32
ENDBRANCH  25  26
ENDBRANCH  23  25
ENDBRANCH  22  23
BRANCH  22  34
HETATM   34  O2  UNL     1       8.608  -2.131   1.532  1.00  0.00    -0.346 OA
ATOM     35  H2  UNL     1       8.881  -3.032   1.403  1.00  0.00     0.219 HD
ENDBRANCH  22  34
ENDBRANCH  21  22
ENDBRANCH  20  21
ENDBRANCH  17  20
ENDBRANCH  11  14
ENDBRANCH   9  10
ENDBRANCH   6   9
ENDBRANCH   1   5
BRANCH   4  36
HETATM   36  C21 UNL     1      -6.756   1.448  -0.980  1.00  0.00    -0.029 A 
HETATM   37  C22 UNL     1      -7.536   2.416  -0.323  1.00  0.00     0.051 A 
HETATM   38  C23 UNL     1      -8.764   2.094   0.208  1.00  0.00     0.105 A 
HETATM   39  C25 UNL     1      -9.297   0.827   0.130  1.00  0.00     0.135 A 
HETATM   40  C27 UNL     1      -8.549  -0.133  -0.510  1.00  0.00     0.105 A 
HETATM   41  C29 UNL     1      -7.308   0.190  -1.046  1.00  0.00     0.051 A 
BRANCH  38  42
HETATM   42  O5  UNL     1      -9.518   3.069   0.853  1.00  0.00    -0.353 OA
HETATM   43  C24 UNL     1      -9.064   4.404   0.989  1.00  0.00     0.210 C 
ENDBRANCH  38  42
BRANCH  39  44
HETATM   44  O6  UNL     1     -10.534   0.584   0.687  1.00  0.00    -0.351 OA
HETATM   45  C26 UNL     1     -11.759   0.722   0.002  1.00  0.00     0.210 C 
ENDBRANCH  39  44
BRANCH  40  46
HETATM   46  O7  UNL     1      -9.075  -1.402  -0.592  1.00  0.00    -0.353 OA
HETATM   47  C28 UNL     1      -8.317  -2.400  -1.246  1.00  0.00     0.210 C 
ENDBRANCH  40  46
ENDBRANCH   4  36
TORSDOF 16
