REMARK  15 active torsions:
REMARK  status: ('A' for Active; 'I' for Inactive)
REMARK    1  A    between atoms: O1_2  and  C2_3 
REMARK    2  A    between atoms: C4_5  and  C5_6 
REMARK    3  A    between atoms: C5_6  and  N1_7 
REMARK    4  A    between atoms: C5_6  and  N4_26 
REMARK       I    between atoms: N1_7  and  C6_8 
REMARK    5  A    between atoms: C6_8  and  C7_10 
REMARK    6  A    between atoms: C7_10  and  C8_11 
REMARK    7  A    between atoms: C8_11  and  C9_12 
REMARK    8  A    between atoms: C12_15  and  O3_16 
REMARK    9  A    between atoms: O3_16  and  C13_17 
REMARK   10  A    between atoms: C13_17  and  C14_18 
REMARK   11  A    between atoms: C14_18  and  N2_19 
REMARK   12  A    between atoms: N4_26  and  C19_28 
REMARK   13  A    between atoms: C23_34  and  N6_35 
REMARK   14  A    between atoms: C25_41  and  O4_42 
REMARK   15  A    between atoms: C27_44  and  O5_45 
ROOT
HETATM    1  C5  UNL     1      -3.222  -0.624   1.179  1.00  0.00     0.195 C 
ENDROOT
BRANCH   1   2
HETATM    2  C4  UNL     1      -4.477  -1.133   0.569  1.00  0.00     0.028 A 
HETATM    3  C3  UNL     1      -4.618  -2.427   0.140  1.00  0.00     0.056 A 
HETATM    4  C2  UNL     1      -5.824  -2.876  -0.422  1.00  0.00     0.105 A 
HETATM    5  C27 UNL     1      -6.910  -2.043  -0.564  1.00  0.00     0.135 A 
HETATM    6  C25 UNL     1      -6.772  -0.738  -0.133  1.00  0.00     0.105 A 
HETATM    7  C24 UNL     1      -5.580  -0.300   0.420  1.00  0.00     0.056 A 
BRANCH   4   8
HETATM    8  O1  UNL     1      -5.974  -4.186  -0.859  1.00  0.00    -0.353 OA
HETATM    9  C1  UNL     1      -4.863  -5.052  -0.725  1.00  0.00     0.210 C 
ENDBRANCH   4   8
BRANCH   5  10
HETATM   10  O5  UNL     1      -8.113  -2.466  -1.116  1.00  0.00    -0.351 OA
HETATM   11  C28 UNL     1      -8.377  -2.375  -2.508  1.00  0.00     0.210 C 
ENDBRANCH   5  10
BRANCH   6  12
HETATM   12  O4  UNL     1      -7.856   0.096  -0.274  1.00  0.00    -0.353 OA
HETATM   13  C26 UNL     1      -7.943   1.439   0.082  1.00  0.00     0.210 C 
ENDBRANCH   6  12
ENDBRANCH   1   2
BRANCH   1  14
HETATM   14  N1  UNL     1      -2.112  -1.059   1.156  1.00  0.00    -0.351 NA
HETATM   15  C6  UNL     1      -1.063  -1.822   0.908  1.00  0.00     0.293 C 
HETATM   16  O2  UNL     1      -1.110  -3.105   0.939  1.00  0.00    -0.257 OA
BRANCH  15  17
HETATM   17  C7  UNL     1       0.285  -1.200   0.568  1.00  0.00     0.125 C 
BRANCH  17  18
HETATM   18  C8  UNL     1       1.278  -2.295   0.345  1.00  0.00     0.067 C 
BRANCH  18  19
HETATM   19  C9  UNL     1       2.589  -1.676   0.040  1.00  0.00     0.010 A 
HETATM   20  C10 UNL     1       3.506  -1.356   1.018  1.00  0.00     0.028 A 
HETATM   21  C11 UNL     1       4.723  -0.778   0.702  1.00  0.00     0.040 A 
HETATM   22  C12 UNL     1       5.026  -0.518  -0.616  1.00  0.00     0.090 A 
HETATM   23  C17 UNL     1       4.099  -0.845  -1.571  1.00  0.00     0.039 A 
HETATM   24  C18 UNL     1       4.401  -0.572  -3.005  1.00  0.00     0.071 C 
HETATM   25  N3  UNL     1       2.924  -1.406  -1.229  1.00  0.00    -0.361 N 
ATOM     26  H3  UNL     1       2.260  -1.636  -1.968  1.00  0.00     0.165 HD
BRANCH  22  27
HETATM   27  O3  UNL     1       6.259   0.063  -0.897  1.00  0.00    -0.347 OA
BRANCH  27  28
HETATM   28  C13 UNL     1       7.180   0.383   0.128  1.00  0.00     0.206 C 
BRANCH  28  29
HETATM   29  C14 UNL     1       8.404   0.992  -0.520  1.00  0.00     0.297 C 
BRANCH  29  30
HETATM   30  N2  UNL     1       9.406   1.355   0.445  1.00  0.00     0.082 N 
HETATM   31  C15 UNL     1      10.028   0.246   1.107  1.00  0.00     0.309 C 
HETATM   32  C16 UNL     1      10.455   2.094  -0.242  1.00  0.00     0.309 C 
ENDBRANCH  29  30
ENDBRANCH  28  29
ENDBRANCH  27  28
ENDBRANCH  22  27
ENDBRANCH  18  19
ENDBRANCH  17  18
ENDBRANCH  15  17
ENDBRANCH   1  14
BRANCH   1  33
HETATM   33  N4  UNL     1      -3.415   0.620   1.935  1.00  0.00    -0.316 N 
ATOM     34  H4  UNL     1      -3.848   0.593   2.858  1.00  0.00     0.170 HD
BRANCH  33  35
HETATM   35  C19 UNL     1      -3.036   1.751   1.430  1.00  0.00     0.125 A 
HETATM   36  C20 UNL     1      -3.264   2.863   2.223  1.00  0.00     0.074 A 
HETATM   37  C21 UNL     1      -2.873   4.097   1.720  1.00  0.00     0.026 A 
HETATM   38  C22 UNL     1      -3.088   5.338   2.526  1.00  0.00     0.069 C 
HETATM   39  N5  UNL     1      -2.300   4.171   0.508  1.00  0.00    -0.196 N 
HETATM   40  C23 UNL     1      -2.081   3.090  -0.260  1.00  0.00     0.677 A 
ATOM     41  H5  UNL     1      -2.019   5.086   0.155  1.00  0.00     0.184 HD
HETATM   42  N7  UNL     1      -2.466   1.904   0.243  1.00  0.00    -0.177 N 
ATOM     43  H7  UNL     1      -2.310   1.070  -0.324  1.00  0.00     0.185 HD
BRANCH  40  44
HETATM   44  N6  UNL     1      -1.528   3.211  -1.417  1.00  0.00    -0.234 N 
ATOM     45  H62 UNL     1      -1.236   4.111  -1.799  1.00  0.00     0.174 HD
ATOM     46  H61 UNL     1      -1.362   2.391  -2.000  1.00  0.00     0.174 HD
ENDBRANCH  40  44
ENDBRANCH  33  35
ENDBRANCH   1  33
TORSDOF 15
