REMARK  17 active torsions:
REMARK  status: ('A' for Active; 'I' for Inactive)
REMARK    1  A    between atoms: C2_2  and  C4_4 
REMARK    2  A    between atoms: C4_4  and  C5_5 
REMARK    3  A    between atoms: C5_5  and  C22_33 
REMARK    4  A    between atoms: N1_6  and  C6_8 
REMARK    5  A    between atoms: C6_8  and  C7_9 
REMARK    6  A    between atoms: C6_8  and  C15_17 
REMARK    7  A    between atoms: C7_9  and  C8_10 
REMARK    8  A    between atoms: C8_10  and  C9_11 
REMARK    9  A    between atoms: C15_17  and  C16_19 
REMARK       I    between atoms: C16_19  and  N2_21 
REMARK   10  A    between atoms: C20_25  and  C21_26 
REMARK   11  A    between atoms: C21_26  and  N3_27 
REMARK   12  A    between atoms: C21_26  and  O3_31 
REMARK       I    between atoms: C22_33  and  N4_35 
REMARK   13  A    between atoms: N4_35  and  C23_37 
REMARK   14  A    between atoms: C23_37  and  C24_38 
REMARK   15  A    between atoms: C23_37  and  C29_43 
REMARK   16  A    between atoms: C24_38  and  C25_39 
REMARK   17  A    between atoms: C32_46  and  C33_47 
ROOT
HETATM    1  C5  UNL     1      -0.126  -0.510   0.089  1.00  0.00     0.078 C 
HETATM    2  N1  UNL     1      -1.198   0.310   0.285  1.00  0.00    -0.355 N 
ATOM      3  H1  UNL     1      -1.093   1.255  -0.084  1.00  0.00     0.166 HD
ENDROOT
BRANCH   2   4
HETATM    4  C6  UNL     1      -2.429   0.049   0.920  1.00  0.00     0.066 C 
BRANCH   4   5
HETATM    5  C7  UNL     1      -3.145   1.280   1.348  1.00  0.00     0.062 C 
BRANCH   5   6
HETATM    6  C8  UNL     1      -3.624   2.236   0.337  1.00  0.00     0.011 C 
BRANCH   6   7
HETATM    7  C9  UNL     1      -3.921   3.544   0.983  1.00  0.00    -0.014 C 
HETATM    8  C10 UNL     1      -4.886   3.439   2.131  1.00  0.00     0.004 C 
HETATM    9  C11 UNL     1      -4.917   4.850   2.767  1.00  0.00     0.000 C 
HETATM   10  C12 UNL     1      -5.668   5.730   1.811  1.00  0.00     0.000 C 
HETATM   11  C13 UNL     1      -5.053   5.721   0.443  1.00  0.00     0.000 C 
HETATM   12  C14 UNL     1      -4.694   4.365  -0.074  1.00  0.00     0.004 C 
ENDBRANCH   6   7
ENDBRANCH   5   6
ENDBRANCH   4   5
BRANCH   4  13
HETATM   13  C15 UNL     1      -3.101  -1.220   0.706  1.00  0.00     0.261 C 
HETATM   14  O1  UNL     1      -2.957  -2.168   1.556  1.00  0.00    -0.280 OA
BRANCH  13  15
HETATM   15  C16 UNL     1      -3.933  -1.531  -0.447  1.00  0.00     0.296 C 
HETATM   16  O2  UNL     1      -4.041  -0.666  -1.389  1.00  0.00    -0.264 OA
HETATM   17  N2  UNL     1      -4.648  -2.725  -0.656  1.00  0.00    -0.336 N 
HETATM   18  C17 UNL     1      -5.069  -3.100  -2.060  1.00  0.00     0.127 C 
HETATM   19  C20 UNL     1      -5.238  -3.632   0.256  1.00  0.00     0.143 C 
HETATM   20  C18 UNL     1      -5.569  -4.518  -1.895  1.00  0.00     0.022 C 
HETATM   21  C19 UNL     1      -6.345  -4.351  -0.596  1.00  0.00     0.031 C 
BRANCH  19  22
HETATM   22  C21 UNL     1      -4.541  -4.702   0.908  1.00  0.00     0.339 C 
BRANCH  22  23
HETATM   23  N3  UNL     1      -3.317  -5.320   0.644  1.00  0.00    -0.051 N 
ATOM     24  H33 UNL     1      -3.389  -5.620  -0.328  1.00  0.00     0.277 HD
ATOM     25  H32 UNL     1      -2.645  -4.553   0.626  1.00  0.00     0.277 HD
ATOM     26  H31 UNL     1      -2.821  -6.081   1.108  1.00  0.00     0.277 HD
ENDBRANCH  22  23
BRANCH  22  27
HETATM   27  O3  UNL     1      -5.156  -5.217   1.957  1.00  0.00    -0.368 OA
ATOM     28  H3  UNL     1      -4.694  -5.926   2.389  1.00  0.00     0.212 HD
ENDBRANCH  22  27
ENDBRANCH  19  22
ENDBRANCH  13  15
ENDBRANCH   4  13
ENDBRANCH   2   4
BRANCH   1  29
HETATM   29  C4  UNL     1      -0.155  -1.669  -0.838  1.00  0.00     0.067 C 
BRANCH  29  30
HETATM   30  C2  UNL     1      -0.438  -1.426  -2.263  1.00  0.00    -0.017 C 
HETATM   31  C1  UNL     1      -0.348  -2.779  -3.003  1.00  0.00     0.010 C 
HETATM   32  C3  UNL     1       0.390  -0.453  -3.013  1.00  0.00     0.010 C 
ENDBRANCH  29  30
ENDBRANCH   1  29
BRANCH   1  33
HETATM   33  C22 UNL     1       1.153   0.274  -0.047  1.00  0.00     0.264 C 
HETATM   34  O4  UNL     1       1.058   1.522   0.006  1.00  0.00    -0.266 OA
HETATM   35  N4  UNL     1       2.387  -0.335  -0.227  1.00  0.00    -0.351 N 
ATOM     36  H4  UNL     1       2.489  -1.349  -0.266  1.00  0.00     0.163 HD
BRANCH  35  37
HETATM   37  C23 UNL     1       3.610   0.628  -0.366  1.00  0.00     0.089 C 
BRANCH  37  38
HETATM   38  C24 UNL     1       4.187   0.306  -1.675  1.00  0.00     0.030 C 
BRANCH  38  39
HETATM   39  C25 UNL     1       5.222   1.084  -2.361  1.00  0.00    -0.013 C 
HETATM   40  C26 UNL     1       6.566   1.411  -1.951  1.00  0.00     0.005 C 
HETATM   41  C27 UNL     1       7.143   0.449  -2.998  1.00  0.00     0.001 C 
HETATM   42  C28 UNL     1       5.770   0.297  -3.563  1.00  0.00     0.005 C 
ENDBRANCH  38  39
ENDBRANCH  37  38
BRANCH  37  43
HETATM   43  C29 UNL     1       4.302   0.304   0.916  1.00  0.00     0.008 C 
HETATM   44  C30 UNL     1       4.727  -1.133   1.123  1.00  0.00     0.007 C 
HETATM   45  C31 UNL     1       5.112  -1.196   2.632  1.00  0.00     0.016 C 
HETATM   46  C32 UNL     1       6.466  -0.570   2.755  1.00  0.00     0.087 C 
HETATM   47  C34 UNL     1       6.611   0.652   1.889  1.00  0.00     0.016 C 
HETATM   48  C35 UNL     1       5.283   1.266   1.487  1.00  0.00     0.007 C 
BRANCH  46  49
HETATM   49  C33 UNL     1       6.892  -0.292   4.166  1.00  0.00     0.177 C 
HETATM   50  O5  UNL     1       6.122  -0.555   5.113  1.00  0.00    -0.648 OA
HETATM   51  O6  UNL     1       8.147   0.259   4.370  1.00  0.00    -0.648 OA
ENDBRANCH  46  49
ENDBRANCH  37  43
ENDBRANCH  35  37
ENDBRANCH   1  33
TORSDOF 17
