REMARK  16 active torsions:
REMARK  status: ('A' for Active; 'I' for Inactive)
REMARK    1  A    between atoms: C2_2  and  C3_3 
REMARK    2  A    between atoms: C3_3  and  C5_5 
REMARK    3  A    between atoms: C5_5  and  N1_6 
REMARK    4  A    between atoms: C5_5  and  C31_44 
REMARK       I    between atoms: N1_6  and  C6_8 
REMARK       I    between atoms: C6_8  and  N2_10 
REMARK    5  A    between atoms: N2_10  and  C7_12 
REMARK    6  A    between atoms: C7_12  and  C8_13 
REMARK    7  A    between atoms: C7_12  and  C18_26 
REMARK       I    between atoms: C8_13  and  N3_15 
REMARK    8  A    between atoms: N3_15  and  C9_17 
REMARK    9  A    between atoms: C9_17  and  C10_18 
REMARK   10  A    between atoms: C9_17  and  C14_22 
REMARK   11  A    between atoms: C10_18  and  C11_19 
REMARK   12  A    between atoms: C14_22  and  C15_23 
REMARK       I    between atoms: C18_26  and  N4_28 
REMARK   13  A    between atoms: C19_29  and  C20_30 
REMARK       I    between atoms: C20_30  and  N5_32 
REMARK   14  A    between atoms: N5_32  and  C21_34 
REMARK   15  A    between atoms: C31_44  and  C32_46 
REMARK   16  A    between atoms: C32_46  and  C33_47 
ROOT
HETATM    1  C7  UNL     1      -0.269   1.220  -0.015  1.00  0.00     0.271 C 
ENDROOT
BRANCH   1   2
HETATM    2  N2  UNL     1       1.075   0.867  -0.486  1.00  0.00    -0.322 N 
HETATM    3  C6  UNL     1       1.876  -0.140   0.060  1.00  0.00     0.317 C 
HETATM    4  N1  UNL     1       3.164  -0.387  -0.476  1.00  0.00    -0.331 N 
HETATM    5  O1  UNL     1       1.523  -0.874   1.029  1.00  0.00    -0.247 OA
ATOM      6  H1  UNL     1       3.493   0.198  -1.244  1.00  0.00     0.165 HD
ATOM      7  H2  UNL     1       1.453   1.397  -1.271  1.00  0.00     0.165 HD
BRANCH   4   8
HETATM    8  C5  UNL     1       4.048  -1.451   0.027  1.00  0.00     0.159 C 
BRANCH   8   9
HETATM    9  C3  UNL     1       5.214  -0.829   0.743  1.00  0.00     0.011 C 
HETATM   10  C4  UNL     1       6.137  -1.804   1.402  1.00  0.00     0.012 C 
BRANCH   9  11
HETATM   11  C2  UNL     1       4.616   0.016   1.888  1.00  0.00     0.002 C 
HETATM   12  C1  UNL     1       5.753   0.712   2.615  1.00  0.00     0.005 C 
ENDBRANCH   9  11
ENDBRANCH   8   9
BRANCH   8  13
HETATM   13  C31 UNL     1       4.382  -2.372  -1.071  1.00  0.00     0.150 C 
HETATM   14  O5  UNL     1       3.933  -2.151  -2.211  1.00  0.00    -0.296 OA
BRANCH  13  15
HETATM   15  C32 UNL     1       5.223  -3.572  -0.943  1.00  0.00     0.084 C 
BRANCH  15  16
HETATM   16  C33 UNL     1       5.286  -4.336  -2.266  1.00  0.00    -0.016 C 
HETATM   17  C34 UNL     1       3.933  -4.792  -2.738  1.00  0.00     0.010 C 
HETATM   18  C35 UNL     1       6.159  -5.551  -2.087  1.00  0.00     0.010 C 
ENDBRANCH  15  16
ENDBRANCH  13  15
ENDBRANCH   8  13
ENDBRANCH   4   8
ENDBRANCH   1   2
BRANCH   1  19
HETATM   19  C8  UNL     1      -0.486   2.664  -0.141  1.00  0.00     0.250 C 
HETATM   20  O2  UNL     1       0.495   3.380  -0.544  1.00  0.00    -0.271 OA
HETATM   21  N3  UNL     1      -1.677   3.344   0.139  1.00  0.00    -0.354 N 
ATOM     22  H3  UNL     1      -2.489   2.819   0.464  1.00  0.00     0.162 HD
BRANCH  21  23
HETATM   23  C9  UNL     1      -1.781   4.811  -0.028  1.00  0.00     0.085 C 
BRANCH  23  24
HETATM   24  C10 UNL     1      -1.712   5.508   1.260  1.00  0.00     0.029 C 
BRANCH  24  25
HETATM   25  C11 UNL     1      -2.732   5.223   2.307  1.00  0.00    -0.021 C 
HETATM   26  C12 UNL     1      -2.458   6.140   3.536  1.00  0.00     0.009 C 
HETATM   27  C13 UNL     1      -2.689   3.835   2.901  1.00  0.00     0.009 C 
ENDBRANCH  24  25
ENDBRANCH  23  24
BRANCH  23  28
HETATM   28  C14 UNL     1      -2.881   5.140  -0.950  1.00  0.00     0.029 C 
BRANCH  28  29
HETATM   29  C15 UNL     1      -3.122   6.551  -1.278  1.00  0.00    -0.013 A 
HETATM   30  C16 UNL     1      -3.518   7.610  -0.353  1.00  0.00     0.005 A 
HETATM   31  C17 UNL     1      -4.532   7.044  -1.337  1.00  0.00     0.005 A 
ENDBRANCH  28  29
ENDBRANCH  23  28
ENDBRANCH  21  23
ENDBRANCH   1  19
BRANCH   1  32
HETATM   32  C18 UNL     1      -1.272   0.405  -0.811  1.00  0.00     0.253 C 
HETATM   33  O3  UNL     1      -0.985   0.360  -2.033  1.00  0.00    -0.270 OA
HETATM   34  N4  UNL     1      -2.387  -0.219  -0.200  1.00  0.00    -0.331 N 
HETATM   35  C19 UNL     1      -3.370  -0.998  -0.861  1.00  0.00     0.180 C 
HETATM   36  C27 UNL     1      -2.666  -0.123   1.214  1.00  0.00     0.101 A 
HETATM   37  C25 UNL     1      -4.499  -1.222   0.133  1.00  0.00     0.042 C 
HETATM   38  C26 UNL     1      -4.023  -0.673   1.445  1.00  0.00     0.021 A 
HETATM   39  C28 UNL     1      -2.854  -1.232   2.137  1.00  0.00    -0.021 A 
HETATM   40  C29 UNL     1      -2.331  -2.609   1.906  1.00  0.00     0.017 C 
HETATM   41  C30 UNL     1      -2.777  -0.866   3.635  1.00  0.00     0.017 C 
BRANCH  35  42
HETATM   42  C20 UNL     1      -2.996  -2.198  -1.568  1.00  0.00     0.241 C 
HETATM   43  O4  UNL     1      -3.973  -2.828  -2.133  1.00  0.00    -0.271 OA
HETATM   44  N5  UNL     1      -1.753  -2.819  -1.761  1.00  0.00    -0.351 N 
ATOM     45  H5  UNL     1      -0.941  -2.368  -1.340  1.00  0.00     0.163 HD
BRANCH  44  46
HETATM   46  C21 UNL     1      -1.518  -4.021  -2.490  1.00  0.00     0.022 C 
HETATM   47  C22 UNL     1      -1.940  -3.978  -3.939  1.00  0.00     0.037 C 
HETATM   48  C23 UNL     1       0.001  -4.260  -2.527  1.00  0.00     0.037 C 
HETATM   49  C24 UNL     1      -2.103  -5.252  -1.861  1.00  0.00     0.037 C 
ENDBRANCH  44  46
ENDBRANCH  35  42
ENDBRANCH   1  32
TORSDOF 16
