REMARK  13 active torsions:
REMARK  status: ('A' for Active; 'I' for Inactive)
REMARK    1  A    between atoms: C15_19  and  C17_21 
REMARK    2  A    between atoms: C17_21  and  O5_22 
REMARK    3  A    between atoms: O5_22  and  C18_23 
REMARK    4  A    between atoms: C18_23  and  C19_25 
REMARK    5  A    between atoms: C19_25  and  C20_26 
REMARK    6  A    between atoms: C20_26  and  C21_27 
REMARK       I    between atoms: C21_27  and  N1_29 
REMARK    7  A    between atoms: N1_29  and  C22_31 
REMARK    8  A    between atoms: C22_31  and  C23_32 
REMARK    9  A    between atoms: C23_32  and  C24_33 
REMARK   10  A    between atoms: C24_33  and  C25_34 
REMARK   11  A    between atoms: C25_34  and  C26_35 
REMARK   12  A    between atoms: C26_35  and  C27_36 
REMARK   13  A    between atoms: C27_36  and  C28_37 
ROOT
HETATM    1  C1  UNL     1      -7.297   0.147   0.881  1.00  0.00     0.021 C 
HETATM    2  C2  UNL     1      -6.455  -0.314  -0.251  1.00  0.00    -0.002 C 
HETATM    3  C3  UNL     1      -6.466  -1.846  -0.205  1.00  0.00     0.022 C 
HETATM    4  C4  UNL     1      -7.820  -2.418  -0.461  1.00  0.00     0.079 C 
HETATM    5  C5  UNL     1      -8.623  -1.676  -1.435  1.00  0.00     0.127 C 
HETATM    6  O1  UNL     1      -9.472  -2.313  -2.058  1.00  0.00    -0.298 OA
HETATM    7  C6  UNL     1      -8.503  -0.229  -1.737  1.00  0.00     0.091 C 
HETATM    8  C7  UNL     1      -7.079   0.179  -1.537  1.00  0.00     0.075 C 
HETATM    9  C8  UNL     1      -6.304  -0.529  -2.616  1.00  0.00     0.136 C 
HETATM   10  O2  UNL     1      -6.756  -1.309  -3.392  1.00  0.00    -0.297 OA
HETATM   11  C9  UNL     1      -4.852  -0.192  -2.679  1.00  0.00     0.114 C 
HETATM   12  C10 UNL     1      -4.316   0.199  -1.320  1.00  0.00    -0.053 C 
HETATM   13  C11 UNL     1      -5.048   0.142  -0.226  1.00  0.00     0.008 C 
HETATM   14  C12 UNL     1      -4.459   0.511   1.068  1.00  0.00     0.225 C 
HETATM   15  O3  UNL     1      -5.127   0.463   2.108  1.00  0.00    -0.284 OA
HETATM   16  C13 UNL     1      -3.080   0.930   1.092  1.00  0.00     0.205 C 
HETATM   17  O4  UNL     1      -2.686   1.517   2.131  1.00  0.00    -0.288 OA
HETATM   18  C14 UNL     1      -2.196   0.675  -0.044  1.00  0.00     0.094 C 
HETATM   19  C15 UNL     1      -1.011   1.602  -0.012  1.00  0.00     0.051 C 
HETATM   20  C16 UNL     1      -1.330   2.981   0.537  1.00  0.00     0.026 C 
HETATM   21  C29 UNL     1      -0.440   1.848  -1.373  1.00  0.00     0.138 C 
HETATM   22  O10 UNL     1       0.734   1.732  -1.583  1.00  0.00    -0.297 OA
HETATM   23  C30 UNL     1      -1.360   2.236  -2.455  1.00  0.00     0.080 C 
HETATM   24  C31 UNL     1      -2.806   1.915  -2.134  1.00  0.00     0.022 C 
HETATM   25  C32 UNL     1      -2.882   0.636  -1.371  1.00  0.00    -0.007 C 
HETATM   26  C33 UNL     1      -2.162  -0.441  -2.207  1.00  0.00     0.021 C 
ENDROOT
BRANCH  19  27
HETATM   27  C17 UNL     1       0.003   0.990   0.906  1.00  0.00     0.196 C 
BRANCH  27  28
HETATM   28  O5  UNL     1       1.194   1.749   1.032  1.00  0.00    -0.320 OA
BRANCH  28  29
HETATM   29  C18 UNL     1       2.229   1.353   1.852  1.00  0.00     0.259 C 
HETATM   30  O6  UNL     1       2.039   0.266   2.486  1.00  0.00    -0.265 OA
BRANCH  29  31
HETATM   31  C19 UNL     1       3.501   2.092   2.032  1.00  0.00     0.120 C 
BRANCH  31  32
HETATM   32  C20 UNL     1       4.406   1.389   2.997  1.00  0.00     0.112 C 
BRANCH  32  33
HETATM   33  C21 UNL     1       4.803   0.011   2.505  1.00  0.00     0.217 C 
HETATM   34  O7  UNL     1       4.556  -0.223   1.315  1.00  0.00    -0.274 OA
HETATM   35  N1  UNL     1       5.400  -0.833   3.460  1.00  0.00    -0.361 N 
ATOM     36  H1  UNL     1       5.497  -0.458   4.404  1.00  0.00     0.162 HD
BRANCH  35  37
HETATM   37  C22 UNL     1       5.880  -2.148   3.248  1.00  0.00     0.122 C 
BRANCH  37  38
HETATM   38  C23 UNL     1       7.093  -2.323   2.472  1.00  0.00     0.020 C 
BRANCH  38  39
HETATM   39  C24 UNL     1       7.166  -1.809   1.096  1.00  0.00     0.002 C 
BRANCH  39  40
HETATM   40  C25 UNL     1       8.569  -2.204   0.538  1.00  0.00     0.001 C 
BRANCH  40  41
HETATM   41  C26 UNL     1       8.738  -1.734  -0.866  1.00  0.00     0.010 C 
BRANCH  41  42
HETATM   42  C27 UNL     1       8.589  -0.256  -0.968  1.00  0.00     0.113 C 
BRANCH  42  43
HETATM   43  C28 UNL     1       8.782   0.110  -2.424  1.00  0.00     0.172 C 
HETATM   44  O8  UNL     1       9.827  -0.352  -2.995  1.00  0.00    -0.648 OA
HETATM   45  O9  UNL     1       7.874   0.894  -3.092  1.00  0.00    -0.648 OA
ENDBRANCH  42  43
ENDBRANCH  41  42
ENDBRANCH  40  41
ENDBRANCH  39  40
ENDBRANCH  38  39
ENDBRANCH  37  38
ENDBRANCH  35  37
ENDBRANCH  32  33
ENDBRANCH  31  32
ENDBRANCH  29  31
ENDBRANCH  28  29
ENDBRANCH  27  28
ENDBRANCH  19  27
TORSDOF 13
