REMARK  12 active torsions:
REMARK  status: ('A' for Active; 'I' for Inactive)
REMARK    1  A    between atoms: C2_2  and  N1_3 
REMARK    2  A    between atoms: N1_3  and  C3_4 
REMARK    3  A    between atoms: N1_3  and  C5_6 
REMARK    4  A    between atoms: C5_6  and  C6_7 
REMARK    5  A    between atoms: C6_7  and  N2_8 
REMARK    6  A    between atoms: N2_8  and  C7_9 
REMARK    7  A    between atoms: N2_8  and  C20_34 
REMARK    8  A    between atoms: C7_9  and  C8_10 
REMARK    9  A    between atoms: C8_10  and  C9_11 
REMARK   10  A    between atoms: C9_11  and  O1_12 
REMARK   11  A    between atoms: O1_12  and  C10_13 
REMARK   12  A    between atoms: N5_29  and  C17_30 
ROOT
HETATM    1  C10 UNL     1       2.597  -0.211  -0.282  1.00  0.00     0.087 A 
HETATM    2  C11 UNL     1       3.471  -0.852   0.545  1.00  0.00     0.040 A 
HETATM    3  C12 UNL     1       4.798  -0.485   0.587  1.00  0.00     0.034 A 
HETATM    4  C13 UNL     1       5.280   0.560  -0.220  1.00  0.00     0.064 A 
HETATM    5  C14 UNL     1       4.415   1.237  -1.069  1.00  0.00     0.056 A 
HETATM    6  C15 UNL     1       3.092   0.836  -1.083  1.00  0.00     0.060 A 
HETATM    7 BR1  UNL     1       1.758   1.639  -2.184  1.00  0.00    -0.047 Br
HETATM    8  C16 UNL     1       4.813   2.364  -1.926  1.00  0.00     0.123 C 
HETATM    9  N3  UNL     1       4.081   3.015  -2.680  1.00  0.00    -0.384 N 
ATOM     10  H31 UNL     1       4.357   3.797  -3.274  1.00  0.00     0.157 HD
ATOM     11  H32 UNL     1       3.114   2.691  -2.692  1.00  0.00     0.157 HD
HETATM   12  N4  UNL     1       6.210   2.832  -1.908  1.00  0.00    -0.252 N 
ATOM     13  H4  UNL     1       6.600   3.367  -2.684  1.00  0.00     0.182 HD
HETATM   14  S1  UNL     1       7.148   2.443  -0.538  1.00  0.00     0.328 S 
HETATM   15  O2  UNL     1       8.597   2.603  -0.786  1.00  0.00    -0.182 OA
HETATM   16  O3  UNL     1       6.734   3.387   0.581  1.00  0.00    -0.182 OA
HETATM   17  N5  UNL     1       6.683   0.829  -0.119  1.00  0.00    -0.234 N 
ENDROOT
BRANCH   1  18
HETATM   18  O1  UNL     1       1.280  -0.603  -0.325  1.00  0.00    -0.350 OA
BRANCH  18  19
HETATM   19  C9  UNL     1       0.805  -1.623   0.516  1.00  0.00     0.177 C 
BRANCH  19  20
HETATM   20  C8  UNL     1      -0.610  -2.005   0.205  1.00  0.00     0.046 C 
BRANCH  20  21
HETATM   21  C7  UNL     1      -1.537  -0.841   0.238  1.00  0.00     0.128 C 
BRANCH  21  22
HETATM   22  N2  UNL     1      -2.893  -1.242  -0.134  1.00  0.00    -0.352 N 
BRANCH  22  23
HETATM   23  C6  UNL     1      -3.833  -0.252  -0.517  1.00  0.00     0.156 C 
BRANCH  23  24
HETATM   24  C5  UNL     1      -4.274   0.598   0.628  1.00  0.00     0.292 C 
BRANCH  24  25
HETATM   25  N1  UNL     1      -5.181   1.636   0.191  1.00  0.00     0.089 N 
BRANCH  25  26
HETATM   26  C2  UNL     1      -4.488   2.640  -0.515  1.00  0.00     0.268 C 
HETATM   27  C1  UNL     1      -5.363   3.491  -1.436  1.00  0.00     0.037 C 
ENDBRANCH  25  26
BRANCH  25  28
HETATM   28  C3  UNL     1      -6.059   2.085   1.180  1.00  0.00     0.268 C 
HETATM   29  C4  UNL     1      -6.860   0.942   1.819  1.00  0.00     0.037 C 
ENDBRANCH  25  28
ENDBRANCH  24  25
ENDBRANCH  23  24
ENDBRANCH  22  23
BRANCH  22  30
HETATM   30  C20 UNL     1      -3.265  -2.629  -0.090  1.00  0.00     0.173 C 
HETATM   31  N6  UNL     1      -3.244  -3.507  -1.028  1.00  0.00    -0.361 N 
HETATM   32  C21 UNL     1      -3.703  -4.788  -0.547  1.00  0.00     0.142 C 
ATOM     33  H6  UNL     1      -2.943  -3.323  -1.985  1.00  0.00     0.162 HD
HETATM   34  C22 UNL     1      -4.402  -4.459   0.747  1.00  0.00     0.142 C 
HETATM   35  N7  UNL     1      -3.741  -3.212   1.111  1.00  0.00    -0.361 N 
ATOM     36  H7  UNL     1      -3.640  -2.831   2.052  1.00  0.00     0.162 HD
ENDBRANCH  22  30
ENDBRANCH  21  22
ENDBRANCH  20  21
ENDBRANCH  19  20
ENDBRANCH  18  19
ENDBRANCH   1  18
BRANCH  17  37
HETATM   37  C17 UNL     1       7.582  -0.188   0.274  1.00  0.00     0.126 A 
HETATM   38 CL1  UNL     1       7.505  -1.663  -0.762  1.00  0.00    -0.094 Cl
HETATM   39  C18 UNL     1       7.873  -0.356   1.740  1.00  0.00     0.052 A 
HETATM   40  C19 UNL     1       8.934   0.114   0.808  1.00  0.00     0.052 A 
ENDBRANCH  17  37
TORSDOF 12
