REMARK  17 active torsions:
REMARK  status: ('A' for Active; 'I' for Inactive)
REMARK    1  A    between atoms: O1_2  and  N1_3 
REMARK    2  A    between atoms: C2_5  and  C3_6 
REMARK    3  A    between atoms: C2_5  and  C22_51 
REMARK    4  A    between atoms: C3_6  and  O3_8 
REMARK    5  A    between atoms: O3_8  and  C4_9 
REMARK    6  A    between atoms: C4_9  and  O4_10 
REMARK    7  A    between atoms: C4_9  and  C5_12 
REMARK    8  A    between atoms: N4_17  and  C6_18 
REMARK    9  A    between atoms: C6_18  and  C7_19 
REMARK   10  A    between atoms: C7_19  and  N5_20 
REMARK   11  A    between atoms: N7_26  and  C12_27 
REMARK   12  A    between atoms: C12_27  and  O5_28 
REMARK   13  A    between atoms: C12_27  and  C13_30 
REMARK   14  A    between atoms: C15_33  and  N8_34 
REMARK   15  A    between atoms: C17_40  and  C18_41 
REMARK       I    between atoms: C18_41  and  N10_43 
REMARK       I    between atoms: N10_43  and  C19_45 
REMARK   16  A    between atoms: C21_48  and  O8_49 
REMARK   17  A    between atoms: C24_54  and  N11_55 
ROOT
HETATM    1  C6  UNL     1       0.711  -0.399   2.304  1.00  0.00     0.197 C 
ENDROOT
BRANCH   1   2
HETATM    2  N4  UNL     1      -0.687  -0.349   2.099  1.00  0.00    -0.250 N 
HETATM    3  N3  UNL     1      -1.413   0.732   1.876  1.00  0.00    -0.238 N 
HETATM    4  N2  UNL     1      -2.688   0.469   1.756  1.00  0.00    -0.281 N 
ATOM      5  H3  UNL     1      -1.021   1.671   1.805  1.00  0.00     0.208 HD
HETATM    6  C5  UNL     1      -2.850  -0.873   1.906  1.00  0.00     0.134 A 
ATOM      7  H2  UNL     1      -3.428   1.148   1.581  1.00  0.00     0.188 HD
HETATM    8  C21 UNL     1      -1.576  -1.358   2.120  1.00  0.00     0.188 A 
BRANCH   6   9
HETATM    9  C4  UNL     1      -4.148  -1.621   1.848  1.00  0.00     0.324 C 
BRANCH   9  10
HETATM   10  O3  UNL     1      -4.940  -1.195   0.755  1.00  0.00    -0.279 OA
BRANCH  10  11
HETATM   11  C3  UNL     1      -6.267  -0.721   0.938  1.00  0.00     0.317 C 
HETATM   12  O2  UNL     1      -6.628  -0.726   2.121  1.00  0.00    -0.257 OA
BRANCH  11  13
HETATM   13  C2  UNL     1      -7.030  -0.298  -0.223  1.00  0.00     0.156 C 
HETATM   14  N1  UNL     1      -6.439  -0.402  -1.333  1.00  0.00    -0.259 N 
ATOM     15  H1  UNL     1      -5.495  -0.776  -1.242  1.00  0.00     0.194 HD
BRANCH  14  16
HETATM   16  O1  UNL     1      -6.762  -0.138  -2.582  1.00  0.00    -0.285 OA
HETATM   17  C1  UNL     1      -6.041   0.876  -3.300  1.00  0.00     0.237 C 
ENDBRANCH  14  16
BRANCH  13  18
HETATM   18  C22 UNL     1      -8.423   0.185  -0.044  1.00  0.00     0.075 A 
HETATM   19  C23 UNL     1      -9.189   0.428  -1.166  1.00  0.00     0.085 A 
HETATM   20  S2  UNL     1     -10.656   0.993  -0.500  1.00  0.00    -0.064 SA
HETATM   21  C24 UNL     1     -10.241   0.898   1.137  1.00  0.00     0.142 A 
HETATM   22  N12 UNL     1      -8.988   0.435   1.114  1.00  0.00    -0.335 N 
ATOM     23  H12 UNL     1      -8.478   0.278   1.983  1.00  0.00     0.168 HD
BRANCH  21  24
HETATM   24  N11 UNL     1     -10.947   1.197   2.213  1.00  0.00    -0.380 N 
ATOM     25 2H11 UNL     1     -11.904   1.550   2.231  1.00  0.00     0.158 HD
ATOM     26 1H11 UNL     1     -10.697   1.140   3.200  1.00  0.00     0.158 HD
ENDBRANCH  21  24
ENDBRANCH  13  18
ENDBRANCH  11  13
ENDBRANCH  10  11
ENDBRANCH   9  10
BRANCH   9  27
HETATM   27  O4  UNL     1      -3.857  -2.967   1.649  1.00  0.00    -0.365 OA
ATOM     28  H4  UNL     1      -3.325  -3.253   2.383  1.00  0.00     0.213 HD
ENDBRANCH   9  27
ENDBRANCH   6   9
BRANCH   8  29
HETATM   29  O8  UNL     1      -1.287  -2.705   2.325  1.00  0.00    -0.343 OA
ATOM     30  H8  UNL     1      -0.410  -3.039   2.472  1.00  0.00     0.219 HD
ENDBRANCH   8  29
ENDBRANCH   1   2
BRANCH   1  31
HETATM   31  C7  UNL     1       1.595  -0.651   1.131  1.00  0.00     0.088 C 
BRANCH  31  32
HETATM   32  N5  UNL     1       1.571   0.247   0.052  1.00  0.00    -0.323 N 
HETATM   33  C8  UNL     1       0.443   0.296  -0.786  1.00  0.00     0.097 C 
HETATM   34  C9  UNL     1       1.017   0.193  -2.191  1.00  0.00     0.321 C 
HETATM   35  N6  UNL     1       2.353   0.653  -2.050  1.00  0.00     0.139 N 
HETATM   36  C10 UNL     1       3.266   0.230  -3.068  1.00  0.00     0.297 C 
HETATM   37  C17 UNL     1       2.789   0.391  -0.709  1.00  0.00     0.350 C 
HETATM   38  C11 UNL     1       3.789  -1.154  -2.856  1.00  0.00     0.155 C 
HETATM   39  N7  UNL     1       4.475  -1.212  -1.622  1.00  0.00    -0.356 N 
HETATM   40  C16 UNL     1       3.716  -0.757  -0.540  1.00  0.00     0.136 C 
BRANCH  39  41
HETATM   41  C12 UNL     1       5.867  -0.985  -1.653  1.00  0.00     0.271 C 
BRANCH  41  42
HETATM   42  O5  UNL     1       6.410  -1.955  -2.542  1.00  0.00    -0.371 OA
ATOM     43  H5  UNL     1       7.347  -1.802  -2.563  1.00  0.00     0.212 HD
ENDBRANCH  41  42
BRANCH  41  44
HETATM   44  C13 UNL     1       6.455  -1.328  -0.287  1.00  0.00     0.066 A 
HETATM   45  C14 UNL     1       6.128  -2.516   0.322  1.00  0.00     0.082 A 
HETATM   46  S1  UNL     1       7.006  -2.425   1.777  1.00  0.00    -0.064 SA
HETATM   47  C15 UNL     1       7.735  -0.899   1.536  1.00  0.00     0.142 A 
HETATM   48  N9  UNL     1       7.267  -0.529   0.343  1.00  0.00    -0.336 N 
ATOM     49  H9  UNL     1       7.540   0.364  -0.068  1.00  0.00     0.168 HD
BRANCH  47  50
HETATM   50  N8  UNL     1       8.557  -0.241   2.328  1.00  0.00    -0.380 N 
ATOM     51  H82 UNL     1       8.915  -0.524   3.240  1.00  0.00     0.158 HD
ATOM     52  H81 UNL     1       8.992   0.670   2.184  1.00  0.00     0.158 HD
ENDBRANCH  47  50
ENDBRANCH  41  44
ENDBRANCH  39  41
BRANCH  37  53
HETATM   53  C18 UNL     1       3.471   1.619  -0.250  1.00  0.00     0.290 C 
HETATM   54  O6  UNL     1       4.574   1.927  -0.737  1.00  0.00    -0.268 OA
HETATM   55  N10 UNL     1       2.879   2.436   0.730  1.00  0.00    -0.294 N 
HETATM   56  C19 UNL     1       3.535   3.619   1.181  1.00  0.00     0.220 C 
ATOM     57  H10 UNL     1       1.973   2.180   1.121  1.00  0.00     0.171 HD
HETATM   58  C20 UNL     1       2.927   4.492   2.217  1.00  0.00     0.117 C 
HETATM   59  O7  UNL     1       4.655   3.922   0.684  1.00  0.00    -0.274 OA
ENDBRANCH  37  53
ENDBRANCH  31  32
ENDBRANCH   1  31
TORSDOF 17
