REMARK  8 active torsions:
REMARK  status: ('A' for Active; 'I' for Inactive)
REMARK    1  A    between atoms: C2_2  and  C4_4 
REMARK    2  A    between atoms: C4_4  and  N1_5 
REMARK    3  A    between atoms: C4_4  and  C12_15 
REMARK       I    between atoms: N1_5  and  C5_7 
REMARK    4  A    between atoms: C5_7  and  C6_9 
REMARK       I    between atoms: C12_15  and  N2_17 
REMARK    5  A    between atoms: N2_17  and  C13_19 
REMARK    6  A    between atoms: N3_24  and  C15_25 
REMARK    7  A    between atoms: C15_25  and  C17_27 
REMARK    8  A    between atoms: C17_27  and  O5_28 
ROOT
HETATM    1  C12 UNL     1      -0.722  -0.334   0.044  1.00  0.00     0.241 C 
HETATM    2  O2  UNL     1      -0.551   0.433  -0.990  1.00  0.00    -0.271 OA
HETATM    3  N2  UNL     1       0.468  -0.656   0.728  1.00  0.00    -0.352 N 
ATOM      4  H2  UNL     1       0.405  -1.257   1.550  1.00  0.00     0.163 HD
ENDROOT
BRANCH   3   5
HETATM    5  C13 UNL     1       1.799  -0.171   0.319  1.00  0.00     0.119 C 
HETATM    6  C14 UNL     1       2.271   0.615   1.445  1.00  0.00     0.185 C 
HETATM    7  S1  UNL     1       3.491   1.925   1.176  1.00  0.00     0.224 S 
HETATM    8  O3  UNL     1       3.955   2.342   2.523  1.00  0.00    -0.210 OA
HETATM    9  O4  UNL     1       2.888   3.009   0.370  1.00  0.00    -0.210 OA
HETATM   10  N3  UNL     1       4.877   1.219   0.266  1.00  0.00    -0.139 NA
HETATM   11  C18 UNL     1       4.365   0.049  -0.158  1.00  0.00    -0.076 C 
HETATM   12  C19 UNL     1       3.943  -1.172  -0.681  1.00  0.00     0.086 C 
HETATM   13  C20 UNL     1       3.955  -1.233  -2.201  1.00  0.00     0.025 C 
HETATM   14  C21 UNL     1       2.499  -1.420  -0.143  1.00  0.00     0.050 C 
HETATM   15  C22 UNL     1       2.558  -2.440   0.953  1.00  0.00     0.031 C 
HETATM   16 BR1  UNL     1       1.529  -2.186  -1.621  1.00  0.00    -0.082 Br
BRANCH  10  17
HETATM   17  C15 UNL     1       6.053   1.287   1.059  1.00  0.00     0.107 C 
HETATM   18  C16 UNL     1       7.060   2.171   0.338  1.00  0.00     0.030 C 
BRANCH  17  19
HETATM   19  C17 UNL     1       6.730  -0.052   1.274  1.00  0.00     0.185 C 
BRANCH  19  20
HETATM   20  O5  UNL     1       7.104  -0.607   0.052  1.00  0.00    -0.399 OA
ATOM     21  H5  UNL     1       7.528  -1.446   0.187  1.00  0.00     0.209 HD
ENDBRANCH  19  20
ENDBRANCH  17  19
ENDBRANCH  10  17
ENDBRANCH   3   5
BRANCH   1  22
HETATM   22  C4  UNL     1      -2.083  -0.757   0.373  1.00  0.00     0.180 C 
BRANCH  22  23
HETATM   23  C2  UNL     1      -2.272  -2.215   0.158  1.00  0.00     0.009 C 
HETATM   24  C1  UNL     1      -1.440  -3.018   1.112  1.00  0.00     0.012 C 
HETATM   25  C3  UNL     1      -3.696  -2.679   0.300  1.00  0.00     0.012 C 
ENDBRANCH  22  23
BRANCH  22  26
HETATM   26  N1  UNL     1      -2.967  -0.038  -0.589  1.00  0.00    -0.347 N 
HETATM   27  C5  UNL     1      -3.882   0.948  -0.172  1.00  0.00     0.222 C 
HETATM   28  O1  UNL     1      -3.956   1.231   1.039  1.00  0.00    -0.273 OA
ATOM     29  H1  UNL     1      -2.907  -0.268  -1.581  1.00  0.00     0.163 HD
BRANCH  27  30
HETATM   30  C6  UNL     1      -4.767   1.671  -1.104  1.00  0.00     0.078 C 
HETATM   31  C7  UNL     1      -5.567   2.658  -0.351  1.00  0.00     0.014 C 
HETATM   32  C8  UNL     1      -6.836   3.101  -0.981  1.00  0.00     0.001 C 
HETATM   33  C9  UNL     1      -7.676   1.845  -1.248  1.00  0.00     0.000 C 
HETATM   34  C10 UNL     1      -6.895   1.088  -2.315  1.00  0.00     0.001 C 
HETATM   35  C11 UNL     1      -5.569   0.627  -1.834  1.00  0.00     0.014 C 
ENDBRANCH  27  30
ENDBRANCH  22  26
ENDBRANCH   1  22
TORSDOF 8
