REMARK  14 active torsions:
REMARK  status: ('A' for Active; 'I' for Inactive)
REMARK    1  A    between atoms: C2_2  and  N1_3 
REMARK    2  A    between atoms: N1_3  and  C3_4 
REMARK    3  A    between atoms: N1_3  and  C5_6 
REMARK    4  A    between atoms: C5_6  and  C6_7 
REMARK    5  A    between atoms: C6_7  and  N2_8 
REMARK       I    between atoms: N2_8  and  C7_10 
REMARK    6  A    between atoms: C7_10  and  C8_12 
REMARK    7  A    between atoms: C8_12  and  C9_13 
REMARK    8  A    between atoms: C9_13  and  C10_14 
REMARK       I    between atoms: C10_14  and  N3_16 
REMARK    9  A    between atoms: N3_16  and  C11_18 
REMARK   10  A    between atoms: C13_22  and  C14_23 
REMARK   11  A    between atoms: C17_26  and  N5_27 
REMARK   12  A    between atoms: C20_30  and  N6_31 
REMARK   13  A    between atoms: C30_42  and  C31_43 
REMARK       I    between atoms: C31_43  and  N7_45 
REMARK   14  A    between atoms: N7_45  and  C33_48 
ROOT
HETATM    1  C31 UNL     1       1.070   1.784   2.678  1.00  0.00     0.271 C 
HETATM    2  O3  UNL     1       1.269   2.950   2.317  1.00  0.00    -0.266 OA
HETATM    3  N7  UNL     1       0.964   1.427   4.041  1.00  0.00    -0.251 N 
HETATM    4  C32 UNL     1       0.741   0.139   4.494  1.00  0.00     0.187 C 
HETATM    5  N8  UNL     1       0.569  -0.945   4.879  1.00  0.00    -0.172 NA
ENDROOT
BRANCH   3   6
HETATM    6  C33 UNL     1       1.098   2.481   5.049  1.00  0.00     0.140 C 
HETATM    7  C34 UNL     1       2.575   2.566   5.396  1.00  0.00     0.028 C 
ENDBRANCH   3   6
BRANCH   1   8
HETATM    8  C30 UNL     1       0.942   0.745   1.669  1.00  0.00     0.084 A 
HETATM    9  C11 UNL     1       2.095   0.067   1.250  1.00  0.00     0.124 A 
HETATM   10  N4  UNL     1       1.919  -0.878   0.312  1.00  0.00    -0.350 N 
HETATM   11  C12 UNL     1       0.692  -1.158  -0.198  1.00  0.00     0.103 A 
ATOM     12  H4  UNL     1       2.728  -1.399  -0.026  1.00  0.00     0.166 HD
HETATM   13  C13 UNL     1      -0.450  -0.501   0.205  1.00  0.00     0.004 A 
HETATM   14  C28 UNL     1      -0.320   0.468   1.157  1.00  0.00    -0.029 A 
HETATM   15  C29 UNL     1      -1.502   1.240   1.662  1.00  0.00     0.050 C 
BRANCH   9  16
HETATM   16  N3  UNL     1       3.165   0.413   1.804  1.00  0.00    -0.312 N 
HETATM   17  C10 UNL     1       4.481  -0.000   1.689  1.00  0.00     0.223 C 
HETATM   18  O2  UNL     1       5.288   0.863   1.175  1.00  0.00    -0.273 OA
ATOM     19  H3  UNL     1       3.038   1.160   2.487  1.00  0.00     0.170 HD
BRANCH  17  20
HETATM   20  C9  UNL     1       4.901  -1.334   2.132  1.00  0.00     0.112 C 
BRANCH  20  21
HETATM   21  C8  UNL     1       6.358  -1.608   2.101  1.00  0.00     0.112 C 
BRANCH  21  22
HETATM   22  C7  UNL     1       6.997  -1.528   0.757  1.00  0.00     0.218 C 
HETATM   23  N2  UNL     1       8.401  -1.643   0.679  1.00  0.00    -0.359 N 
ATOM     24  H2  UNL     1       8.943  -1.790   1.530  1.00  0.00     0.162 HD
HETATM   25  O1  UNL     1       6.264  -1.361  -0.242  1.00  0.00    -0.274 OA
BRANCH  23  26
HETATM   26  C6  UNL     1       9.081  -1.555  -0.598  1.00  0.00     0.152 C 
BRANCH  26  27
HETATM   27  C5  UNL     1       8.900  -0.240  -1.251  1.00  0.00     0.292 C 
BRANCH  27  28
HETATM   28  N1  UNL     1       9.541  -0.161  -2.556  1.00  0.00     0.089 N 
BRANCH  28  29
HETATM   29  C2  UNL     1       9.223   1.248  -3.035  1.00  0.00     0.268 C 
HETATM   30  C1  UNL     1       7.753   1.420  -3.192  1.00  0.00     0.037 C 
ENDBRANCH  28  29
BRANCH  28  31
HETATM   31  C3  UNL     1      10.966  -0.181  -2.493  1.00  0.00     0.268 C 
HETATM   32  C4  UNL     1      11.512  -1.560  -2.431  1.00  0.00     0.037 C 
ENDBRANCH  28  31
ENDBRANCH  27  28
ENDBRANCH  26  27
ENDBRANCH  23  26
ENDBRANCH  21  22
ENDBRANCH  20  21
ENDBRANCH  17  20
ENDBRANCH   9  16
BRANCH  13  33
HETATM   33  C14 UNL     1      -1.762  -0.842  -0.365  1.00  0.00     0.019 A 
HETATM   34  C15 UNL     1      -2.020  -1.820  -1.298  1.00  0.00     0.023 A 
HETATM   35  C16 UNL     1      -3.290  -1.977  -1.682  1.00  0.00     0.038 A 
HETATM   36  C17 UNL     1      -4.232  -1.161  -1.122  1.00  0.00     0.072 A 
HETATM   37  S1  UNL     1      -3.304  -0.190  -0.068  1.00  0.00    -0.072 SA
BRANCH  36  38
HETATM   38  N5  UNL     1      -5.655  -1.151  -1.370  1.00  0.00    -0.375 N 
HETATM   39  C18 UNL     1      -6.134  -0.334  -2.452  1.00  0.00     0.125 C 
HETATM   40  C19 UNL     1      -7.591   0.001  -2.397  1.00  0.00     0.055 C 
HETATM   41  C20 UNL     1      -8.046  -0.083  -0.953  1.00  0.00     0.226 C 
HETATM   42  C26 UNL     1      -7.929  -1.528  -0.546  1.00  0.00     0.055 C 
HETATM   43  C27 UNL     1      -6.471  -1.961  -0.506  1.00  0.00     0.125 C 
BRANCH  41  44
HETATM   44  N6  UNL     1      -9.375   0.395  -0.803  1.00  0.00     0.093 N 
HETATM   45  C21 UNL     1     -10.403  -0.298  -1.498  1.00  0.00     0.273 C 
HETATM   46  C22 UNL     1     -11.721  -0.069  -0.745  1.00  0.00     0.030 C 
HETATM   47  C23 UNL     1     -11.997   1.396  -0.734  1.00  0.00     0.003 C 
HETATM   48  C24 UNL     1     -10.925   2.185  -1.422  1.00  0.00     0.030 C 
HETATM   49  C25 UNL     1      -9.543   1.812  -0.917  1.00  0.00     0.273 C 
ENDBRANCH  41  44
ENDBRANCH  36  38
ENDBRANCH  13  33
ENDBRANCH   1   8
TORSDOF 14
