REMARK  15 active torsions:
REMARK  status: ('A' for Active; 'I' for Inactive)
REMARK    1  A    between atoms: C2_2  and  O1_3 
REMARK    2  A    between atoms: O1_3  and  C3_4 
REMARK       I    between atoms: C3_4  and  N1_6 
REMARK    3  A    between atoms: N2_9  and  C6_10 
REMARK    4  A    between atoms: C6_10  and  O3_11 
REMARK    5  A    between atoms: C6_10  and  C7_13 
REMARK    6  A    between atoms: C7_13  and  C8_14 
REMARK    7  A    between atoms: C7_13  and  C14_20 
REMARK    8  A    between atoms: C8_14  and  C9_15 
REMARK    9  A    between atoms: C9_15  and  C10_16 
REMARK   10  A    between atoms: C9_15  and  C12_18 
REMARK   11  A    between atoms: C14_20  and  N3_21 
REMARK   12  A    between atoms: C14_20  and  C27_40 
REMARK   13  A    between atoms: N3_21  and  C15_23 
REMARK   14  A    between atoms: C19_28  and  C20_29 
REMARK       I    between atoms: C20_29  and  N5_31 
REMARK   15  A    between atoms: N5_31  and  C21_33 
ROOT
HETATM    1  C21 UNL     1      -6.385  -0.052  -0.744  1.00  0.00     0.122 C 
HETATM    2  C22 UNL     1      -6.199   1.195  -1.464  1.00  0.00     0.091 C 
HETATM    3  N6  UNL     1      -6.051   2.188  -2.016  1.00  0.00    -0.195 NA
HETATM    4  C23 UNL     1      -6.930   0.261   0.626  1.00  0.00     0.046 C 
HETATM    5  C24 UNL     1      -8.372   0.610   0.323  1.00  0.00     0.004 C 
HETATM    6  C25 UNL     1      -8.770  -0.340  -0.792  1.00  0.00     0.004 C 
HETATM    7  C26 UNL     1      -7.481  -0.909  -1.338  1.00  0.00     0.046 C 
ENDROOT
BRANCH   1   8
HETATM    8  N5  UNL     1      -5.167  -0.845  -0.674  1.00  0.00    -0.335 N 
HETATM    9  C20 UNL     1      -3.983  -0.358  -0.055  1.00  0.00     0.256 C 
HETATM   10  O4  UNL     1      -4.067   0.795   0.419  1.00  0.00    -0.267 OA
ATOM     11  H5  UNL     1      -5.162  -1.780  -1.082  1.00  0.00     0.164 HD
BRANCH   9  12
HETATM   12  C19 UNL     1      -2.798  -1.210  -0.020  1.00  0.00     0.075 A 
HETATM   13  C15 UNL     1      -1.536  -0.977   0.518  1.00  0.00     0.065 A 
HETATM   14  C16 UNL     1      -0.776  -2.108   0.276  1.00  0.00     0.120 A 
HETATM   15  N4  UNL     1      -1.505  -3.000  -0.372  1.00  0.00    -0.367 N 
HETATM   16  C17 UNL     1      -1.068  -4.309  -0.804  1.00  0.00     0.154 C 
HETATM   17  C18 UNL     1      -2.718  -2.492  -0.563  1.00  0.00     0.109 A 
BRANCH  13  18
HETATM   18  N3  UNL     1      -1.164   0.218   1.222  1.00  0.00    -0.350 N 
ATOM     19  H3  UNL     1      -1.906   0.903   1.362  1.00  0.00     0.166 HD
BRANCH  18  20
HETATM   20  C14 UNL     1       0.100   0.562   1.744  1.00  0.00     0.109 C 
BRANCH  20  21
HETATM   21  C7  UNL     1       1.172   1.130   0.923  1.00  0.00     0.025 C 
BRANCH  21  22
HETATM   22  C6  UNL     1       1.672   0.477  -0.282  1.00  0.00     0.146 C 
BRANCH  22  23
HETATM   23  N2  UNL     1       2.953  -0.070  -0.528  1.00  0.00    -0.358 N 
HETATM   24  C5  UNL     1       3.970  -0.009   0.493  1.00  0.00     0.145 C 
HETATM   25  C4  UNL     1       5.350  -0.287  -0.091  1.00  0.00     0.148 C 
HETATM   26  N1  UNL     1       5.358  -1.555  -0.796  1.00  0.00    -0.325 N 
HETATM   27  C3  UNL     1       6.485  -2.385  -0.689  1.00  0.00     0.362 C 
HETATM   28  C29 UNL     1       4.185  -1.897  -1.578  1.00  0.00     0.148 C 
HETATM   29  O2  UNL     1       7.471  -2.040   0.003  1.00  0.00    -0.238 OA
HETATM   30  C28 UNL     1       3.311  -0.708  -1.796  1.00  0.00     0.145 C 
BRANCH  27  31
HETATM   31  O1  UNL     1       6.574  -3.613  -1.331  1.00  0.00    -0.304 OA
BRANCH  31  32
HETATM   32  C2  UNL     1       7.749  -4.417  -1.184  1.00  0.00     0.176 C 
HETATM   33  C1  UNL     1       7.915  -4.735   0.297  1.00  0.00     0.034 C 
ENDBRANCH  31  32
ENDBRANCH  27  31
ENDBRANCH  22  23
BRANCH  22  34
HETATM   34  O3  UNL     1       0.896   0.345  -1.322  1.00  0.00    -0.346 OA
ATOM     35  H3  UNL     1       0.036   0.712  -1.157  1.00  0.00     0.219 HD
ENDBRANCH  22  34
ENDBRANCH  21  22
BRANCH  21  36
HETATM   36  C8  UNL     1       1.375   2.616   0.936  1.00  0.00     0.050 C 
BRANCH  36  37
HETATM   37  C9  UNL     1       0.801   3.449  -0.113  1.00  0.00    -0.011 C 
BRANCH  37  38
HETATM   38  C10 UNL     1      -0.688   3.475  -0.277  1.00  0.00     0.000 C 
HETATM   39  C11 UNL     1      -1.437   3.960   0.935  1.00  0.00     0.005 C 
ENDBRANCH  37  38
BRANCH  37  40
HETATM   40  C12 UNL     1       1.216   4.903   0.201  1.00  0.00     0.000 C 
HETATM   41  C13 UNL     1       0.686   5.848  -0.819  1.00  0.00     0.005 C 
ENDBRANCH  37  40
ENDBRANCH  36  37
ENDBRANCH  21  36
ENDBRANCH  20  21
BRANCH  20  42
HETATM   42  C27 UNL     1       0.511  -0.374   2.824  1.00  0.00     0.282 C 
HETATM   43  N7  UNL     1       1.751  -0.169   3.466  1.00  0.00    -0.056 NA
HETATM   44  O5  UNL     1      -0.207  -1.314   3.168  1.00  0.00    -0.269 OA
ENDBRANCH  20  42
ENDBRANCH  18  20
ENDBRANCH  13  18
ENDBRANCH   9  12
ENDBRANCH   1   8
TORSDOF 15
