REMARK  13 active torsions:
REMARK  status: ('A' for Active; 'I' for Inactive)
REMARK    1  A    between atoms: C2_2  and  C3_3 
REMARK    2  A    between atoms: C3_3  and  C4_4 
REMARK    3  A    between atoms: C4_4  and  C5_5 
REMARK    4  A    between atoms: C5_5  and  C6_6 
REMARK    5  A    between atoms: C6_6  and  C7_7 
REMARK    6  A    between atoms: C10_12  and  C11_13 
REMARK       I    between atoms: C11_13  and  N2_15 
REMARK    7  A    between atoms: N2_15  and  C12_17 
REMARK    8  A    between atoms: C12_17  and  C13_18 
REMARK    9  A    between atoms: C13_18  and  C14_19 
REMARK   10  A    between atoms: C14_19  and  N3_20 
REMARK   11  A    between atoms: C26_36  and  C28_38 
REMARK   12  A    between atoms: C28_38  and  O4_39 
REMARK   13  A    between atoms: O4_39  and  C29_40 
ROOT
HETATM    1  C7  UNL     1      -2.560  -0.470  -0.157  1.00  0.00    -0.048 A 
HETATM    2  C8  UNL     1      -1.197  -0.802  -0.084  1.00  0.00     0.038 A 
HETATM    3  C9  UNL     1      -0.277  -0.116   0.658  1.00  0.00     0.051 A 
HETATM    4  N1  UNL     1       1.012  -0.481   0.685  1.00  0.00    -0.337 N 
ATOM      5  H1  UNL     1       1.312  -1.290   0.141  1.00  0.00     0.167 HD
HETATM    6  C10 UNL     1       1.916   0.191   1.409  1.00  0.00     0.177 A 
HETATM    7  N4  UNL     1       1.527   1.251   2.123  1.00  0.00    -0.304 N 
ATOM      8  H4  UNL     1       2.222   1.757   2.672  1.00  0.00     0.171 HD
HETATM    9  C19 UNL     1       0.221   1.683   2.143  1.00  0.00     0.260 A 
HETATM   10  O3  UNL     1       0.022   2.652   2.833  1.00  0.00    -0.267 OA
HETATM   11  C20 UNL     1      -0.686   0.995   1.406  1.00  0.00     0.075 A 
HETATM   12  C21 UNL     1      -2.027   1.360   1.361  1.00  0.00     0.057 A 
HETATM   13  C22 UNL     1      -2.984   0.626   0.573  1.00  0.00    -0.025 A 
HETATM   14  C23 UNL     1      -4.392   1.028   0.548  1.00  0.00     0.008 C 
HETATM   15  C24 UNL     1      -5.174   0.890  -0.702  1.00  0.00     0.023 C 
HETATM   16  C25 UNL     1      -5.145   0.503   1.774  1.00  0.00     0.023 C 
HETATM   17  C26 UNL     1      -4.462   2.558   0.786  1.00  0.00     0.062 C 
HETATM   18  C27 UNL     1      -5.964   2.901   0.984  1.00  0.00     0.042 C 
HETATM   19  N5  UNL     1      -3.845   2.877   2.021  1.00  0.00    -0.345 N 
ATOM     20  H5  UNL     1      -4.346   3.328   2.787  1.00  0.00     0.163 HD
HETATM   21  C31 UNL     1      -2.451   2.512   2.109  1.00  0.00     0.254 C 
HETATM   22  O6  UNL     1      -1.771   3.235   2.824  1.00  0.00    -0.268 OA
ENDROOT
BRANCH   6  23
HETATM   23  C11 UNL     1       3.344  -0.186   1.453  1.00  0.00     0.285 C 
HETATM   24  O1  UNL     1       3.649  -1.199   0.765  1.00  0.00    -0.264 OA
HETATM   25  N2  UNL     1       4.280   0.537   2.207  1.00  0.00    -0.354 N 
ATOM     26  H2  UNL     1       3.939   1.342   2.733  1.00  0.00     0.162 HD
BRANCH  25  27
HETATM   27  C12 UNL     1       5.684   0.232   2.296  1.00  0.00     0.128 C 
BRANCH  27  28
HETATM   28  C13 UNL     1       6.373   0.296   0.953  1.00  0.00     0.065 C 
BRANCH  28  29
HETATM   29  C14 UNL     1       7.831  -0.043   1.187  1.00  0.00     0.069 C 
BRANCH  29  30
HETATM   30  N3  UNL     1       8.618  -0.031   0.033  1.00  0.00    -0.350 N 
HETATM   31  C15 UNL     1       8.899   1.165  -0.639  1.00  0.00     0.094 C 
HETATM   32  C16 UNL     1       9.303   0.966  -2.094  1.00  0.00     0.213 C 
HETATM   33  O2  UNL     1      10.220  -0.035  -2.282  1.00  0.00    -0.381 OA
HETATM   34  C17 UNL     1      10.581  -0.715  -1.130  1.00  0.00     0.213 C 
HETATM   35  C18 UNL     1       9.361  -1.164  -0.341  1.00  0.00     0.094 C 
ENDBRANCH  29  30
ENDBRANCH  28  29
ENDBRANCH  27  28
ENDBRANCH  25  27
ENDBRANCH   6  23
BRANCH   1  36
HETATM   36  C6  UNL     1      -3.333  -1.390  -0.947  1.00  0.00     0.039 C 
BRANCH  36  37
HETATM   37  C5  UNL     1      -4.008  -2.530  -0.167  1.00  0.00     0.005 C 
BRANCH  37  38
HETATM   38  C4  UNL     1      -4.774  -3.424  -1.136  1.00  0.00     0.000 C 
BRANCH  38  39
HETATM   39  C3  UNL     1      -5.442  -4.547  -0.402  1.00  0.00    -0.000 C 
BRANCH  39  40
HETATM   40  C2  UNL     1      -6.209  -5.443  -1.342  1.00  0.00    -0.005 C 
HETATM   41  C1  UNL     1      -5.263  -6.028  -2.351  1.00  0.00     0.005 C 
ENDBRANCH  39  40
ENDBRANCH  38  39
ENDBRANCH  37  38
ENDBRANCH  36  37
ENDBRANCH   1  36
BRANCH  17  42
HETATM   42  C28 UNL     1      -4.043   3.307  -0.415  1.00  0.00     0.210 C 
BRANCH  42  43
HETATM   43  O4  UNL     1      -2.691   3.229  -0.788  1.00  0.00    -0.319 OA
BRANCH  43  44
HETATM   44  C29 UNL     1      -2.236   3.908  -1.896  1.00  0.00     0.254 C 
HETATM   45  C30 UNL     1      -0.800   3.850  -2.327  1.00  0.00     0.126 C 
HETATM   46  O5  UNL     1      -3.044   4.590  -2.560  1.00  0.00    -0.266 OA
ENDBRANCH  43  44
ENDBRANCH  42  43
ENDBRANCH  17  42
TORSDOF 13
