REMARK  9 active torsions:
REMARK  status: ('A' for Active; 'I' for Inactive)
REMARK    1  A    between atoms: C2_2  and  N1_3 
REMARK    2  A    between atoms: C2_2  and  C3_7 
REMARK    3  A    between atoms: C2_2  and  C19_40 
REMARK    4  A    between atoms: C4_8  and  C5_9 
REMARK    5  A    between atoms: C7_11  and  N2_12 
REMARK    6  A    between atoms: C9_17  and  N3_18 
REMARK    7  A    between atoms: C10_22  and  N4_23 
REMARK    8  A    between atoms: N4_23  and  C11_25 
REMARK    9  A    between atoms: C14_30  and  N6_31 
ROOT
HETATM    1  C5  UNL     1      -2.371   0.760   0.132  1.00  0.00     0.091 C 
HETATM    2  C6  UNL     1      -3.441   1.826  -0.016  1.00  0.00     0.052 C 
HETATM    3  C7  UNL     1      -3.354   2.869   1.049  1.00  0.00     0.186 C 
HETATM    4  C8  UNL     1      -1.933   2.865   1.566  1.00  0.00     0.067 C 
HETATM    5  C9  UNL     1      -0.967   2.763   0.373  1.00  0.00     0.209 C 
HETATM    6  C10 UNL     1      -1.005   1.333  -0.192  1.00  0.00     0.129 C 
ENDROOT
BRANCH   6   7
HETATM    7  N4  UNL     1      -0.007   0.512   0.452  1.00  0.00    -0.368 N 
ATOM      8  H4  UNL     1      -0.331  -0.233   1.068  1.00  0.00     0.161 HD
BRANCH   7   9
HETATM    9  C11 UNL     1       1.398   0.670   0.287  1.00  0.00     0.118 A 
HETATM   10  C12 UNL     1       1.871   1.643  -0.565  1.00  0.00     0.066 A 
HETATM   11  C13 UNL     1       3.239   1.764  -0.686  1.00  0.00     0.110 A 
HETATM   12  N5  UNL     1       4.062   0.958   0.005  1.00  0.00    -0.202 N 
HETATM   13  C14 UNL     1       3.612   0.005   0.839  1.00  0.00     0.681 A 
ATOM     14  H5  UNL     1       5.069   1.074  -0.108  1.00  0.00     0.183 HD
HETATM   15  N7  UNL     1       2.279  -0.105   0.950  1.00  0.00    -0.177 N 
ATOM     16  H7  UNL     1       1.909  -0.821   1.576  1.00  0.00     0.185 HD
BRANCH  13  17
HETATM   17  N6  UNL     1       4.505  -0.845   1.566  1.00  0.00    -0.212 N 
HETATM   18  C15 UNL     1       5.949  -0.808   1.519  1.00  0.00     0.147 C 
HETATM   19  C16 UNL     1       6.418  -2.181   1.935  1.00  0.00     0.101 C 
HETATM   20  C17 UNL     1       5.177  -3.003   2.209  1.00  0.00     0.261 C 
HETATM   21  F1  UNL     1       5.375  -3.804   3.292  1.00  0.00    -0.204 F 
HETATM   22  F2  UNL     1       4.828  -3.668   1.066  1.00  0.00    -0.204 F 
HETATM   23  C18 UNL     1       4.155  -1.904   2.488  1.00  0.00     0.220 C 
ENDBRANCH  13  17
ENDBRANCH   7   9
ENDBRANCH   6   7
BRANCH   1  24
HETATM   24  C4  UNL     1      -2.602  -0.356  -0.789  1.00  0.00    -0.097 C 
HETATM   25  C3  UNL     1      -2.806  -1.279  -1.540  1.00  0.00    -0.058 C 
BRANCH  25  26
HETATM   26  C2  UNL     1      -3.079  -2.403  -2.465  1.00  0.00     0.278 C 
HETATM   27  C1  UNL     1      -4.101  -1.961  -3.510  1.00  0.00     0.071 C 
BRANCH  26  28
HETATM   28  N1  UNL     1      -3.579  -3.546  -1.726  1.00  0.00    -0.051 N 
ATOM     29  H13 UNL     1      -4.492  -3.361  -1.311  1.00  0.00     0.276 HD
ATOM     30  H12 UNL     1      -3.847  -4.312  -2.344  1.00  0.00     0.276 HD
ATOM     31  H11 UNL     1      -2.896  -3.841  -1.028  1.00  0.00     0.276 HD
ENDBRANCH  26  28
BRANCH  26  32
HETATM   32  C19 UNL     1      -1.798  -2.700  -3.175  1.00  0.00     0.431 C 
HETATM   33  F3  UNL     1      -1.385  -1.544  -3.814  1.00  0.00    -0.167 F 
HETATM   34  F4  UNL     1      -2.090  -3.616  -4.193  1.00  0.00    -0.167 F 
HETATM   35  F5  UNL     1      -0.835  -3.265  -2.400  1.00  0.00    -0.167 F 
ENDBRANCH  26  32
ENDBRANCH  25  26
ENDBRANCH   1  24
BRANCH   5  36
HETATM   36  N3  UNL     1      -1.412   3.738  -0.573  1.00  0.00    -0.073 N 
ATOM     37  H33 UNL     1      -2.393   3.637  -0.833  1.00  0.00     0.274 HD
ATOM     38  H32 UNL     1      -1.484   4.679  -0.186  1.00  0.00     0.274 HD
ATOM     39  H31 UNL     1      -0.772   3.670  -1.364  1.00  0.00     0.274 HD
ENDBRANCH   5  36
BRANCH   3  40
HETATM   40  N2  UNL     1      -4.210   2.508   2.175  1.00  0.00    -0.075 N 
ATOM     41  H23 UNL     1      -5.173   2.339   1.884  1.00  0.00     0.274 HD
ATOM     42  H22 UNL     1      -3.997   1.577   2.534  1.00  0.00     0.274 HD
ATOM     43  H21 UNL     1      -4.151   3.220   2.902  1.00  0.00     0.274 HD
ENDBRANCH   3  40
TORSDOF 9
