REMARK  5 active torsions:
REMARK  status: ('A' for Active; 'I' for Inactive)
REMARK    1  A    between atoms: C2_2  and  O1_4 
REMARK    2  A    between atoms: O1_4  and  C4_5 
REMARK    3  A    between atoms: C4_5  and  C6_7 
REMARK    4  A    between atoms: C9_11  and  O2_12 
REMARK    5  A    between atoms: C11_15  and  O3_16 
ROOT
HETATM    1  C6  UNL     1       0.965   0.375   0.266  1.00  0.00     0.005 A 
HETATM    2  C7  UNL     1       1.906   1.241  -0.306  1.00  0.00     0.034 A 
HETATM    3  C8  UNL     1       3.231   0.878  -0.422  1.00  0.00     0.044 A 
HETATM    4 BR1  UNL     1       4.533   2.061  -1.209  1.00  0.00    -0.048 Br
HETATM    5  C9  UNL     1       3.701  -0.341   0.012  1.00  0.00     0.085 A 
HETATM    6  C10 UNL     1       2.795  -1.209   0.577  1.00  0.00     0.075 A 
HETATM    7  C11 UNL     1       1.457  -0.847   0.697  1.00  0.00     0.077 A 
ENDROOT
BRANCH   1   8
HETATM    8  C4  UNL     1      -0.453   0.787   0.346  1.00  0.00     0.153 C 
HETATM    9  C5  UNL     1      -0.506   2.309   0.119  1.00  0.00     0.045 C 
BRANCH   8  10
HETATM   10  O1  UNL     1      -1.253   0.228  -0.652  1.00  0.00    -0.377 OA
BRANCH  10  11
HETATM   11  C2  UNL     1      -2.342  -0.401  -0.064  1.00  0.00     0.114 C 
HETATM   12  C1  UNL     1      -3.638   0.323  -0.441  1.00  0.00     0.039 C 
HETATM   13  C3  UNL     1      -2.490  -1.821  -0.559  1.00  0.00     0.039 C 
ENDBRANCH  10  11
ENDBRANCH   8  10
ENDBRANCH   1   8
BRANCH   7  14
HETATM   14  O3  UNL     1       0.579  -1.742   1.270  1.00  0.00    -0.360 OA
ATOM     15  H3  UNL     1       0.916  -2.580   1.565  1.00  0.00     0.217 HD
ENDBRANCH   7  14
BRANCH   5  16
HETATM   16  O2  UNL     1       5.036  -0.706  -0.105  1.00  0.00    -0.359 OA
ATOM     17  H2  UNL     1       5.360  -1.547   0.194  1.00  0.00     0.217 HD
ENDBRANCH   5  16
TORSDOF 5
