REMARK  6 active torsions:
REMARK  status: ('A' for Active; 'I' for Inactive)
REMARK    1  A    between atoms: C2_2  and  C3_3 
REMARK    2  A    between atoms: C3_3  and  C4_4 
REMARK    3  A    between atoms: C4_4  and  O1_5 
REMARK    4  A    between atoms: C11_13  and  O2_14 
REMARK    5  A    between atoms: C11_13  and  C12_16 
REMARK    6  A    between atoms: C12_16  and  N1_17 
ROOT
HETATM    1  C4  UNL     1       4.637   0.094   0.117  1.00  0.00     0.068 C 
HETATM    2  C5  UNL     1       5.036  -0.957   1.128  1.00  0.00     0.039 C 
HETATM    3  C6  UNL     1       3.666  -1.424   1.608  1.00  0.00     0.009 C 
HETATM    4  C7  UNL     1       2.805  -1.385   0.370  1.00  0.00     0.001 C 
HETATM    5  C8  UNL     1       1.520  -0.660   0.572  1.00  0.00    -0.005 C 
HETATM    6  C9  UNL     1       0.686  -1.307   1.681  1.00  0.00     0.008 C 
HETATM    7  C10 UNL     1      -0.369  -0.282   2.005  1.00  0.00     0.040 C 
HETATM    8  C11 UNL     1      -1.120   0.255   0.841  1.00  0.00     0.074 C 
HETATM    9  C20 UNL     1      -0.681  -0.154  -0.512  1.00  0.00     0.044 C 
HETATM   10  C21 UNL     1       0.680  -0.754  -0.657  1.00  0.00    -0.007 C 
HETATM   11  C22 UNL     1       1.443  -0.173  -1.819  1.00  0.00     0.006 C 
HETATM   12  C23 UNL     1       2.815   0.309  -1.494  1.00  0.00     0.013 C 
HETATM   13  C24 UNL     1       3.616  -0.673  -0.691  1.00  0.00    -0.009 C 
HETATM   14  C25 UNL     1       4.244  -1.680  -1.636  1.00  0.00     0.019 C 
ENDROOT
BRANCH   8  15
HETATM   15  O2  UNL     1      -1.070   1.654   0.949  1.00  0.00    -0.388 OA
ATOM     16  H2  UNL     1      -1.550   1.997   0.205  1.00  0.00     0.210 HD
ENDBRANCH   8  15
BRANCH   8  17
HETATM   17  C12 UNL     1      -2.573  -0.241   1.017  1.00  0.00     0.155 C 
BRANCH  17  18
HETATM   18  N1  UNL     1      -3.476   0.263   0.066  1.00  0.00    -0.398 N 
HETATM   19  C13 UNL     1      -3.754   1.643   0.195  1.00  0.00     0.148 C 
HETATM   20  C14 UNL     1      -5.070   2.135  -0.291  1.00  0.00     0.291 C 
HETATM   21  N2  UNL     1      -6.153   1.231  -0.339  1.00  0.00     0.088 N 
HETATM   22  C15 UNL     1      -7.328   1.668   0.381  1.00  0.00     0.310 C 
HETATM   23  C16 UNL     1      -5.888  -0.125  -0.034  1.00  0.00     0.301 C 
HETATM   24  C17 UNL     1      -4.493  -0.565  -0.440  1.00  0.00     0.047 C 
HETATM   25  C18 UNL     1      -4.452  -0.461  -1.972  1.00  0.00     0.039 C 
HETATM   26  C19 UNL     1      -4.377  -2.018  -0.106  1.00  0.00     0.039 C 
ENDBRANCH  17  18
ENDBRANCH   8  17
BRANCH   1  27
HETATM   27  C3  UNL     1       5.775   0.645  -0.679  1.00  0.00     0.065 C 
BRANCH  27  28
HETATM   28  C2  UNL     1       6.751   1.351   0.233  1.00  0.00    -0.034 C 
HETATM   29  C1  UNL     1       7.009   2.644   0.080  1.00  0.00     0.007 C 
ENDBRANCH  27  28
ENDBRANCH   1  27
BRANCH   1  30
HETATM   30  O1  UNL     1       3.947   1.097   0.806  1.00  0.00    -0.389 OA
ATOM     31  H1  UNL     1       3.223   0.747   1.312  1.00  0.00     0.210 HD
ENDBRANCH   1  30
TORSDOF 6
