REMARK  7 active torsions:
REMARK  status: ('A' for Active; 'I' for Inactive)
REMARK    1  A    between atoms: C2_2  and  C3_3 
REMARK    2  A    between atoms: C3_3  and  O1_4 
REMARK    3  A    between atoms: C7_9  and  O2_10 
REMARK    4  A    between atoms: C11_15  and  O3_16 
REMARK    5  A    between atoms: O3_16  and  C12_17 
REMARK    6  A    between atoms: C16_22  and  C17_23 
REMARK    7  A    between atoms: C17_23  and  C18_24 
ROOT
HETATM    1  C3  UNL     1      -2.062  -0.321  -0.421  1.00  0.00     0.095 C 
HETATM    2  C4  UNL     1      -1.475  -1.644  -0.740  1.00  0.00     0.085 C 
HETATM    3  C5  UNL     1      -1.026  -2.406   0.467  1.00  0.00    -0.051 C 
HETATM    4  C6  UNL     1      -1.540  -3.551   0.862  1.00  0.00     0.017 C 
HETATM    5  C7  UNL     1       0.086  -1.778   1.228  1.00  0.00     0.152 C 
HETATM    6  C8  UNL     1      -0.079  -0.304   1.155  1.00  0.00     0.037 C 
HETATM    7  C9  UNL     1       0.853   0.476   0.344  1.00  0.00     0.001 C 
HETATM    8  C10 UNL     1       0.196   1.868   0.389  1.00  0.00     0.039 C 
HETATM    9  C11 UNL     1      -1.223   1.678   0.837  1.00  0.00     0.144 C 
HETATM   10  C14 UNL     1      -1.482   0.183   0.849  1.00  0.00     0.025 C 
HETATM   11  C15 UNL     1      -2.385  -0.047   2.072  1.00  0.00     0.022 C 
HETATM   12  C16 UNL     1       1.195   0.131  -1.015  1.00  0.00     0.007 C 
HETATM   13  C22 UNL     1       0.900  -1.155  -1.611  1.00  0.00     0.019 A 
HETATM   14  C23 UNL     1       1.917  -1.841  -2.573  1.00  0.00     0.048 A 
HETATM   15  C24 UNL     1       0.817  -1.130  -3.175  1.00  0.00     0.134 A 
HETATM   16  O5  UNL     1      -0.528  -1.302  -2.996  1.00  0.00    -0.378 OA
HETATM   17  C25 UNL     1      -0.386  -1.775  -1.711  1.00  0.00     0.145 C 
ENDROOT
BRANCH  12  18
HETATM   18  C17 UNL     1       2.716   0.391  -1.197  1.00  0.00     0.033 C 
BRANCH  18  19
HETATM   19  C18 UNL     1       3.553  -0.393  -0.308  1.00  0.00    -0.024 C 
HETATM   20  C19 UNL     1       4.442   0.148   0.520  1.00  0.00    -0.091 C 
HETATM   21  C20 UNL     1       5.286  -0.711   1.425  1.00  0.00     0.042 C 
HETATM   22  C21 UNL     1       4.688   1.612   0.615  1.00  0.00     0.042 C 
ENDBRANCH  18  19
ENDBRANCH  12  18
BRANCH   5  23
HETATM   23  O2  UNL     1      -0.024  -2.284   2.540  1.00  0.00    -0.391 OA
ATOM     24  H2  UNL     1       0.687  -1.883   3.026  1.00  0.00     0.210 HD
ENDBRANCH   5  23
BRANCH   9  25
HETATM   25  O3  UNL     1      -2.147   2.392   0.052  1.00  0.00    -0.315 OA
BRANCH  25  26
HETATM   26  C12 UNL     1      -2.918   3.399   0.613  1.00  0.00     0.255 C 
HETATM   27  C13 UNL     1      -3.912   4.177  -0.196  1.00  0.00     0.126 C 
HETATM   28  O4  UNL     1      -2.781   3.665   1.821  1.00  0.00    -0.266 OA
ENDBRANCH  25  26
ENDBRANCH   9  25
BRANCH   1  29
HETATM   29  C2  UNL     1      -3.540  -0.437  -0.198  1.00  0.00     0.002 C 
HETATM   30  C1  UNL     1      -4.329  -1.023  -1.121  1.00  0.00     0.010 C 
ENDBRANCH   1  29
BRANCH   1  31
HETATM   31  O1  UNL     1      -1.982   0.585  -1.481  1.00  0.00    -0.384 OA
ATOM     32  H1  UNL     1      -1.045   0.659  -1.622  1.00  0.00     0.211 HD
ENDBRANCH   1  31
TORSDOF 7
