REMARK  5 active torsions:
REMARK  status: ('A' for Active; 'I' for Inactive)
REMARK    1  A    between atoms: C2_2  and  C3_3 
REMARK    2  A    between atoms: C3_3  and  C4_4 
REMARK    3  A    between atoms: C4_4  and  C5_5 
REMARK    4  A    between atoms: C5_5  and  O1_6 
REMARK    5  A    between atoms: C16_19  and  O3_20 
ROOT
HETATM    1  C4  UNL     1      -2.752   0.195  -0.303  1.00  0.00    -0.015 C 
HETATM    2  C6  UNL     1      -2.516  -0.629  -1.547  1.00  0.00     0.012 C 
HETATM    3  C7  UNL     1      -1.075  -1.111  -1.278  1.00  0.00     0.007 C 
HETATM    4  C8  UNL     1      -0.483   0.283  -1.051  1.00  0.00     0.006 C 
HETATM    5  C9  UNL     1      -1.403   0.857  -0.026  1.00  0.00     0.001 C 
HETATM    6  C10 UNL     1      -0.946   0.773   1.373  1.00  0.00     0.006 C 
HETATM    7  C11 UNL     1       0.526   0.730   1.572  1.00  0.00     0.007 C 
HETATM    8  C12 UNL     1       1.341   1.190   0.383  1.00  0.00     0.013 C 
HETATM    9  C13 UNL     1       2.761   0.796   0.742  1.00  0.00     0.072 C 
HETATM   10  C14 UNL     1       3.787   1.592   0.089  1.00  0.00     0.134 C 
HETATM   11  O2  UNL     1       3.552   2.697  -0.345  1.00  0.00    -0.297 OA
HETATM   12  C15 UNL     1       5.171   1.063  -0.066  1.00  0.00     0.110 C 
HETATM   13  C16 UNL     1       5.216  -0.361   0.457  1.00  0.00     0.126 C 
HETATM   14  C17 UNL     1       4.075  -1.164  -0.131  1.00  0.00     0.045 C 
HETATM   15  C18 UNL     1       2.781  -0.669   0.428  1.00  0.00     0.070 C 
HETATM   16  C19 UNL     1       1.617  -0.946  -0.452  1.00  0.00     0.141 C 
HETATM   17  O4  UNL     1       1.313  -2.071  -0.791  1.00  0.00    -0.297 OA
HETATM   18  C20 UNL     1       0.956   0.334  -0.804  1.00  0.00     0.025 C 
HETATM   19  C21 UNL     1       1.634   0.790  -2.083  1.00  0.00     0.024 C 
ENDROOT
BRANCH   1  20
HETATM   20  C3  UNL     1      -3.207  -0.680   0.790  1.00  0.00     0.012 C 
BRANCH  20  21
HETATM   21  C2  UNL     1      -4.519  -1.342   0.476  1.00  0.00    -0.004 C 
HETATM   22  C1  UNL     1      -4.912  -2.246   1.676  1.00  0.00     0.005 C 
ENDBRANCH  20  21
ENDBRANCH   1  20
BRANCH   1  23
HETATM   23  C5  UNL     1      -3.790   1.285  -0.549  1.00  0.00     0.173 C 
BRANCH  23  24
HETATM   24  O1  UNL     1      -3.356   2.132  -1.589  1.00  0.00    -0.400 OA
ATOM     25  H1  UNL     1      -4.003   2.811  -1.742  1.00  0.00     0.209 HD
ENDBRANCH  23  24
ENDBRANCH   1  23
BRANCH  13  26
HETATM   26  O3  UNL     1       5.162  -0.298   1.832  1.00  0.00    -0.395 OA
ATOM     27  H3  UNL     1       5.190  -1.189   2.159  1.00  0.00     0.210 HD
ENDBRANCH  13  26
TORSDOF 5
