REMARK  9 active torsions:
REMARK  status: ('A' for Active; 'I' for Inactive)
REMARK    1  A    between atoms: C2_2  and  O1_4 
REMARK    2  A    between atoms: O1_4  and  C4_5 
REMARK       I    between atoms: C4_5  and  N1_7 
REMARK    3  A    between atoms: C7_10  and  N2_11 
REMARK       I    between atoms: N2_11  and  C8_12 
REMARK    4  A    between atoms: C8_12  and  C9_14 
REMARK    5  A    between atoms: C9_14  and  C10_15 
REMARK    6  A    between atoms: C9_14  and  N6_25 
REMARK    7  A    between atoms: C10_15  and  C11_16 
REMARK    8  A    between atoms: C11_16  and  C12_17 
REMARK    9  A    between atoms: C12_17  and  N3_18 
REMARK       I    between atoms: N3_18  and  C13_20 
ROOT
HETATM    1  C9  UNL     1      -1.328   0.013  -0.385  1.00  0.00     0.190 C 
ENDROOT
BRANCH   1   2
HETATM    2  C8  UNL     1      -0.294  -0.537   0.586  1.00  0.00     0.309 C 
HETATM    3  N2  UNL     1       0.998   0.017   0.745  1.00  0.00    -0.408 NA
HETATM    4  O3  UNL     1      -0.693  -1.526   1.222  1.00  0.00    -0.255 OA
BRANCH   3   5
HETATM    5  C7  UNL     1       2.200   0.522   0.901  1.00  0.00     0.170 C 
HETATM    6  C6  UNL     1       2.323   1.789   1.772  1.00  0.00     0.059 C 
HETATM    7  C5  UNL     1       3.751   1.787   2.285  1.00  0.00     0.131 C 
HETATM    8  N1  UNL     1       4.557   1.420   1.111  1.00  0.00    -0.328 N 
HETATM    9  C4  UNL     1       5.813   0.814   1.334  1.00  0.00     0.363 C 
HETATM   10  C23 UNL     1       4.062   1.683  -0.219  1.00  0.00     0.131 C 
HETATM   11  O2  UNL     1       6.255   0.626   2.489  1.00  0.00    -0.238 OA
HETATM   12  C22 UNL     1       2.837   0.865  -0.468  1.00  0.00     0.059 C 
BRANCH   9  13
HETATM   13  O1  UNL     1       6.638   0.387   0.290  1.00  0.00    -0.299 OA
BRANCH  13  14
HETATM   14  C2  UNL     1       7.896  -0.221   0.545  1.00  0.00     0.125 C 
HETATM   15  C1  UNL     1       7.888  -1.676   0.141  1.00  0.00     0.040 C 
HETATM   16  C3  UNL     1       9.039   0.479  -0.097  1.00  0.00     0.040 C 
ENDBRANCH  13  14
ENDBRANCH   9  13
ENDBRANCH   3   5
ENDBRANCH   1   2
BRANCH   1  17
HETATM   17  C10 UNL     1      -1.766   1.292   0.175  1.00  0.00     0.038 C 
BRANCH  17  18
HETATM   18  C11 UNL     1      -2.792   2.090  -0.570  1.00  0.00     0.022 C 
BRANCH  18  19
HETATM   19  C12 UNL     1      -3.003   3.354   0.241  1.00  0.00     0.122 C 
BRANCH  19  20
HETATM   20  N3  UNL     1      -3.975   4.229  -0.309  1.00  0.00    -0.365 N 
HETATM   21  C13 UNL     1      -4.314   5.393   0.418  1.00  0.00     0.181 C 
HETATM   22  N4  UNL     1      -5.097   5.365   1.446  1.00  0.00    -0.374 N 
HETATM   23  N5  UNL     1      -3.797   6.644   0.016  1.00  0.00    -0.064 NA
ATOM     24  H42 UNL     1      -5.470   4.461   1.736  1.00  0.00     0.158 HD
ATOM     25  H41 UNL     1      -5.342   6.205   1.971  1.00  0.00     0.158 HD
ATOM     26  H3  UNL     1      -4.417   4.024  -1.205  1.00  0.00     0.162 HD
ENDBRANCH  19  20
ENDBRANCH  18  19
ENDBRANCH  17  18
ENDBRANCH   1  17
BRANCH   1  27
HETATM   27  N6  UNL     1      -2.225  -0.949  -0.831  1.00  0.00    -0.376 N 
HETATM   28  C14 UNL     1      -1.664  -1.993  -1.621  1.00  0.00     0.142 C 
HETATM   29  C15 UNL     1      -2.051  -3.338  -1.146  1.00  0.00     0.137 C 
HETATM   30  N7  UNL     1      -3.149  -3.407  -0.258  1.00  0.00    -0.402 N 
HETATM   31  C16 UNL     1      -3.564  -4.721   0.058  1.00  0.00     0.117 C 
HETATM   32  C20 UNL     1      -4.149  -2.435  -0.311  1.00  0.00     0.117 C 
HETATM   33  C17 UNL     1      -4.960  -5.079  -0.261  1.00  0.00     0.019 C 
HETATM   34  C18 UNL     1      -5.750  -4.114  -1.054  1.00  0.00     0.004 C 
HETATM   35  C19 UNL     1      -5.127  -2.815  -1.395  1.00  0.00     0.030 C 
HETATM   36  C21 UNL     1      -3.553  -1.049  -0.479  1.00  0.00     0.084 C 
ENDBRANCH   1  27
TORSDOF 9
