REMARK  4 active torsions:
REMARK  status: ('A' for Active; 'I' for Inactive)
REMARK    1  A    between atoms: N1_1  and  C1_4 
REMARK    2  A    between atoms: C2_5  and  C3_6 
REMARK       I    between atoms: C3_6  and  N2_8 
REMARK    3  A    between atoms: N4_18  and  C10_19 
REMARK    4  A    between atoms: C10_19  and  C11_20 
REMARK       I    between atoms: C11_20  and  N5_22 
ROOT
HETATM    1  C1  UNL     1       2.211  -0.763   0.257  1.00  0.00     0.133 A 
HETATM    2  C2  UNL     1       3.369  -0.622   0.986  1.00  0.00     0.093 A 
HETATM    3  C9  UNL     1       3.105   0.362   1.924  1.00  0.00     0.128 A 
HETATM    4  N3  UNL     1       1.817   0.767   1.724  1.00  0.00    -0.307 N 
ATOM      5  H3  UNL     1       1.340   1.486   2.268  1.00  0.00     0.186 HD
HETATM    6  N4  UNL     1       1.284   0.101   0.736  1.00  0.00    -0.268 N 
ENDROOT
BRANCH   6   7
HETATM    7  C10 UNL     1      -0.072   0.240   0.212  1.00  0.00     0.253 C 
BRANCH   7   8
HETATM    8  C11 UNL     1      -0.994  -0.670   0.909  1.00  0.00     0.239 C 
HETATM    9  O3  UNL     1      -0.573  -1.415   1.807  1.00  0.00    -0.271 OA
HETATM   10  N5  UNL     1      -2.362  -0.672   0.531  1.00  0.00    -0.350 N 
HETATM   11  C12 UNL     1      -3.390  -1.510   1.122  1.00  0.00     0.126 C 
HETATM   12  C20 UNL     1      -3.007   0.123  -0.482  1.00  0.00     0.135 C 
HETATM   13  C13 UNL     1      -4.578  -0.606   1.151  1.00  0.00     0.031 C 
HETATM   14  C14 UNL     1      -4.472   0.194  -0.101  1.00  0.00    -0.023 C 
HETATM   15  C15 UNL     1      -5.269  -0.357  -1.245  1.00  0.00     0.011 C 
HETATM   16  C19 UNL     1      -4.781   1.643   0.195  1.00  0.00     0.011 C 
HETATM   17  C16 UNL     1      -6.703   0.047  -1.249  1.00  0.00     0.001 C 
HETATM   18  C17 UNL     1      -6.937   1.489  -0.919  1.00  0.00     0.000 C 
HETATM   19  C18 UNL     1      -6.282   1.743   0.444  1.00  0.00     0.001 C 
ENDBRANCH   7   8
ENDBRANCH   6   7
BRANCH   1  20
HETATM   20  N1  UNL     1       2.049  -1.592  -0.724  1.00  0.00    -0.383 N 
ATOM     21  H12 UNL     1       2.747  -2.243  -1.085  1.00  0.00     0.157 HD
ATOM     22  H11 UNL     1       1.190  -1.697  -1.265  1.00  0.00     0.157 HD
ENDBRANCH   1  20
BRANCH   2  23
HETATM   23  C3  UNL     1       4.628  -1.365   0.804  1.00  0.00     0.259 C 
HETATM   24  O1  UNL     1       4.778  -2.431   1.439  1.00  0.00    -0.267 OA
HETATM   25  N2  UNL     1       5.654  -0.907  -0.059  1.00  0.00    -0.341 N 
HETATM   26  C4  UNL     1       5.426   0.335  -0.770  1.00  0.00     0.127 C 
HETATM   27  C8  UNL     1       6.853  -1.682  -0.188  1.00  0.00     0.204 C 
HETATM   28  C5  UNL     1       6.699   0.922  -1.316  1.00  0.00     0.027 C 
HETATM   29  C6  UNL     1       7.906   0.615  -0.509  1.00  0.00     0.081 C 
HETATM   30  C7  UNL     1       8.012  -0.763  -0.026  1.00  0.00     0.144 C 
HETATM   31  O2  UNL     1       9.032  -1.154   0.500  1.00  0.00    -0.296 OA
ENDBRANCH   2  23
TORSDOF 4
