REMARK  6 active torsions:
REMARK  status: ('A' for Active; 'I' for Inactive)
REMARK    1  A    between atoms: C3_3  and  N1_4 
REMARK       I    between atoms: N1_4  and  C4_6 
REMARK       I    between atoms: C4_6  and  N2_8 
REMARK    2  A    between atoms: N2_8  and  C5_10 
REMARK    3  A    between atoms: N3_15  and  C10_16 
REMARK    4  A    between atoms: C10_16  and  O2_17 
REMARK    5  A    between atoms: C10_16  and  N4_19 
REMARK    6  A    between atoms: C16_26  and  C18_28 
ROOT
HETATM    1  C1  UNL     1      -0.324  -1.669   2.325  1.00  0.00     0.013 C 
HETATM    2  C2  UNL     1      -0.331  -2.069   0.864  1.00  0.00     0.022 C 
HETATM    3  C3  UNL     1      -0.576  -0.916  -0.057  1.00  0.00     0.109 C 
HETATM    4  C9  UNL     1       0.708  -0.154  -0.390  1.00  0.00     0.152 C 
HETATM    5  N3  UNL     1       1.777  -1.022  -0.713  1.00  0.00    -0.344 N 
HETATM    6  C15 UNL     1       1.398  -2.445  -0.877  1.00  0.00     0.143 C 
HETATM    7  C16 UNL     1       0.888  -2.879   0.483  1.00  0.00     0.031 C 
HETATM    8  C17 UNL     1       1.974  -2.652   1.496  1.00  0.00     0.025 C 
ENDROOT
BRANCH   3   9
HETATM    9  N1  UNL     1      -1.429   0.035   0.638  1.00  0.00    -0.337 N 
HETATM   10  C4  UNL     1      -2.678   0.427   0.120  1.00  0.00     0.317 C 
HETATM   11  O1  UNL     1      -3.061  -0.058  -0.965  1.00  0.00    -0.247 OA
HETATM   12  N2  UNL     1      -3.486   1.350   0.811  1.00  0.00    -0.335 N 
ATOM     13  H2  UNL     1      -3.170   1.744   1.697  1.00  0.00     0.165 HD
ATOM     14  H1  UNL     1      -1.114   0.429   1.525  1.00  0.00     0.164 HD
BRANCH  12  15
HETATM   15  C5  UNL     1      -4.787   1.744   0.250  1.00  0.00     0.023 C 
HETATM   16  C6  UNL     1      -4.535   2.373  -1.108  1.00  0.00     0.037 C 
HETATM   17  C7  UNL     1      -5.663   0.522   0.160  1.00  0.00     0.037 C 
HETATM   18  C8  UNL     1      -5.412   2.734   1.206  1.00  0.00     0.037 C 
ENDBRANCH  12  15
ENDBRANCH   3   9
BRANCH   7  19
HETATM   19  C18 UNL     1       0.591  -4.337   0.455  1.00  0.00     0.242 C 
HETATM   20  O3  UNL     1       0.437  -4.961  -0.585  1.00  0.00    -0.306 OA
ENDBRANCH   7  19
BRANCH   5  21
HETATM   21  C10 UNL     1       3.115  -0.677  -0.888  1.00  0.00     0.217 C 
BRANCH  21  22
HETATM   22  O2  UNL     1       3.875  -1.710  -1.188  1.00  0.00    -0.333 OA
ATOM     23  H2  UNL     1       4.788  -1.475  -1.307  1.00  0.00     0.220 HD
ENDBRANCH  21  22
BRANCH  21  24
HETATM   24  N4  UNL     1       3.752   0.572  -0.795  1.00  0.00    -0.346 N 
HETATM   25  C11 UNL     1       5.213   0.586  -1.049  1.00  0.00     0.136 C 
HETATM   26  C12 UNL     1       5.351   1.107  -2.484  1.00  0.00     0.093 C 
HETATM   27  S1  UNL     1       4.650   2.804  -2.431  1.00  0.00    -0.166 SA
HETATM   28  C13 UNL     1       3.967   3.007  -0.763  1.00  0.00     0.093 C 
HETATM   29  C14 UNL     1       3.090   1.781  -0.480  1.00  0.00     0.136 C 
ENDBRANCH  21  24
ENDBRANCH   5  21
TORSDOF 6
