REMARK  3 active torsions:
REMARK  status: ('A' for Active; 'I' for Inactive)
REMARK       I    between atoms: C1_4  and  N2_5 
REMARK       I    between atoms: C1_4  and  N3_13 
REMARK    1  A    between atoms: C13_18  and  C14_19 
REMARK       I    between atoms: C14_19  and  N4_21 
REMARK    2  A    between atoms: C19_26  and  C20_27 
REMARK    3  A    between atoms: C20_27  and  O2_28 
ROOT
HETATM    1  N1  UNL     1      -1.930  -0.639   1.955  1.00  0.00    -0.235 N 
ATOM      2  H11 UNL     1      -1.348  -1.037   2.692  1.00  0.00     0.174 HD
ATOM      3  H12 UNL     1      -2.752  -0.060   2.124  1.00  0.00     0.174 HD
HETATM    4  C1  UNL     1      -1.625  -0.869   0.722  1.00  0.00     0.672 C 
HETATM    5  N2  UNL     1      -2.430  -0.318  -0.298  1.00  0.00    -0.218 N 
HETATM    6  C2  UNL     1      -3.311  -1.280  -0.908  1.00  0.00     0.141 C 
HETATM    7  C3  UNL     1      -4.430  -0.558  -1.670  1.00  0.00     0.020 C 
HETATM    8  C4  UNL     1      -5.177   0.332  -0.694  1.00  0.00     0.002 C 
HETATM    9  C5  UNL     1      -5.098   1.780  -1.071  1.00  0.00     0.000 C 
HETATM   10  C6  UNL     1      -4.183   2.610  -0.241  1.00  0.00     0.002 C 
HETATM   11  C7  UNL     1      -3.066   1.868   0.426  1.00  0.00     0.020 C 
HETATM   12  C8  UNL     1      -2.193   1.088  -0.502  1.00  0.00     0.141 C 
HETATM   13  N3  UNL     1      -0.481  -1.675   0.487  1.00  0.00    -0.205 N 
HETATM   14  C9  UNL     1      -0.651  -2.880  -0.263  1.00  0.00     0.142 C 
HETATM   15  C10 UNL     1       0.370  -3.921   0.044  1.00  0.00     0.020 C 
HETATM   16  C11 UNL     1       0.912  -3.687   1.414  1.00  0.00     0.004 C 
HETATM   17  C12 UNL     1       1.623  -2.359   1.535  1.00  0.00     0.035 C 
HETATM   18  C13 UNL     1       0.777  -1.218   1.030  1.00  0.00     0.194 C 
ENDROOT
BRANCH  18  19
HETATM   19  C14 UNL     1       1.537  -0.471   0.005  1.00  0.00     0.243 C 
HETATM   20  O1  UNL     1       1.076  -0.429  -1.162  1.00  0.00    -0.271 OA
HETATM   21  N4  UNL     1       2.759   0.203   0.257  1.00  0.00    -0.341 N 
HETATM   22  C15 UNL     1       3.491   0.310   1.509  1.00  0.00     0.158 C 
HETATM   23  C18 UNL     1       3.570   0.951  -0.692  1.00  0.00     0.120 C 
HETATM   24  C16 UNL     1       4.845   0.894   1.138  1.00  0.00     0.142 C 
HETATM   25  C17 UNL     1       4.952   0.384  -0.312  1.00  0.00     0.061 C 
HETATM   26  O3  UNL     1       4.659   2.253   0.905  1.00  0.00    -0.375 OA
HETATM   27  C19 UNL     1       3.721   2.332  -0.124  1.00  0.00     0.168 C 
BRANCH  27  28
HETATM   28  C20 UNL     1       4.069   3.365  -1.147  1.00  0.00     0.198 C 
BRANCH  28  29
HETATM   29  O2  UNL     1       5.294   3.109  -1.749  1.00  0.00    -0.398 OA
ATOM     30  H2  UNL     1       5.515   3.765  -2.399  1.00  0.00     0.209 HD
ENDBRANCH  28  29
ENDBRANCH  27  28
ENDBRANCH  18  19
TORSDOF 3
