REMARK  16 active torsions:
REMARK  status: ('A' for Active; 'I' for Inactive)
REMARK    1  A    between atoms: O1_2  and  C2_3 
REMARK    2  A    between atoms: C2_3  and  C3_5 
REMARK    3  A    between atoms: C8_13  and  O4_14 
REMARK    4  A    between atoms: C9_16  and  C10_17 
REMARK    5  A    between atoms: C10_17  and  N2_18 
REMARK    6  A    between atoms: C10_17  and  C11_22 
REMARK    7  A    between atoms: C14_29  and  C15_30 
REMARK    8  A    between atoms: N5_32  and  O6_34 
REMARK    9  A    between atoms: O6_34  and  C16_35 
REMARK   10  A    between atoms: C16_35  and  C17_36 
REMARK   11  A    between atoms: C17_36  and  N6_37 
REMARK   12  A    between atoms: C18_41  and  O7_43 
REMARK   13  A    between atoms: C20_45  and  O8_46 
REMARK   14  A    between atoms: C20_45  and  C21_48 
REMARK   15  A    between atoms: C21_48  and  N7_49 
REMARK   16  A    between atoms: C21_48  and  O9_53 
ROOT
HETATM    1  C3  UNL     1       0.196  -1.534   0.497  1.00  0.00     0.189 C 
HETATM    2  N1  UNL     1      -1.108  -1.859   1.139  1.00  0.00    -0.337 N 
ATOM      3  H1  UNL     1      -1.225  -1.925   2.150  1.00  0.00     0.164 HD
HETATM    4  C4  UNL     1      -2.163  -2.067   0.236  1.00  0.00     0.230 C 
HETATM    5  O3  UNL     1      -3.218  -2.756   0.368  1.00  0.00    -0.273 OA
HETATM    6  C5  UNL     1      -1.781  -1.271  -0.954  1.00  0.00     0.078 C 
HETATM    7  C6  UNL     1      -2.447  -1.607  -2.219  1.00  0.00     0.029 C 
HETATM    8  C7  UNL     1      -2.128   0.143  -0.690  1.00  0.00     0.054 C 
HETATM    9  C8  UNL     1      -3.488   0.364  -0.078  1.00  0.00     0.126 C 
HETATM   10  C9  UNL     1      -3.801   1.838  -0.252  1.00  0.00     0.064 C 
HETATM   11  C12 UNL     1      -2.580   2.732  -0.088  1.00  0.00     0.096 C 
HETATM   12  S1  UNL     1      -2.029   2.944   1.578  1.00  0.00    -0.097 SA
HETATM   13  S2  UNL     1       0.046   2.767   1.910  1.00  0.00    -0.097 SA
HETATM   14  C13 UNL     1       1.005   2.139   0.593  1.00  0.00     0.101 C 
HETATM   15  C14 UNL     1       1.506   0.768   0.548  1.00  0.00     0.099 C 
HETATM   16  C18 UNL     1       0.876  -0.397   1.124  1.00  0.00     0.103 C 
HETATM   17  C19 UNL     1       0.206  -0.122   2.485  1.00  0.00     0.050 C 
HETATM   18  C20 UNL     1      -0.274  -1.629  -0.900  1.00  0.00     0.163 C 
ENDROOT
BRANCH  15  19
HETATM   19  C15 UNL     1       2.993   0.943   0.941  1.00  0.00     0.121 C 
HETATM   20  N4  UNL     1       3.418   0.992   2.261  1.00  0.00    -0.085 NA
HETATM   21  N5  UNL     1       3.819   1.083  -0.002  1.00  0.00    -0.257 N 
ATOM     22  H5  UNL     1       3.382   1.057  -0.923  1.00  0.00     0.195 HD
BRANCH  21  23
HETATM   23  O6  UNL     1       5.142   1.258  -0.054  1.00  0.00    -0.278 OA
BRANCH  23  24
HETATM   24  C16 UNL     1       5.616   2.057  -1.156  1.00  0.00     0.228 C 
BRANCH  24  25
HETATM   25  C17 UNL     1       7.133   2.039  -1.084  1.00  0.00     0.258 C 
BRANCH  25  26
HETATM   26  N6  UNL     1       7.560   2.605   0.159  1.00  0.00    -0.077 N 
ATOM     27  H63 UNL     1       7.178   3.539   0.308  1.00  0.00     0.274 HD
ATOM     28  H62 UNL     1       7.131   2.142   0.960  1.00  0.00     0.274 HD
ATOM     29  H61 UNL     1       8.579   2.593   0.207  1.00  0.00     0.274 HD
ENDBRANCH  25  26
ENDBRANCH  24  25
ENDBRANCH  23  24
ENDBRANCH  21  23
ENDBRANCH  15  19
BRANCH  16  30
HETATM   30  O7  UNL     1       2.099  -0.987   1.732  1.00  0.00    -0.386 OA
ATOM     31  H7  UNL     1       2.540  -0.250   2.138  1.00  0.00     0.210 HD
ENDBRANCH  16  30
BRANCH   1  32
HETATM   32  C2  UNL     1       0.947  -2.744   0.986  1.00  0.00     0.293 C 
HETATM   33  O2  UNL     1       1.475  -3.650   0.282  1.00  0.00    -0.262 OA
BRANCH  32  34
HETATM   34  O1  UNL     1       1.147  -3.044   2.344  1.00  0.00    -0.324 OA
HETATM   35  C1  UNL     1       1.815  -4.208   2.773  1.00  0.00     0.213 C 
ENDBRANCH  32  34
ENDBRANCH   1  32
BRANCH  18  36
HETATM   36  O8  UNL     1       0.298  -0.792  -1.818  1.00  0.00    -0.381 OA
ATOM     37  H8  UNL     1      -0.004  -0.853  -2.717  1.00  0.00     0.211 HD
ENDBRANCH  18  36
BRANCH  18  38
HETATM   38  C21 UNL     1      -0.202  -2.953  -1.622  1.00  0.00     0.357 C 
BRANCH  38  39
HETATM   39  N7  UNL     1      -0.810  -4.102  -0.986  1.00  0.00    -0.050 N 
ATOM     40  H73 UNL     1      -0.424  -4.210  -0.048  1.00  0.00     0.277 HD
ATOM     41  H72 UNL     1      -1.784  -3.890  -0.770  1.00  0.00     0.277 HD
ATOM     42  H71 UNL     1      -0.761  -4.996  -1.474  1.00  0.00     0.277 HD
ENDBRANCH  38  39
BRANCH  38  43
HETATM   43  O9  UNL     1       1.035  -3.251  -2.172  1.00  0.00    -0.362 OA
HETATM   44  C22 UNL     1       0.960  -3.470  -3.520  1.00  0.00     0.204 C 
ENDBRANCH  38  43
ENDBRANCH  18  38
BRANCH  10  45
HETATM   45  C10 UNL     1      -4.955   2.321   0.587  1.00  0.00     0.279 C 
BRANCH  45  46
HETATM   46  N2  UNL     1      -4.799   2.193   1.992  1.00  0.00    -0.066 N 
ATOM     47  H23 UNL     1      -4.580   1.226   2.229  1.00  0.00     0.275 HD
ATOM     48  H22 UNL     1      -3.939   2.654   2.288  1.00  0.00     0.275 HD
ATOM     49  H21 UNL     1      -5.580   2.520   2.560  1.00  0.00     0.275 HD
ENDBRANCH  45  46
BRANCH  45  50
HETATM   50  C11 UNL     1      -5.183   3.750   0.254  1.00  0.00     0.262 C 
HETATM   51  N3  UNL     1      -5.427   4.128  -1.106  1.00  0.00    -0.060 NA
HETATM   52  O5  UNL     1      -5.175   4.684   1.095  1.00  0.00    -0.275 OA
ENDBRANCH  45  50
ENDBRANCH  10  45
BRANCH   9  53
HETATM   53  O4  UNL     1      -3.640  -0.075   1.203  1.00  0.00    -0.395 OA
ATOM     54  H4  UNL     1      -4.497   0.064   1.589  1.00  0.00     0.210 HD
ENDBRANCH   9  53
TORSDOF 16
