REMARK  5 active torsions:
REMARK  status: ('A' for Active; 'I' for Inactive)
REMARK    1  A    between atoms: O1_2  and  C2_3 
REMARK    2  A    between atoms: C9_10  and  C10_11 
REMARK    3  A    between atoms: C13_14  and  O2_15 
REMARK    4  A    between atoms: O2_15  and  S1_16 
REMARK    5  A    between atoms: S1_16  and  N1_17 
ROOT
HETATM    1  C2  UNL     1      -4.753   0.768  -0.515  1.00  0.00     0.069 A 
HETATM    2  C3  UNL     1      -5.087   0.191  -1.728  1.00  0.00     0.039 A 
HETATM    3  C4  UNL     1      -4.190  -0.485  -2.521  1.00  0.00     0.033 A 
HETATM    4  C5  UNL     1      -2.873  -0.582  -2.053  1.00  0.00     0.046 A 
HETATM    5  C6  UNL     1      -2.522  -0.013  -0.847  1.00  0.00     0.009 A 
HETATM    6  C7  UNL     1      -3.456   0.656  -0.084  1.00  0.00     0.051 A 
HETATM    7  C8  UNL     1      -1.084  -0.250  -0.575  1.00  0.00     0.045 A 
HETATM    8  C9  UNL     1      -0.435   0.190   0.466  1.00  0.00     0.029 C 
HETATM    9  C16 UNL     1      -0.626  -1.002  -1.723  1.00  0.00     0.257 A 
HETATM   10  O5  UNL     1       0.523  -1.437  -1.961  1.00  0.00    -0.267 OA
HETATM   11  N2  UNL     1      -1.747  -1.195  -2.621  1.00  0.00    -0.322 N 
ATOM     12  H2  UNL     1      -1.721  -1.691  -3.512  1.00  0.00     0.169 HD
ENDROOT
BRANCH   8  13
HETATM   13  C10 UNL     1       0.952  -0.017   0.775  1.00  0.00    -0.035 A 
HETATM   14  C11 UNL     1       1.551  -1.252   0.856  1.00  0.00     0.014 A 
HETATM   15  C12 UNL     1       2.898  -1.349   1.128  1.00  0.00     0.039 A 
HETATM   16  C13 UNL     1       3.680  -0.243   1.326  1.00  0.00     0.091 A 
HETATM   17  C14 UNL     1       3.091   0.994   1.248  1.00  0.00     0.039 A 
HETATM   18  C15 UNL     1       1.753   1.115   0.979  1.00  0.00     0.014 A 
BRANCH  16  19
HETATM   19  O2  UNL     1       5.043  -0.317   1.601  1.00  0.00    -0.217 OA
BRANCH  19  20
HETATM   20  S1  UNL     1       6.154  -0.316   0.307  1.00  0.00     0.360 S 
HETATM   21  O3  UNL     1       6.704  -1.713   0.190  1.00  0.00    -0.176 OA
HETATM   22  O4  UNL     1       5.494   0.026  -1.002  1.00  0.00    -0.176 OA
BRANCH  20  23
HETATM   23  N1  UNL     1       7.461   0.766   0.573  1.00  0.00    -0.305 N 
ATOM     24  H12 UNL     1       7.548   1.336   1.414  1.00  0.00     0.171 HD
ATOM     25  H11 UNL     1       8.125   0.767  -0.201  1.00  0.00     0.171 HD
ENDBRANCH  20  23
ENDBRANCH  19  20
ENDBRANCH  16  19
ENDBRANCH   8  13
BRANCH   1  26
HETATM   26  O1  UNL     1      -5.736   1.444   0.237  1.00  0.00    -0.356 OA
HETATM   27  C1  UNL     1      -5.318   2.005   1.465  1.00  0.00     0.210 C 
ENDBRANCH   1  26
TORSDOF 5
