REMARK  5 active torsions:
REMARK  status: ('A' for Active; 'I' for Inactive)
REMARK    1  A    between atoms: C4_6  and  C5_7 
REMARK    2  A    between atoms: C5_7  and  C6_12 
REMARK    3  A    between atoms: N2_8  and  O1_10 
REMARK    4  A    between atoms: C10_16  and  S1_17 
REMARK    5  A    between atoms: S1_17  and  C11_18 
ROOT
HETATM    1  C1  UNL     1       1.475  -2.155   2.362  1.00  0.00     0.069 C 
HETATM    2  C2  UNL     1       0.248  -1.420   1.977  1.00  0.00     0.023 A 
HETATM    3  N1  UNL     1      -0.725  -0.989   2.778  1.00  0.00    -0.367 N 
ATOM      4  H1  UNL     1      -0.748  -1.107   3.791  1.00  0.00     0.165 HD
HETATM    5  C3  UNL     1      -1.666  -0.378   2.053  1.00  0.00     0.103 A 
HETATM    6  C4  UNL     1      -1.326  -0.389   0.683  1.00  0.00     0.023 A 
HETATM    7  C10 UNL     1      -0.128  -1.044   0.668  1.00  0.00     0.036 A 
ENDROOT
BRANCH   6   8
HETATM    8  C5  UNL     1      -2.169   0.165  -0.341  1.00  0.00     0.052 C 
HETATM    9  N2  UNL     1      -1.991   0.147  -1.550  1.00  0.00    -0.272 N 
ATOM     10  H2  UNL     1      -2.768   0.624  -2.006  1.00  0.00     0.194 HD
BRANCH   9  11
HETATM   11  O1  UNL     1      -1.171  -0.261  -2.444  1.00  0.00    -0.290 OA
ATOM     12  H1  UNL     1      -1.033  -0.275  -3.384  1.00  0.00     0.244 HD
ENDBRANCH   9  11
BRANCH   8  13
HETATM   13  C6  UNL     1      -3.463   0.870   0.046  1.00  0.00    -0.006 C 
HETATM   14  C7  UNL     1      -4.116   1.383  -1.223  1.00  0.00     0.021 C 
HETATM   15  C8  UNL     1      -3.197   2.068   0.919  1.00  0.00     0.021 C 
HETATM   16  C9  UNL     1      -4.438  -0.046   0.691  1.00  0.00     0.021 C 
ENDBRANCH   8  13
ENDBRANCH   6   8
BRANCH   7  17
HETATM   17  S1  UNL     1       0.897  -1.401  -0.732  1.00  0.00    -0.122 SA
BRANCH  17  18
HETATM   18  C11 UNL     1       2.060  -0.028  -0.968  1.00  0.00     0.055 C 
HETATM   19  C12 UNL     1       3.052   0.078   0.164  1.00  0.00     0.043 C 
HETATM   20  C13 UNL     1       4.191   1.012  -0.268  1.00  0.00     0.233 C 
HETATM   21  N3  UNL     1       4.966   0.371  -1.290  1.00  0.00    -0.075 N 
HETATM   22  C14 UNL     1       4.222  -0.577  -2.080  1.00  0.00     0.233 C 
ATOM     23  H32 UNL     1       5.413   1.065  -1.890  1.00  0.00     0.277 HD
ATOM     24  H31 UNL     1       5.794  -0.069  -0.889  1.00  0.00     0.277 HD
HETATM   25  C15 UNL     1       2.787  -0.155  -2.293  1.00  0.00     0.043 C 
ENDBRANCH  17  18
ENDBRANCH   7  17
TORSDOF 5
