REMARK  13 active torsions:
REMARK  status: ('A' for Active; 'I' for Inactive)
REMARK    1  A    between atoms: C3_3  and  N1_4 
REMARK       I    between atoms: N1_4  and  C4_6 
REMARK    2  A    between atoms: C4_6  and  C5_8 
REMARK    3  A    between atoms: C5_8  and  O3_10 
REMARK    4  A    between atoms: O3_10  and  C6_11 
REMARK    5  A    between atoms: C11_16  and  C12_17 
REMARK    6  A    between atoms: C12_17  and  C13_18 
REMARK    7  A    between atoms: C13_18  and  N2_19 
REMARK    8  A    between atoms: N2_19  and  C14_21 
REMARK    9  A    between atoms: C14_21  and  C15_22 
REMARK   10  A    between atoms: C15_22  and  C16_23 
REMARK   11  A    between atoms: C19_26  and  C20_27 
REMARK   12  A    between atoms: N3_28  and  O4_30 
REMARK   13  A    between atoms: N5_35  and  N6_37 
ROOT
HETATM    1  C1  UNL     1       8.290   3.264   1.933  1.00  0.00     0.014 C 
HETATM    2  C2  UNL     1       7.202   2.777   2.101  1.00  0.00    -0.098 C 
HETATM    3  C3  UNL     1       5.896   2.179   2.302  1.00  0.00     0.216 C 
ENDROOT
BRANCH   3   4
HETATM    4  N1  UNL     1       5.765   1.068   1.367  1.00  0.00    -0.342 N 
HETATM    5  C4  UNL     1       4.577   0.327   1.370  1.00  0.00     0.318 C 
HETATM    6  O1  UNL     1       3.625   0.603   2.161  1.00  0.00    -0.262 OA
ATOM      7  H1  UNL     1       6.522   0.836   0.725  1.00  0.00     0.163 HD
BRANCH   5   8
HETATM    8  C5  UNL     1       4.360  -0.794   0.475  1.00  0.00     0.356 C 
HETATM    9  O2  UNL     1       5.282  -1.105  -0.321  1.00  0.00    -0.253 OA
BRANCH   8  10
HETATM   10  O3  UNL     1       3.198  -1.541   0.447  1.00  0.00    -0.271 OA
BRANCH  10  11
HETATM   11  C6  UNL     1       3.023  -2.598  -0.413  1.00  0.00     0.086 A 
HETATM   12  C7  UNL     1       3.376  -3.877   0.047  1.00  0.00     0.038 A 
HETATM   13  C8  UNL     1       3.220  -4.954  -0.799  1.00  0.00     0.003 A 
HETATM   14  C9  UNL     1       2.720  -4.794  -2.093  1.00  0.00     0.001 A 
HETATM   15  C10 UNL     1       2.383  -3.534  -2.514  1.00  0.00     0.010 A 
HETATM   16  C11 UNL     1       2.533  -2.417  -1.665  1.00  0.00    -0.023 A 
BRANCH  16  17
HETATM   17  C12 UNL     1       2.091  -1.149  -2.184  1.00  0.00     0.061 C 
BRANCH  17  18
HETATM   18  C13 UNL     1       0.692  -0.715  -2.024  1.00  0.00     0.126 C 
BRANCH  18  19
HETATM   19  N2  UNL     1       0.141  -0.567  -0.715  1.00  0.00    -0.378 N 
ATOM     20  H2  UNL     1       0.685  -0.857   0.098  1.00  0.00     0.160 HD
BRANCH  19  21
HETATM   21  C14 UNL     1      -1.158  -0.019  -0.534  1.00  0.00     0.095 C 
HETATM   22  N5  UNL     1      -1.995   0.113  -1.435  1.00  0.00    -0.296 N 
ATOM     23  H5  UNL     1      -2.851   0.529  -1.068  1.00  0.00     0.187 HD
BRANCH  21  24
HETATM   24  C15 UNL     1      -1.543   0.441   0.858  1.00  0.00     0.117 C 
BRANCH  24  25
HETATM   25  C16 UNL     1      -2.910   1.017   0.854  1.00  0.00    -0.035 A 
HETATM   26  C17 UNL     1      -3.156   2.342   0.596  1.00  0.00     0.011 A 
HETATM   27  C18 UNL     1      -4.471   2.837   0.606  1.00  0.00     0.031 A 
HETATM   28  C19 UNL     1      -5.557   2.034   0.869  1.00  0.00     0.051 A 
HETATM   29  N4  UNL     1      -5.263   0.729   1.118  1.00  0.00    -0.359 N 
HETATM   30  C21 UNL     1      -6.395  -0.155   1.403  1.00  0.00     0.156 C 
HETATM   31  C22 UNL     1      -4.017   0.236   1.114  1.00  0.00     0.098 A 
BRANCH  28  32
HETATM   32  C20 UNL     1      -6.930   2.488   0.887  1.00  0.00     0.143 C 
HETATM   33  N3  UNL     1      -7.408   3.634   0.669  1.00  0.00    -0.278 N 
ATOM     34  H3  UNL     1      -8.421   3.729   0.737  1.00  0.00     0.193 HD
BRANCH  33  35
HETATM   35  O4  UNL     1      -6.712   4.750   0.354  1.00  0.00    -0.290 OA
ATOM     36  H4  UNL     1      -7.072   5.614   0.190  1.00  0.00     0.244 HD
ENDBRANCH  33  35
ENDBRANCH  28  32
ENDBRANCH  24  25
ENDBRANCH  21  24
BRANCH  22  37
HETATM   37  N6  UNL     1      -2.116  -0.126  -2.749  1.00  0.00    -0.344 N 
ATOM     38  H62 UNL     1      -1.249  -0.541  -3.091  1.00  0.00     0.176 HD
ATOM     39  H61 UNL     1      -2.806  -0.017  -3.492  1.00  0.00     0.176 HD
ENDBRANCH  22  37
ENDBRANCH  19  21
ENDBRANCH  18  19
ENDBRANCH  17  18
ENDBRANCH  16  17
ENDBRANCH  10  11
ENDBRANCH   8  10
ENDBRANCH   5   8
ENDBRANCH   3   4
TORSDOF 13
