REMARK  7 active torsions:
REMARK  status: ('A' for Active; 'I' for Inactive)
REMARK    1  A    between atoms: C2_5  and  C3_6 
REMARK    2  A    between atoms: C4_10  and  N3_11 
REMARK    3  A    between atoms: C5_14  and  C6_15 
REMARK    4  A    between atoms: C6_15  and  N5_19 
REMARK    5  A    between atoms: N5_19  and  C7_21 
REMARK    6  A    between atoms: C10_25  and  C11_26 
REMARK    7  A    between atoms: C14_31  and  C15_32 
ROOT
HETATM    1  C6  UNL     1      -2.621  -1.501  -0.358  1.00  0.00     0.148 C 
HETATM    2  N4  UNL     1      -3.076  -2.317  -1.268  1.00  0.00    -0.282 N 
ATOM      3  H4  UNL     1      -3.922  -2.046  -1.770  1.00  0.00     0.182 HD
HETATM    4 CL1  UNL     1      -2.348  -3.817  -1.679  1.00  0.00     0.012 Cl
ENDROOT
BRANCH   1   5
HETATM    5  C5  UNL     1      -3.348  -0.282  -0.134  1.00  0.00     0.130 A 
HETATM    6  N1  UNL     1      -4.024   0.403  -1.117  1.00  0.00    -0.290 N 
HETATM    7  C1  UNL     1      -4.067  -0.040  -2.496  1.00  0.00     0.178 C 
HETATM    8  N2  UNL     1      -4.577   1.451  -0.555  1.00  0.00    -0.292 N 
HETATM    9  C2  UNL     1      -4.305   1.501   0.753  1.00  0.00     0.168 A 
ATOM     10  H2  UNL     1      -5.142   2.140  -1.052  1.00  0.00     0.187 HD
HETATM   11  C4  UNL     1      -3.506   0.384   1.056  1.00  0.00     0.167 A 
BRANCH   9  12
HETATM   12  C3  UNL     1      -4.747   2.536   1.733  1.00  0.00     0.436 C 
HETATM   13  F1  UNL     1      -5.490   1.970   2.743  1.00  0.00    -0.165 F 
HETATM   14  F2  UNL     1      -3.636   3.212   2.218  1.00  0.00    -0.165 F 
HETATM   15  F3  UNL     1      -5.527   3.458   1.056  1.00  0.00    -0.165 F 
ENDBRANCH   9  12
BRANCH  11  16
HETATM   16  N3  UNL     1      -3.025   0.113   2.359  1.00  0.00    -0.111 N 
HETATM   17  O1  UNL     1      -3.740  -0.389   3.248  1.00  0.00    -0.532 OA
HETATM   18  O2  UNL     1      -1.736   0.398   2.697  1.00  0.00    -0.532 OA
ENDBRANCH  11  16
ENDBRANCH   1   5
BRANCH   1  19
HETATM   19  N5  UNL     1      -1.439  -1.935   0.298  1.00  0.00    -0.333 N 
ATOM     20  H5  UNL     1      -1.472  -2.693   0.980  1.00  0.00     0.168 HD
BRANCH  19  21
HETATM   21  C7  UNL     1      -0.190  -1.283  -0.018  1.00  0.00     0.092 A 
HETATM   22  S1  UNL     1      -0.008   0.046  -1.110  1.00  0.00    -0.075 SA
HETATM   23  C8  UNL     1       1.651   0.274  -0.980  1.00  0.00    -0.007 A 
HETATM   24  C9  UNL     1       2.055  -0.704  -0.074  1.00  0.00    -0.027 A 
HETATM   25  C16 UNL     1       2.696   1.209  -1.555  1.00  0.00     0.062 C 
HETATM   26  C10 UNL     1       1.091  -1.501   0.415  1.00  0.00     0.070 A 
HETATM   27  C12 UNL     1       3.548  -0.618   0.134  1.00  0.00     0.042 C 
HETATM   28  C13 UNL     1       3.814   0.786   0.644  1.00  0.00     0.020 C 
HETATM   29  C14 UNL     1       3.532   1.798  -0.437  1.00  0.00     0.092 C 
BRANCH  26  30
HETATM   30  C11 UNL     1       1.364  -2.587   1.384  1.00  0.00     0.268 C 
HETATM   31  N6  UNL     1       2.642  -2.905   1.905  1.00  0.00    -0.057 NA
HETATM   32  O3  UNL     1       0.425  -3.293   1.794  1.00  0.00    -0.271 OA
ENDBRANCH  26  30
BRANCH  29  33
HETATM   33  C15 UNL     1       4.824   2.214  -1.038  1.00  0.00     0.177 C 
HETATM   34  O4  UNL     1       5.220   3.406  -0.864  1.00  0.00    -0.648 OA
HETATM   35  O5  UNL     1       5.555   1.293  -1.765  1.00  0.00    -0.648 OA
ENDBRANCH  29  33
ENDBRANCH  19  21
ENDBRANCH   1  19
TORSDOF 7
