REMARK  11 active torsions:
REMARK  status: ('A' for Active; 'I' for Inactive)
REMARK    1  A    between atoms: O1_2  and  C2_3 
REMARK    2  A    between atoms: C2_3  and  C3_5 
REMARK    3  A    between atoms: C4_9  and  O3_10 
REMARK    4  A    between atoms: C4_9  and  C5_12 
REMARK    5  A    between atoms: C5_12  and  O4_13 
REMARK    6  A    between atoms: C8_17  and  O5_18 
REMARK    7  A    between atoms: C8_17  and  C9_20 
REMARK    8  A    between atoms: C9_20  and  O6_21 
REMARK    9  A    between atoms: C10_23  and  O7_24 
REMARK   10  A    between atoms: C10_23  and  C11_26 
REMARK   11  A    between atoms: C11_26  and  O8_27 
ROOT
HETATM    1  C3  UNL     1       0.536   0.722   0.092  1.00  0.00     0.201 C 
HETATM    2  N1  UNL     1       1.045   0.785   1.371  1.00  0.00    -0.309 N 
ATOM      3  H1  UNL     1       0.707   1.371   2.134  1.00  0.00     0.177 HD
HETATM    4  N2  UNL     1       2.114  -0.112   1.416  1.00  0.00    -0.102 NA
HETATM    5  C4  UNL     1       1.739  -1.203   0.573  1.00  0.00     0.175 C 
HETATM    6  C6  UNL     1       0.509  -0.774  -0.183  1.00  0.00     0.091 C 
HETATM    7  C7  UNL     1      -0.719  -1.455   0.309  1.00  0.00     0.056 C 
HETATM    8  C8  UNL     1      -2.012  -0.752   0.423  1.00  0.00     0.119 C 
HETATM    9  C10 UNL     1      -2.079   0.594  -0.177  1.00  0.00     0.175 C 
HETATM   10  C12 UNL     1      -0.789   1.296  -0.249  1.00  0.00     0.205 C 
HETATM   11  O9  UNL     1      -0.854   2.474  -0.640  1.00  0.00    -0.291 OA
ENDROOT
BRANCH   5  12
HETATM   12  O3  UNL     1       1.373  -2.231   1.513  1.00  0.00    -0.370 OA
ATOM     13  H3  UNL     1       1.124  -2.956   0.953  1.00  0.00     0.212 HD
ENDBRANCH   5  12
BRANCH   5  14
HETATM   14  C5  UNL     1       2.867  -1.790  -0.154  1.00  0.00     0.222 C 
BRANCH  14  15
HETATM   15  O4  UNL     1       2.619  -2.772  -1.074  1.00  0.00    -0.396 OA
ATOM     16  H4  UNL     1       3.351  -3.153  -1.546  1.00  0.00     0.209 HD
ENDBRANCH  14  15
ENDBRANCH   5  14
BRANCH   1  17
HETATM   17  C2  UNL     1       1.557   1.340  -0.877  1.00  0.00     0.296 C 
HETATM   18  O2  UNL     1       2.147   0.689  -1.762  1.00  0.00    -0.262 OA
BRANCH  17  19
HETATM   19  O1  UNL     1       1.837   2.681  -0.752  1.00  0.00    -0.324 OA
HETATM   20  C1  UNL     1       2.741   3.441  -1.496  1.00  0.00     0.213 C 
ENDBRANCH  17  19
ENDBRANCH   1  17
BRANCH   8  21
HETATM   21  O5  UNL     1      -2.903  -1.585  -0.304  1.00  0.00    -0.384 OA
ATOM     22  H5  UNL     1      -3.735  -1.133  -0.231  1.00  0.00     0.210 HD
ENDBRANCH   8  21
BRANCH   8  23
HETATM   23  C9  UNL     1      -2.610  -0.810   1.814  1.00  0.00     0.205 C 
BRANCH  23  24
HETATM   24  O6  UNL     1      -2.109  -0.005   2.763  1.00  0.00    -0.398 OA
ATOM     25  H6  UNL     1      -2.484  -0.041   3.635  1.00  0.00     0.209 HD
ENDBRANCH  23  24
ENDBRANCH   8  23
BRANCH   9  26
HETATM   26  O7  UNL     1      -2.930   1.500   0.518  1.00  0.00    -0.377 OA
ATOM     27  H7  UNL     1      -2.973   2.367   0.132  1.00  0.00     0.211 HD
ENDBRANCH   9  26
BRANCH   9  28
HETATM   28  C11 UNL     1      -2.741   0.540  -1.557  1.00  0.00     0.213 C 
BRANCH  28  29
HETATM   29  O8  UNL     1      -2.780   1.748  -2.213  1.00  0.00    -0.397 OA
ATOM     30  H8  UNL     1      -3.191   1.715  -3.069  1.00  0.00     0.209 HD
ENDBRANCH  28  29
ENDBRANCH   9  28
TORSDOF 11
