REMARK  8 active torsions:
REMARK  status: ('A' for Active; 'I' for Inactive)
REMARK    1  A    between atoms: N1_1  and  C1_4 
REMARK    2  A    between atoms: N3_9  and  O2_10 
REMARK    3  A    between atoms: C3_12  and  C4_13 
REMARK    4  A    between atoms: C4_13  and  N4_14 
REMARK    5  A    between atoms: C4_13  and  C5_18 
REMARK       I    between atoms: C5_18  and  N5_20 
REMARK    6  A    between atoms: N5_20  and  N6_22 
REMARK    7  A    between atoms: N6_22  and  C6_24 
REMARK    8  A    between atoms: C9_35  and  O6_36 
ROOT
HETATM    1  C4  UNL     1      -1.155   0.594   0.258  1.00  0.00     0.331 C 
ENDROOT
BRANCH   1   2
HETATM    2  C3  UNL     1      -2.497   0.181  -0.147  1.00  0.00     0.122 A 
HETATM    3  N3  UNL     1      -2.973   0.326  -1.385  1.00  0.00    -0.171 N 
HETATM    4  C2  UNL     1      -4.251  -0.040  -1.675  1.00  0.00     0.352 A 
HETATM    5  N2  UNL     1      -5.073  -0.551  -0.753  1.00  0.00    -0.291 N 
HETATM    6  O1  UNL     1      -4.691   0.098  -2.844  1.00  0.00    -0.244 OA
HETATM    7  C1  UNL     1      -4.659  -0.722   0.511  1.00  0.00     0.139 A 
ATOM      8  H2  UNL     1      -6.024  -0.813  -1.013  1.00  0.00     0.172 HD
HETATM    9  C9  UNL     1      -3.373  -0.355   0.805  1.00  0.00     0.138 A 
BRANCH   3  10
HETATM   10  O2  UNL     1      -2.219   0.901  -2.410  1.00  0.00    -0.279 OA
ATOM     11  H2  UNL     1      -1.327   1.157  -2.208  1.00  0.00     0.245 HD
ENDBRANCH   3  10
BRANCH   7  12
HETATM   12  N1  UNL     1      -5.459  -1.221   1.420  1.00  0.00    -0.383 N 
ATOM     13  H12 UNL     1      -6.417  -1.494   1.201  1.00  0.00     0.157 HD
ATOM     14  H11 UNL     1      -5.144  -1.351   2.381  1.00  0.00     0.157 HD
ENDBRANCH   7  12
BRANCH   9  15
HETATM   15  O6  UNL     1      -2.924  -0.521   2.104  1.00  0.00    -0.355 OA
ATOM     16  H6  UNL     1      -2.032  -0.266   2.308  1.00  0.00     0.218 HD
ENDBRANCH   9  15
ENDBRANCH   1   2
BRANCH   1  17
HETATM   17  N4  UNL     1      -0.952   0.496   1.708  1.00  0.00    -0.061 N 
ATOM     18  H43 UNL     1      -1.666   1.019   2.215  1.00  0.00     0.275 HD
ATOM     19  H42 UNL     1      -1.165  -0.442   2.046  1.00  0.00     0.275 HD
ATOM     20  H41 UNL     1      -0.015   0.784   1.991  1.00  0.00     0.275 HD
ENDBRANCH   1  17
BRANCH   1  21
HETATM   21  C5  UNL     1       0.007   0.059  -0.439  1.00  0.00     0.273 C 
HETATM   22  O3  UNL     1       0.010  -0.230  -1.643  1.00  0.00    -0.269 OA
HETATM   23  N5  UNL     1       1.204  -0.146   0.279  1.00  0.00    -0.254 N 
ATOM     24  H5  UNL     1       1.261   0.077   1.273  1.00  0.00     0.190 HD
BRANCH  23  25
HETATM   25  N6  UNL     1       2.298  -0.657  -0.396  1.00  0.00    -0.129 N 
ATOM     26  H6  UNL     1       2.116  -1.377  -1.095  1.00  0.00     0.205 HD
BRANCH  25  27
HETATM   27  C6  UNL     1       3.507  -0.311  -0.225  1.00  0.00     0.705 A 
HETATM   28  N7  UNL     1       3.864   0.623   0.664  1.00  0.00    -0.139 N 
HETATM   29  C7  UNL     1       5.159   0.927   0.782  1.00  0.00     0.342 A 
ATOM     30  H7  UNL     1       3.163   1.092   1.238  1.00  0.00     0.189 HD
HETATM   31  O4  UNL     1       5.528   1.788   1.596  1.00  0.00    -0.246 OA
HETATM   32  N8  UNL     1       6.071   0.308   0.024  1.00  0.00    -0.260 N 
HETATM   33  C8  UNL     1       5.738  -0.638  -0.881  1.00  0.00     0.342 A 
ATOM     34  H8  UNL     1       7.053   0.559   0.133  1.00  0.00     0.175 HD
HETATM   35  O5  UNL     1       6.600  -1.217  -1.592  1.00  0.00    -0.246 OA
HETATM   36  N9  UNL     1       4.440  -0.939  -0.995  1.00  0.00    -0.139 N 
ATOM     37  H9  UNL     1       4.144  -1.647  -1.667  1.00  0.00     0.189 HD
ENDBRANCH  25  27
ENDBRANCH  23  25
ENDBRANCH   1  21
TORSDOF 8
