REMARK  5 active torsions:
REMARK  status: ('A' for Active; 'I' for Inactive)
REMARK    1  A    between atoms: N1_1  and  N2_4 
REMARK    2  A    between atoms: N2_4  and  C1_6 
REMARK    3  A    between atoms: C2_7  and  C3_8 
REMARK       I    between atoms: C3_8  and  N3_10 
REMARK    4  A    between atoms: N3_10  and  N4_12 
REMARK    5  A    between atoms: N4_12  and  C4_14 
ROOT
HETATM    1  C1  UNL     1      -0.948  -0.924  -0.334  1.00  0.00     0.115 C 
HETATM    2  C2  UNL     1      -0.024  -0.706   0.579  1.00  0.00     0.127 C 
HETATM    3  N8  UNL     1      -0.615   0.011   1.682  1.00  0.00    -0.379 N 
ATOM      4  H8  UNL     1      -0.134   0.602   2.360  1.00  0.00     0.160 HD
HETATM    5  C6  UNL     1      -2.030  -0.280   1.629  1.00  0.00     0.189 C 
HETATM    6  C7  UNL     1      -2.224  -0.314   0.108  1.00  0.00     0.210 C 
HETATM    7  N9  UNL     1      -2.332   1.056  -0.324  1.00  0.00    -0.321 N 
ATOM      8  H9  UNL     1      -1.537   1.398  -0.864  1.00  0.00     0.166 HD
HETATM    9  C8  UNL     1      -3.354   1.995  -0.122  1.00  0.00     0.238 C 
HETATM   10  O2  UNL     1      -3.023   3.230  -0.053  1.00  0.00    -0.272 OA
HETATM   11  C9  UNL     1      -4.811   1.807   0.031  1.00  0.00     0.227 C 
HETATM   12  N10 UNL     1      -5.229   0.477   0.322  1.00  0.00    -0.328 N 
ATOM     13  H10 UNL     1      -6.125   0.435   0.808  1.00  0.00     0.165 HD
HETATM   14  C10 UNL     1      -4.665  -0.803   0.080  1.00  0.00     0.363 C 
HETATM   15  O3  UNL     1      -5.432  -1.809   0.156  1.00  0.00    -0.238 OA
HETATM   16  O4  UNL     1      -3.346  -1.072  -0.236  1.00  0.00    -0.264 OA
ENDROOT
BRANCH   2  17
HETATM   17  C3  UNL     1       1.379  -1.088   0.582  1.00  0.00     0.288 C 
HETATM   18  O1  UNL     1       1.882  -1.718  -0.372  1.00  0.00    -0.264 OA
HETATM   19  N3  UNL     1       2.256  -0.762   1.670  1.00  0.00    -0.262 N 
ATOM     20  H3  UNL     1       1.888  -0.255   2.474  1.00  0.00     0.190 HD
BRANCH  19  21
HETATM   21  N4  UNL     1       3.608  -1.127   1.649  1.00  0.00    -0.267 N 
ATOM     22  H4  UNL     1       3.956  -1.906   2.208  1.00  0.00     0.190 HD
BRANCH  21  23
HETATM   23  C4  UNL     1       4.478  -0.368   0.816  1.00  0.00     0.207 C 
HETATM   24  N5  UNL     1       5.180  -0.831  -0.134  1.00  0.00    -0.345 N 
HETATM   25  C5  UNL     1       5.941   0.215  -0.767  1.00  0.00     0.259 C 
ATOM     26  H5  UNL     1       5.202  -1.812  -0.412  1.00  0.00     0.164 HD
HETATM   27  N6  UNL     1       5.811   1.384   0.109  1.00  0.00    -0.119 NA
HETATM   28  N7  UNL     1       4.712   1.051   0.902  1.00  0.00    -0.273 N 
ATOM     29  H7  UNL     1       4.162   1.708   1.455  1.00  0.00     0.185 HD
ENDBRANCH  21  23
ENDBRANCH  19  21
ENDBRANCH   2  17
BRANCH   1  30
HETATM   30  N2  UNL     1      -0.774  -1.606  -1.558  1.00  0.00    -0.304 N 
ATOM     31  H2  UNL     1      -1.264  -2.492  -1.676  1.00  0.00     0.186 HD
BRANCH  30  32
HETATM   32  N1  UNL     1       0.019  -1.160  -2.621  1.00  0.00    -0.345 N 
ATOM     33  H12 UNL     1       0.502  -0.272  -2.485  1.00  0.00     0.176 HD
ATOM     34  H11 UNL     1       0.145  -1.653  -3.505  1.00  0.00     0.176 HD
ENDBRANCH  30  32
ENDBRANCH   1  30
TORSDOF 5
