REMARK  8 active torsions:
REMARK  status: ('A' for Active; 'I' for Inactive)
REMARK    1  A    between atoms: C2_2  and  S1_5 
REMARK    2  A    between atoms: S1_5  and  C5_6 
REMARK    3  A    between atoms: C5_6  and  C6_7 
REMARK    4  A    between atoms: C7_9  and  O2_10 
REMARK    5  A    between atoms: O2_10  and  C8_11 
REMARK    6  A    between atoms: C14_19  and  O3_20 
REMARK    7  A    between atoms: C15_22  and  O4_23 
REMARK    8  A    between atoms: C16_25  and  O5_26 
ROOT
HETATM    1  C6  UNL     1       0.308  -0.881  -0.124  1.00  0.00     0.165 C 
HETATM    2  O1  UNL     1      -0.244   0.121  -0.920  1.00  0.00    -0.349 OA
HETATM    3  C7  UNL     1      -1.519  -0.312  -1.271  1.00  0.00     0.298 C 
HETATM    4  C14 UNL     1      -1.573  -1.740  -1.741  1.00  0.00     0.205 C 
HETATM    5  C15 UNL     1      -0.238  -2.360  -2.018  1.00  0.00     0.183 C 
HETATM    6  C16 UNL     1       0.845  -1.927  -1.076  1.00  0.00     0.179 C 
ENDROOT
BRANCH   3   7
HETATM    7  O2  UNL     1      -2.335  -0.121  -0.147  1.00  0.00    -0.316 OA
BRANCH   7   8
HETATM    8  C8  UNL     1      -3.412   0.727  -0.032  1.00  0.00     0.095 A 
HETATM    9  C9  UNL     1      -3.895   1.554  -1.012  1.00  0.00     0.039 A 
HETATM   10  C10 UNL     1      -4.991   2.389  -0.833  1.00  0.00     0.005 A 
HETATM   11  C11 UNL     1      -5.631   2.391   0.392  1.00  0.00     0.026 A 
HETATM   12  C12 UNL     1      -5.175   1.569   1.413  1.00  0.00     0.058 A 
HETATM   13 CL1  UNL     1      -6.027   1.611   2.954  1.00  0.00    -0.082 Cl
HETATM   14  C13 UNL     1      -4.101   0.772   1.188  1.00  0.00     0.089 A 
HETATM   15 CL2  UNL     1      -3.541  -0.261   2.490  1.00  0.00    -0.080 Cl
ENDBRANCH   7   8
ENDBRANCH   3   7
BRANCH   4  16
HETATM   16  O3  UNL     1      -2.383  -1.784  -2.877  1.00  0.00    -0.388 OA
ATOM     17  H3  UNL     1      -2.417  -2.686  -3.174  1.00  0.00     0.210 HD
ENDBRANCH   4  16
BRANCH   1  18
HETATM   18  C5  UNL     1       1.384  -0.356   0.789  1.00  0.00     0.109 C 
BRANCH  18  19
HETATM   19  S1  UNL     1       2.757   0.388  -0.125  1.00  0.00    -0.158 SA
BRANCH  19  20
HETATM   20  C2  UNL     1       3.971   0.957   1.096  1.00  0.00    -0.003 C 
HETATM   21  C1  UNL     1       4.592  -0.210   1.835  1.00  0.00     0.026 C 
HETATM   22  C3  UNL     1       3.248   1.811   2.112  1.00  0.00     0.026 C 
HETATM   23  C4  UNL     1       5.032   1.760   0.410  1.00  0.00     0.026 C 
ENDBRANCH  19  20
ENDBRANCH  18  19
ENDBRANCH   1  18
BRANCH   5  24
HETATM   24  O4  UNL     1      -0.403  -3.751  -2.015  1.00  0.00    -0.390 OA
ATOM     25  H4  UNL     1       0.444  -4.144  -2.191  1.00  0.00     0.210 HD
ENDBRANCH   5  24
BRANCH   6  26
HETATM   26  O5  UNL     1       1.364  -2.972  -0.313  1.00  0.00    -0.390 OA
ATOM     27  H5  UNL     1       1.701  -3.629  -0.911  1.00  0.00     0.210 HD
ENDBRANCH   6  26
TORSDOF 8
