REMARK  7 active torsions:
REMARK  status: ('A' for Active; 'I' for Inactive)
REMARK    1  A    between atoms: C2_2  and  C3_3 
REMARK    2  A    between atoms: C3_3  and  C4_4 
REMARK    3  A    between atoms: C4_4  and  C5_5 
REMARK    4  A    between atoms: C5_5  and  C6_6 
REMARK    5  A    between atoms: C11_12  and  O1_13 
REMARK    6  A    between atoms: C19_23  and  C21_25 
REMARK    7  A    between atoms: C21_25  and  O3_26 
ROOT
HETATM    1  C6  UNL     1       3.083  -1.564  -0.625  1.00  0.00     0.111 C 
HETATM    2  F1  UNL     1       3.588  -2.774  -0.092  1.00  0.00    -0.242 F 
HETATM    3  C7  UNL     1       2.733  -1.925  -2.054  1.00  0.00     0.045 C 
HETATM    4  C8  UNL     1       1.325  -1.401  -2.208  1.00  0.00     0.009 C 
HETATM    5  C9  UNL     1       0.763  -1.677  -0.822  1.00  0.00     0.004 C 
HETATM    6  C10 UNL     1      -0.588  -1.109  -0.646  1.00  0.00     0.024 C 
HETATM    7  C11 UNL     1      -1.347  -1.636   0.522  1.00  0.00     0.123 C 
HETATM    8  C12 UNL     1      -2.746  -1.099   0.442  1.00  0.00     0.042 C 
HETATM    9  C13 UNL     1      -2.828   0.406   0.400  1.00  0.00    -0.021 C 
HETATM   10  C14 UNL     1      -2.466   0.880   1.818  1.00  0.00     0.017 C 
HETATM   11  C15 UNL     1      -1.922   1.037  -0.612  1.00  0.00    -0.000 C 
HETATM   12  C16 UNL     1      -2.544   1.300  -1.951  1.00  0.00     0.013 C 
HETATM   13  C17 UNL     1      -3.756   0.492  -2.262  1.00  0.00     0.079 C 
HETATM   14  C18 UNL     1      -4.731   0.682  -1.192  1.00  0.00     0.138 C 
HETATM   15  O2  UNL     1      -5.910   0.789  -1.456  1.00  0.00    -0.297 OA
HETATM   16  C19 UNL     1      -4.275   0.743   0.222  1.00  0.00     0.046 C 
HETATM   17  C20 UNL     1      -5.128  -0.324   0.936  1.00  0.00     0.026 C 
HETATM   18  C22 UNL     1      -0.573   0.377  -0.764  1.00  0.00    -0.003 C 
HETATM   19  C23 UNL     1       0.500   1.062   0.015  1.00  0.00     0.006 C 
HETATM   20  C24 UNL     1       1.696   0.307   0.396  1.00  0.00     0.013 C 
HETATM   21  C25 UNL     1       1.851  -1.110   0.076  1.00  0.00    -0.004 C 
HETATM   22  C26 UNL     1       1.777  -1.937   1.362  1.00  0.00     0.019 C 
ENDROOT
BRANCH   1  23
HETATM   23  C5  UNL     1       4.266  -0.661  -0.633  1.00  0.00     0.044 C 
BRANCH  23  24
HETATM   24  C4  UNL     1       4.880  -0.444   0.729  1.00  0.00     0.007 C 
BRANCH  24  25
HETATM   25  C3  UNL     1       6.068   0.465   0.706  1.00  0.00     0.026 C 
BRANCH  25  26
HETATM   26  C2  UNL     1       5.678   1.788   0.196  1.00  0.00    -0.037 C 
HETATM   27  C1  UNL     1       5.816   2.869   0.944  1.00  0.00     0.007 C 
ENDBRANCH  25  26
ENDBRANCH  24  25
ENDBRANCH  23  24
ENDBRANCH   1  23
BRANCH   7  28
HETATM   28  O1  UNL     1      -1.442  -3.025   0.384  1.00  0.00    -0.395 OA
ATOM     29  H1  UNL     1      -1.926  -3.361   1.129  1.00  0.00     0.210 HD
ENDBRANCH   7  28
BRANCH  16  30
HETATM   30  C21 UNL     1      -4.702   2.055   0.804  1.00  0.00     0.181 C 
BRANCH  30  31
HETATM   31  O3  UNL     1      -4.063   3.158   0.301  1.00  0.00    -0.400 OA
ATOM     32  H3  UNL     1      -4.334   3.990   0.670  1.00  0.00     0.209 HD
ENDBRANCH  30  31
ENDBRANCH  16  30
TORSDOF 7
