REMARK  7 active torsions:
REMARK  status: ('A' for Active; 'I' for Inactive)
REMARK    1  A    between atoms: C2_2  and  O2_4 
REMARK    2  A    between atoms: O2_4  and  C3_5 
REMARK    3  A    between atoms: C5_7  and  C6_8 
REMARK    4  A    between atoms: C6_8  and  C7_9 
REMARK    5  A    between atoms: C7_9  and  O3_10 
REMARK    6  A    between atoms: C14_18  and  O4_20 
REMARK    7  A    between atoms: C16_22  and  C17_23 
ROOT
HETATM    1  C3  UNL     1      -3.747  -0.293   0.757  1.00  0.00     0.060 C 
HETATM    2  C4  UNL     1      -2.478  -0.572   0.528  1.00  0.00    -0.041 C 
HETATM    3  C5  UNL     1      -1.375  -0.949  -0.408  1.00  0.00     0.025 C 
HETATM    4  C8  UNL     1      -0.153  -0.376   0.204  1.00  0.00     0.011 C 
HETATM    5  C9  UNL     1      -0.667   0.509   1.317  1.00  0.00    -0.032 C 
HETATM    6  C10 UNL     1      -1.306   1.780   0.860  1.00  0.00     0.016 C 
HETATM    7  C11 UNL     1       0.431   0.801   2.302  1.00  0.00     0.011 C 
HETATM    8  C12 UNL     1       1.568   1.442   1.485  1.00  0.00     0.009 C 
HETATM    9  C13 UNL     1       2.007   0.582   0.363  1.00  0.00     0.029 C 
HETATM   10  C14 UNL     1       3.232   1.122  -0.316  1.00  0.00     0.069 C 
HETATM   11  C15 UNL     1       4.221   1.515   0.742  1.00  0.00     0.047 C 
HETATM   12  C16 UNL     1       3.790   0.162  -1.277  1.00  0.00     0.089 C 
HETATM   13  C19 UNL     1       2.768  -0.498  -2.170  1.00  0.00     0.016 C 
HETATM   14  C20 UNL     1       1.510  -0.892  -1.490  1.00  0.00     0.011 C 
HETATM   15  C21 UNL     1       0.900   0.218  -0.624  1.00  0.00    -0.033 C 
HETATM   16  C22 UNL     1       0.512   1.303  -1.545  1.00  0.00     0.016 C 
HETATM   17  C23 UNL     1      -1.735  -0.430   1.842  1.00  0.00     0.026 C 
HETATM   18  C24 UNL     1      -2.663   0.116   2.824  1.00  0.00     0.016 C 
HETATM   19  C25 UNL     1      -4.000   0.013   2.193  1.00  0.00     0.066 C 
ENDROOT
BRANCH   1  20
HETATM   20  O2  UNL     1      -4.721  -0.294  -0.263  1.00  0.00    -0.283 OA
BRANCH  20  21
HETATM   21  C2  UNL     1      -5.068   0.812  -0.994  1.00  0.00     0.259 C 
HETATM   22  C1  UNL     1      -6.109   0.741  -2.066  1.00  0.00     0.126 C 
HETATM   23  O1  UNL     1      -4.530   1.925  -0.795  1.00  0.00    -0.265 OA
ENDBRANCH  20  21
ENDBRANCH   1  20
BRANCH   3  24
HETATM   24  C6  UNL     1      -1.355  -2.457  -0.439  1.00  0.00     0.035 C 
BRANCH  24  25
HETATM   25  C7  UNL     1      -2.652  -3.004  -0.915  1.00  0.00     0.165 C 
BRANCH  25  26
HETATM   26  O3  UNL     1      -2.635  -4.410  -0.983  1.00  0.00    -0.401 OA
ATOM     27  H3  UNL     1      -3.464  -4.760  -1.287  1.00  0.00     0.209 HD
ENDBRANCH  25  26
ENDBRANCH  24  25
ENDBRANCH   3  24
BRANCH  10  28
HETATM   28  O4  UNL     1       2.879   2.355  -0.948  1.00  0.00    -0.389 OA
ATOM     29  H4  UNL     1       3.654   2.697  -1.378  1.00  0.00     0.210 HD
ENDBRANCH  10  28
BRANCH  12  30
HETATM   30  C17 UNL     1       4.690  -0.841  -0.703  1.00  0.00     0.130 C 
HETATM   31  C18 UNL     1       6.042  -0.656  -0.146  1.00  0.00     0.091 C 
HETATM   32  O5  UNL     1       4.267  -2.001  -0.679  1.00  0.00    -0.298 OA
ENDBRANCH  12  30
TORSDOF 7
