REMARK  5 active torsions:
REMARK  status: ('A' for Active; 'I' for Inactive)
REMARK    1  A    between atoms: C2_2  and  O1_3 
REMARK    2  A    between atoms: O1_3  and  C3_4 
REMARK    3  A    between atoms: C3_4  and  C4_6 
REMARK    4  A    between atoms: C5_7  and  N1_8 
REMARK       I    between atoms: N1_8  and  C6_10 
REMARK       I    between atoms: C6_10  and  N2_12 
REMARK    5  A    between atoms: N2_12  and  C7_14 
ROOT
HETATM    1  N1  UNL     1       0.879   0.171   0.199  1.00  0.00    -0.302 N 
ATOM      2  H1  UNL     1       0.929   0.920  -0.492  1.00  0.00     0.171 HD
HETATM    3  C6  UNL     1      -0.358  -0.213   0.771  1.00  0.00     0.321 C 
HETATM    4  O3  UNL     1      -0.447  -1.139   1.628  1.00  0.00    -0.247 OA
HETATM    5  N2  UNL     1      -1.554   0.435   0.397  1.00  0.00    -0.337 N 
ATOM      6  H2  UNL     1      -1.512   1.186  -0.292  1.00  0.00     0.164 HD
ENDROOT
BRANCH   1   7
HETATM    7  C5  UNL     1       2.062  -0.528   0.622  1.00  0.00     0.095 A 
HETATM    8  C4  UNL     1       3.370  -0.399   0.266  1.00  0.00     0.080 A 
HETATM    9  C18 UNL     1       4.258  -1.240   0.872  1.00  0.00    -0.030 A 
HETATM   10  C16 UNL     1       3.760  -2.128   1.774  1.00  0.00    -0.012 A 
HETATM   11  C19 UNL     1       5.759  -1.230   0.585  1.00  0.00     0.050 C 
HETATM   12  S1  UNL     1       2.097  -1.814   1.790  1.00  0.00    -0.076 SA
HETATM   13  C17 UNL     1       4.529  -3.160   2.578  1.00  0.00     0.057 C 
BRANCH   8  14
HETATM   14  C3  UNL     1       3.800   0.623  -0.742  1.00  0.00     0.296 C 
HETATM   15  O2  UNL     1       2.994   1.388  -1.291  1.00  0.00    -0.259 OA
BRANCH  14  16
HETATM   16  O1  UNL     1       5.121   0.774  -1.120  1.00  0.00    -0.318 OA
BRANCH  16  17
HETATM   17  C2  UNL     1       5.619   1.694  -2.050  1.00  0.00     0.174 C 
HETATM   18  C1  UNL     1       5.092   1.570  -3.435  1.00  0.00     0.034 C 
ENDBRANCH  16  17
ENDBRANCH  14  16
ENDBRANCH   8  14
ENDBRANCH   1   7
BRANCH   5  19
HETATM   19  C7  UNL     1      -2.842   0.072   0.957  1.00  0.00     0.095 C 
HETATM   20  C8  UNL     1      -3.421   1.299   1.634  1.00  0.00     0.031 C 
HETATM   21  C9  UNL     1      -4.707   1.582   0.878  1.00  0.00    -0.008 C 
HETATM   22  C10 UNL     1      -5.678   0.495   1.229  1.00  0.00     0.006 C 
HETATM   23  C14 UNL     1      -4.283   1.133  -0.530  1.00  0.00    -0.004 C 
HETATM   24  C11 UNL     1      -5.088  -0.757   0.586  1.00  0.00     0.012 C 
HETATM   25  C12 UNL     1      -3.856  -0.280  -0.108  1.00  0.00    -0.020 C 
HETATM   26  C13 UNL     1      -3.350  -1.110  -1.202  1.00  0.00     0.018 C 
HETATM   27  C15 UNL     1      -5.427   1.113  -1.484  1.00  0.00     0.011 C 
ENDBRANCH   5  19
TORSDOF 5
