REMARK  11 active torsions:
REMARK  status: ('A' for Active; 'I' for Inactive)
REMARK    1  A    between atoms: C2_3  and  N2_4 
REMARK    2  A    between atoms: C2_3  and  C3_8 
REMARK    3  A    between atoms: C3_8  and  O1_9 
REMARK    4  A    between atoms: C3_8  and  C4_11 
REMARK    5  A    between atoms: C4_11  and  O2_12 
REMARK    6  A    between atoms: C4_11  and  C5_14 
REMARK    7  A    between atoms: C5_14  and  O3_15 
REMARK    8  A    between atoms: C5_14  and  C6_17 
REMARK    9  A    between atoms: C8_21  and  C9_22 
REMARK   10  A    between atoms: C10_25  and  N4_26 
REMARK   11  A    between atoms: C13_31  and  N6_32 
ROOT
HETATM    1  N1  UNL     1      -7.187  -0.222  -2.507  1.00  0.00    -0.195 NA
HETATM    2  C1  UNL     1      -6.139  -0.017  -2.067  1.00  0.00     0.095 C 
HETATM    3  C2  UNL     1      -4.786   0.231  -1.520  1.00  0.00     0.320 C 
ENDROOT
BRANCH   3   4
HETATM    4  N2  UNL     1      -3.913   0.412  -2.624  1.00  0.00    -0.060 N 
ATOM      5  H23 UNL     1      -3.940  -0.364  -3.286  1.00  0.00     0.276 HD
ATOM      6  H22 UNL     1      -4.225   1.142  -3.264  1.00  0.00     0.276 HD
ATOM      7  H21 UNL     1      -2.981   0.583  -2.247  1.00  0.00     0.276 HD
ENDBRANCH   3   4
BRANCH   3   8
HETATM    8  C3  UNL     1      -4.486  -0.884  -0.588  1.00  0.00     0.193 C 
BRANCH   8   9
HETATM    9  O1  UNL     1      -4.475  -2.131  -1.205  1.00  0.00    -0.390 OA
ATOM     10  H1  UNL     1      -4.283  -2.845  -0.608  1.00  0.00     0.210 HD
ENDBRANCH   8   9
BRANCH   8  11
HETATM   11  C4  UNL     1      -3.326  -0.698   0.340  1.00  0.00     0.181 C 
BRANCH  11  12
HETATM   12  O2  UNL     1      -3.473  -1.720   1.312  1.00  0.00    -0.390 OA
ATOM     13  H2  UNL     1      -2.737  -1.602   1.901  1.00  0.00     0.210 HD
ENDBRANCH  11  12
BRANCH  11  14
HETATM   14  C5  UNL     1      -1.980  -0.748  -0.275  1.00  0.00     0.180 C 
BRANCH  14  15
HETATM   15  O3  UNL     1      -1.624  -1.907  -0.905  1.00  0.00    -0.390 OA
ATOM     16  H3  UNL     1      -0.760  -1.939  -1.300  1.00  0.00     0.210 HD
ENDBRANCH  14  15
BRANCH  14  17
HETATM   17  C6  UNL     1      -0.921  -0.314   0.696  1.00  0.00     0.179 C 
HETATM   18  C7  UNL     1      -0.549  -1.308   1.748  1.00  0.00     0.155 C 
HETATM   19  N3  UNL     1       0.325  -0.601   2.674  1.00  0.00    -0.378 N 
HETATM   20  C8  UNL     1       1.409   0.167   2.104  1.00  0.00     0.158 C 
ATOM     21  H3  UNL     1       0.178  -0.646   3.682  1.00  0.00     0.160 HD
HETATM   22  C10 UNL     1       1.366   0.414   0.812  1.00  0.00     0.186 C 
HETATM   23  O6  UNL     1       0.309  -0.047  -0.005  1.00  0.00    -0.324 OA
BRANCH  20  24
HETATM   24  C9  UNL     1       2.481   0.624   2.968  1.00  0.00     0.231 C 
HETATM   25  O4  UNL     1       3.476   1.283   2.661  1.00  0.00    -0.643 OA
HETATM   26  O5  UNL     1       2.384   0.274   4.340  1.00  0.00    -0.643 OA
ENDBRANCH  20  24
BRANCH  22  27
HETATM   27  N4  UNL     1       2.422   1.171   0.218  1.00  0.00    -0.270 N 
HETATM   28  C11 UNL     1       2.529   2.511   0.046  1.00  0.00     0.193 A 
HETATM   29  N5  UNL     1       3.673   2.820  -0.579  1.00  0.00    -0.346 N 
HETATM   30  C12 UNL     1       4.348   1.686  -0.833  1.00  0.00     0.122 A 
ATOM     31  H5  UNL     1       3.981   3.761  -0.822  1.00  0.00     0.167 HD
HETATM   32  C13 UNL     1       5.554   1.385  -1.437  1.00  0.00     0.131 A 
HETATM   33  C15 UNL     1       3.561   0.669  -0.333  1.00  0.00     0.146 A 
HETATM   34  N7  UNL     1       5.995   0.120  -1.557  1.00  0.00    -0.337 N 
HETATM   35  C14 UNL     1       5.219  -0.863  -1.066  1.00  0.00     0.183 A 
ATOM     36  H7  UNL     1       6.888  -0.087  -2.005  1.00  0.00     0.168 HD
HETATM   37  N8  UNL     1       4.042  -0.587  -0.475  1.00  0.00    -0.336 N 
ATOM     38  H8  UNL     1       3.485  -1.363  -0.117  1.00  0.00     0.168 HD
BRANCH  32  39
HETATM   39  N6  UNL     1       6.297   2.328  -1.907  1.00  0.00    -0.383 N 
ATOM     40  H62 UNL     1       5.963   3.287  -1.816  1.00  0.00     0.157 HD
ATOM     41  H61 UNL     1       7.187   2.106  -2.353  1.00  0.00     0.157 HD
ENDBRANCH  32  39
ENDBRANCH  22  27
ENDBRANCH  14  17
ENDBRANCH  11  14
ENDBRANCH   8  11
ENDBRANCH   3   8
TORSDOF 11
