REMARK  12 active torsions:
REMARK  status: ('A' for Active; 'I' for Inactive)
REMARK       I    between atoms: C1_4  and  N3_6 
REMARK    1  A    between atoms: N3_6  and  C2_8 
REMARK    2  A    between atoms: C2_8  and  C3_9 
REMARK    3  A    between atoms: C3_9  and  C4_10 
REMARK    4  A    between atoms: C4_10  and  N4_11 
REMARK    5  A    between atoms: N4_11  and  C5_13 
REMARK    6  A    between atoms: C5_13  and  C6_14 
REMARK    7  A    between atoms: C6_14  and  C7_15 
REMARK    8  A    between atoms: C7_15  and  C8_16 
REMARK    9  A    between atoms: C8_16  and  C9_17 
REMARK   10  A    between atoms: C9_17  and  N5_18 
REMARK   11  A    between atoms: N5_18  and  C10_20 
REMARK   12  A    between atoms: C11_23  and  N7_24 
ROOT
HETATM    1  N5  UNL     1      -3.237   0.675  -0.305  1.00  0.00    -0.223 N 
ATOM      2  H5  UNL     1      -2.771  -0.104   0.160  1.00  0.00     0.177 HD
ENDROOT
BRANCH   1   3
HETATM    3  C9  UNL     1      -2.431   1.660  -0.947  1.00  0.00     0.138 C 
BRANCH   3   4
HETATM    4  C8  UNL     1      -1.287   0.924  -1.644  1.00  0.00     0.020 C 
BRANCH   4   5
HETATM    5  C7  UNL     1      -0.519   0.198  -0.533  1.00  0.00     0.003 C 
BRANCH   5   6
HETATM    6  C6  UNL     1       0.639  -0.573  -1.168  1.00  0.00     0.019 C 
BRANCH   6   7
HETATM    7  C5  UNL     1       1.411  -1.283  -0.096  1.00  0.00     0.113 C 
BRANCH   7   8
HETATM    8  N4  UNL     1       1.948  -0.361   0.829  1.00  0.00    -0.421 N 
ATOM      9  H4  UNL     1       1.621  -0.316   1.794  1.00  0.00     0.153 HD
BRANCH   8  10
HETATM   10  C4  UNL     1       2.971   0.504   0.343  1.00  0.00     0.115 C 
BRANCH  10  11
HETATM   11  C3  UNL     1       4.260  -0.105  -0.020  1.00  0.00     0.039 C 
BRANCH  11  12
HETATM   12  C2  UNL     1       4.888  -0.797   1.164  1.00  0.00     0.123 C 
BRANCH  12  13
HETATM   13  N3  UNL     1       6.153  -1.411   0.828  1.00  0.00    -0.365 N 
HETATM   14  C1  UNL     1       7.331  -0.708   0.497  1.00  0.00     0.181 C 
HETATM   15  N1  UNL     1       8.369  -0.687   1.262  1.00  0.00    -0.374 N 
HETATM   16  N2  UNL     1       7.386   0.002  -0.726  1.00  0.00    -0.064 NA
ATOM     17  H12 UNL     1       9.220  -0.179   1.023  1.00  0.00     0.158 HD
ATOM     18  H11 UNL     1       8.329  -1.199   2.143  1.00  0.00     0.158 HD
ATOM     19  H3  UNL     1       6.197  -2.430   0.830  1.00  0.00     0.162 HD
ENDBRANCH  12  13
ENDBRANCH  11  12
ENDBRANCH  10  11
ENDBRANCH   8  10
ENDBRANCH   7   8
ENDBRANCH   6   7
ENDBRANCH   5   6
ENDBRANCH   4   5
ENDBRANCH   3   4
ENDBRANCH   1   3
BRANCH   1  20
HETATM   20  C10 UNL     1      -4.510   0.718  -0.283  1.00  0.00     0.729 A 
HETATM   21  N6  UNL     1      -5.286   1.658  -0.835  1.00  0.00    -0.020 N 
HETATM   22  C11 UNL     1      -6.635   1.642  -0.787  1.00  0.00     0.705 A 
ATOM     23  H6  UNL     1      -4.832   2.432  -1.320  1.00  0.00     0.203 HD
HETATM   24  N8  UNL     1      -7.236   0.631  -0.153  1.00  0.00    -0.019 N 
HETATM   25  C12 UNL     1      -6.506  -0.362   0.433  1.00  0.00     0.737 A 
ATOM     26  H8  UNL     1      -8.254   0.601  -0.106  1.00  0.00     0.203 HD
HETATM   27  N9  UNL     1      -6.894  -1.456   1.112  1.00  0.00    -0.137 N 
HETATM   28  N11 UNL     1      -5.174  -0.298   0.356  1.00  0.00     0.095 N 
HETATM   29  C13 UNL     1      -5.757  -2.081   1.464  1.00  0.00     0.354 A 
ATOM     30  H9  UNL     1      -7.849  -1.750   1.317  1.00  0.00     0.189 HD
HETATM   31  O1  UNL     1      -5.727  -3.140   2.113  1.00  0.00    -0.245 OA
HETATM   32  N10 UNL     1      -4.696  -1.361   0.993  1.00  0.00    -0.215 N 
ATOM     33  H10 UNL     1      -3.711  -1.598   1.110  1.00  0.00     0.193 HD
BRANCH  22  34
HETATM   34  N7  UNL     1      -7.344   2.556  -1.328  1.00  0.00    -0.234 N 
ATOM     35  H72 UNL     1      -6.885   3.328  -1.812  1.00  0.00     0.174 HD
ATOM     36  H71 UNL     1      -8.363   2.544  -1.292  1.00  0.00     0.174 HD
ENDBRANCH  22  34
ENDBRANCH   1  20
TORSDOF 12
