REMARK  13 active torsions:
REMARK  status: ('A' for Active; 'I' for Inactive)
REMARK    1  A    between atoms: N1_1  and  C1_4 
REMARK    2  A    between atoms: N3_10  and  C5_12 
REMARK    3  A    between atoms: C5_12  and  C6_13 
REMARK    4  A    between atoms: C6_13  and  O1_14 
REMARK    5  A    between atoms: O1_14  and  C7_15 
REMARK    6  A    between atoms: C7_15  and  C8_16 
REMARK    7  A    between atoms: C8_16  and  N4_17 
REMARK    8  A    between atoms: N4_17  and  C9_20 
REMARK    9  A    between atoms: C9_20  and  C10_21 
REMARK   10  A    between atoms: C10_21  and  C11_22 
REMARK   11  A    between atoms: C11_22  and  N5_23 
REMARK   12  A    between atoms: N5_23  and  C12_25 
REMARK   13  A    between atoms: C14_34  and  N9_35 
ROOT
HETATM    1  N4  UNL     1      -0.051  -0.949   0.611  1.00  0.00    -0.073 N 
ATOM      2  H41 UNL     1      -0.054  -0.960   1.631  1.00  0.00     0.277 HD
ATOM      3  H42 UNL     1       0.191  -1.927   0.454  1.00  0.00     0.277 HD
ENDROOT
BRANCH   1   4
HETATM    4  C8  UNL     1       0.963  -0.035   0.071  1.00  0.00     0.258 C 
BRANCH   4   5
HETATM    5  C7  UNL     1       0.926   1.384   0.390  1.00  0.00     0.195 C 
BRANCH   5   6
HETATM    6  O1  UNL     1       1.929   2.102  -0.197  1.00  0.00    -0.385 OA
BRANCH   6   7
HETATM    7  C6  UNL     1       3.226   1.887  -0.214  1.00  0.00     0.212 C 
BRANCH   7   8
HETATM    8  C5  UNL     1       3.722   0.810  -1.168  1.00  0.00     0.088 C 
BRANCH   8   9
HETATM    9  N3  UNL     1       5.112   0.603  -1.149  1.00  0.00    -0.353 N 
HETATM   10  C4  UNL     1       5.804  -0.024  -0.273  1.00  0.00     0.121 A 
HETATM   11  C3  UNL     1       5.264  -0.597   0.812  1.00  0.00     0.066 A 
HETATM   12  N11 UNL     1       7.158  -0.168  -0.477  1.00  0.00    -0.177 N 
HETATM   13  C2  UNL     1       6.060  -1.321   1.717  1.00  0.00     0.110 A 
HETATM   14  N2  UNL     1       7.407  -1.462   1.518  1.00  0.00    -0.202 N 
HETATM   15  C1  UNL     1       7.884  -0.869   0.408  1.00  0.00     0.677 A 
ATOM     16  H2  UNL     1       8.005  -1.978   2.163  1.00  0.00     0.183 HD
ATOM     17  H11 UNL     1       7.604   0.253  -1.292  1.00  0.00     0.185 HD
ATOM     18  H3  UNL     1       5.634   1.001  -1.929  1.00  0.00     0.166 HD
BRANCH  15  19
HETATM   19  N1  UNL     1       9.158  -1.030   0.183  1.00  0.00    -0.234 N 
ATOM     20  H12 UNL     1       9.710  -1.563   0.856  1.00  0.00     0.174 HD
ATOM     21  H11 UNL     1       9.520  -0.581  -0.658  1.00  0.00     0.174 HD
ENDBRANCH  15  19
ENDBRANCH   8   9
ENDBRANCH   7   8
ENDBRANCH   6   7
ENDBRANCH   5   6
ENDBRANCH   4   5
ENDBRANCH   1   4
BRANCH   1  22
HETATM   22  C9  UNL     1      -1.382  -0.605   0.051  1.00  0.00     0.234 C 
BRANCH  22  23
HETATM   23  C10 UNL     1      -2.024   0.415   0.910  1.00  0.00     0.048 C 
BRANCH  23  24
HETATM   24  C11 UNL     1      -3.240   0.997   0.223  1.00  0.00     0.139 C 
BRANCH  24  25
HETATM   25  N5  UNL     1      -4.149  -0.045  -0.090  1.00  0.00    -0.225 N 
ATOM     26  H5  UNL     1      -3.871  -1.026  -0.078  1.00  0.00     0.177 HD
BRANCH  25  27
HETATM   27  C12 UNL     1      -5.301   0.306  -0.379  1.00  0.00     0.707 A 
HETATM   28  N6  UNL     1      -6.426   0.636  -0.662  1.00  0.00    -0.022 N 
HETATM   29  C13 UNL     1      -7.732   0.359  -0.560  1.00  0.00     0.705 A 
ATOM     30  H6  UNL     1      -6.350   1.490  -1.214  1.00  0.00     0.203 HD
HETATM   31  N7  UNL     1      -8.635   1.064  -1.130  1.00  0.00    -0.234 N 
HETATM   32  N8  UNL     1      -8.036  -0.766   0.155  1.00  0.00    -0.022 N 
ATOM     33  H72 UNL     1      -8.408   1.903  -1.663  1.00  0.00     0.174 HD
ATOM     34  H71 UNL     1      -9.630   0.853  -1.052  1.00  0.00     0.174 HD
HETATM   35  C14 UNL     1      -6.957  -1.410   0.633  1.00  0.00     0.705 A 
ATOM     36  H8  UNL     1      -8.992  -1.087   0.311  1.00  0.00     0.203 HD
HETATM   37  N10 UNL     1      -5.760  -1.041   0.456  1.00  0.00    -0.022 N 
ATOM     38  H10 UNL     1      -5.023  -1.620   0.860  1.00  0.00     0.203 HD
BRANCH  35  39
HETATM   39  N9  UNL     1      -7.228  -2.523   1.333  1.00  0.00    -0.234 N 
ATOM     40  H92 UNL     1      -8.193  -2.821   1.476  1.00  0.00     0.174 HD
ATOM     41  H91 UNL     1      -6.409  -3.012   1.696  1.00  0.00     0.174 HD
ENDBRANCH  35  39
ENDBRANCH  25  27
ENDBRANCH  24  25
ENDBRANCH  23  24
ENDBRANCH  22  23
ENDBRANCH   1  22
TORSDOF 13
