REMARK  2 active torsions:
REMARK  status: ('A' for Active; 'I' for Inactive)
REMARK       I    between atoms: C1_2  and  N2_4 
REMARK    1  A    between atoms: N2_4  and  N3_5 
REMARK    2  A    between atoms: N2_4  and  N4_8 
ROOT
HETATM    1  N1  UNL     1       1.694   1.264  -0.038  1.00  0.00    -0.037 NA
HETATM    2  C1  UNL     1       1.811  -0.133   0.141  1.00  0.00     0.368 C 
HETATM    3  O1  UNL     1       2.834  -0.618   0.677  1.00  0.00    -0.247 OA
HETATM    4  N2  UNL     1       0.746  -0.947  -0.301  1.00  0.00    -0.149 N 
ENDROOT
BRANCH   4   5
HETATM    5  N3  UNL     1       0.887  -2.308  -0.113  1.00  0.00    -0.320 N 
ATOM      6  H32 UNL     1       1.703  -2.742   0.319  1.00  0.00     0.179 HD
ATOM      7  H31 UNL     1       0.117  -2.896  -0.432  1.00  0.00     0.179 HD
ENDBRANCH   4   5
BRANCH   4   8
HETATM    8  N4  UNL     1      -0.371  -0.353  -0.892  1.00  0.00    -0.251 N 
HETATM    9  C2  UNL     1      -1.253   0.322  -0.268  1.00  0.00     0.217 C 
HETATM   10  N5  UNL     1      -1.142   0.517   1.129  1.00  0.00    -0.065 NA
HETATM   11  N6  UNL     1      -2.333   0.868  -0.988  1.00  0.00    -0.065 NA
ATOM     12  H4  UNL     1      -0.490  -0.468  -1.899  1.00  0.00     0.191 HD
ENDBRANCH   4   8
TORSDOF 2
