REMARK  5 active torsions:
REMARK  status: ('A' for Active; 'I' for Inactive)
REMARK    1  A    between atoms: C2_2  and  O1_4 
REMARK    2  A    between atoms: O1_4  and  C4_5 
REMARK    3  A    between atoms: C4_5  and  N1_7 
REMARK    4  A    between atoms: N1_7  and  N2_9 
REMARK    5  A    between atoms: C5_11  and  C7_13 
ROOT
HETATM    1  N1  UNL     1       0.419  -0.263  -0.330  1.00  0.00    -0.270 N 
ATOM      2  H1  UNL     1       0.813  -0.370  -1.265  1.00  0.00     0.190 HD
ENDROOT
BRANCH   1   3
HETATM    3  C4  UNL     1       1.201   0.385   0.654  1.00  0.00     0.234 C 
HETATM    4  S1  UNL     1       0.556   0.548   2.142  1.00  0.00    -0.031 SA
BRANCH   3   5
HETATM    5  O1  UNL     1       2.463   0.882   0.430  1.00  0.00    -0.289 OA
BRANCH   5   6
HETATM    6  C2  UNL     1       3.569   0.029   0.371  1.00  0.00     0.043 C 
HETATM    7  C1  UNL     1       3.570  -1.108   1.041  1.00  0.00     0.046 C 
HETATM    8  C3  UNL     1       4.721   0.444  -0.458  1.00  0.00     0.076 C 
ENDBRANCH   5   6
ENDBRANCH   3   5
ENDBRANCH   1   3
BRANCH   1   9
HETATM    9  N2  UNL     1      -0.856  -0.762  -0.094  1.00  0.00    -0.306 N 
HETATM   10  C5  UNL     1      -1.863  -0.070  -0.454  1.00  0.00     0.004 C 
HETATM   11  C6  UNL     1      -1.615   1.232  -1.106  1.00  0.00     0.065 C 
ATOM     12  H2  UNL     1      -0.983  -1.667   0.360  1.00  0.00     0.186 HD
BRANCH  10  13
HETATM   13  C7  UNL     1      -3.226  -0.603  -0.201  1.00  0.00     0.032 A 
HETATM   14  C8  UNL     1      -4.179   0.149   0.649  1.00  0.00     0.011 A 
HETATM   15  C9  UNL     1      -3.545  -1.053   1.242  1.00  0.00     0.011 A 
ENDBRANCH  10  13
ENDBRANCH   1   9
TORSDOF 5
