REMARK  2 active torsions:
REMARK  status: ('A' for Active; 'I' for Inactive)
REMARK       I    between atoms: C1_2  and  N1_3 
REMARK    1  A    between atoms: C1_2  and  C7_10 
REMARK    2  A    between atoms: N1_3  and  C2_5 
ROOT
HETATM    1  O1  UNL     1       1.146  -2.388   0.143  1.00  0.00    -0.272 OA
HETATM    2  C1  UNL     1       1.491  -1.237  -0.232  1.00  0.00     0.236 C 
HETATM    3  N1  UNL     1       0.588  -0.143  -0.243  1.00  0.00    -0.355 N 
ATOM      4  H1  UNL     1       0.930   0.765  -0.559  1.00  0.00     0.162 HD
ENDROOT
BRANCH   3   5
HETATM    5  C2  UNL     1      -0.774  -0.249   0.165  1.00  0.00     0.084 C 
HETATM    6  C3  UNL     1      -1.204   0.739   1.194  1.00  0.00     0.025 C 
HETATM    7  C4  UNL     1      -2.615   1.169   0.854  1.00  0.00     0.002 C 
HETATM    8  C5  UNL     1      -3.044   0.130  -0.159  1.00  0.00     0.002 C 
HETATM    9  C6  UNL     1      -1.746   0.025  -0.974  1.00  0.00     0.025 C 
ENDBRANCH   3   5
BRANCH   2  10
HETATM   10  C7  UNL     1       2.908  -1.104  -0.661  1.00  0.00     0.192 C 
HETATM   11  C8  UNL     1       3.605  -0.094   0.224  1.00  0.00     0.212 C 
HETATM   12  O2  UNL     1       3.395   0.860  -0.744  1.00  0.00    -0.318 OA
HETATM   13  S1  UNL     1       3.150  -0.096  -2.140  1.00  0.00     0.004 SA
ENDBRANCH   2  10
TORSDOF 2
