REMARK  4 active torsions:
REMARK  status: ('A' for Active; 'I' for Inactive)
REMARK    1  A    between atoms: C1_4  and  N2_5 
REMARK    2  A    between atoms: N2_5  and  N3_7 
REMARK    3  A    between atoms: C2_8  and  O1_9 
REMARK    4  A    between atoms: C5_13  and  O2_14 
ROOT
HETATM    1  N3  UNL     1       1.898  -0.037   1.083  1.00  0.00    -0.188 NA
HETATM    2  C2  UNL     1       2.308  -1.365   0.786  1.00  0.00     0.213 C 
HETATM    3  C3  UNL     1       1.272  -2.003  -0.089  1.00  0.00     0.058 C 
HETATM    4  C4  UNL     1       0.452  -0.857  -0.612  1.00  0.00     0.049 C 
HETATM    5  C5  UNL     1      -1.011  -1.158  -0.698  1.00  0.00     0.147 C 
HETATM    6  C6  UNL     1      -1.776   0.143  -0.725  1.00  0.00     0.116 C 
HETATM    7  C7  UNL     1      -3.264  -0.051  -0.898  1.00  0.00     0.029 C 
HETATM    8  C8  UNL     1      -3.815   1.126  -0.092  1.00  0.00     0.022 C 
HETATM    9  C9  UNL     1      -2.933   1.153   1.106  1.00  0.00     0.126 C 
HETATM   10  N4  UNL     1      -1.669   0.684   0.638  1.00  0.00    -0.344 N 
HETATM   11  C10 UNL     1      -0.369   0.636   1.209  1.00  0.00     0.240 C 
HETATM   12  O3  UNL     1      -0.182   0.877   2.427  1.00  0.00    -0.271 OA
HETATM   13  C11 UNL     1       0.745   0.287   0.290  1.00  0.00     0.181 C 
ENDROOT
BRANCH   1  14
HETATM   14  N2  UNL     1       2.894   0.911   1.063  1.00  0.00    -0.312 N 
ATOM     15  H2  UNL     1       3.304   1.164   1.962  1.00  0.00     0.181 HD
BRANCH  14  16
HETATM   16  C1  UNL     1       3.403   1.565  -0.066  1.00  0.00     0.185 C 
HETATM   17  N1  UNL     1       3.861   2.779  -0.002  1.00  0.00    -0.395 N 
ATOM     18  H12 UNL     1       3.842   3.254   0.901  1.00  0.00     0.156 HD
ATOM     19  H11 UNL     1       4.232   3.255  -0.824  1.00  0.00     0.156 HD
ENDBRANCH  14  16
ENDBRANCH   1  14
BRANCH   2  20
HETATM   20  O1  UNL     1       3.594  -1.465   0.267  1.00  0.00    -0.380 OA
ATOM     21  H1  UNL     1       3.868  -2.353   0.068  1.00  0.00     0.211 HD
ENDBRANCH   2  20
BRANCH   5  22
HETATM   22  O2  UNL     1      -1.336  -1.986  -1.757  1.00  0.00    -0.393 OA
ATOM     23  H2  UNL     1      -2.265  -2.177  -1.812  1.00  0.00     0.210 HD
ENDBRANCH   5  22
TORSDOF 4
