REMARK  7 active torsions:
REMARK  status: ('A' for Active; 'I' for Inactive)
REMARK    1  A    between atoms: C1_2  and  N1_3 
REMARK    2  A    between atoms: C4_7  and  O3_8 
REMARK    3  A    between atoms: C5_10  and  O4_11 
REMARK    4  A    between atoms: C6_13  and  C7_14 
REMARK    5  A    between atoms: C7_14  and  S1_15 
REMARK    6  A    between atoms: S1_15  and  C8_17 
REMARK    7  A    between atoms: C8_17  and  C9_18 
ROOT
HETATM    1  C7  UNL     1      -1.702  -1.207   0.981  1.00  0.00     0.137 C 
ENDROOT
BRANCH   1   2
HETATM    2  C6  UNL     1      -2.605   0.006   0.897  1.00  0.00     0.140 C 
HETATM    3  N1  UNL     1      -2.913   0.351  -0.497  1.00  0.00    -0.307 N 
HETATM    4  C2  UNL     1      -3.667  -0.220  -1.564  1.00  0.00     0.237 C 
HETATM    5  O2  UNL     1      -5.029  -0.133  -1.631  1.00  0.00    -0.315 OA
HETATM    6  C3  UNL     1      -5.739  -0.623  -0.491  1.00  0.00     0.177 C 
HETATM    7  C4  UNL     1      -4.948  -0.444   0.665  1.00  0.00     0.096 C 
HETATM    8  C5  UNL     1      -3.947  -0.351   1.648  1.00  0.00     0.200 C 
BRANCH   3   9
HETATM    9  C1  UNL     1      -2.282   1.584  -0.816  1.00  0.00     0.357 C 
HETATM   10  O1  UNL     1      -1.583   2.271  -0.039  1.00  0.00    -0.283 OA
ENDBRANCH   3   9
BRANCH   7  11
HETATM   11  O3  UNL     1      -4.949   0.952   0.476  1.00  0.00    -0.360 OA
ATOM     12  H3  UNL     1      -4.417   1.072   1.254  1.00  0.00     0.217 HD
ENDBRANCH   7  11
BRANCH   8  13
HETATM   13  O4  UNL     1      -3.682  -1.522   2.429  1.00  0.00    -0.387 OA
ATOM     14  H4  UNL     1      -3.006  -1.459   3.093  1.00  0.00     0.210 HD
ENDBRANCH   8  13
ENDBRANCH   1   2
BRANCH   1  15
HETATM   15  S1  UNL     1      -0.165  -0.985   0.196  1.00  0.00     0.017 S 
HETATM   16  O5  UNL     1      -0.255  -0.641  -1.412  1.00  0.00    -0.258 OA
BRANCH  15  17
HETATM   17  C8  UNL     1       0.950  -0.055   1.120  1.00  0.00     0.118 C 
BRANCH  17  18
HETATM   18  C9  UNL     1       2.303   0.190   0.524  1.00  0.00    -0.025 C 
HETATM   19  C10 UNL     1       2.988  -1.138   0.274  1.00  0.00     0.015 C 
HETATM   20  C11 UNL     1       4.438  -0.924  -0.086  1.00  0.00    -0.009 C 
HETATM   21  C12 UNL     1       4.506  -0.076  -1.332  1.00  0.00     0.036 C 
HETATM   22  C16 UNL     1       5.150  -0.158   1.011  1.00  0.00     0.036 C 
HETATM   23  C13 UNL     1       3.800   1.247  -1.067  1.00  0.00     0.123 C 
HETATM   24  C14 UNL     1       2.324   0.987  -0.728  1.00  0.00     0.042 C 
HETATM   25  O6  UNL     1       4.473   1.898  -0.066  1.00  0.00    -0.381 OA
HETATM   26  C15 UNL     1       4.511   1.190   1.127  1.00  0.00     0.123 C 
HETATM   27  C17 UNL     1       3.086   0.999   1.571  1.00  0.00     0.042 C 
ENDBRANCH  17  18
ENDBRANCH  15  17
ENDBRANCH   1  15
TORSDOF 7
