REMARK  6 active torsions:
REMARK  status: ('A' for Active; 'I' for Inactive)
REMARK    1  A    between atoms: O1_2  and  C2_3 
REMARK    2  A    between atoms: C4_5  and  C5_6 
REMARK    3  A    between atoms: N2_13  and  C8_14 
REMARK    4  A    between atoms: C11_18  and  O2_19 
REMARK    5  A    between atoms: C16_28  and  O4_29 
REMARK    6  A    between atoms: C18_31  and  O5_32 
ROOT
HETATM    1  C5  UNL     1      -0.716  -1.656   1.607  1.00  0.00     0.036 C 
HETATM    2  C6  UNL     1       0.572  -1.551   1.423  1.00  0.00     0.077 C 
HETATM    3  S1  UNL     1       1.716  -2.744   2.191  1.00  0.00    -0.048 SA
HETATM    4  C7  UNL     1       3.078  -2.338   1.110  1.00  0.00     0.153 C 
HETATM    5  N1  UNL     1       4.118  -3.087   0.965  1.00  0.00    -0.379 N 
ATOM      6  H11 UNL     1       4.896  -2.855   0.348  1.00  0.00     0.158 HD
ATOM      7  H12 UNL     1       4.356  -3.979   1.398  1.00  0.00     0.158 HD
HETATM    8  N2  UNL     1       2.752  -1.115   0.516  1.00  0.00    -0.256 N 
HETATM    9  C14 UNL     1       1.424  -0.689   0.676  1.00  0.00     0.271 C 
HETATM   10  O3  UNL     1       1.012   0.415   0.172  1.00  0.00    -0.266 OA
ENDROOT
BRANCH   1  11
HETATM   11  C4  UNL     1      -1.770  -0.795   1.078  1.00  0.00    -0.029 A 
HETATM   12  C3  UNL     1      -1.842   0.566   1.251  1.00  0.00     0.051 A 
HETATM   13  C2  UNL     1      -2.862   1.313   0.686  1.00  0.00     0.105 A 
HETATM   14  C18 UNL     1      -3.837   0.701  -0.069  1.00  0.00     0.135 A 
HETATM   15  C16 UNL     1      -3.810  -0.678  -0.272  1.00  0.00     0.105 A 
HETATM   16  C15 UNL     1      -2.777  -1.369   0.310  1.00  0.00     0.051 A 
BRANCH  13  17
HETATM   17  O1  UNL     1      -2.905   2.668   0.875  1.00  0.00    -0.353 OA
HETATM   18  C1  UNL     1      -1.963   3.399   1.627  1.00  0.00     0.210 C 
ENDBRANCH  13  17
BRANCH  14  19
HETATM   19  O5  UNL     1      -4.881   1.392  -0.658  1.00  0.00    -0.351 OA
HETATM   20  C19 UNL     1      -4.829   1.942  -1.958  1.00  0.00     0.210 C 
ENDBRANCH  14  19
BRANCH  15  21
HETATM   21  O4  UNL     1      -4.798  -1.287  -1.034  1.00  0.00    -0.353 OA
HETATM   22  C17 UNL     1      -4.744  -2.688  -1.224  1.00  0.00     0.210 C 
ENDBRANCH  15  21
ENDBRANCH   1  11
BRANCH   8  23
HETATM   23  C8  UNL     1       3.751  -0.370  -0.210  1.00  0.00     0.067 A 
HETATM   24  C9  UNL     1       3.567  -0.127  -1.570  1.00  0.00     0.076 A 
HETATM   25  C10 UNL     1       4.525   0.587  -2.262  1.00  0.00     0.153 A 
HETATM   26  F1  UNL     1       4.341   0.821  -3.589  1.00  0.00    -0.203 F 
HETATM   27  C11 UNL     1       5.662   1.069  -1.652  1.00  0.00     0.127 A 
HETATM   28  C12 UNL     1       5.818   0.813  -0.303  1.00  0.00     0.089 A 
HETATM   29 CL1  UNL     1       7.279   1.434   0.477  1.00  0.00    -0.080 Cl
HETATM   30  C13 UNL     1       4.873   0.104   0.404  1.00  0.00     0.063 A 
HETATM   31 BR1  UNL     1       5.193  -0.187   2.259  1.00  0.00    -0.047 Br
BRANCH  27  32
HETATM   32  O2  UNL     1       6.587   1.780  -2.408  1.00  0.00    -0.356 OA
ATOM     33  H2  UNL     1       7.371   2.112  -1.987  1.00  0.00     0.218 HD
ENDBRANCH  27  32
ENDBRANCH   8  23
TORSDOF 6
