REMARK  5 active torsions:
REMARK  status: ('A' for Active; 'I' for Inactive)
REMARK    1  A    between atoms: N1_1  and  C1_5 
REMARK    2  A    between atoms: C1_5  and  C2_6 
REMARK    3  A    between atoms: C2_6  and  N2_7 
REMARK    4  A    between atoms: N2_7  and  C3_9 
REMARK    5  A    between atoms: N3_15  and  C9_16 
ROOT
HETATM    1  C3  UNL     1       0.218   0.214  -0.731  1.00  0.00     0.100 C 
HETATM    2  C4  UNL     1      -0.511   1.535  -0.807  1.00  0.00     0.032 C 
HETATM    3  C5  UNL     1      -1.389   1.650   0.404  1.00  0.00    -0.006 C 
HETATM    4  C6  UNL     1      -2.858   1.451   0.160  1.00  0.00     0.012 C 
HETATM    5  C7  UNL     1      -2.739   0.072   0.775  1.00  0.00     0.010 C 
HETATM    6  C8  UNL     1      -2.657  -1.004  -0.284  1.00  0.00     0.130 C 
HETATM    7  N3  UNL     1      -1.330  -1.587  -0.140  1.00  0.00    -0.352 N 
HETATM    8  C10 UNL     1      -0.413  -0.571   0.385  1.00  0.00     0.113 C 
HETATM    9  C11 UNL     1      -1.309   0.356   1.166  1.00  0.00     0.020 C 
ENDROOT
BRANCH   1  10
HETATM   10  N2  UNL     1       1.612   0.488  -0.580  1.00  0.00    -0.413 N 
ATOM     11  H2  UNL     1       2.092   1.190  -1.144  1.00  0.00     0.153 HD
BRANCH  10  12
HETATM   12  C2  UNL     1       2.299  -0.296   0.426  1.00  0.00     0.141 C 
BRANCH  12  13
HETATM   13  C1  UNL     1       3.765   0.163   0.370  1.00  0.00     0.248 C 
BRANCH  13  14
HETATM   14  N1  UNL     1       4.223  -0.079  -0.966  1.00  0.00    -0.078 N 
ATOM     15  H13 UNL     1       4.092  -1.045  -1.267  1.00  0.00     0.274 HD
ATOM     16  H12 UNL     1       3.637   0.358  -1.677  1.00  0.00     0.274 HD
ATOM     17  H11 UNL     1       5.196   0.226  -1.003  1.00  0.00     0.274 HD
ENDBRANCH  13  14
ENDBRANCH  12  13
ENDBRANCH  10  12
ENDBRANCH   1  10
BRANCH   7  18
HETATM   18  C9  UNL     1      -1.020  -2.925  -0.474  1.00  0.00     0.351 C 
HETATM   19  O1  UNL     1      -1.906  -3.673  -0.959  1.00  0.00    -0.284 OA
ENDBRANCH   7  18
TORSDOF 5
