REMARK  5 active torsions:
REMARK  status: ('A' for Active; 'I' for Inactive)
REMARK    1  A    between atoms: N1_1  and  C1_5 
REMARK    2  A    between atoms: N2_9  and  C5_10 
REMARK    3  A    between atoms: C5_10  and  C6_11 
REMARK    4  A    between atoms: C6_11  and  C7_12 
REMARK    5  A    between atoms: C7_12  and  C8_13 
ROOT
HETATM    1  C1  UNL     1       2.518  -0.811  -0.206  1.00  0.00     0.201 C 
HETATM    2  C2  UNL     1       2.771   0.602  -0.644  1.00  0.00     0.039 C 
HETATM    3  C3  UNL     1       2.047   1.618   0.162  1.00  0.00     0.046 C 
HETATM    4  C4  UNL     1       0.602   1.291   0.416  1.00  0.00     0.058 C 
HETATM    5  N2  UNL     1       0.292  -0.073   0.573  1.00  0.00    -0.391 N 
HETATM    6  C9  UNL     1       1.387  -0.973   0.747  1.00  0.00     0.154 C 
ENDROOT
BRANCH   5   7
HETATM    7  C5  UNL     1      -0.789  -0.581  -0.215  1.00  0.00     0.122 C 
BRANCH   7   8
HETATM    8  C6  UNL     1      -2.062   0.051   0.309  1.00  0.00     0.022 C 
BRANCH   8   9
HETATM    9  C7  UNL     1      -3.272  -0.426  -0.461  1.00  0.00     0.033 C 
BRANCH   9  10
HETATM   10  C8  UNL     1      -4.492   0.251   0.130  1.00  0.00     0.222 C 
HETATM   11  F1  UNL     1      -4.315   1.611  -0.004  1.00  0.00    -0.255 F 
ENDBRANCH   9  10
ENDBRANCH   8   9
ENDBRANCH   7   8
ENDBRANCH   5   7
BRANCH   1  12
HETATM   12  N1  UNL     1       3.706  -1.395   0.441  1.00  0.00    -0.073 N 
ATOM     13  H13 UNL     1       4.528  -1.332  -0.160  1.00  0.00     0.274 HD
ATOM     14  H12 UNL     1       4.032  -0.817   1.215  1.00  0.00     0.274 HD
ATOM     15  H11 UNL     1       3.534  -2.355   0.739  1.00  0.00     0.274 HD
ENDBRANCH   1  12
TORSDOF 5
