REMARK  14 active torsions:
REMARK  status: ('A' for Active; 'I' for Inactive)
REMARK    1  A    between atoms: C2_2  and  C4_4 
REMARK    2  A    between atoms: C7_7  and  C8_8 
REMARK    3  A    between atoms: C8_8  and  O2_10 
REMARK    4  A    between atoms: O2_10  and  C9_11 
REMARK    5  A    between atoms: C9_11  and  C10_12 
REMARK    6  A    between atoms: C10_12  and  O3_13 
REMARK    7  A    between atoms: O3_13  and  S1_14 
REMARK    8  A    between atoms: C11_18  and  C12_19 
REMARK    9  A    between atoms: C12_19  and  C13_20 
REMARK   10  A    between atoms: C13_20  and  C14_21 
REMARK   11  A    between atoms: C14_21  and  C15_22 
REMARK   12  A    between atoms: C15_22  and  C16_23 
REMARK   13  A    between atoms: C16_23  and  O7_24 
REMARK   14  A    between atoms: C25_34  and  C26_35 
ROOT
HETATM    1  C4  UNL     1       2.084  -0.867  -1.704  1.00  0.00     0.019 C 
HETATM    2  C5  UNL     1       3.377  -0.142  -1.426  1.00  0.00     0.011 C 
HETATM    3  C6  UNL     1       3.009   1.113  -0.610  1.00  0.00     0.025 C 
HETATM    4  C7  UNL     1       1.742   0.697   0.016  1.00  0.00     0.076 C 
HETATM    5  C11 UNL     1       0.814   1.704   0.589  1.00  0.00    -0.064 C 
HETATM    6  C17 UNL     1      -0.333   2.124  -0.299  1.00  0.00     0.045 C 
HETATM    7  C18 UNL     1      -1.062   0.994  -0.960  1.00  0.00    -0.032 C 
HETATM    8  C19 UNL     1      -1.058   1.302  -2.463  1.00  0.00     0.016 C 
HETATM    9  C20 UNL     1      -2.427   0.731  -0.477  1.00  0.00    -0.001 C 
HETATM   10  C21 UNL     1      -3.490   0.716  -1.547  1.00  0.00     0.011 C 
HETATM   11  C22 UNL     1      -4.670   0.048  -0.924  1.00  0.00    -0.002 C 
HETATM   12  C23 UNL     1      -5.063  -1.190  -1.704  1.00  0.00     0.032 C 
HETATM   13  C24 UNL     1      -5.398  -2.151  -0.639  1.00  0.00    -0.023 C 
HETATM   14  C25 UNL     1      -4.894  -1.779   0.533  1.00  0.00    -0.075 C 
HETATM   15  C29 UNL     1      -4.169  -0.523   0.398  1.00  0.00     0.023 C 
HETATM   16  C30 UNL     1      -2.683  -0.581   0.217  1.00  0.00    -0.001 C 
HETATM   17  C31 UNL     1      -2.124  -1.773  -0.436  1.00  0.00     0.006 C 
HETATM   18  C32 UNL     1      -0.963  -1.451  -1.413  1.00  0.00     0.006 C 
HETATM   19  C33 UNL     1      -0.256  -0.319  -0.807  1.00  0.00     0.001 C 
HETATM   20  C34 UNL     1       1.079   0.065  -1.234  1.00  0.00     0.021 C 
ENDROOT
BRANCH   4  21
HETATM   21  C8  UNL     1       2.073  -0.341   1.029  1.00  0.00     0.272 C 
HETATM   22  O1  UNL     1       1.638  -0.163   2.225  1.00  0.00    -0.264 OA
BRANCH  21  23
HETATM   23  O2  UNL     1       2.790  -1.486   0.874  1.00  0.00    -0.318 OA
BRANCH  23  24
HETATM   24  C9  UNL     1       3.091  -2.450   1.832  1.00  0.00     0.206 C 
BRANCH  24  25
HETATM   25  C10 UNL     1       3.920  -3.520   1.116  1.00  0.00     0.220 C 
BRANCH  25  26
HETATM   26  O3  UNL     1       4.263  -4.532   2.025  1.00  0.00    -0.255 OA
BRANCH  26  27
HETATM   27  S1  UNL     1       5.166  -5.722   1.303  1.00  0.00     0.251 S 
HETATM   28  O4  UNL     1       4.846  -5.817  -0.174  1.00  0.00    -0.572 OA
HETATM   29  O5  UNL     1       4.918  -7.081   1.899  1.00  0.00    -0.572 OA
HETATM   30  O6  UNL     1       6.805  -5.387   1.487  1.00  0.00    -0.572 OA
ENDBRANCH  26  27
ENDBRANCH  25  26
ENDBRANCH  24  25
ENDBRANCH  23  24
ENDBRANCH  21  23
ENDBRANCH   4  21
BRANCH   5  31
HETATM   31  C12 UNL     1       1.388   2.800   1.369  1.00  0.00    -0.023 C 
BRANCH  31  32
HETATM   32  C13 UNL     1       2.327   3.775   0.807  1.00  0.00     0.027 C 
BRANCH  32  33
HETATM   33  C14 UNL     1       2.696   4.792   1.902  1.00  0.00     0.006 C 
BRANCH  33  34
HETATM   34  C15 UNL     1       1.499   5.541   2.412  1.00  0.00     0.026 C 
BRANCH  34  35
HETATM   35  C16 UNL     1       0.775   6.303   1.304  1.00  0.00     0.164 C 
BRANCH  35  36
HETATM   36  O7  UNL     1       1.619   7.230   0.708  1.00  0.00    -0.401 OA
ATOM     37  H7  UNL     1       1.169   7.704   0.019  1.00  0.00     0.209 HD
ENDBRANCH  35  36
ENDBRANCH  34  35
ENDBRANCH  33  34
ENDBRANCH  32  33
ENDBRANCH  31  32
ENDBRANCH   5  31
BRANCH   1  38
HETATM   38  C2  UNL     1       2.027  -1.094  -3.196  1.00  0.00    -0.088 C 
HETATM   39  C1  UNL     1       1.818  -2.305  -3.654  1.00  0.00     0.014 C 
HETATM   40  C3  UNL     1       2.201   0.014  -4.167  1.00  0.00     0.043 C 
ENDBRANCH   1  38
BRANCH  14  41
HETATM   41  C26 UNL     1      -5.083  -2.563   1.774  1.00  0.00     0.006 C 
HETATM   42  C27 UNL     1      -3.820  -2.995   2.433  1.00  0.00     0.014 C 
HETATM   43  C28 UNL     1      -5.820  -1.695   2.816  1.00  0.00     0.014 C 
ENDBRANCH  14  41
TORSDOF 14
