REMARK  5 active torsions:
REMARK  status: ('A' for Active; 'I' for Inactive)
REMARK    1  A    between atoms: C2_2  and  C5_5 
REMARK    2  A    between atoms: C5_5  and  N1_6 
REMARK    3  A    between atoms: C6_7  and  C7_8 
REMARK    4  A    between atoms: C7_8  and  C8_9 
REMARK    5  A    between atoms: C8_9  and  N2_10 
REMARK       I    between atoms: N2_10  and  C9_12 
ROOT
HETATM    1  N1  UNL     1      -0.707  -0.061  -0.260  1.00  0.00    -0.366 N 
HETATM    2  C6  UNL     1       0.592  -0.049   0.213  1.00  0.00     0.095 C 
HETATM    3  C10 UNL     1       1.149   1.252   0.735  1.00  0.00     0.128 C 
HETATM    4  C11 UNL     1       0.069   2.013   1.400  1.00  0.00     0.223 C 
HETATM    5  O1  UNL     1       0.224   2.548   2.551  1.00  0.00    -0.273 OA
HETATM    6  N5  UNL     1      -1.146   2.120   0.700  1.00  0.00    -0.331 N 
HETATM    7  C12 UNL     1      -2.077   3.182   0.958  1.00  0.00     0.128 C 
HETATM    8  C13 UNL     1      -2.687   3.632  -0.336  1.00  0.00     0.020 C 
HETATM    9  C14 UNL     1      -1.901   3.261  -1.557  1.00  0.00     0.005 C 
HETATM   10  C15 UNL     1      -1.497   1.833  -1.636  1.00  0.00     0.047 C 
HETATM   11  C16 UNL     1      -1.461   1.136  -0.296  1.00  0.00     0.188 C 
ENDROOT
BRANCH   2  12
HETATM   12  C7  UNL     1       1.653  -0.632  -0.674  1.00  0.00     0.045 C 
BRANCH  12  13
HETATM   13  C8  UNL     1       3.016  -0.545  -0.026  1.00  0.00     0.124 C 
BRANCH  13  14
HETATM   14  N2  UNL     1       4.044  -1.131  -0.870  1.00  0.00    -0.365 N 
HETATM   15  C9  UNL     1       5.365  -1.111  -0.375  1.00  0.00     0.181 C 
HETATM   16  N3  UNL     1       5.629  -1.675   0.738  1.00  0.00    -0.374 N 
HETATM   17  N4  UNL     1       6.370  -0.459  -1.136  1.00  0.00    -0.064 NA
ATOM     18  H32 UNL     1       4.907  -2.144   1.285  1.00  0.00     0.158 HD
ATOM     19  H31 UNL     1       6.584  -1.661   1.096  1.00  0.00     0.158 HD
ATOM     20  H2  UNL     1       3.821  -1.538  -1.778  1.00  0.00     0.162 HD
ENDBRANCH  13  14
ENDBRANCH  12  13
ENDBRANCH   2  12
BRANCH   1  21
HETATM   21  C5  UNL     1      -1.428  -1.197  -0.588  1.00  0.00     0.069 C 
BRANCH  21  22
HETATM   22  C2  UNL     1      -1.872  -2.134   0.489  1.00  0.00    -0.019 C 
HETATM   23  C1  UNL     1      -2.770  -1.473   1.515  1.00  0.00     0.020 C 
HETATM   24  C3  UNL     1      -0.838  -2.913   1.202  1.00  0.00     0.020 C 
HETATM   25  C4  UNL     1      -2.784  -3.162  -0.224  1.00  0.00     0.020 C 
ENDBRANCH  21  22
ENDBRANCH   1  21
TORSDOF 5
