REMARK  5 active torsions:
REMARK  status: ('A' for Active; 'I' for Inactive)
REMARK    1  A    between atoms: C2_2  and  N1_3 
REMARK    2  A    between atoms: C7_10  and  O1_11 
REMARK    3  A    between atoms: C12_19  and  C14_21 
REMARK    4  A    between atoms: C14_21  and  C15_22 
REMARK    5  A    between atoms: C15_22  and  O3_23 
ROOT
HETATM    1  N1  UNL     1      -0.928   2.105  -0.086  1.00  0.00     0.096 N 
HETATM    2  C3  UNL     1       0.424   2.457  -0.344  1.00  0.00     0.332 C 
HETATM    3  C4  UNL     1       1.407   1.373  -0.170  1.00  0.00     0.073 A 
HETATM    4  N2  UNL     1       2.738   1.558   0.092  1.00  0.00    -0.355 N 
ATOM      5  H2  UNL     1       3.199   2.461   0.204  1.00  0.00     0.166 HD
HETATM    6  C5  UNL     1       3.346   0.349   0.179  1.00  0.00     0.048 A 
HETATM    7  C6  UNL     1       4.660  -0.009   0.423  1.00  0.00     0.068 A 
HETATM    8  C7  UNL     1       4.993  -1.344   0.451  1.00  0.00     0.089 A 
HETATM    9  C8  UNL     1       4.033  -2.312   0.240  1.00  0.00     0.068 A 
HETATM   10 CL1  UNL     1       4.467  -4.007   0.275  1.00  0.00    -0.081 Cl
HETATM   11  C9  UNL     1       2.741  -1.982  -0.001  1.00  0.00     0.043 A 
HETATM   12  C10 UNL     1       2.398  -0.637  -0.031  1.00  0.00     0.028 A 
HETATM   13  C11 UNL     1       1.172   0.019  -0.251  1.00  0.00     0.106 A 
HETATM   14  O2  UNL     1       0.020  -0.715  -0.492  1.00  0.00    -0.336 OA
HETATM   15  C12 UNL     1      -1.299  -0.300  -0.143  1.00  0.00     0.092 C 
HETATM   16  C13 UNL     1      -1.394  -0.170   1.360  1.00  0.00     0.048 C 
HETATM   17  C17 UNL     1      -1.476   1.034  -0.846  1.00  0.00     0.310 C 
ENDROOT
BRANCH  15  18
HETATM   18  C14 UNL     1      -2.261  -1.351  -0.659  1.00  0.00     0.066 C 
BRANCH  18  19
HETATM   19  C15 UNL     1      -1.911  -2.663  -0.011  1.00  0.00     0.170 C 
BRANCH  19  20
HETATM   20  O3  UNL     1      -2.721  -3.689  -0.429  1.00  0.00    -0.396 OA
HETATM   21  C16 UNL     1      -4.070  -3.519  -0.177  1.00  0.00     0.201 C 
ENDBRANCH  19  20
ENDBRANCH  18  19
ENDBRANCH  15  18
BRANCH   1  22
HETATM   22  C2  UNL     1      -1.738   3.290  -0.419  1.00  0.00     0.268 C 
HETATM   23  C1  UNL     1      -1.443   4.356   0.583  1.00  0.00     0.037 C 
ENDBRANCH   1  22
BRANCH   8  24
HETATM   24  O1  UNL     1       6.332  -1.686   0.701  1.00  0.00    -0.359 OA
ATOM     25  H1  UNL     1       6.562  -2.608   0.720  1.00  0.00     0.217 HD
ENDBRANCH   8  24
TORSDOF 5
