REMARK  11 active torsions:
REMARK  status: ('A' for Active; 'I' for Inactive)
REMARK    1  A    between atoms: O1_2  and  N1_3 
REMARK       I    between atoms: N1_3  and  C2_5 
REMARK    2  A    between atoms: C2_5  and  C3_7 
REMARK    3  A    between atoms: C4_8  and  C5_9 
REMARK    4  A    between atoms: C5_9  and  O3_10 
REMARK    5  A    between atoms: C5_9  and  O4_12 
REMARK    6  A    between atoms: N2_14  and  C6_15 
REMARK    7  A    between atoms: C7_20  and  N5_21 
REMARK    8  A    between atoms: N7_31  and  C11_32 
REMARK    9  A    between atoms: C11_32  and  C12_33 
REMARK   10  A    between atoms: C12_33  and  O7_34 
REMARK   11  A    between atoms: C12_33  and  O8_36 
ROOT
HETATM    1  C3  UNL     1      -1.590   0.976  -0.429  1.00  0.00     0.091 A 
HETATM    2  C4  UNL     1      -1.636  -0.411  -0.266  1.00  0.00     0.091 A 
HETATM    3  N2  UNL     1      -0.393  -0.907  -0.279  1.00  0.00    -0.283 N 
HETATM    4  C9  UNL     1       0.507   0.070  -0.442  1.00  0.00     0.138 A 
HETATM    5  C10 UNL     1       1.883   0.089  -0.537  1.00  0.00     0.279 A 
HETATM    6  O6  UNL     1       2.485  -1.013  -0.442  1.00  0.00    -0.265 OA
HETATM    7  N7  UNL     1       2.544   1.242  -0.724  1.00  0.00    -0.284 N 
HETATM    8  C13 UNL     1       1.854   2.382  -0.820  1.00  0.00     0.181 A 
HETATM    9  S1  UNL     1       2.630   3.825  -1.061  1.00  0.00    -0.040 SA
HETATM   10  N8  UNL     1       0.506   2.368  -0.727  1.00  0.00    -0.330 N 
ATOM     11  H8  UNL     1       0.010   3.256  -0.805  1.00  0.00     0.168 HD
HETATM   12  C14 UNL     1      -0.220   1.253  -0.538  1.00  0.00     0.085 A 
ENDROOT
BRANCH   3  13
HETATM   13  C6  UNL     1      -0.007  -2.275  -0.141  1.00  0.00     0.198 A 
HETATM   14  N3  UNL     1      -0.029  -3.133  -1.177  1.00  0.00    -0.266 N 
HETATM   15  N4  UNL     1       0.341  -4.390  -1.044  1.00  0.00    -0.131 N 
ATOM     16  H3  UNL     1      -0.341  -2.801  -2.090  1.00  0.00     0.189 HD
HETATM   17  C7  UNL     1       0.746  -4.807   0.165  1.00  0.00     0.693 A 
ATOM     18  H4  UNL     1       0.320  -5.029  -1.839  1.00  0.00     0.205 HD
HETATM   19  N6  UNL     1       0.803  -4.028   1.262  1.00  0.00    -0.152 N 
HETATM   20  C8  UNL     1       0.413  -2.738   1.082  1.00  0.00     0.305 A 
ATOM     21  H6  UNL     1       1.117  -4.381   2.166  1.00  0.00     0.188 HD
HETATM   22  O5  UNL     1       0.443  -1.969   2.063  1.00  0.00    -0.263 OA
BRANCH  17  23
HETATM   23  N5  UNL     1       1.104  -6.062   0.257  1.00  0.00    -0.233 N 
ATOM     24  H52 UNL     1       1.061  -6.652  -0.574  1.00  0.00     0.174 HD
ATOM     25  H51 UNL     1       1.412  -6.379   1.176  1.00  0.00     0.174 HD
ENDBRANCH  17  23
ENDBRANCH   3  13
BRANCH   2  26
HETATM   26  C5  UNL     1      -2.844  -1.243  -0.086  1.00  0.00     0.306 C 
BRANCH  26  27
HETATM   27  O3  UNL     1      -3.723  -0.715   0.837  1.00  0.00    -0.366 OA
ATOM     28  H3  UNL     1      -4.500  -1.250   0.953  1.00  0.00     0.213 HD
ENDBRANCH  26  27
BRANCH  26  29
HETATM   29  O4  UNL     1      -3.546  -1.408  -1.293  1.00  0.00    -0.366 OA
ATOM     30  H4  UNL     1      -4.323  -1.943  -1.177  1.00  0.00     0.213 HD
ENDBRANCH  26  29
ENDBRANCH   2  26
BRANCH   1  31
HETATM   31  C2  UNL     1      -2.705   1.878  -0.533  1.00  0.00     0.279 C 
HETATM   32  N1  UNL     1      -2.680   3.217  -0.147  1.00  0.00    -0.231 N 
ATOM     33  H1  UNL     1      -1.819   3.597   0.246  1.00  0.00     0.197 HD
HETATM   34  O2  UNL     1      -3.804   1.439  -1.006  1.00  0.00    -0.265 OA
BRANCH  32  35
HETATM   35  O1  UNL     1      -3.763   4.043  -0.274  1.00  0.00    -0.282 OA
HETATM   36  C1  UNL     1      -4.922   3.536   0.250  1.00  0.00     0.237 C 
ENDBRANCH  32  35
ENDBRANCH   1  31
BRANCH   7  37
HETATM   37  C11 UNL     1       3.979   1.198  -0.818  1.00  0.00     0.195 C 
BRANCH  37  38
HETATM   38  C12 UNL     1       4.681   1.344   0.506  1.00  0.00     0.272 C 
BRANCH  38  39
HETATM   39  O7  UNL     1       4.287   0.304   1.356  1.00  0.00    -0.370 OA
ATOM     40  H7  UNL     1       4.730   0.396   2.191  1.00  0.00     0.212 HD
ENDBRANCH  38  39
BRANCH  38  41
HETATM   41  O8  UNL     1       4.423   2.545   1.136  1.00  0.00    -0.370 OA
ATOM     42  H8  UNL     1       4.866   2.637   1.971  1.00  0.00     0.212 HD
ENDBRANCH  38  41
ENDBRANCH  37  38
ENDBRANCH   7  37
TORSDOF 11
