REMARK  13 active torsions:
REMARK  status: ('A' for Active; 'I' for Inactive)
REMARK    1  A    between atoms: O1_1  and  C1_3 
REMARK    2  A    between atoms: C1_3  and  C2_4 
REMARK    3  A    between atoms: C2_4  and  N1_5 
REMARK    4  A    between atoms: N1_5  and  C3_7 
REMARK    5  A    between atoms: C7_13  and  C8_14 
REMARK    6  A    between atoms: C8_14  and  C9_15 
REMARK    7  A    between atoms: C9_15  and  N3_16 
REMARK    8  A    between atoms: C11_18  and  O2_19 
REMARK    9  A    between atoms: C12_21  and  O3_22 
REMARK   10  A    between atoms: C13_24  and  O4_25 
REMARK   11  A    between atoms: C14_27  and  C15_28 
REMARK   12  A    between atoms: C15_28  and  C16_29 
REMARK   13  A    between atoms: C16_29  and  O5_30 
ROOT
HETATM    1  N3  UNL     1      -1.431  -0.122   0.295  1.00  0.00    -0.403 N 
HETATM    2  C10 UNL     1      -1.338   0.045   1.690  1.00  0.00     0.151 C 
HETATM    3  C11 UNL     1      -1.687   1.480   2.109  1.00  0.00     0.167 C 
HETATM    4  C12 UNL     1      -3.087   1.723   1.654  1.00  0.00     0.179 C 
HETATM    5  C13 UNL     1      -3.115   1.666   0.143  1.00  0.00     0.172 C 
HETATM    6  C14 UNL     1      -2.557   0.373  -0.389  1.00  0.00     0.112 C 
ENDROOT
BRANCH   1   7
HETATM    7  C9  UNL     1      -0.228  -0.131  -0.459  1.00  0.00     0.122 C 
BRANCH   7   8
HETATM    8  C8  UNL     1       0.626  -1.351  -0.204  1.00  0.00     0.062 C 
BRANCH   8   9
HETATM    9  C7  UNL     1       1.879  -1.306  -1.019  1.00  0.00    -0.013 A 
HETATM   10  C3  UNL     1       2.926  -0.471  -0.608  1.00  0.00     0.107 A 
HETATM   11  N2  UNL     1       4.045  -0.418  -1.336  1.00  0.00    -0.352 N 
HETATM   12  C4  UNL     1       4.141  -1.170  -2.456  1.00  0.00     0.089 A 
ATOM     13  H2  UNL     1       4.818   0.183  -1.050  1.00  0.00     0.166 HD
HETATM   14  C5  UNL     1       3.132  -2.003  -2.893  1.00  0.00     0.018 A 
HETATM   15  C6  UNL     1       1.971  -2.073  -2.156  1.00  0.00     0.012 A 
BRANCH  10  16
HETATM   16  N1  UNL     1       2.728   0.192   0.466  1.00  0.00    -0.374 N 
ATOM     17  H1  UNL     1       1.836   0.076   0.947  1.00  0.00     0.161 HD
BRANCH  16  18
HETATM   18  C2  UNL     1       3.695   1.093   1.034  1.00  0.00     0.147 C 
BRANCH  18  19
HETATM   19  C1  UNL     1       4.729   0.375   1.876  1.00  0.00     0.183 C 
BRANCH  19  20
HETATM   20  O1  UNL     1       5.617   1.324   2.383  1.00  0.00    -0.399 OA
ATOM     21  H1  UNL     1       6.266   0.874   2.911  1.00  0.00     0.209 HD
ENDBRANCH  19  20
ENDBRANCH  18  19
ENDBRANCH  16  18
ENDBRANCH  10  16
ENDBRANCH   8   9
ENDBRANCH   7   8
ENDBRANCH   1   7
BRANCH   6  22
HETATM   22  C15 UNL     1      -3.722  -0.625  -0.412  1.00  0.00     0.053 C 
BRANCH  22  23
HETATM   23  C16 UNL     1      -3.323  -1.915  -1.095  1.00  0.00     0.166 C 
BRANCH  23  24
HETATM   24  O5  UNL     1      -4.438  -2.747  -1.065  1.00  0.00    -0.401 OA
ATOM     25  H5  UNL     1      -4.188  -3.557  -1.494  1.00  0.00     0.209 HD
ENDBRANCH  23  24
ENDBRANCH  22  23
ENDBRANCH   6  22
BRANCH   3  26
HETATM   26  O2  UNL     1      -1.614   1.540   3.513  1.00  0.00    -0.391 OA
ATOM     27  H2  UNL     1      -1.830   2.428   3.772  1.00  0.00     0.210 HD
ENDBRANCH   3  26
BRANCH   5  28
HETATM   28  O4  UNL     1      -2.511   2.786  -0.438  1.00  0.00    -0.391 OA
ATOM     29  H4  UNL     1      -2.529   2.750  -1.387  1.00  0.00     0.210 HD
ENDBRANCH   5  28
BRANCH   4  30
HETATM   30  O3  UNL     1      -3.595   2.951   2.059  1.00  0.00    -0.390 OA
ATOM     31  H3  UNL     1      -4.486   3.106   1.769  1.00  0.00     0.210 HD
ENDBRANCH   4  30
TORSDOF 13
