REMARK  4 active torsions:
REMARK  status: ('A' for Active; 'I' for Inactive)
REMARK    1  A    between atoms: C1_2  and  C2_4 
REMARK    2  A    between atoms: C5_12  and  N5_13 
REMARK    3  A    between atoms: N5_13  and  N6_15 
REMARK    4  A    between atoms: N6_15  and  O2_17 
ROOT
HETATM    1  C2  UNL     1       0.166  -0.287  -0.071  1.00  0.00     0.115 A 
HETATM    2  C3  UNL     1      -1.061  -0.909  -0.102  1.00  0.00     0.136 A 
HETATM    3  N2  UNL     1      -1.145  -2.272  -0.558  1.00  0.00    -0.082 NA
HETATM    4  N3  UNL     1      -2.153  -0.235   0.293  1.00  0.00    -0.340 N 
ATOM      5  H3  UNL     1      -3.054  -0.711   0.264  1.00  0.00     0.167 HD
HETATM    6  C4  UNL     1      -2.116   1.036   0.725  1.00  0.00     0.183 A 
HETATM    7  N4  UNL     1      -0.929   1.652   0.760  1.00  0.00    -0.337 N 
ATOM      8  H4  UNL     1      -0.877   2.618   1.085  1.00  0.00     0.168 HD
HETATM    9  C5  UNL     1       0.211   1.016   0.371  1.00  0.00     0.141 A 
ENDROOT
BRANCH   9  10
HETATM   10  N5  UNL     1       1.362   1.598   0.399  1.00  0.00    -0.265 N 
ATOM     11  H5  UNL     1       2.208   1.110   0.104  1.00  0.00     0.190 HD
BRANCH  10  12
HETATM   12  N6  UNL     1       1.409   2.922   0.848  1.00  0.00    -0.208 N 
ATOM     13  H6  UNL     1       1.691   3.132   1.806  1.00  0.00     0.215 HD
BRANCH  12  14
HETATM   14  O2  UNL     1       1.106   3.833   0.074  1.00  0.00    -0.274 OA
ATOM     15  H2  UNL     1       1.138   4.732   0.379  1.00  0.00     0.246 HD
ENDBRANCH  12  14
ENDBRANCH  10  12
ENDBRANCH   9  10
BRANCH   1  16
HETATM   16  C1  UNL     1       1.393  -0.953  -0.484  1.00  0.00     0.272 C 
HETATM   17  N1  UNL     1       2.663  -0.313  -0.453  1.00  0.00    -0.057 NA
HETATM   18  O1  UNL     1       1.331  -2.159  -0.890  1.00  0.00    -0.271 OA
ENDBRANCH   1  16
TORSDOF 4
