REMARK  10 active torsions:
REMARK  status: ('A' for Active; 'I' for Inactive)
REMARK    1  A    between atoms: C2_2  and  C3_3 
REMARK    2  A    between atoms: N2_10  and  C7_11 
REMARK    3  A    between atoms: C7_11  and  C8_12 
REMARK    4  A    between atoms: C11_15  and  C12_16 
REMARK    5  A    between atoms: C17_23  and  C18_24 
REMARK    6  A    between atoms: C18_24  and  C19_25 
REMARK    7  A    between atoms: C25_33  and  C26_34 
REMARK    8  A    between atoms: C26_34  and  O1_35 
REMARK    9  A    between atoms: C26_34  and  C27_37 
REMARK   10  A    between atoms: C27_37  and  O2_38 
ROOT
HETATM    1  C12 UNL     1       0.027  -1.172  -1.258  1.00  0.00    -0.024 A 
HETATM    2  C13 UNL     1      -0.498  -2.156  -2.040  1.00  0.00     0.036 A 
HETATM    3  C14 UNL     1      -1.844  -2.116  -2.301  1.00  0.00     0.067 A 
HETATM    4  C15 UNL     1      -2.407  -3.155  -3.120  1.00  0.00     0.101 C 
HETATM    5  N3  UNL     1      -2.847  -3.998  -3.764  1.00  0.00    -0.191 NA
HETATM    6  C16 UNL     1      -2.669  -1.102  -1.786  1.00  0.00     0.061 A 
HETATM    7 CL2  UNL     1      -4.360  -1.156  -2.203  1.00  0.00    -0.082 Cl
HETATM    8  C17 UNL     1      -2.144  -0.120  -1.005  1.00  0.00    -0.030 A 
HETATM    9  C29 UNL     1      -0.778  -0.172  -0.748  1.00  0.00     0.021 A 
ENDROOT
BRANCH   1  10
HETATM   10  C11 UNL     1       1.458  -1.120  -0.966  1.00  0.00    -0.023 A 
HETATM   11  C10 UNL     1       2.401  -1.549  -1.880  1.00  0.00     0.013 A 
HETATM   12  C9  UNL     1       3.745  -1.488  -1.613  1.00  0.00     0.017 A 
HETATM   13  C8  UNL     1       4.236  -0.988  -0.396  1.00  0.00     0.018 A 
HETATM   14  C31 UNL     1       3.322  -0.567   0.506  1.00  0.00     0.128 A 
HETATM   15  C30 UNL     1       1.941  -0.631   0.225  1.00  0.00     0.055 A 
HETATM   16  F1  UNL     1       3.703  -0.083   1.708  1.00  0.00    -0.205 F 
BRANCH  13  17
HETATM   17  C7  UNL     1       5.697  -0.966  -0.235  1.00  0.00     0.113 C 
BRANCH  17  18
HETATM   18  N2  UNL     1       6.249  -0.552   0.994  1.00  0.00    -0.312 N 
HETATM   19  C3  UNL     1       6.619   0.692   1.350  1.00  0.00     0.056 A 
HETATM   20  C4  UNL     1       7.123   0.612   2.637  1.00  0.00     0.128 A 
HETATM   21 CL1  UNL     1       7.763   1.901   3.639  1.00  0.00    -0.062 Cl
HETATM   22  N1  UNL     1       7.043  -0.668   3.020  1.00  0.00    -0.335 N 
HETATM   23  C5  UNL     1       6.512  -1.398   2.033  1.00  0.00     0.085 A 
ATOM     24  H1  UNL     1       7.341  -1.031   3.925  1.00  0.00     0.168 HD
HETATM   25  C6  UNL     1       6.262  -2.864   2.080  1.00  0.00     0.089 C 
BRANCH  19  26
HETATM   26  C2  UNL     1       6.525   1.972   0.584  1.00  0.00     0.056 C 
HETATM   27  C1  UNL     1       7.852   2.459   0.083  1.00  0.00     0.011 C 
ENDBRANCH  19  26
ENDBRANCH  17  18
ENDBRANCH  13  17
ENDBRANCH   1  10
BRANCH   8  28
HETATM   28  C18 UNL     1      -2.940   1.045  -0.422  1.00  0.00     0.081 C 
BRANCH  28  29
HETATM   29  C19 UNL     1      -3.725   0.484   0.682  1.00  0.00    -0.025 A 
HETATM   30  C20 UNL     1      -3.186  -0.429   1.629  1.00  0.00     0.096 A 
HETATM   31  N4  UNL     1      -4.164  -0.952   2.348  1.00  0.00    -0.365 N 
HETATM   32  C21 UNL     1      -5.358  -0.435   1.939  1.00  0.00     0.043 A 
ATOM     33  H4  UNL     1      -4.044  -1.637   3.094  1.00  0.00     0.165 HD
HETATM   34  C22 UNL     1      -6.639  -0.677   2.352  1.00  0.00     0.030 A 
HETATM   35  C28 UNL     1      -5.073   0.464   0.905  1.00  0.00     0.011 A 
HETATM   36  C23 UNL     1      -7.670  -0.026   1.752  1.00  0.00     0.003 A 
HETATM   37  C24 UNL     1      -7.401   0.867   0.744  1.00  0.00     0.015 A 
HETATM   38  C25 UNL     1      -6.101   1.160   0.275  1.00  0.00     0.008 A 
BRANCH  38  39
HETATM   39  C26 UNL     1      -5.856   2.282  -0.605  1.00  0.00     0.077 C 
BRANCH  39  40
HETATM   40  O1  UNL     1      -4.806   3.168  -0.388  1.00  0.00    -0.362 OA
ATOM     41  H1  UNL     1      -4.645   3.905  -0.966  1.00  0.00     0.217 HD
ENDBRANCH  39  40
BRANCH  39  42
HETATM   42  C27 UNL     1      -6.730   2.561  -1.773  1.00  0.00     0.229 C 
BRANCH  42  43
HETATM   43  O2  UNL     1      -7.760   1.664  -1.993  1.00  0.00    -0.394 OA
ATOM     44  H2  UNL     1      -8.319   1.842  -2.740  1.00  0.00     0.209 HD
ENDBRANCH  42  43
ENDBRANCH  39  42
ENDBRANCH  38  39
ENDBRANCH  28  29
ENDBRANCH   8  28
TORSDOF 10
