REMARK  11 active torsions:
REMARK  status: ('A' for Active; 'I' for Inactive)
REMARK    1  A    between atoms: C5_5  and  O1_6 
REMARK    2  A    between atoms: O1_6  and  C6_7 
REMARK    3  A    between atoms: C8_12  and  C9_13 
REMARK    4  A    between atoms: C13_19  and  N2_20 
REMARK    5  A    between atoms: N2_20  and  C14_21 
REMARK    6  A    between atoms: C14_21  and  C16_23 
REMARK    7  A    between atoms: C20_29  and  C21_30 
REMARK    8  A    between atoms: C21_30  and  C22_31 
REMARK    9  A    between atoms: C21_30  and  C23_34 
REMARK   10  A    between atoms: C22_31  and  O2_32 
REMARK   11  A    between atoms: C23_34  and  N4_35 
ROOT
HETATM    1  C9  UNL     1       3.691  -0.739   0.281  1.00  0.00     0.004 A 
HETATM    2  C10 UNL     1       3.479  -2.004   0.871  1.00  0.00     0.101 A 
HETATM    3  N1  UNL     1       2.193  -2.148   1.167  1.00  0.00    -0.364 N 
ATOM      4  H1  UNL     1       1.773  -2.970   1.601  1.00  0.00     0.165 HD
HETATM    5  C11 UNL     1       1.522  -1.016   0.796  1.00  0.00     0.049 A 
HETATM    6  C12 UNL     1       0.216  -0.653   0.898  1.00  0.00     0.094 A 
HETATM    7  C13 UNL     1      -0.255   0.589   0.467  1.00  0.00     0.175 A 
HETATM    8  N5  UNL     1       0.677   1.404  -0.061  1.00  0.00    -0.335 N 
ATOM      9  H5  UNL     1       0.382   2.323  -0.392  1.00  0.00     0.168 HD
HETATM   10  C26 UNL     1       1.988   1.071  -0.177  1.00  0.00     0.021 A 
HETATM   11  C27 UNL     1       2.938   2.040  -0.784  1.00  0.00     0.069 C 
HETATM   12  C28 UNL     1       2.453  -0.150   0.250  1.00  0.00     0.025 A 
ENDROOT
BRANCH   7  13
HETATM   13  N2  UNL     1      -1.405   0.838   0.620  1.00  0.00    -0.421 NA
BRANCH  13  14
HETATM   14  C14 UNL     1      -2.666   1.328   0.696  1.00  0.00     0.196 C 
HETATM   15  C15 UNL     1      -2.688   2.726   1.393  1.00  0.00     0.053 C 
BRANCH  14  16
HETATM   16  C16 UNL     1      -3.597   0.450   1.503  1.00  0.00     0.000 A 
HETATM   17  C17 UNL     1      -3.883   0.775   2.795  1.00  0.00     0.013 A 
HETATM   18  C18 UNL     1      -4.643  -0.130   3.540  1.00  0.00     0.018 A 
HETATM   19  C19 UNL     1      -5.078  -1.310   2.966  1.00  0.00     0.088 A 
HETATM   20  N3  UNL     1      -4.768  -1.573   1.693  1.00  0.00    -0.368 N 
HETATM   21  C20 UNL     1      -4.028  -0.717   0.924  1.00  0.00     0.029 A 
ATOM     22  H3  UNL     1      -5.096  -2.446   1.279  1.00  0.00     0.165 HD
BRANCH  21  23
HETATM   23  C21 UNL     1      -3.830  -1.061  -0.466  1.00  0.00     0.098 C 
BRANCH  23  24
HETATM   24  C22 UNL     1      -3.836  -2.645  -0.483  1.00  0.00     0.180 C 
BRANCH  24  25
HETATM   25  O2  UNL     1      -2.812  -3.091   0.335  1.00  0.00    -0.400 OA
ATOM     26  H2  UNL     1      -2.816  -4.041   0.325  1.00  0.00     0.209 HD
ENDBRANCH  24  25
ENDBRANCH  23  24
BRANCH  23  27
HETATM   27  C23 UNL     1      -5.022  -0.779  -1.359  1.00  0.00     0.070 C 
BRANCH  27  28
HETATM   28  N4  UNL     1      -5.548   0.480  -1.524  1.00  0.00    -0.401 N 
HETATM   29  C24 UNL     1      -6.271   1.075  -0.469  1.00  0.00     0.148 C 
HETATM   30  C25 UNL     1      -6.058   0.805  -2.832  1.00  0.00     0.148 C 
ENDBRANCH  27  28
ENDBRANCH  23  27
ENDBRANCH  21  23
ENDBRANCH  14  16
ENDBRANCH  13  14
ENDBRANCH   7  13
BRANCH   1  31
HETATM   31  C8  UNL     1       4.968  -0.247  -0.166  1.00  0.00    -0.015 A 
HETATM   32  C2  UNL     1       5.735   0.519   0.706  1.00  0.00    -0.051 A 
HETATM   33  C1  UNL     1       5.260   0.902   2.071  1.00  0.00     0.049 C 
HETATM   34  C3  UNL     1       6.996   0.947   0.336  1.00  0.00     0.010 A 
HETATM   35  C4  UNL     1       7.535   0.627  -0.912  1.00  0.00     0.037 A 
HETATM   36  C5  UNL     1       6.783  -0.122  -1.762  1.00  0.00     0.079 A 
HETATM   37  C7  UNL     1       5.533  -0.541  -1.387  1.00  0.00     0.050 A 
BRANCH  36  38
HETATM   38  O1  UNL     1       7.343  -0.439  -3.018  1.00  0.00    -0.255 OA
BRANCH  38  39
HETATM   39  C6  UNL     1       8.108  -1.661  -3.097  1.00  0.00     0.530 C 
HETATM   40  F1  UNL     1       8.591  -1.826  -4.367  1.00  0.00    -0.144 F 
HETATM   41  F2  UNL     1       7.320  -2.733  -2.724  1.00  0.00    -0.144 F 
HETATM   42  F3  UNL     1       9.169  -1.630  -2.209  1.00  0.00    -0.144 F 
ENDBRANCH  38  39
ENDBRANCH  36  38
ENDBRANCH   1  31
TORSDOF 11
