REMARK  11 active torsions:
REMARK  status: ('A' for Active; 'I' for Inactive)
REMARK    1  A    between atoms: C2_2  and  C3_3 
REMARK    2  A    between atoms: C3_3  and  N1_4 
REMARK    3  A    between atoms: N1_4  and  C4_6 
REMARK    4  A    between atoms: C5_9  and  N3_10 
REMARK    5  A    between atoms: N3_10  and  C6_12 
REMARK    6  A    between atoms: C6_12  and  C7_13 
REMARK    7  A    between atoms: C6_12  and  C9_15 
REMARK    8  A    between atoms: C12_18  and  C13_19 
REMARK    9  A    between atoms: C19_28  and  C20_29 
REMARK   10  A    between atoms: C21_32  and  C22_33 
REMARK   11  A    between atoms: C22_33  and  N5_34 
ROOT
HETATM    1  C4  UNL     1      -1.419   2.940  -0.851  1.00  0.00     0.680 A 
HETATM    2  N2  UNL     1      -2.123   1.801  -1.107  1.00  0.00    -0.176 N 
ATOM      3  H2  UNL     1      -3.130   1.876  -1.253  1.00  0.00     0.186 HD
HETATM    4  C5  UNL     1      -1.559   0.587  -1.176  1.00  0.00     0.130 A 
HETATM    5  C16 UNL     1      -0.177   0.499  -0.976  1.00  0.00     0.035 A 
HETATM    6  C17 UNL     1       0.458  -0.725  -1.021  1.00  0.00     0.018 A 
HETATM    7  C18 UNL     1       1.847  -0.807  -0.799  1.00  0.00     0.015 A 
HETATM    8  C19 UNL     1       2.575   0.313  -0.539  1.00  0.00    -0.000 A 
HETATM    9  C26 UNL     1       1.903   1.535  -0.501  1.00  0.00     0.045 A 
HETATM   10  C27 UNL     1       0.546   1.657  -0.713  1.00  0.00     0.064 A 
HETATM   11  N6  UNL     1      -0.085   2.840  -0.657  1.00  0.00    -0.191 N 
ATOM     12  H6  UNL     1       0.455   3.684  -0.463  1.00  0.00     0.184 HD
ENDROOT
BRANCH   4  13
HETATM   13  N3  UNL     1      -2.200  -0.523  -1.289  1.00  0.00    -0.366 N 
ATOM     14  H3  UNL     1      -1.637  -1.372  -1.343  1.00  0.00     0.161 HD
BRANCH  13  15
HETATM   15  C6  UNL     1      -3.617  -0.691  -1.347  1.00  0.00     0.116 C 
BRANCH  15  16
HETATM   16  C7  UNL     1      -3.991  -1.614  -2.499  1.00  0.00     0.025 C 
HETATM   17  C8  UNL     1      -5.514  -1.782  -2.543  1.00  0.00     0.007 C 
ENDBRANCH  15  16
BRANCH  15  18
HETATM   18  C9  UNL     1      -4.064  -1.362  -0.056  1.00  0.00    -0.035 A 
HETATM   19  C10 UNL     1      -4.980  -0.737   0.737  1.00  0.00     0.010 A 
HETATM   20  C11 UNL     1      -5.397  -1.310   1.943  1.00  0.00     0.017 A 
HETATM   21  C12 UNL     1      -4.865  -2.508   2.313  1.00  0.00     0.047 A 
HETATM   22  C14 UNL     1      -3.935  -3.168   1.538  1.00  0.00     0.017 A 
HETATM   23  C15 UNL     1      -3.538  -2.568   0.325  1.00  0.00     0.010 A 
BRANCH  21  24
HETATM   24  C13 UNL     1      -5.295  -3.102   3.606  1.00  0.00     0.417 C 
HETATM   25  F1  UNL     1      -6.662  -3.214   3.692  1.00  0.00    -0.166 F 
HETATM   26  F2  UNL     1      -4.666  -4.307   3.842  1.00  0.00    -0.166 F 
HETATM   27  F3  UNL     1      -4.892  -2.245   4.623  1.00  0.00    -0.166 F 
ENDBRANCH  21  24
ENDBRANCH  15  18
ENDBRANCH  13  15
ENDBRANCH   4  13
BRANCH   1  28
HETATM   28  N1  UNL     1      -2.029   4.079  -0.807  1.00  0.00    -0.223 N 
ATOM     29  H1  UNL     1      -3.035   4.155  -0.957  1.00  0.00     0.178 HD
BRANCH  28  30
HETATM   30  C3  UNL     1      -1.203   5.252  -0.531  1.00  0.00     0.164 C 
BRANCH  30  31
HETATM   31  C2  UNL     1      -1.983   6.504  -0.484  1.00  0.00    -0.017 C 
HETATM   32  C1  UNL     1      -2.019   7.234   0.610  1.00  0.00     0.008 C 
ENDBRANCH  30  31
ENDBRANCH  28  30
ENDBRANCH   1  28
BRANCH   8  33
HETATM   33  C20 UNL     1       4.012   0.302  -0.326  1.00  0.00     0.085 A 
HETATM   34  N4  UNL     1       4.919  -0.617  -0.488  1.00  0.00    -0.349 N 
HETATM   35  C21 UNL     1       6.175  -0.384  -0.271  1.00  0.00     0.050 A 
ATOM     36  H4  UNL     1       4.633  -1.547  -0.794  1.00  0.00     0.166 HD
HETATM   37  C25 UNL     1       6.514   0.888   0.144  1.00  0.00     0.082 A 
HETATM   38  S1  UNL     1       4.968   1.655   0.185  1.00  0.00    -0.081 SA
BRANCH  35  39
HETATM   39  C22 UNL     1       7.258  -1.404  -0.493  1.00  0.00     0.089 C 
BRANCH  39  40
HETATM   40  N5  UNL     1       7.442  -2.342   0.539  1.00  0.00    -0.299 NA
HETATM   41  C23 UNL     1       6.386  -3.250   0.834  1.00  0.00     0.115 C 
HETATM   42  C24 UNL     1       7.994  -1.807   1.775  1.00  0.00     0.115 C 
ENDBRANCH  39  40
ENDBRANCH  35  39
ENDBRANCH   8  33
TORSDOF 11
