REMARK  10 active torsions:
REMARK  status: ('A' for Active; 'I' for Inactive)
REMARK    1  A    between atoms: O1_2  and  C2_3 
REMARK    2  A    between atoms: C6_7  and  C7_8 
REMARK    3  A    between atoms: C7_8  and  C8_9 
REMARK    4  A    between atoms: C7_8  and  N3_19 
REMARK    5  A    between atoms: C8_9  and  N1_10 
REMARK    6  A    between atoms: N1_10  and  C9_13 
REMARK    7  A    between atoms: C9_13  and  C10_14 
REMARK    8  A    between atoms: C10_14  and  N2_15 
REMARK    9  A    between atoms: N3_19  and  C11_21 
REMARK   10  A    between atoms: C12_24  and  C13_25 
ROOT
HETATM    1  C11 UNL     1       1.063  -0.587  -0.989  1.00  0.00     0.116 A 
HETATM    2  N4  UNL     1       1.879  -0.220   0.004  1.00  0.00    -0.327 N 
ATOM      3  H4  UNL     1       1.498   0.233   0.834  1.00  0.00     0.169 HD
HETATM    4  C12 UNL     1       3.201  -0.447  -0.089  1.00  0.00     0.117 A 
HETATM    5  N5  UNL     1       3.731  -1.042  -1.171  1.00  0.00    -0.341 N 
ATOM      6  H5  UNL     1       4.738  -1.200  -1.212  1.00  0.00     0.167 HD
HETATM    7  C19 UNL     1       2.962  -1.432  -2.197  1.00  0.00     0.047 A 
HETATM    8  C20 UNL     1       3.512  -2.056  -3.323  1.00  0.00     0.032 A 
HETATM    9  C21 UNL     1       2.649  -2.428  -4.331  1.00  0.00     0.026 A 
HETATM   10  C22 UNL     1       1.289  -2.211  -4.269  1.00  0.00     0.035 A 
HETATM   11 CL3  UNL     1       0.194  -2.685  -5.545  1.00  0.00    -0.084 Cl
HETATM   12  C23 UNL     1       0.787  -1.594  -3.145  1.00  0.00     0.041 A 
HETATM   13  C24 UNL     1       1.600  -1.196  -2.097  1.00  0.00     0.036 A 
ENDROOT
BRANCH   1  14
HETATM   14  N3  UNL     1      -0.175  -0.395  -0.909  1.00  0.00    -0.365 N 
ATOM     15  H3  UNL     1      -0.700  -0.713  -1.724  1.00  0.00     0.162 HD
BRANCH  14  16
HETATM   16  C7  UNL     1      -0.974   0.182   0.105  1.00  0.00     0.142 C 
BRANCH  16  17
HETATM   17  C6  UNL     1      -1.453   1.544  -0.080  1.00  0.00    -0.031 A 
HETATM   18  C5  UNL     1      -0.598   2.505  -0.633  1.00  0.00     0.009 A 
HETATM   19  C4  UNL     1      -1.085   3.778  -0.773  1.00  0.00     0.003 A 
HETATM   20  C3  UNL     1      -2.359   4.170  -0.404  1.00  0.00     0.037 A 
HETATM   21  C2  UNL     1      -3.201   3.231   0.139  1.00  0.00     0.068 A 
HETATM   22  C25 UNL     1      -2.713   1.914   0.289  1.00  0.00     0.046 A 
BRANCH  21  23
HETATM   23  O1  UNL     1      -4.485   3.532   0.536  1.00  0.00    -0.356 OA
HETATM   24  C1  UNL     1      -5.133   4.746   0.475  1.00  0.00     0.210 C 
ENDBRANCH  21  23
ENDBRANCH  16  17
BRANCH  16  25
HETATM   25  C8  UNL     1      -2.182  -0.765   0.230  1.00  0.00     0.262 C 
BRANCH  25  26
HETATM   26  N1  UNL     1      -1.649  -2.136   0.374  1.00  0.00    -0.071 N 
ATOM     27  H12 UNL     1      -0.987  -2.379  -0.363  1.00  0.00     0.277 HD
ATOM     28  H11 UNL     1      -1.014  -2.229   1.167  1.00  0.00     0.277 HD
BRANCH  26  29
HETATM   29  C9  UNL     1      -2.749  -3.038   0.443  1.00  0.00     0.259 C 
BRANCH  29  30
HETATM   30  C10 UNL     1      -3.563  -2.942   1.711  1.00  0.00     0.257 C 
BRANCH  30  31
HETATM   31  N2  UNL     1      -4.638  -3.921   1.639  1.00  0.00    -0.078 N 
ATOM     32  H23 UNL     1      -5.207  -3.819   0.798  1.00  0.00     0.274 HD
ATOM     33  H22 UNL     1      -4.297  -4.866   1.461  1.00  0.00     0.274 HD
ATOM     34  H21 UNL     1      -5.188  -3.856   2.496  1.00  0.00     0.274 HD
ENDBRANCH  30  31
ENDBRANCH  29  30
ENDBRANCH  26  29
ENDBRANCH  25  26
ENDBRANCH  16  25
ENDBRANCH  14  16
ENDBRANCH   1  14
BRANCH   4  35
HETATM   35  C13 UNL     1       4.128  -0.050   0.982  1.00  0.00     0.010 A 
HETATM   36  C14 UNL     1       5.477  -0.314   0.821  1.00  0.00     0.017 A 
HETATM   37  C15 UNL     1       6.398   0.031   1.776  1.00  0.00     0.026 A 
HETATM   38  C16 UNL     1       5.986   0.660   2.938  1.00  0.00     0.055 A 
HETATM   39 CL1  UNL     1       7.099   1.134   4.203  1.00  0.00    -0.083 Cl
HETATM   40  C17 UNL     1       4.662   0.926   3.113  1.00  0.00     0.056 A 
HETATM   41 CL2  UNL     1       4.054   1.727   4.570  1.00  0.00    -0.083 Cl
HETATM   42  C18 UNL     1       3.732   0.568   2.129  1.00  0.00     0.041 A 
ENDBRANCH   4  35
TORSDOF 10
