REMARK  9 active torsions:
REMARK  status: ('A' for Active; 'I' for Inactive)
REMARK    1  A    between atoms: O1_2  and  C2_3 
REMARK    2  A    between atoms: C4_5  and  O2_6 
REMARK    3  A    between atoms: C9_13  and  C10_14 
REMARK    4  A    between atoms: C10_14  and  O4_15 
REMARK    5  A    between atoms: O4_15  and  C11_16 
REMARK    6  A    between atoms: C11_16  and  C12_17 
REMARK    7  A    between atoms: C11_16  and  C13_20 
REMARK    8  A    between atoms: C12_17  and  O5_18 
REMARK    9  A    between atoms: C13_20  and  N1_21 
ROOT
HETATM    1  C2  UNL     1       5.128   0.877  -1.119  1.00  0.00     0.073 A 
HETATM    2  C3  UNL     1       5.326  -0.442  -1.458  1.00  0.00     0.074 A 
HETATM    3  C4  UNL     1       4.474  -1.446  -1.031  1.00  0.00     0.077 A 
HETATM    4  C5  UNL     1       3.421  -1.086  -0.258  1.00  0.00     0.009 A 
HETATM    5  C6  UNL     1       3.197   0.245   0.101  1.00  0.00     0.080 A 
HETATM    6  C7  UNL     1       4.050   1.206  -0.332  1.00  0.00     0.074 A 
HETATM    7  O3  UNL     1       2.089   0.481   0.896  1.00  0.00    -0.350 OA
HETATM    8  C8  UNL     1       0.852  -0.228   0.771  1.00  0.00     0.182 C 
HETATM    9  C9  UNL     1       1.058  -1.416  -0.084  1.00  0.00     0.038 C 
HETATM   10  C18 UNL     1       2.419  -2.050   0.267  1.00  0.00     0.053 C 
ENDROOT
BRANCH   9  11
HETATM   11  C10 UNL     1       0.061  -2.523   0.023  1.00  0.00     0.175 C 
BRANCH  11  12
HETATM   12  O4  UNL     1      -1.209  -2.329  -0.261  1.00  0.00    -0.382 OA
BRANCH  12  13
HETATM   13  C11 UNL     1      -2.061  -1.486   0.325  1.00  0.00     0.173 C 
BRANCH  13  14
HETATM   14  C12 UNL     1      -3.321  -2.143   0.868  1.00  0.00     0.197 C 
BRANCH  14  15
HETATM   15  O5  UNL     1      -4.099  -1.149   1.444  1.00  0.00    -0.398 OA
ATOM     16  H5  UNL     1      -4.886  -1.559   1.783  1.00  0.00     0.209 HD
ENDBRANCH  14  15
ENDBRANCH  13  14
BRANCH  13  17
HETATM   17  C13 UNL     1      -2.555  -0.556  -0.778  1.00  0.00     0.306 C 
BRANCH  17  18
HETATM   18  N1  UNL     1      -3.455   0.454  -0.352  1.00  0.00     0.095 N 
HETATM   19  C14 UNL     1      -2.877   1.493   0.474  1.00  0.00     0.298 C 
HETATM   20  C15 UNL     1      -4.017   2.464   0.777  1.00  0.00     0.198 C 
HETATM   21  O6  UNL     1      -5.255   1.945   0.413  1.00  0.00    -0.388 OA
HETATM   22  C16 UNL     1      -5.393   1.736  -0.952  1.00  0.00     0.198 C 
HETATM   23  C17 UNL     1      -4.116   1.098  -1.465  1.00  0.00     0.298 C 
ENDBRANCH  17  18
ENDBRANCH  13  17
ENDBRANCH  12  13
ENDBRANCH  11  12
ENDBRANCH   9  11
BRANCH   3  24
HETATM   24  O2  UNL     1       4.705  -2.746  -1.390  1.00  0.00    -0.360 OA
ATOM     25  H2  UNL     1       4.120  -3.435  -1.097  1.00  0.00     0.217 HD
ENDBRANCH   3  24
BRANCH   1  26
HETATM   26  O1  UNL     1       6.021   1.869  -1.575  1.00  0.00    -0.356 OA
HETATM   27  C1  UNL     1       5.744   3.198  -1.181  1.00  0.00     0.210 C 
ENDBRANCH   1  26
TORSDOF 9
