REMARK  8 active torsions:
REMARK  status: ('A' for Active; 'I' for Inactive)
REMARK    1  A    between atoms: C6_8  and  C7_9 
REMARK    2  A    between atoms: C7_9  and  C8_10 
REMARK    3  A    between atoms: C8_10  and  C9_11 
REMARK    4  A    between atoms: C9_11  and  C10_12 
REMARK    5  A    between atoms: C10_12  and  S1_13 
REMARK    6  A    between atoms: C12_20  and  C13_21 
REMARK    7  A    between atoms: C13_21  and  C14_22 
REMARK    8  A    between atoms: C14_22  and  N1_23 
ROOT
HETATM    1  C1  UNL     1      -4.232   1.770  -1.463  1.00  0.00     0.048 C 
HETATM    2  C2  UNL     1      -3.873   0.965  -0.228  1.00  0.00     0.084 C 
HETATM    3  C3  UNL     1      -5.084   0.952   0.664  1.00  0.00     0.048 C 
HETATM    4  O1  UNL     1      -2.838   1.621   0.409  1.00  0.00    -0.338 OA
HETATM    5  C4  UNL     1      -1.716   0.838   0.347  1.00  0.00     0.209 C 
HETATM    6  C5  UNL     1      -0.698   1.459  -0.580  1.00  0.00     0.241 C 
HETATM    7  O2  UNL     1       0.561   0.928  -0.455  1.00  0.00    -0.356 OA
HETATM    8  C6  UNL     1       0.744   0.196   0.714  1.00  0.00     0.260 C 
HETATM    9  O6  UNL     1       0.175   0.945   1.757  1.00  0.00    -0.356 OA
HETATM   10  C11 UNL     1      -1.180   0.679   1.758  1.00  0.00     0.241 C 
HETATM   11  O7  UNL     1      -2.047  -0.398  -0.138  1.00  0.00    -0.342 OA
HETATM   12  C12 UNL     1      -3.350  -0.386  -0.568  1.00  0.00     0.171 C 
ENDROOT
BRANCH  12  13
HETATM   13  C13 UNL     1      -4.071  -1.502   0.031  1.00  0.00     0.139 C 
BRANCH  13  14
HETATM   14  C14 UNL     1      -3.991  -2.667  -0.600  1.00  0.00    -0.075 C 
BRANCH  14  15
HETATM   15  N1  UNL     1      -4.023  -3.742  -1.276  1.00  0.00    -0.370 N 
ATOM     16  H12 UNL     1      -4.825  -3.289  -1.713  1.00  0.00     0.165 HD
ATOM     17  H11 UNL     1      -3.962  -4.637  -1.761  1.00  0.00     0.165 HD
ENDBRANCH  14  15
ENDBRANCH  13  14
ENDBRANCH  12  13
BRANCH   8  18
HETATM   18  C7  UNL     1       2.231   0.146   0.989  1.00  0.00     0.061 C 
BRANCH  18  19
HETATM   19  C8  UNL     1       2.999  -0.514  -0.136  1.00  0.00     0.006 C 
BRANCH  19  20
HETATM   20  C9  UNL     1       4.452  -0.508   0.243  1.00  0.00     0.018 C 
BRANCH  20  21
HETATM   21  C10 UNL     1       5.343  -1.133  -0.783  1.00  0.00     0.165 C 
BRANCH  21  22
HETATM   22  S1  UNL     1       7.022  -1.031  -0.154  1.00  0.00     0.101 S 
HETATM   23  O3  UNL     1       6.990  -1.676   1.220  1.00  0.00    -0.595 OA
HETATM   24  O4  UNL     1       7.988  -1.697  -1.065  1.00  0.00    -0.595 OA
HETATM   25  O5  UNL     1       7.380   0.605   0.068  1.00  0.00    -0.595 OA
ENDBRANCH  21  22
ENDBRANCH  20  21
ENDBRANCH  19  20
ENDBRANCH  18  19
ENDBRANCH   8  18
TORSDOF 8
