REMARK  8 active torsions:
REMARK  status: ('A' for Active; 'I' for Inactive)
REMARK    1  A    between atoms: C2_3  and  C3_4 
REMARK    2  A    between atoms: C3_4  and  S1_5 
REMARK    3  A    between atoms: S1_5  and  C4_6 
REMARK    4  A    between atoms: C5_9  and  N3_10 
REMARK    5  A    between atoms: N3_10  and  C6_12 
REMARK    6  A    between atoms: C6_12  and  C7_13 
REMARK    7  A    between atoms: C7_13  and  C8_14 
REMARK    8  A    between atoms: C8_14  and  N4_15 
ROOT
HETATM    1  N1  UNL     1       6.687  -3.951   1.170  1.00  0.00    -0.197 NA
HETATM    2  C1  UNL     1       6.116  -2.966   1.412  1.00  0.00     0.059 C 
HETATM    3  C2  UNL     1       5.418  -1.713   1.709  1.00  0.00     0.134 C 
ENDROOT
BRANCH   3   4
HETATM    4  C3  UNL     1       6.271  -0.534   1.289  1.00  0.00     0.096 C 
BRANCH   4   5
HETATM    5  S1  UNL     1       5.473   1.047   1.625  1.00  0.00    -0.093 SA
BRANCH   5   6
HETATM    6  C4  UNL     1       4.019   1.271   0.609  1.00  0.00     0.147 A 
HETATM    7  N2  UNL     1       2.803   0.876   1.005  1.00  0.00    -0.321 N 
HETATM    8  C5  UNL     1       1.679   1.047   0.234  1.00  0.00     0.138 A 
ATOM      9  H2  UNL     1       2.707   0.430   1.917  1.00  0.00     0.169 HD
HETATM   10  C13 UNL     1       1.870   1.653  -0.982  1.00  0.00     0.122 A 
HETATM   11  N5  UNL     1       1.043   1.983  -1.979  1.00  0.00    -0.346 N 
HETATM   12  C15 UNL     1       3.149   2.057  -1.375  1.00  0.00     0.139 A 
HETATM   13  C14 UNL     1       1.734   2.578  -2.990  1.00  0.00     0.182 A 
ATOM     14  H5  UNL     1       0.037   1.813  -1.982  1.00  0.00     0.167 HD
HETATM   15  N6  UNL     1       3.006   2.613  -2.603  1.00  0.00    -0.337 N 
ATOM     16  H6  UNL     1       3.769   3.005  -3.155  1.00  0.00     0.168 HD
HETATM   17  N7  UNL     1       4.222   1.869  -0.586  1.00  0.00    -0.321 N 
ATOM     18  H7  UNL     1       5.153   2.166  -0.878  1.00  0.00     0.169 HD
BRANCH   8  19
HETATM   19  N3  UNL     1       0.614   0.652   0.685  1.00  0.00    -0.354 N 
ATOM     20  H3  UNL     1       0.768   0.244   1.607  1.00  0.00     0.166 HD
BRANCH  19  21
HETATM   21  C6  UNL     1      -0.746   0.571   0.362  1.00  0.00     0.068 C 
BRANCH  21  22
HETATM   22  C7  UNL     1      -1.136  -0.607  -0.468  1.00  0.00     0.088 C 
BRANCH  22  23
HETATM   23  C8  UNL     1      -2.578  -0.717  -0.851  1.00  0.00     0.063 C 
BRANCH  23  24
HETATM   24  N4  UNL     1      -3.551  -0.829   0.141  1.00  0.00    -0.389 N 
HETATM   25  C9  UNL     1      -3.882   0.254   0.979  1.00  0.00     0.148 C 
HETATM   26  C10 UNL     1      -5.392   0.509   1.006  1.00  0.00     0.187 C 
HETATM   27  O1  UNL     1      -5.937   0.153  -0.248  1.00  0.00    -0.388 OA
HETATM   28  C11 UNL     1      -5.956  -1.216  -0.317  1.00  0.00     0.187 C 
HETATM   29  C12 UNL     1      -4.606  -1.786  -0.052  1.00  0.00     0.148 C 
ENDBRANCH  23  24
ENDBRANCH  22  23
ENDBRANCH  21  22
ENDBRANCH  19  21
ENDBRANCH   8  19
ENDBRANCH   5   6
ENDBRANCH   4   5
ENDBRANCH   3   4
TORSDOF 8
