REMARK  7 active torsions:
REMARK  status: ('A' for Active; 'I' for Inactive)
REMARK    1  A    between atoms: C2_2  and  C4_4 
REMARK    2  A    between atoms: C2_2  and  C10_14 
REMARK    3  A    between atoms: C4_4  and  C5_5 
REMARK    4  A    between atoms: C5_5  and  O1_6 
REMARK    5  A    between atoms: O1_6  and  C6_7 
REMARK    6  A    between atoms: C13_17  and  C14_18 
REMARK    7  A    between atoms: C14_18  and  O3_19 
ROOT
HETATM    1  C1  UNL     1      -0.188  -1.555  -0.858  1.00  0.00     0.015 C 
HETATM    2  C2  UNL     1      -0.269  -0.348   0.066  1.00  0.00    -0.042 C 
HETATM    3  C3  UNL     1       0.493   0.843  -0.436  1.00  0.00     0.015 C 
ENDROOT
BRANCH   2   4
HETATM    4  C4  UNL     1       0.279  -0.715   1.438  1.00  0.00     0.035 C 
BRANCH   4   5
HETATM    5  C5  UNL     1       1.729  -1.161   1.379  1.00  0.00     0.171 C 
BRANCH   5   6
HETATM    6  O1  UNL     1       2.560  -0.197   0.888  1.00  0.00    -0.360 OA
BRANCH   6   7
HETATM    7  C6  UNL     1       3.873  -0.594   0.832  1.00  0.00     0.276 C 
HETATM    8  C7  UNL     1       4.364  -0.626  -0.571  1.00  0.00     0.174 C 
HETATM    9  N1  UNL     1       4.882   0.599  -1.071  1.00  0.00    -0.415 N 
HETATM   10  C8  UNL     1       5.338   1.520  -0.068  1.00  0.00     0.140 C 
ATOM     11  H1  UNL     1       4.927   0.809  -2.068  1.00  0.00     0.153 HD
HETATM   12  C9  UNL     1       5.749   0.726   1.153  1.00  0.00     0.190 C 
HETATM   13  O2  UNL     1       4.620   0.169   1.696  1.00  0.00    -0.358 OA
ENDBRANCH   6   7
ENDBRANCH   5   6
ENDBRANCH   4   5
ENDBRANCH   2   4
BRANCH   2  14
HETATM   14  C10 UNL     1      -1.711  -0.005   0.200  1.00  0.00    -0.007 C 
HETATM   15  C11 UNL     1      -2.354   0.308  -1.156  1.00  0.00     0.006 C 
HETATM   16  C12 UNL     1      -3.611   1.096  -0.847  1.00  0.00     0.007 C 
HETATM   17  C13 UNL     1      -4.567   0.058  -0.238  1.00  0.00     0.009 C 
HETATM   18  C15 UNL     1      -3.991  -0.494   1.015  1.00  0.00     0.007 C 
HETATM   19  C16 UNL     1      -2.574  -1.002   0.881  1.00  0.00     0.006 C 
BRANCH  17  20
HETATM   20  C14 UNL     1      -5.857   0.760   0.021  1.00  0.00     0.168 C 
BRANCH  20  21
HETATM   21  O3  UNL     1      -5.759   1.828   0.890  1.00  0.00    -0.400 OA
ATOM     22  H3  UNL     1      -6.581   2.275   1.055  1.00  0.00     0.209 HD
ENDBRANCH  20  21
ENDBRANCH  17  20
ENDBRANCH   2  14
TORSDOF 7
