REMARK  9 active torsions:
REMARK  status: ('A' for Active; 'I' for Inactive)
REMARK    1  A    between atoms: O1_2  and  C2_3 
REMARK    2  A    between atoms: C2_3  and  C3_4 
REMARK    3  A    between atoms: C3_4  and  N3_10 
REMARK    4  A    between atoms: N1_5  and  N2_7 
REMARK    5  A    between atoms: N3_10  and  C4_11 
REMARK    6  A    between atoms: C4_11  and  C5_12 
REMARK    7  A    between atoms: C5_12  and  O2_13 
REMARK    8  A    between atoms: O2_13  and  C6_14 
REMARK    9  A    between atoms: C6_14  and  C7_15 
ROOT
HETATM    1  C3  UNL     1      -2.754  -0.756  -0.858  1.00  0.00     0.203 C 
HETATM    2  N1  UNL     1      -2.392  -2.053  -1.016  1.00  0.00    -0.282 N 
ATOM      3  H1  UNL     1      -1.396  -2.267  -1.074  1.00  0.00     0.189 HD
ENDROOT
BRANCH   1   4
HETATM    4  C2  UNL     1      -4.196  -0.447  -0.742  1.00  0.00     0.133 C 
HETATM    5  C13 UNL     1      -4.834  -1.219   0.392  1.00  0.00     0.047 C 
HETATM    6  C14 UNL     1      -4.180  -0.617   1.669  1.00  0.00     0.004 C 
HETATM    7  C15 UNL     1      -4.480   0.851   1.357  1.00  0.00     0.004 C 
HETATM    8  C16 UNL     1      -4.331   0.991  -0.120  1.00  0.00     0.047 C 
BRANCH   4   9
HETATM    9  O1  UNL     1      -4.974  -0.536  -1.841  1.00  0.00    -0.376 OA
HETATM   10  C1  UNL     1      -4.598   0.257  -2.923  1.00  0.00     0.203 C 
ENDBRANCH   4   9
ENDBRANCH   1   4
BRANCH   1  11
HETATM   11  N3  UNL     1      -1.720   0.092  -1.112  1.00  0.00    -0.398 NA
BRANCH  11  12
HETATM   12  C4  UNL     1      -0.657   0.963  -1.374  1.00  0.00     0.208 C 
BRANCH  12  13
HETATM   13  C5  UNL     1       0.547   0.394  -0.746  1.00  0.00     0.166 C 
BRANCH  13  14
HETATM   14  O2  UNL     1       1.809   0.861  -0.794  1.00  0.00    -0.360 OA
BRANCH  14  15
HETATM   15  C6  UNL     1       2.561  -0.061   0.047  1.00  0.00     0.179 C 
BRANCH  15  16
HETATM   16  C7  UNL     1       3.990   0.226   0.130  1.00  0.00     0.010 C 
HETATM   17  C8  UNL     1       4.342   1.593   0.686  1.00  0.00     0.007 C 
HETATM   18  C9  UNL     1       5.687   1.571   1.383  1.00  0.00     0.000 C 
HETATM   19  C10 UNL     1       6.697   0.660   0.740  1.00  0.00     0.000 C 
HETATM   20  C11 UNL     1       6.194  -0.741   0.583  1.00  0.00     0.000 C 
HETATM   21  C12 UNL     1       4.739  -0.760   1.037  1.00  0.00     0.007 C 
ENDBRANCH  15  16
ENDBRANCH  14  15
ENDBRANCH  13  14
ENDBRANCH  12  13
ENDBRANCH  11  12
ENDBRANCH   1  11
BRANCH   2  22
HETATM   22  N2  UNL     1      -3.252  -3.063  -1.100  1.00  0.00    -0.343 N 
ATOM     23  H22 UNL     1      -4.243  -2.830  -1.040  1.00  0.00     0.176 HD
ATOM     24  H21 UNL     1      -2.980  -4.039  -1.219  1.00  0.00     0.176 HD
ENDBRANCH   2  22
TORSDOF 9
