REMARK  5 active torsions:
REMARK  status: ('A' for Active; 'I' for Inactive)
REMARK       I    between atoms: C2_2  and  N1_4 
REMARK    1  A    between atoms: N1_4  and  C3_6 
REMARK    2  A    between atoms: C6_9  and  C7_10 
REMARK    3  A    between atoms: N2_12  and  N3_14 
REMARK    4  A    between atoms: N3_14  and  C9_16 
REMARK    5  A    between atoms: C11_19  and  C12_20 
ROOT
HETATM    1  C7  UNL     1       1.343  -2.168  -0.536  1.00  0.00     0.032 C 
HETATM    2  C8  UNL     1       1.714  -3.371  -1.418  1.00  0.00     0.070 C 
HETATM    3  N2  UNL     1       0.162  -2.033  -0.178  1.00  0.00    -0.303 N 
ATOM      4  H2  UNL     1      -0.386  -2.802  -0.564  1.00  0.00     0.186 HD
ENDROOT
BRANCH   3   5
HETATM    5  N3  UNL     1      -0.648  -1.246   0.528  1.00  0.00    -0.288 N 
ATOM      6  H3  UNL     1      -0.280  -0.805   1.371  1.00  0.00     0.188 HD
BRANCH   5   7
HETATM    7  C9  UNL     1      -1.875  -1.012   0.201  1.00  0.00     0.131 A 
HETATM    8  S1  UNL     1      -2.737  -1.606  -1.132  1.00  0.00    -0.074 SA
HETATM    9  C10 UNL     1      -4.332  -0.991  -1.103  1.00  0.00     0.072 A 
HETATM   10  C11 UNL     1      -4.527  -0.172  -0.015  1.00  0.00     0.024 A 
HETATM   11  S2  UNL     1      -3.095  -0.070   0.912  1.00  0.00    -0.063 SA
BRANCH  10  12
HETATM   12  C12 UNL     1      -5.792   0.513   0.295  1.00  0.00    -0.018 A 
HETATM   13  C13 UNL     1      -5.884   1.314   1.412  1.00  0.00     0.013 A 
HETATM   14  C14 UNL     1      -7.086   1.962   1.702  1.00  0.00     0.001 A 
HETATM   15  C15 UNL     1      -8.201   1.833   0.907  1.00  0.00     0.000 A 
HETATM   16  C16 UNL     1      -8.088   1.021  -0.214  1.00  0.00     0.001 A 
HETATM   17  C17 UNL     1      -6.914   0.393  -0.490  1.00  0.00     0.013 A 
ENDBRANCH  10  12
ENDBRANCH   5   7
ENDBRANCH   3   5
BRANCH   1  18
HETATM   18  C6  UNL     1       2.437  -1.284  -0.197  1.00  0.00    -0.012 A 
HETATM   19  C5  UNL     1       3.706  -1.594  -0.689  1.00  0.00     0.015 A 
HETATM   20  C4  UNL     1       4.769  -0.742  -0.365  1.00  0.00     0.030 A 
HETATM   21  C3  UNL     1       4.627   0.367   0.403  1.00  0.00     0.034 A 
HETATM   22  C19 UNL     1       3.337   0.638   0.876  1.00  0.00     0.030 A 
HETATM   23  C18 UNL     1       2.263  -0.181   0.575  1.00  0.00     0.015 A 
BRANCH  21  24
HETATM   24  N1  UNL     1       5.661   1.253   0.730  1.00  0.00    -0.328 N 
HETATM   25  C2  UNL     1       6.900   1.371   0.089  1.00  0.00     0.218 C 
HETATM   26  C1  UNL     1       7.910   2.389   0.589  1.00  0.00     0.117 C 
HETATM   27  O1  UNL     1       7.212   0.668  -0.885  1.00  0.00    -0.274 OA
ATOM     28  H1  UNL     1       5.494   1.878   1.518  1.00  0.00     0.169 HD
ENDBRANCH  21  24
ENDBRANCH   1  18
TORSDOF 5
