REMARK  5 active torsions:
REMARK  status: ('A' for Active; 'I' for Inactive)
REMARK    1  A    between atoms: C3_5  and  C4_6 
REMARK    2  A    between atoms: C7_13  and  N4_14 
REMARK    3  A    between atoms: C8_18  and  C9_19 
REMARK    4  A    between atoms: C10_20  and  O1_21 
REMARK    5  A    between atoms: O1_21  and  N5_22 
ROOT
HETATM    1  C1  UNL     1       1.197  -2.750  -0.296  1.00  0.00     0.069 C 
HETATM    2  C2  UNL     1       0.743  -1.321  -0.051  1.00  0.00     0.023 A 
HETATM    3  N1  UNL     1      -0.514  -1.020  -0.060  1.00  0.00    -0.352 N 
ATOM      4  H1  UNL     1      -1.210  -1.745  -0.233  1.00  0.00     0.166 HD
HETATM    5  C3  UNL     1      -0.899   0.226   0.155  1.00  0.00     0.091 A 
HETATM    6  S1  UNL     1       0.586   1.024   0.381  1.00  0.00    -0.070 SA
HETATM    7  C8  UNL     1       1.637  -0.307   0.185  1.00  0.00     0.031 A 
ENDROOT
BRANCH   5   8
HETATM    8  C4  UNL     1      -2.259   0.743   0.182  1.00  0.00     0.066 A 
HETATM    9  C5  UNL     1      -3.403  -0.039  -0.024  1.00  0.00     0.038 A 
HETATM   10  C6  UNL     1      -3.365  -1.496  -0.296  1.00  0.00     0.071 C 
HETATM   11  N2  UNL     1      -4.484   0.748   0.068  1.00  0.00    -0.303 N 
HETATM   12  N3  UNL     1      -4.114   1.981   0.318  1.00  0.00    -0.285 N 
ATOM     13  H2  UNL     1      -5.449   0.435  -0.040  1.00  0.00     0.186 HD
HETATM   14  C7  UNL     1      -2.746   2.008   0.394  1.00  0.00     0.128 A 
ATOM     15  H3  UNL     1      -4.736   2.781   0.435  1.00  0.00     0.188 HD
BRANCH  14  16
HETATM   16  N4  UNL     1      -2.033   3.052   0.627  1.00  0.00    -0.384 N 
ATOM     17  H42 UNL     1      -1.015   3.072   0.684  1.00  0.00     0.157 HD
ATOM     18  H41 UNL     1      -2.395   3.992   0.785  1.00  0.00     0.157 HD
ENDBRANCH  14  16
ENDBRANCH   5   8
BRANCH   7  19
HETATM   19  C9  UNL     1       3.109  -0.391   0.245  1.00  0.00     0.047 C 
HETATM   20  C10 UNL     1       3.833   0.684   0.485  1.00  0.00     0.168 C 
BRANCH  20  21
HETATM   21  O1  UNL     1       5.215   0.638   0.548  1.00  0.00    -0.257 OA
BRANCH  21  22
HETATM   22  N5  UNL     1       5.998   1.158  -0.449  1.00  0.00    -0.306 N 
ATOM     23  H52 UNL     1       5.535   1.586  -1.251  1.00  0.00     0.184 HD
ATOM     24  H51 UNL     1       7.016   1.124  -0.403  1.00  0.00     0.184 HD
ENDBRANCH  21  22
ENDBRANCH  20  21
ENDBRANCH   7  19
TORSDOF 5
