REMARK  10 active torsions:
REMARK  status: ('A' for Active; 'I' for Inactive)
REMARK    1  A    between atoms: C3_3  and  C5_5 
REMARK    2  A    between atoms: C5_5  and  C6_6 
REMARK    3  A    between atoms: C6_6  and  C7_7 
REMARK    4  A    between atoms: C7_7  and  O1_8 
REMARK    5  A    between atoms: C7_7  and  C8_10 
REMARK    6  A    between atoms: C7_7  and  C9_13 
REMARK    7  A    between atoms: C9_13  and  O5_15 
REMARK    8  A    between atoms: O5_15  and  C10_16 
REMARK    9  A    between atoms: C10_16  and  C11_17 
REMARK   10  A    between atoms: C11_17  and  O6_18 
ROOT
HETATM    1  O5  UNL     1      -0.438   0.477  -0.043  1.00  0.00    -0.315 OA
ENDROOT
BRANCH   1   2
HETATM    2  C9  UNL     1      -1.458  -0.049   0.645  1.00  0.00     0.304 C 
HETATM    3  O4  UNL     1      -1.253  -0.595   1.741  1.00  0.00    -0.261 OA
BRANCH   2   4
HETATM    4  C7  UNL     1      -2.897  -0.020   0.154  1.00  0.00     0.234 C 
BRANCH   4   5
HETATM    5  C6  UNL     1      -3.302   1.405  -0.048  1.00  0.00     0.064 C 
BRANCH   5   6
HETATM    6  C5  UNL     1      -4.718   1.595  -0.469  1.00  0.00     0.037 C 
BRANCH   6   7
HETATM    7  C3  UNL     1      -5.715   1.098   0.495  1.00  0.00    -0.088 C 
HETATM    8  C2  UNL     1      -6.616   0.201   0.198  1.00  0.00    -0.029 C 
HETATM    9  C1  UNL     1      -6.852  -0.465  -1.092  1.00  0.00     0.036 C 
HETATM   10  C4  UNL     1      -5.645   1.657   1.883  1.00  0.00     0.043 C 
ENDBRANCH   6   7
ENDBRANCH   5   6
ENDBRANCH   4   5
BRANCH   4  11
HETATM   11  O1  UNL     1      -3.670  -0.644   1.106  1.00  0.00    -0.370 OA
ATOM     12  H1  UNL     1      -3.413  -1.549   1.234  1.00  0.00     0.212 HD
ENDBRANCH   4  11
BRANCH   4  13
HETATM   13  C8  UNL     1      -2.963  -0.753  -1.131  1.00  0.00     0.219 C 
HETATM   14  O2  UNL     1      -2.401  -0.251  -2.160  1.00  0.00    -0.645 OA
HETATM   15  O3  UNL     1      -3.593  -1.967  -1.319  1.00  0.00    -0.645 OA
ENDBRANCH   4  13
ENDBRANCH   2   4
ENDBRANCH   1   2
BRANCH   1  16
HETATM   16  C10 UNL     1       0.911   0.581   0.129  1.00  0.00     0.221 C 
BRANCH  16  17
HETATM   17  C11 UNL     1       1.678  -0.675   0.016  1.00  0.00     0.104 C 
HETATM   18  C12 UNL     1       1.454  -1.761   1.002  1.00  0.00     0.049 C 
HETATM   19  C13 UNL     1       2.735  -2.605   0.763  1.00  0.00     0.046 C 
HETATM   20  C14 UNL     1       3.734  -1.520   0.587  1.00  0.00    -0.007 C 
HETATM   21  C15 UNL     1       3.154  -0.424   0.166  1.00  0.00    -0.033 C 
HETATM   22  C21 UNL     1       5.183  -1.518   0.811  1.00  0.00     0.156 C 
HETATM   23  C16 UNL     1       3.936   0.796  -0.086  1.00  0.00     0.047 C 
HETATM   24  C17 UNL     1       5.307   0.491  -0.658  1.00  0.00    -0.037 C 
HETATM   25  C18 UNL     1       5.122   0.161  -2.138  1.00  0.00     0.015 C 
HETATM   26  C19 UNL     1       6.114   1.768  -0.547  1.00  0.00     0.015 C 
HETATM   27  C20 UNL     1       6.033  -0.604   0.037  1.00  0.00     0.092 C 
HETATM   28  O7  UNL     1       5.674  -2.307   1.669  1.00  0.00    -0.293 OA
BRANCH  17  29
HETATM   29  O6  UNL     1       1.491  -1.282  -1.263  1.00  0.00    -0.383 OA
ATOM     30  H6  UNL     1       1.985  -2.090  -1.336  1.00  0.00     0.211 HD
ENDBRANCH  17  29
ENDBRANCH  16  17
ENDBRANCH   1  16
TORSDOF 10
