REMARK  3 active torsions:
REMARK  status: ('A' for Active; 'I' for Inactive)
REMARK    1  A    between atoms: C2_2  and  N1_3 
REMARK    2  A    between atoms: N1_3  and  C3_5 
REMARK    3  A    between atoms: C8_10  and  O1_11 
ROOT
HETATM    1  C3  UNL     1       0.347   0.285   0.465  1.00  0.00     0.099 C 
HETATM    2  C4  UNL     1      -0.651   0.989  -0.425  1.00  0.00    -0.019 C 
HETATM    3  C5  UNL     1      -0.203   2.446  -0.511  1.00  0.00     0.018 C 
HETATM    4  C6  UNL     1      -0.498   0.413  -1.816  1.00  0.00     0.014 C 
HETATM    5  C7  UNL     1      -1.033  -1.001  -1.826  1.00  0.00     0.039 C 
HETATM    6  C8  UNL     1      -0.828  -1.704  -0.517  1.00  0.00     0.067 C 
HETATM    7  C9  UNL     1      -2.051  -1.632   0.332  1.00  0.00     0.039 C 
HETATM    8  C10 UNL     1      -2.330  -0.294   0.944  1.00  0.00     0.008 C 
HETATM    9  C11 UNL     1      -2.059   0.842   0.009  1.00  0.00    -0.008 C 
HETATM   10  C12 UNL     1      -2.603   2.111   0.676  1.00  0.00     0.011 C 
HETATM   11  C13 UNL     1       0.431  -1.193   0.160  1.00  0.00     0.004 C 
HETATM   12  C14 UNL     1       0.629  -1.930   1.461  1.00  0.00     0.020 C 
HETATM   13  C15 UNL     1       1.575  -1.555  -0.755  1.00  0.00     0.020 C 
ENDROOT
BRANCH   1  14
HETATM   14  N1  UNL     1       1.608   0.869   0.299  1.00  0.00    -0.396 N 
ATOM     15  H1  UNL     1       1.797   1.463  -0.508  1.00  0.00     0.159 HD
BRANCH  14  16
HETATM   16  C2  UNL     1       2.607   0.631   1.249  1.00  0.00     0.051 C 
HETATM   17  C1  UNL     1       3.919   1.332   0.931  1.00  0.00     0.054 C 
ENDBRANCH  14  16
ENDBRANCH   1  14
BRANCH   6  18
HETATM   18  O1  UNL     1      -0.590  -3.067  -0.786  1.00  0.00    -0.389 OA
ATOM     19  H1  UNL     1      -0.460  -3.512   0.043  1.00  0.00     0.210 HD
ENDBRANCH   6  18
TORSDOF 3
