REMARK  6 active torsions:
REMARK  status: ('A' for Active; 'I' for Inactive)
REMARK    1  A    between atoms: N1_2  and  C2_3 
REMARK    2  A    between atoms: N1_2  and  C5_8 
REMARK    3  A    between atoms: C2_3  and  C3_4 
REMARK    4  A    between atoms: C3_4  and  C4_5 
REMARK    5  A    between atoms: C4_5  and  O1_6 
REMARK    6  A    between atoms: C5_8  and  C6_9 
ROOT
HETATM    1  C6  UNL     1       0.369  -1.208  -0.091  1.00  0.00     0.036 A 
HETATM    2  C7  UNL     1       0.604  -2.341  -0.903  1.00  0.00     0.128 A 
HETATM    3  F1  UNL     1       1.796  -2.976  -0.754  1.00  0.00    -0.205 F 
HETATM    4  C8  UNL     1      -0.328  -2.708  -1.826  1.00  0.00     0.066 A 
HETATM    5  C9  UNL     1      -1.521  -1.984  -2.003  1.00  0.00     0.062 A 
HETATM    6  C10 UNL     1      -2.362  -2.505  -3.007  1.00  0.00     0.100 C 
HETATM    7  N2  UNL     1      -3.044  -2.944  -3.875  1.00  0.00    -0.191 NA
HETATM    8  C11 UNL     1      -1.712  -0.910  -1.213  1.00  0.00     0.046 A 
HETATM    9  C12 UNL     1      -0.755  -0.509  -0.225  1.00  0.00     0.059 A 
HETATM   10  N3  UNL     1      -1.040   0.413   0.860  1.00  0.00    -0.347 N 
ATOM     11  H3  UNL     1      -0.266   0.811   1.392  1.00  0.00     0.166 HD
HETATM   12  C13 UNL     1      -2.397   0.781   1.204  1.00  0.00     0.105 C 
HETATM   13  S1  UNL     1      -2.454   1.427   2.735  1.00  0.00    -0.063 SA
HETATM   14  C14 UNL     1      -3.689   0.742   0.548  1.00  0.00     0.076 C 
HETATM   15  C15 UNL     1      -4.667  -0.221   1.149  1.00  0.00     0.046 C 
HETATM   16  C16 UNL     1      -4.323   2.133   0.778  1.00  0.00     0.046 C 
HETATM   17  N4  UNL     1      -3.627   0.602  -0.888  1.00  0.00    -0.368 N 
ATOM     18  H4  UNL     1      -4.336   1.127  -1.401  1.00  0.00     0.161 HD
HETATM   19  C17 UNL     1      -2.815  -0.084  -1.630  1.00  0.00     0.091 C 
HETATM   20  S2  UNL     1      -3.029   0.047  -3.386  1.00  0.00    -0.032 SA
ENDROOT
BRANCH   1  21
HETATM   21  C5  UNL     1       1.543  -0.822   0.756  1.00  0.00     0.316 C 
BRANCH  21  22
HETATM   22  N1  UNL     1       1.928   0.511   0.359  1.00  0.00     0.088 N 
HETATM   23  C1  UNL     1       2.203   0.603  -1.093  1.00  0.00     0.310 C 
BRANCH  22  24
HETATM   24  C2  UNL     1       3.058   1.063   1.043  1.00  0.00     0.274 C 
BRANCH  24  25
HETATM   25  C3  UNL     1       4.344   0.301   0.716  1.00  0.00     0.056 C 
BRANCH  25  26
HETATM   26  C4  UNL     1       5.512   0.805   1.510  1.00  0.00     0.165 C 
BRANCH  26  27
HETATM   27  O1  UNL     1       5.273   0.618   2.883  1.00  0.00    -0.401 OA
ATOM     28  H1  UNL     1       6.013   0.937   3.386  1.00  0.00     0.209 HD
ENDBRANCH  26  27
ENDBRANCH  25  26
ENDBRANCH  24  25
ENDBRANCH  22  24
ENDBRANCH  21  22
ENDBRANCH   1  21
TORSDOF 6
