REMARK  9 active torsions:
REMARK  status: ('A' for Active; 'I' for Inactive)
REMARK    1  A    between atoms: C2_2  and  C3_3 
REMARK    2  A    between atoms: C6_6  and  C7_7 
REMARK    3  A    between atoms: C7_7  and  N1_8 
REMARK    4  A    between atoms: N1_8  and  C8_10 
REMARK    5  A    between atoms: C9_13  and  N3_14 
REMARK    6  A    between atoms: N3_14  and  C10_16 
REMARK    7  A    between atoms: C10_16  and  C11_17 
REMARK    8  A    between atoms: C17_25  and  N5_26 
REMARK    9  A    between atoms: N5_26  and  C18_28 
ROOT
HETATM    1  C8  UNL     1      -0.299   0.458   0.806  1.00  0.00     0.707 A 
HETATM    2  N2  UNL     1      -0.499  -0.863   0.808  1.00  0.00    -0.022 N 
ATOM      3  H2  UNL     1       0.156  -1.442   1.334  1.00  0.00     0.203 HD
HETATM    4  C9  UNL     1      -1.509  -1.485   0.162  1.00  0.00     0.707 A 
HETATM    5  N4  UNL     1      -2.365  -0.712  -0.528  1.00  0.00    -0.021 N 
ATOM      6  H4  UNL     1      -3.143  -1.137  -1.033  1.00  0.00     0.203 HD
HETATM    7  C17 UNL     1      -2.192   0.642  -0.553  1.00  0.00     0.711 A 
HETATM    8  N8  UNL     1      -1.179   1.223   0.101  1.00  0.00    -0.021 N 
ATOM      9  H8  UNL     1      -1.066   2.236   0.072  1.00  0.00     0.203 HD
ENDROOT
BRANCH   7  10
HETATM   10  N5  UNL     1      -3.035   1.344  -1.226  1.00  0.00    -0.191 N 
ATOM     11  H5  UNL     1      -3.806   0.900  -1.724  1.00  0.00     0.184 HD
BRANCH  10  12
HETATM   12  C18 UNL     1      -2.863   2.752  -1.257  1.00  0.00     0.050 A 
HETATM   13  C19 UNL     1      -2.087   3.322  -2.259  1.00  0.00     0.032 A 
HETATM   14  C20 UNL     1      -1.942   4.687  -2.257  1.00  0.00     0.034 A 
HETATM   15  C21 UNL     1      -2.532   5.491  -1.310  1.00  0.00     0.059 A 
HETATM   16  N6  UNL     1      -2.564   6.813  -1.069  1.00  0.00    -0.300 N 
HETATM   17  C23 UNL     1      -3.307   4.905  -0.313  1.00  0.00     0.011 A 
HETATM   18  N7  UNL     1      -3.288   7.092  -0.014  1.00  0.00    -0.311 N 
ATOM     19  H6  UNL     1      -2.084   7.512  -1.637  1.00  0.00     0.187 HD
HETATM   20  C22 UNL     1      -3.777   5.931   0.498  1.00  0.00     0.120 A 
ATOM     21  H7  UNL     1      -3.457   8.025   0.361  1.00  0.00     0.186 HD
HETATM   22  C24 UNL     1      -3.461   3.538  -0.302  1.00  0.00     0.045 A 
ENDBRANCH  10  12
ENDBRANCH   7  10
BRANCH   4  23
HETATM   23  N3  UNL     1      -1.653  -2.766   0.199  1.00  0.00    -0.221 N 
ATOM     24  H3  UNL     1      -0.995  -3.340   0.726  1.00  0.00     0.178 HD
BRANCH  23  25
HETATM   25  C10 UNL     1      -2.742  -3.382  -0.504  1.00  0.00     0.176 C 
BRANCH  25  26
HETATM   26  C11 UNL     1      -2.899  -4.809  -0.123  1.00  0.00    -0.040 A 
HETATM   27  C12 UNL     1      -2.081  -5.417   0.781  1.00  0.00     0.009 A 
HETATM   28  C13 UNL     1      -2.278  -6.752   1.096  1.00  0.00     0.001 A 
HETATM   29  C14 UNL     1      -3.279  -7.501   0.525  1.00  0.00     0.000 A 
HETATM   30  C15 UNL     1      -4.095  -6.868  -0.387  1.00  0.00     0.001 A 
HETATM   31  C16 UNL     1      -3.904  -5.534  -0.706  1.00  0.00     0.009 A 
ENDBRANCH  25  26
ENDBRANCH  23  25
ENDBRANCH   4  23
BRANCH   1  32
HETATM   32  N1  UNL     1       0.630   1.084   1.396  1.00  0.00    -0.221 N 
ATOM     33  H1  UNL     1       0.619   2.097   1.278  1.00  0.00     0.178 HD
BRANCH  32  34
HETATM   34  C7  UNL     1       1.687   0.575   2.200  1.00  0.00     0.176 C 
BRANCH  34  35
HETATM   35  C6  UNL     1       2.966   0.624   1.422  1.00  0.00    -0.040 A 
HETATM   36  C5  UNL     1       3.408  -0.423   0.640  1.00  0.00     0.009 A 
HETATM   37  C4  UNL     1       4.590  -0.361  -0.072  1.00  0.00     0.007 A 
HETATM   38  C3  UNL     1       5.383   0.769  -0.025  1.00  0.00    -0.059 A 
HETATM   39  C26 UNL     1       4.945   1.818   0.755  1.00  0.00     0.007 A 
HETATM   40  C25 UNL     1       3.762   1.750   1.465  1.00  0.00     0.009 A 
BRANCH  38  41
HETATM   41  C2  UNL     1       6.667   0.875  -0.780  1.00  0.00     0.034 C 
HETATM   42  C1  UNL     1       7.780   0.370   0.106  1.00  0.00     0.010 C 
ENDBRANCH  38  41
ENDBRANCH  34  35
ENDBRANCH  32  34
ENDBRANCH   1  32
TORSDOF 9
