REMARK  6 active torsions:
REMARK  status: ('A' for Active; 'I' for Inactive)
REMARK    1  A    between atoms: C1_2  and  C2_4 
REMARK    2  A    between atoms: C2_4  and  O3_5 
REMARK    3  A    between atoms: C2_4  and  C3_7 
REMARK    4  A    between atoms: C6_10  and  N1_11 
REMARK    5  A    between atoms: N1_11  and  S1_13 
REMARK    6  A    between atoms: S1_13  and  C7_16 
ROOT
HETATM    1  C3  UNL     1       3.251   0.289   0.221  1.00  0.00     0.004 A 
HETATM    2  C4  UNL     1       2.101   0.958  -0.228  1.00  0.00     0.017 A 
HETATM    3  C5  UNL     1       0.856   0.371  -0.150  1.00  0.00     0.031 A 
HETATM    4  C6  UNL     1       0.682  -0.887   0.367  1.00  0.00     0.042 A 
HETATM    5  C13 UNL     1       1.795  -1.547   0.806  1.00  0.00     0.031 A 
HETATM    6  C14 UNL     1       3.063  -0.963   0.733  1.00  0.00     0.017 A 
ENDROOT
BRANCH   4   7
HETATM    7  N1  UNL     1      -0.575  -1.494   0.451  1.00  0.00    -0.281 N 
ATOM      8  H1  UNL     1      -0.853  -1.979   1.305  1.00  0.00     0.179 HD
BRANCH   7   9
HETATM    9  S1  UNL     1      -1.648  -1.422  -0.883  1.00  0.00     0.263 S 
HETATM   10  O4  UNL     1      -0.940  -0.849  -2.091  1.00  0.00    -0.200 OA
HETATM   11  O5  UNL     1      -2.111  -2.803  -1.272  1.00  0.00    -0.200 OA
BRANCH   9  12
HETATM   12  C7  UNL     1      -3.049  -0.434  -0.601  1.00  0.00     0.081 A 
HETATM   13  C8  UNL     1      -4.173  -1.004  -0.048  1.00  0.00     0.025 A 
HETATM   14  C9  UNL     1      -5.325  -0.248   0.194  1.00  0.00     0.003 A 
HETATM   15  C10 UNL     1      -5.324   1.099  -0.133  1.00  0.00     0.024 A 
HETATM   16  C11 UNL     1      -4.208   1.677  -0.686  1.00  0.00     0.035 A 
HETATM   17 CL1  UNL     1      -4.208   3.380  -1.099  1.00  0.00    -0.084 Cl
HETATM   18  C12 UNL     1      -3.066   0.902  -0.919  1.00  0.00     0.049 A 
ENDBRANCH   9  12
ENDBRANCH   7   9
ENDBRANCH   4   7
BRANCH   1  19
HETATM   19  C2  UNL     1       4.534   0.909   0.134  1.00  0.00     0.153 C 
BRANCH  19  20
HETATM   20  C1  UNL     1       5.771   0.343   0.550  1.00  0.00     0.234 C 
HETATM   21  O1  UNL     1       5.926  -0.766   1.049  1.00  0.00    -0.642 OA
HETATM   22  O2  UNL     1       6.953   1.109   0.387  1.00  0.00    -0.642 OA
ENDBRANCH  19  20
BRANCH  19  23
HETATM   23  O3  UNL     1       4.533   2.109  -0.382  1.00  0.00    -0.354 OA
ATOM     24  H3  UNL     1       3.707   2.487  -0.660  1.00  0.00     0.218 HD
ENDBRANCH  19  23
ENDBRANCH   1  19
TORSDOF 6
