REMARK  5 active torsions:
REMARK  status: ('A' for Active; 'I' for Inactive)
REMARK    1  A    between atoms: N1_2  and  C2_4 
REMARK    2  A    between atoms: C2_4  and  N2_6 
REMARK    3  A    between atoms: N2_6  and  C3_8 
REMARK    4  A    between atoms: C3_8  and  C4_9 
REMARK    5  A    between atoms: N3_20  and  C13_21 
ROOT
HETATM    1  C4  UNL     1       1.080  -0.333  -0.547  1.00  0.00     0.098 C 
HETATM    2  C5  UNL     1       0.922   0.992   0.064  1.00  0.00     0.042 C 
HETATM    3  C6  UNL     1       1.975   2.036  -0.043  1.00  0.00     0.168 C 
HETATM    4  O1  UNL     1       1.355   3.165   0.572  1.00  0.00    -0.389 OA
HETATM    5  C7  UNL     1       0.467   3.813  -0.234  1.00  0.00     0.193 C 
HETATM    6  C8  UNL     1      -0.860   4.156   0.339  1.00  0.00     0.193 C 
HETATM    7  O2  UNL     1      -1.538   3.204   1.025  1.00  0.00    -0.389 OA
HETATM    8  C9  UNL     1      -2.771   2.830   0.564  1.00  0.00     0.167 C 
HETATM    9  C10 UNL     1      -2.836   2.148  -0.748  1.00  0.00     0.028 C 
HETATM   10  C11 UNL     1      -2.929   0.640  -0.697  1.00  0.00     0.022 C 
HETATM   11  C12 UNL     1      -2.156  -0.034   0.367  1.00  0.00     0.126 C 
HETATM   12  N3  UNL     1      -1.352  -1.183   0.019  1.00  0.00    -0.347 N 
HETATM   13  C17 UNL     1       0.057  -1.260  -0.019  1.00  0.00     0.226 C 
HETATM   14  O3  UNL     1       0.547  -2.336   0.502  1.00  0.00    -0.273 OA
ENDROOT
BRANCH   1  15
HETATM   15  C3  UNL     1       2.468  -0.827  -0.470  1.00  0.00     0.136 C 
BRANCH  15  16
HETATM   16  N2  UNL     1       3.072  -1.001   0.795  1.00  0.00    -0.366 N 
ATOM     17  H2  UNL     1       2.538  -0.782   1.636  1.00  0.00     0.161 HD
BRANCH  16  18
HETATM   18  C2  UNL     1       4.390  -1.468   0.921  1.00  0.00     0.167 C 
HETATM   19  S1  UNL     1       5.048  -1.654   2.396  1.00  0.00    -0.041 SA
BRANCH  18  20
HETATM   20  N1  UNL     1       5.206  -1.798  -0.211  1.00  0.00    -0.372 N 
HETATM   21  C1  UNL     1       6.547  -2.275  -0.098  1.00  0.00     0.148 C 
ATOM     22  H1  UNL     1       4.809  -1.686  -1.144  1.00  0.00     0.161 HD
ENDBRANCH  18  20
ENDBRANCH  16  18
ENDBRANCH  15  16
ENDBRANCH   1  15
BRANCH  12  23
HETATM   23  C13 UNL     1      -2.084  -2.404  -0.294  1.00  0.00     0.087 C 
HETATM   24  C14 UNL     1      -3.186  -2.464  -1.226  1.00  0.00     0.025 C 
HETATM   25  C15 UNL     1      -3.834  -3.532  -0.317  1.00  0.00     0.004 C 
HETATM   26  C16 UNL     1      -2.996  -2.924   0.800  1.00  0.00     0.025 C 
ENDBRANCH  12  23
TORSDOF 5
