REMARK  4 active torsions:
REMARK  status: ('A' for Active; 'I' for Inactive)
REMARK    1  A    between atoms: C2_2  and  C3_3 
REMARK    2  A    between atoms: C5_5  and  C6_6 
REMARK       I    between atoms: C6_6  and  N1_8 
REMARK    3  A    between atoms: C15_20  and  O2_21 
REMARK    4  A    between atoms: O2_21  and  C16_22 
REMARK       I    between atoms: C16_22  and  N3_24 
ROOT
HETATM    1  C3  UNL     1      -1.209   1.456  -1.678  1.00  0.00     0.016 C 
HETATM    2  C4  UNL     1       0.170   1.930  -1.340  1.00  0.00     0.021 C 
HETATM    3  C5  UNL     1       0.290   1.749   0.151  1.00  0.00     0.081 C 
HETATM    4  C14 UNL     1      -0.650   0.630   0.530  1.00  0.00     0.047 C 
HETATM    5  C15 UNL     1      -1.658   0.507  -0.591  1.00  0.00     0.138 C 
ENDROOT
BRANCH   3   6
HETATM    6  C6  UNL     1       1.662   1.534   0.609  1.00  0.00     0.224 C 
HETATM    7  O1  UNL     1       2.104   2.367   1.483  1.00  0.00    -0.273 OA
HETATM    8  N1  UNL     1       2.506   0.495   0.161  1.00  0.00    -0.343 N 
HETATM    9  C7  UNL     1       2.413  -0.598  -0.768  1.00  0.00     0.161 C 
HETATM   10  C13 UNL     1       3.851   0.063   0.437  1.00  0.00     0.119 C 
HETATM   11  C8  UNL     1       3.348  -1.360   0.145  1.00  0.00     0.226 C 
HETATM   12  N2  UNL     1       4.420  -2.062  -0.473  1.00  0.00    -0.067 N 
HETATM   13  C9  UNL     1       5.391  -2.378   0.589  1.00  0.00     0.233 C 
ATOM     14  H22 UNL     1       4.114  -2.883  -0.995  1.00  0.00     0.277 HD
ATOM     15  H21 UNL     1       4.832  -1.556  -1.257  1.00  0.00     0.277 HD
HETATM   16  C10 UNL     1       6.217  -1.162   0.831  1.00  0.00     0.027 C 
HETATM   17  C11 UNL     1       5.725  -0.302   1.962  1.00  0.00     0.004 C 
HETATM   18  C12 UNL     1       4.292   0.085   1.861  1.00  0.00     0.027 C 
ENDBRANCH   3   6
BRANCH   1  19
HETATM   19  C2  UNL     1      -1.346   0.892  -3.052  1.00  0.00     0.002 C 
HETATM   20  C1  UNL     1      -0.491  -0.287  -3.350  1.00  0.00     0.005 C 
ENDBRANCH   1  19
BRANCH   5  21
HETATM   21  O2  UNL     1      -2.967   0.749  -0.167  1.00  0.00    -0.298 OA
BRANCH  21  22
HETATM   22  C16 UNL     1      -3.948  -0.224  -0.254  1.00  0.00     0.364 C 
HETATM   23  O3  UNL     1      -3.604  -1.337  -0.733  1.00  0.00    -0.238 OA
HETATM   24  N3  UNL     1      -5.282  -0.022   0.162  1.00  0.00    -0.302 N 
HETATM   25  C17 UNL     1      -6.379  -0.965   0.116  1.00  0.00     0.157 C 
HETATM   26  C19 UNL     1      -5.790   1.208   0.723  1.00  0.00     0.361 C 
HETATM   27  C18 UNL     1      -7.283  -0.461   1.227  1.00  0.00     0.254 C 
HETATM   28  N4  UNL     1      -7.182   0.988   1.019  1.00  0.00    -0.058 N 
ATOM     29  H42 UNL     1      -7.822   1.354   0.314  1.00  0.00     0.279 HD
ATOM     30  H41 UNL     1      -7.538   1.547   1.795  1.00  0.00     0.279 HD
ENDBRANCH  21  22
ENDBRANCH   5  21
TORSDOF 4
