REMARK  14 active torsions:
REMARK  status: ('A' for Active; 'I' for Inactive)
REMARK    1  A    between atoms: C3_4  and  N1_5 
REMARK    2  A    between atoms: C4_10  and  C5_11 
REMARK    3  A    between atoms: C6_14  and  O2_15 
REMARK    4  A    between atoms: O2_15  and  C7_16 
REMARK    5  A    between atoms: C8_23  and  N7_24 
REMARK    6  A    between atoms: C9_25  and  C10_26 
REMARK    7  A    between atoms: C10_26  and  O3_27 
REMARK    8  A    between atoms: C11_29  and  O4_30 
REMARK    9  A    between atoms: C12_32  and  O5_33 
REMARK   10  A    between atoms: C13_35  and  C14_36 
REMARK   11  A    between atoms: C14_36  and  O6_37 
REMARK   12  A    between atoms: O6_37  and  N8_38 
REMARK   13  A    between atoms: C16_43  and  C17_44 
REMARK   14  A    between atoms: C17_44  and  N11_45 
ROOT
HETATM    1  C7  UNL     1       1.554   1.597  -0.108  1.00  0.00     0.262 A 
HETATM    2  N4  UNL     1       1.255   2.666  -0.904  1.00  0.00    -0.249 N 
ATOM      3  H4  UNL     1       1.958   3.385  -1.076  1.00  0.00     0.192 HD
HETATM    4  N5  UNL     1       0.060   2.770  -1.451  1.00  0.00    -0.225 N 
ATOM      5  H5  UNL     1      -0.159   3.570  -2.045  1.00  0.00     0.209 HD
HETATM    6  N6  UNL     1      -0.844   1.854  -1.236  1.00  0.00    -0.117 N 
ATOM      7  H6  UNL     1      -1.763   1.951  -1.668  1.00  0.00     0.207 HD
HETATM    8  C8  UNL     1      -0.591   0.772  -0.450  1.00  0.00     0.700 A 
HETATM    9  N12 UNL     1       0.612   0.675   0.095  1.00  0.00    -0.152 N 
ATOM     10  H12 UNL     1       0.824  -0.128   0.687  1.00  0.00     0.188 HD
ENDROOT
BRANCH   8  11
HETATM   11  N7  UNL     1      -1.653  -0.196  -0.271  1.00  0.00    -0.200 N 
HETATM   12  C9  UNL     1      -1.599  -1.346   0.542  1.00  0.00     0.157 C 
HETATM   13  C11 UNL     1      -2.672  -1.370   1.620  1.00  0.00     0.172 C 
HETATM   14  C12 UNL     1      -3.978  -0.825   1.158  1.00  0.00     0.157 C 
HETATM   15  C13 UNL     1      -4.078  -0.532  -0.296  1.00  0.00     0.068 C 
HETATM   16  C16 UNL     1      -2.909   0.009  -0.997  1.00  0.00     0.137 C 
BRANCH  12  17
HETATM   17  C10 UNL     1      -0.257  -1.628   1.162  1.00  0.00     0.192 C 
BRANCH  17  18
HETATM   18  O3  UNL     1      -0.335  -2.824   1.939  1.00  0.00    -0.399 OA
ATOM     19  H3  UNL     1       0.512  -3.002   2.330  1.00  0.00     0.209 HD
ENDBRANCH  17  18
ENDBRANCH  12  17
BRANCH  13  20
HETATM   20  O4  UNL     1      -2.768  -2.694   2.039  1.00  0.00    -0.391 OA
ATOM     21  H4  UNL     1      -3.438  -2.709   2.712  1.00  0.00     0.210 HD
ENDBRANCH  13  20
BRANCH  14  22
HETATM   22  O5  UNL     1      -4.987  -1.707   1.548  1.00  0.00    -0.392 OA
ATOM     23  H5  UNL     1      -5.820  -1.359   1.253  1.00  0.00     0.210 HD
ENDBRANCH  14  22
BRANCH  15  24
HETATM   24  C14 UNL     1      -5.246   0.438  -0.560  1.00  0.00     0.210 C 
BRANCH  24  25
HETATM   25  O6  UNL     1      -5.044   1.648   0.134  1.00  0.00    -0.278 OA
BRANCH  25  26
HETATM   26  N8  UNL     1      -5.919   2.671   0.074  1.00  0.00    -0.241 N 
HETATM   27  C15 UNL     1      -7.116   2.707   0.520  1.00  0.00     0.221 C 
HETATM   28  N9  UNL     1      -7.923   3.893   0.371  1.00  0.00    -0.065 NA
HETATM   29  N10 UNL     1      -7.688   1.597   1.171  1.00  0.00    -0.065 NA
ATOM     30  H8  UNL     1      -5.585   3.520  -0.383  1.00  0.00     0.196 HD
ENDBRANCH  25  26
ENDBRANCH  24  25
ENDBRANCH  15  24
BRANCH  16  31
HETATM   31  C17 UNL     1      -2.812  -0.470  -2.431  1.00  0.00     0.256 C 
BRANCH  31  32
HETATM   32  N11 UNL     1      -2.510  -1.857  -2.573  1.00  0.00    -0.077 N 
ATOM     33 3H11 UNL     1      -1.658  -2.089  -2.063  1.00  0.00     0.274 HD
ATOM     34 2H11 UNL     1      -3.183  -2.422  -2.055  1.00  0.00     0.274 HD
ATOM     35 1H11 UNL     1      -2.445  -2.179  -3.538  1.00  0.00     0.274 HD
ENDBRANCH  31  32
ENDBRANCH  16  31
ENDBRANCH   8  11
BRANCH   1  36
HETATM   36  O2  UNL     1       2.822   1.528   0.446  1.00  0.00    -0.244 OA
BRANCH  36  37
HETATM   37  C6  UNL     1       3.787   0.784  -0.206  1.00  0.00     0.247 A 
HETATM   38  N3  UNL     1       5.027   0.697   0.305  1.00  0.00    -0.305 N 
HETATM   39  C5  UNL     1       5.995  -0.012  -0.292  1.00  0.00     0.153 A 
ATOM     40  H3  UNL     1       5.238   1.186   1.175  1.00  0.00     0.171 HD
HETATM   41  N15 UNL     1       5.690  -0.645  -1.435  1.00  0.00    -0.174 N 
HETATM   42  C18 UNL     1       4.470  -0.596  -1.994  1.00  0.00     0.680 A 
ATOM     43  H15 UNL     1       6.418  -1.188  -1.900  1.00  0.00     0.186 HD
HETATM   44  N13 UNL     1       3.524   0.137  -1.349  1.00  0.00    -0.154 N 
HETATM   45  N14 UNL     1       4.196  -1.215  -3.098  1.00  0.00    -0.234 N 
ATOM     46  H13 UNL     1       2.587   0.196  -1.747  1.00  0.00     0.188 HD
ATOM     47 2H14 UNL     1       3.269  -1.178  -3.523  1.00  0.00     0.174 HD
ATOM     48 1H14 UNL     1       4.906  -1.765  -3.582  1.00  0.00     0.174 HD
BRANCH  39  49
HETATM   49  C4  UNL     1       7.333  -0.081   0.299  1.00  0.00     0.110 A 
HETATM   50  C2  UNL     1       7.776   0.518   1.459  1.00  0.00     0.083 A 
HETATM   51  C1  UNL     1       6.951   1.367   2.347  1.00  0.00     0.079 C 
HETATM   52  O1  UNL     1       9.031   0.196   1.612  1.00  0.00    -0.282 OA
HETATM   53  C3  UNL     1       9.456  -0.563   0.657  1.00  0.00     0.222 A 
HETATM   54  N2  UNL     1       8.396  -0.748  -0.183  1.00  0.00    -0.317 N 
ATOM     55  H2  UNL     1       8.408  -1.303  -1.039  1.00  0.00     0.169 HD
BRANCH  53  56
HETATM   56  N1  UNL     1      10.650  -1.037   0.543  1.00  0.00    -0.365 N 
ATOM     57  H12 UNL     1      11.442  -0.899   1.171  1.00  0.00     0.159 HD
ATOM     58  H11 UNL     1      10.986  -1.636  -0.211  1.00  0.00     0.159 HD
ENDBRANCH  53  56
ENDBRANCH  39  49
ENDBRANCH  36  37
ENDBRANCH   1  36
TORSDOF 14
