REMARK  4 active torsions:
REMARK  status: ('A' for Active; 'I' for Inactive)
REMARK    1  A    between atoms: O1_2  and  C2_3 
REMARK    2  A    between atoms: C4_5  and  N1_6 
REMARK    3  A    between atoms: N1_6  and  C5_8 
REMARK    4  A    between atoms: C6_12  and  N3_13 
ROOT
HETATM    1  C2  UNL     1      -1.168  -0.045   0.012  1.00  0.00     0.076 A 
HETATM    2  C3  UNL     1      -0.603   0.428   1.069  1.00  0.00     0.035 A 
HETATM    3  C4  UNL     1       0.572   0.853   0.342  1.00  0.00     0.144 A 
HETATM    4  C6  UNL     1      -0.072   0.316  -0.850  1.00  0.00     0.265 A 
ENDROOT
BRANCH   3   5
HETATM    5  N1  UNL     1       1.828   0.265   0.751  1.00  0.00    -0.376 N 
ATOM      6  H1  UNL     1       1.839  -0.409   1.516  1.00  0.00     0.161 HD
BRANCH   5   7
HETATM    7  C5  UNL     1       3.033   0.605   0.114  1.00  0.00     0.169 C 
HETATM    8  N2  UNL     1       4.102  -0.125   0.212  1.00  0.00    -0.396 N 
ATOM      9  H22 UNL     1       4.048  -0.973   0.776  1.00  0.00     0.156 HD
ATOM     10  H21 UNL     1       4.977   0.122  -0.251  1.00  0.00     0.156 HD
ENDBRANCH   5   7
ENDBRANCH   3   5
BRANCH   4  11
HETATM   11  N3  UNL     1       0.532  -0.892  -1.426  1.00  0.00    -0.067 N 
ATOM     12  H33 UNL     1       0.814  -1.558  -0.707  1.00  0.00     0.275 HD
ATOM     13  H32 UNL     1      -0.156  -1.473  -1.905  1.00  0.00     0.275 HD
ATOM     14  H31 UNL     1       1.308  -0.636  -2.036  1.00  0.00     0.275 HD
ENDBRANCH   4  11
BRANCH   1  15
HETATM   15  O1  UNL     1      -2.397  -0.675  -0.200  1.00  0.00    -0.358 OA
HETATM   16  C1  UNL     1      -3.500  -0.438   0.687  1.00  0.00     0.209 C 
ENDBRANCH   1  15
TORSDOF 4
