REMARK  5 active torsions:
REMARK  status: ('A' for Active; 'I' for Inactive)
REMARK       I    between atoms: C1_2  and  N2_4 
REMARK    1  A    between atoms: N2_4  and  N3_5 
REMARK    2  A    between atoms: N3_5  and  C2_6 
REMARK    3  A    between atoms: C2_6  and  C3_7 
REMARK    4  A    between atoms: C2_6  and  C4_10 
REMARK    5  A    between atoms: C3_7  and  O2_8 
REMARK       I    between atoms: C4_10  and  N4_12 
ROOT
HETATM    1  C4  UNL     1       0.514  -0.339  -0.539  1.00  0.00     0.247 C 
HETATM    2  O3  UNL     1       0.156  -1.112  -1.508  1.00  0.00    -0.271 OA
HETATM    3  N4  UNL     1      -0.357   0.481   0.073  1.00  0.00    -0.307 N 
ATOM      4  H4  UNL     1       0.201   1.216   0.507  1.00  0.00     0.170 HD
HETATM    5  C5  UNL     1      -1.514   0.734   0.338  1.00  0.00     0.179 C 
HETATM    6  N5  UNL     1      -2.466  -0.132  -0.146  1.00  0.00    -0.322 N 
ATOM      7  H5  UNL     1      -2.105  -0.999  -0.544  1.00  0.00     0.169 HD
HETATM    8  C6  UNL     1      -3.807  -0.002  -0.171  1.00  0.00     0.140 A 
HETATM    9  N6  UNL     1      -4.692  -0.991  -0.455  1.00  0.00    -0.337 N 
ATOM     10  H6  UNL     1      -4.450  -1.954  -0.686  1.00  0.00     0.168 HD
HETATM   11  C7  UNL     1      -5.962  -0.487  -0.381  1.00  0.00     0.182 A 
HETATM   12  N7  UNL     1      -5.868   0.806  -0.053  1.00  0.00    -0.345 N 
ATOM     13  H7  UNL     1      -6.657   1.440   0.074  1.00  0.00     0.167 HD
HETATM   14  C8  UNL     1      -4.575   1.141   0.083  1.00  0.00     0.146 A 
HETATM   15  C9  UNL     1      -4.075   2.347   0.442  1.00  0.00     0.279 C 
HETATM   16  O4  UNL     1      -4.912   3.303   0.233  1.00  0.00    -0.265 OA
HETATM   17  N8  UNL     1      -2.884   2.694   0.962  1.00  0.00    -0.285 N 
ATOM     18  H8  UNL     1      -2.759   3.658   1.271  1.00  0.00     0.172 HD
HETATM   19  C10 UNL     1      -1.818   1.822   1.103  1.00  0.00     0.292 C 
HETATM   20  O5  UNL     1      -1.034   2.067   2.056  1.00  0.00    -0.264 OA
ENDROOT
BRANCH   1  21
HETATM   21  C2  UNL     1       1.941  -0.429  -0.170  1.00  0.00     0.229 C 
BRANCH  21  22
HETATM   22  N3  UNL     1       2.784  -0.892  -1.298  1.00  0.00    -0.041 NA
BRANCH  22  23
HETATM   23  N2  UNL     1       4.101  -0.729  -1.021  1.00  0.00    -0.276 NA
HETATM   24  C1  UNL     1       5.414  -0.570  -0.753  1.00  0.00     0.420 C 
HETATM   25  N1  UNL     1       5.897   0.149   0.428  1.00  0.00    -0.024 NA
HETATM   26  O1  UNL     1       6.360  -0.985  -1.453  1.00  0.00    -0.233 OA
ENDBRANCH  22  23
ENDBRANCH  21  22
BRANCH  21  27
HETATM   27  C3  UNL     1       2.231  -1.161   1.084  1.00  0.00     0.198 C 
BRANCH  27  28
HETATM   28  O2  UNL     1       2.058  -2.552   1.002  1.00  0.00    -0.399 OA
ATOM     29  H2  UNL     1       2.244  -3.022   1.807  1.00  0.00     0.209 HD
ENDBRANCH  27  28
ENDBRANCH  21  27
ENDBRANCH   1  21
TORSDOF 5
