REMARK  2 active torsions:
REMARK  status: ('A' for Active; 'I' for Inactive)
REMARK    1  A    between atoms: C2_2  and  C3_3 
REMARK    2  A    between atoms: C3_3  and  N1_4 
ROOT
HETATM    1  N1  UNL     1      -0.029   0.067   0.177  1.00  0.00    -0.363 N 
HETATM    2  C4  UNL     1      -0.677   1.267  -0.130  1.00  0.00     0.074 C 
HETATM    3  C5  UNL     1      -2.053   1.399   0.484  1.00  0.00     0.125 C 
HETATM    4  S1  UNL     1      -2.428  -0.156   1.396  1.00  0.00    -0.106 SA
HETATM    5  C6  UNL     1      -1.818  -1.443   0.311  1.00  0.00     0.079 C 
HETATM    6  N2  UNL     1      -2.492  -2.495   0.138  1.00  0.00    -0.393 N 
ATOM      7  H21 UNL     1      -2.144  -3.228  -0.480  1.00  0.00     0.156 HD
ATOM      8  H22 UNL     1      -3.390  -2.695   0.579  1.00  0.00     0.156 HD
HETATM    9  C7  UNL     1      -0.510  -1.151  -0.331  1.00  0.00     0.126 C 
ENDROOT
BRANCH   1  10
HETATM   10  C3  UNL     1       1.315   0.138   0.631  1.00  0.00     0.154 C 
BRANCH  10  11
HETATM   11  C2  UNL     1       2.281   0.593  -0.395  1.00  0.00    -0.017 C 
HETATM   12  C1  UNL     1       3.302  -0.137  -0.801  1.00  0.00     0.008 C 
ENDBRANCH  10  11
ENDBRANCH   1  10
TORSDOF 2
