REMARK  4 active torsions:
REMARK  status: ('A' for Active; 'I' for Inactive)
REMARK    1  A    between atoms: N1_2  and  C3_4 
REMARK    2  A    between atoms: N3_8  and  C5_9 
REMARK    3  A    between atoms: C11_15  and  C12_16 
REMARK    4  A    between atoms: C12_16  and  C13_17 
ROOT
HETATM    1  C3  UNL     1       0.211   2.436  -0.398  1.00  0.00     0.126 A 
HETATM    2  N2  UNL     1      -0.939   3.012   0.016  1.00  0.00    -0.337 N 
ATOM      3  H2  UNL     1      -1.084   4.020   0.073  1.00  0.00     0.168 HD
HETATM    4  C4  UNL     1      -1.862   2.107   0.341  1.00  0.00     0.185 A 
HETATM    5  N3  UNL     1      -1.317   0.893   0.139  1.00  0.00    -0.338 N 
HETATM    6  C11 UNL     1      -0.042   1.073  -0.316  1.00  0.00     0.059 A 
ENDROOT
BRANCH   6   7
HETATM    7  C12 UNL     1       0.934   0.035  -0.673  1.00  0.00     0.094 C 
BRANCH   7   8
HETATM    8  C13 UNL     1       2.012  -0.162   0.355  1.00  0.00     0.137 C 
HETATM    9  O1  UNL     1       1.562  -0.541   1.619  1.00  0.00    -0.384 OA
HETATM   10  C14 UNL     1       1.783  -1.875   1.285  1.00  0.00     0.179 C 
HETATM   11  C15 UNL     1       2.789  -1.425   0.271  1.00  0.00     0.000 C 
HETATM   12  C16 UNL     1       4.175  -1.314   0.867  1.00  0.00     0.020 C 
HETATM   13  C17 UNL     1       2.800  -2.151  -1.033  1.00  0.00     0.020 C 
ENDBRANCH   7   8
ENDBRANCH   6   7
BRANCH   1  14
HETATM   14  N1  UNL     1       1.404   3.082  -0.820  1.00  0.00    -0.374 N 
HETATM   15  C1  UNL     1       1.930   2.880  -2.128  1.00  0.00     0.150 C 
HETATM   16  C2  UNL     1       2.082   3.958   0.107  1.00  0.00     0.150 C 
ENDBRANCH   1  14
BRANCH   5  17
HETATM   17  C5  UNL     1      -1.981  -0.382   0.367  1.00  0.00     0.091 C 
HETATM   18  C6  UNL     1      -2.614  -0.861  -0.907  1.00  0.00     0.026 C 
HETATM   19  C7  UNL     1      -3.605  -1.960  -0.713  1.00  0.00     0.002 C 
HETATM   20  C8  UNL     1      -4.609  -1.600   0.343  1.00  0.00     0.000 C 
HETATM   21  C9  UNL     1      -3.824  -1.481   1.657  1.00  0.00     0.002 C 
HETATM   22  C10 UNL     1      -2.970  -0.218   1.478  1.00  0.00     0.026 C 
ENDBRANCH   5  17
TORSDOF 4
