REMARK  9 active torsions:
REMARK  status: ('A' for Active; 'I' for Inactive)
REMARK    1  A    between atoms: C2_2  and  C3_3 
REMARK    2  A    between atoms: C3_3  and  N1_4 
REMARK    3  A    between atoms: C4_6  and  C5_7 
REMARK    4  A    between atoms: C5_7  and  C6_8 
REMARK    5  A    between atoms: C6_8  and  N2_9 
REMARK    6  A    between atoms: C7_10  and  O1_11 
REMARK    7  A    between atoms: C8_13  and  C15_23 
REMARK    8  A    between atoms: C9_14  and  C11_18 
REMARK    9  A    between atoms: C10_15  and  O2_16 
ROOT
HETATM    1  N2  UNL     1       0.045  -0.849   0.032  1.00  0.00    -0.307 N 
HETATM    2  C7  UNL     1      -0.732  -0.827   1.124  1.00  0.00     0.156 A 
HETATM    3  C8  UNL     1      -1.994  -0.461   0.773  1.00  0.00     0.058 A 
HETATM    4  C9  UNL     1      -2.006  -0.246  -0.591  1.00  0.00     0.013 A 
HETATM    5  C10 UNL     1      -0.721  -0.497  -1.011  1.00  0.00     0.151 A 
ENDROOT
BRANCH   1   6
HETATM    6  C6  UNL     1       1.446  -1.182  -0.052  1.00  0.00     0.138 C 
BRANCH   6   7
HETATM    7  C5  UNL     1       2.326   0.041   0.126  1.00  0.00     0.064 C 
BRANCH   7   8
HETATM    8  C4  UNL     1       3.753  -0.350   0.032  1.00  0.00     0.057 C 
HETATM    9  N1  UNL     1       4.538  -0.210   1.021  1.00  0.00    -0.402 N 
ATOM     10  H1  UNL     1       4.166   0.179   1.887  1.00  0.00     0.158 HD
BRANCH   9  11
HETATM   11  C3  UNL     1       5.925  -0.575   0.974  1.00  0.00     0.118 C 
BRANCH  11  12
HETATM   12  C2  UNL     1       6.565   0.142  -0.191  1.00  0.00     0.015 C 
HETATM   13  C1  UNL     1       6.396   1.634   0.058  1.00  0.00     0.006 C 
ENDBRANCH  11  12
ENDBRANCH   9  11
ENDBRANCH   7   8
ENDBRANCH   6   7
ENDBRANCH   1   6
BRANCH   2  14
HETATM   14  O1  UNL     1      -0.320  -1.131   2.422  1.00  0.00    -0.345 OA
ATOM     15  H1  UNL     1      -0.871  -1.115   3.196  1.00  0.00     0.219 HD
ENDBRANCH   2  14
BRANCH   5  16
HETATM   16  O2  UNL     1      -0.338  -0.383  -2.354  1.00  0.00    -0.345 OA
ATOM     17  H2  UNL     1      -0.881  -0.134  -3.093  1.00  0.00     0.219 HD
ENDBRANCH   5  16
BRANCH   3  18
HETATM   18  C15 UNL     1      -3.177  -0.314   1.700  1.00  0.00     0.300 C 
HETATM   19  O3  UNL     1      -3.807   0.847   1.318  1.00  0.00    -0.346 OA
HETATM   20  C13 UNL     1      -4.386   0.892   0.104  1.00  0.00     0.068 C 
HETATM   21  C12 UNL     1      -3.550   1.554  -0.987  1.00  0.00     0.048 C 
HETATM   22  C14 UNL     1      -5.775   1.534   0.190  1.00  0.00     0.047 C 
HETATM   23  C17 UNL     1      -4.414  -0.336  -0.720  1.00  0.00     0.053 C 
HETATM   24  C11 UNL     1      -3.157   0.172  -1.443  1.00  0.00     0.035 C 
HETATM   25  C16 UNL     1      -4.108  -1.596   0.055  1.00  0.00     0.179 C 
HETATM   26  O4  UNL     1      -4.035  -1.371   1.436  1.00  0.00    -0.356 OA
ENDBRANCH   3  18
TORSDOF 9
