REMARK  4 active torsions:
REMARK  status: ('A' for Active; 'I' for Inactive)
REMARK    1  A    between atoms: C2_2  and  C11_15 
REMARK    2  A    between atoms: N1_3  and  O1_5 
REMARK    3  A    between atoms: O1_5  and  C3_6 
REMARK    4  A    between atoms: C8_11  and  C9_12 
ROOT
HETATM    1  C3  UNL     1      -0.219  -0.895   0.327  1.00  0.00     0.164 C 
HETATM    2  C4  UNL     1      -1.092  -2.109   0.381  1.00  0.00     0.019 C 
HETATM    3  C5  UNL     1      -2.360  -1.599   1.082  1.00  0.00     0.012 C 
HETATM    4  C6  UNL     1      -2.463  -0.720  -0.149  1.00  0.00    -0.003 C 
HETATM    5  C7  UNL     1      -1.944  -1.950  -0.880  1.00  0.00     0.012 C 
HETATM    6  C8  UNL     1      -1.269   0.178   0.037  1.00  0.00     0.044 C 
ENDROOT
BRANCH   1   7
HETATM    7  O1  UNL     1       0.680  -0.874  -0.728  1.00  0.00    -0.274 OA
BRANCH   7   8
HETATM    8  N1  UNL     1       2.011  -0.740  -0.692  1.00  0.00    -0.269 N 
HETATM    9  C2  UNL     1       2.692   0.346  -0.720  1.00  0.00     0.070 C 
HETATM   10  C1  UNL     1       1.998   1.632  -0.802  1.00  0.00     0.071 C 
ATOM     11  H1  UNL     1       2.548  -1.605  -0.636  1.00  0.00     0.194 HD
BRANCH   9  12
HETATM   12  C11 UNL     1       4.168   0.239  -0.668  1.00  0.00     0.400 C 
HETATM   13  F1  UNL     1       4.669   0.901   0.443  1.00  0.00    -0.208 F 
HETATM   14  F2  UNL     1       4.640   0.856  -1.836  1.00  0.00    -0.208 F 
ENDBRANCH   9  12
ENDBRANCH   7   8
ENDBRANCH   1   7
BRANCH   6  15
HETATM   15  C9  UNL     1      -1.416   1.113   1.180  1.00  0.00    -0.012 C 
HETATM   16  C10 UNL     1      -1.377   2.445   0.977  1.00  0.00     0.052 C 
HETATM   17 BR1  UNL     1      -1.559   3.697   2.395  1.00  0.00    -0.064 Br
ENDBRANCH   6  15
TORSDOF 4
