REMARK  14 active torsions:
REMARK  status: ('A' for Active; 'I' for Inactive)
REMARK    1  A    between atoms: O1_2  and  C2_3 
REMARK    2  A    between atoms: C3_5  and  N1_6 
REMARK    3  A    between atoms: N1_6  and  C4_8 
REMARK    4  A    between atoms: C5_11  and  N3_12 
REMARK    5  A    between atoms: C6_17  and  O3_18 
REMARK    6  A    between atoms: O3_18  and  C7_19 
REMARK    7  A    between atoms: C7_19  and  C8_20 
REMARK       I    between atoms: C8_20  and  N5_22 
REMARK    8  A    between atoms: C10_28  and  C11_29 
REMARK    9  A    between atoms: C11_29  and  N8_30 
REMARK   10  A    between atoms: C11_29  and  O6_34 
REMARK   11  A    between atoms: C12_36  and  N9_37 
REMARK   12  A    between atoms: C13_40  and  O9_41 
REMARK   13  A    between atoms: C14_43  and  O10_44 
REMARK   14  A    between atoms: C15_46  and  O11_47 
ROOT
HETATM    1  C4  UNL     1      -1.594  -1.078   0.803  1.00  0.00     0.156 A 
HETATM    2  N2  UNL     1      -1.176  -1.999  -0.066  1.00  0.00    -0.174 N 
ATOM      3  H2  UNL     1      -1.879  -2.558  -0.550  1.00  0.00     0.186 HD
HETATM    4  C5  UNL     1       0.141  -2.237  -0.346  1.00  0.00     0.679 A 
HETATM    5  N4  UNL     1       1.068  -1.500   0.291  1.00  0.00    -0.168 N 
ATOM      6  H4  UNL     1       2.053  -1.672   0.088  1.00  0.00     0.186 HD
HETATM    7  C6  UNL     1       0.753  -0.550   1.181  1.00  0.00     0.195 A 
HETATM    8  C12 UNL     1      -0.588  -0.330   1.447  1.00  0.00     0.198 A 
ENDROOT
BRANCH   7   9
HETATM    9  O3  UNL     1       1.698   0.223   1.853  1.00  0.00    -0.324 OA
BRANCH   9  10
HETATM   10  C7  UNL     1       3.066   0.161   1.681  1.00  0.00     0.281 C 
BRANCH  10  11
HETATM   11  C8  UNL     1       3.523   0.528   0.330  1.00  0.00     0.262 C 
HETATM   12  O4  UNL     1       2.759   0.947  -0.599  1.00  0.00    -0.269 OA
HETATM   13  N5  UNL     1       4.894   0.432  -0.027  1.00  0.00    -0.225 N 
HETATM   14  N6  UNL     1       5.901  -0.004   0.838  1.00  0.00    -0.014 NA
HETATM   15  C10 UNL     1       5.568   0.732  -1.275  1.00  0.00     0.258 C 
HETATM   16  N7  UNL     1       6.585  -0.908  -0.008  1.00  0.00    -0.252 N 
HETATM   17  C9  UNL     1       6.504  -0.436  -1.359  1.00  0.00     0.263 C 
ATOM     18  H7  UNL     1       7.059  -1.759   0.295  1.00  0.00     0.187 HD
HETATM   19  O5  UNL     1       7.071  -0.876  -2.381  1.00  0.00    -0.270 OA
BRANCH  15  20
HETATM   20  C11 UNL     1       6.335   2.032  -1.206  1.00  0.00     0.350 C 
BRANCH  20  21
HETATM   21  N8  UNL     1       6.954   2.241  -2.502  1.00  0.00    -0.051 N 
ATOM     22  H83 UNL     1       7.531   1.454  -2.799  1.00  0.00     0.277 HD
ATOM     23  H82 UNL     1       6.285   2.214  -3.272  1.00  0.00     0.277 HD
ATOM     24  H81 UNL     1       7.472   3.119  -2.455  1.00  0.00     0.277 HD
ENDBRANCH  20  21
BRANCH  20  25
HETATM   25  O6  UNL     1       5.534   3.112  -0.932  1.00  0.00    -0.368 OA
ATOM     26  H6  UNL     1       6.016   3.929  -0.889  1.00  0.00     0.212 HD
ENDBRANCH  20  25
ENDBRANCH  15  20
ENDBRANCH  10  11
ENDBRANCH   9  10
ENDBRANCH   7   9
BRANCH   8  27
HETATM   27  N9  UNL     1      -0.969   0.657   2.389  1.00  0.00    -0.107 N 
HETATM   28  O7  UNL     1      -2.146   0.887   2.694  1.00  0.00    -0.531 OA
HETATM   29  O8  UNL     1      -0.007   1.409   3.019  1.00  0.00    -0.531 OA
ENDBRANCH   8  27
BRANCH   4  30
HETATM   30  N3  UNL     1       0.451  -3.152  -1.205  1.00  0.00    -0.234 N 
ATOM     31  H32 UNL     1      -0.252  -3.711  -1.688  1.00  0.00     0.174 HD
ATOM     32  H31 UNL     1       1.433  -3.330  -1.414  1.00  0.00     0.174 HD
ENDBRANCH   4  30
BRANCH   1  33
HETATM   33  N1  UNL     1      -2.768  -0.846   1.068  1.00  0.00    -0.345 N 
ATOM     34  H1  UNL     1      -2.777  -0.097   1.760  1.00  0.00     0.163 HD
BRANCH  33  35
HETATM   35  C3  UNL     1      -4.092  -1.183   0.814  1.00  0.00     0.257 C 
HETATM   36  O2  UNL     1      -4.984  -0.143   1.185  1.00  0.00    -0.332 OA
HETATM   37  C2  UNL     1      -5.101   0.827   0.191  1.00  0.00     0.293 C 
HETATM   38  C15 UNL     1      -5.747   0.225  -1.054  1.00  0.00     0.204 C 
HETATM   39  C14 UNL     1      -5.875  -1.287  -0.859  1.00  0.00     0.184 C 
HETATM   40  C13 UNL     1      -4.444  -1.760  -0.511  1.00  0.00     0.198 C 
BRANCH  37  41
HETATM   41  O1  UNL     1      -3.914   1.467  -0.116  1.00  0.00    -0.363 OA
HETATM   42  C1  UNL     1      -4.042   2.820   0.165  1.00  0.00     0.204 C 
ENDBRANCH  37  41
BRANCH  38  43
HETATM   43  O11 UNL     1      -4.881   0.438  -2.122  1.00  0.00    -0.388 OA
ATOM     44  H11 UNL     1      -5.283   0.063  -2.897  1.00  0.00     0.210 HD
ENDBRANCH  38  43
BRANCH  39  45
HETATM   45  O10 UNL     1      -6.664  -1.541   0.260  1.00  0.00    -0.390 OA
ATOM     46  H10 UNL     1      -7.543  -1.250   0.046  1.00  0.00     0.210 HD
ENDBRANCH  39  45
BRANCH  40  47
HETATM   47  O9  UNL     1      -4.591  -3.157  -0.411  1.00  0.00    -0.389 OA
ATOM     48  H9  UNL     1      -4.816  -3.526  -1.257  1.00  0.00     0.210 HD
ENDBRANCH  40  47
ENDBRANCH  33  35
ENDBRANCH   1  33
TORSDOF 14
