REMARK  15 active torsions:
REMARK  status: ('A' for Active; 'I' for Inactive)
REMARK    1  A    between atoms: N1_1  and  C1_4 
REMARK    2  A    between atoms: C2_7  and  C3_8 
REMARK    3  A    between atoms: N5_13  and  C4_14 
REMARK    4  A    between atoms: C5_15  and  C6_16 
REMARK    5  A    between atoms: C6_16  and  C7_17 
REMARK    6  A    between atoms: C8_18  and  N6_19 
REMARK    7  A    between atoms: C9_23  and  O1_24 
REMARK    8  A    between atoms: C10_26  and  O2_27 
REMARK    9  A    between atoms: C11_29  and  O3_30 
REMARK   10  A    between atoms: C12_33  and  N7_34 
REMARK   11  A    between atoms: N7_34  and  C13_36 
REMARK   12  A    between atoms: C13_36  and  C14_37 
REMARK   13  A    between atoms: C13_36  and  C15_40 
REMARK   14  A    between atoms: C14_37  and  O5_38 
REMARK   15  A    between atoms: C16_43  and  O8_44 
ROOT
HETATM    1  C4  UNL     1      -0.060   0.084  -0.118  1.00  0.00     0.194 C 
HETATM    2  C5  UNL     1      -1.300  -0.073  -0.932  1.00  0.00     0.176 C 
HETATM    3  O4  UNL     1      -2.201   0.812  -0.334  1.00  0.00    -0.353 OA
HETATM    4  C12 UNL     1      -1.388   1.989  -0.405  1.00  0.00     0.249 C 
HETATM    5  C16 UNL     1      -0.136   1.573   0.308  1.00  0.00     0.196 C 
ENDROOT
BRANCH   1   6
HETATM    6  N5  UNL     1       1.149  -0.159  -0.888  1.00  0.00    -0.207 N 
HETATM    7  N4  UNL     1       1.348  -0.253  -2.174  1.00  0.00    -0.224 N 
HETATM    8  N3  UNL     1       2.632  -0.487  -2.426  1.00  0.00    -0.265 N 
ATOM      9  H4  UNL     1       0.622  -0.160  -2.884  1.00  0.00     0.210 HD
HETATM   10  C3  UNL     1       3.271  -0.543  -1.244  1.00  0.00     0.183 A 
ATOM     11  H3  UNL     1       3.055  -0.603  -3.347  1.00  0.00     0.190 HD
HETATM   12  N8  UNL     1       2.345  -0.339  -0.303  1.00  0.00    -0.263 N 
ATOM     13  H8  UNL     1       2.519  -0.322   0.702  1.00  0.00     0.190 HD
BRANCH  10  14
HETATM   14  C2  UNL     1       4.718  -0.790  -1.118  1.00  0.00     0.172 A 
HETATM   15  N2  UNL     1       5.494  -0.975  -2.173  1.00  0.00    -0.173 N 
HETATM   16  C1  UNL     1       6.819  -1.200  -1.999  1.00  0.00     0.681 A 
ATOM     17  H2  UNL     1       5.097  -0.948  -3.112  1.00  0.00     0.186 HD
HETATM   18  N10 UNL     1       7.337  -1.234  -0.759  1.00  0.00    -0.141 N 
HETATM   19  C17 UNL     1       6.567  -1.048   0.336  1.00  0.00     0.340 A 
ATOM     20  H10 UNL     1       8.336  -1.404  -0.642  1.00  0.00     0.189 HD
HETATM   21  N9  UNL     1       5.259  -0.829   0.119  1.00  0.00    -0.290 N 
HETATM   22  O9  UNL     1       7.106  -1.091   1.463  1.00  0.00    -0.246 OA
ATOM     23  H9  UNL     1       4.648  -0.686   0.923  1.00  0.00     0.172 HD
BRANCH  16  24
HETATM   24  N1  UNL     1       7.595  -1.383  -3.015  1.00  0.00    -0.234 N 
ATOM     25  H12 UNL     1       7.202  -1.357  -3.956  1.00  0.00     0.174 HD
ATOM     26  H11 UNL     1       8.592  -1.552  -2.884  1.00  0.00     0.174 HD
ENDBRANCH  16  24
ENDBRANCH  10  14
ENDBRANCH   1   6
BRANCH   2  27
HETATM   27  C6  UNL     1      -1.779  -1.463  -1.019  1.00  0.00     0.014 C 
BRANCH  27  28
HETATM   28  C7  UNL     1      -2.470  -2.132  -0.140  1.00  0.00    -0.018 C 
HETATM   29  C8  UNL     1      -2.934  -3.540  -0.270  1.00  0.00     0.246 C 
HETATM   30  C9  UNL     1      -2.643  -4.008   1.165  1.00  0.00     0.184 C 
HETATM   31  C10 UNL     1      -3.345  -2.929   1.949  1.00  0.00     0.182 C 
HETATM   32  C11 UNL     1      -2.947  -1.663   1.177  1.00  0.00     0.180 C 
BRANCH  29  33
HETATM   33  N6  UNL     1      -2.167  -4.290  -1.236  1.00  0.00    -0.069 N 
ATOM     34  H63 UNL     1      -2.160  -3.821  -2.142  1.00  0.00     0.275 HD
ATOM     35  H62 UNL     1      -1.170  -4.251  -1.023  1.00  0.00     0.275 HD
ATOM     36  H61 UNL     1      -2.485  -5.255  -1.325  1.00  0.00     0.275 HD
ENDBRANCH  29  33
BRANCH  30  37
HETATM   37  O1  UNL     1      -3.192  -5.266   1.399  1.00  0.00    -0.390 OA
ATOM     38  H1  UNL     1      -3.012  -5.555   2.286  1.00  0.00     0.210 HD
ENDBRANCH  30  37
BRANCH  31  39
HETATM   39  O2  UNL     1      -2.950  -2.868   3.274  1.00  0.00    -0.390 OA
ATOM     40  H2  UNL     1      -3.392  -2.188   3.768  1.00  0.00     0.210 HD
ENDBRANCH  31  39
BRANCH  32  41
HETATM   41  O3  UNL     1      -4.066  -0.830   1.040  1.00  0.00    -0.388 OA
ATOM     42  H3  UNL     1      -4.373  -0.528   1.887  1.00  0.00     0.210 HD
ENDBRANCH  32  41
ENDBRANCH  27  28
ENDBRANCH   2  27
BRANCH   5  43
HETATM   43  O8  UNL     1      -0.238   1.620   1.700  1.00  0.00    -0.389 OA
ATOM     44  H8  UNL     1      -0.285   2.532   1.961  1.00  0.00     0.210 HD
ENDBRANCH   5  43
BRANCH   4  45
HETATM   45  N7  UNL     1      -2.059   3.140  -0.031  1.00  0.00    -0.379 N 
ATOM     46  H7  UNL     1      -2.996   3.042   0.360  1.00  0.00     0.156 HD
BRANCH  45  47
HETATM   47  C13 UNL     1      -1.534   4.421  -0.155  1.00  0.00     0.204 C 
BRANCH  47  48
HETATM   48  C14 UNL     1      -0.360   4.851   0.643  1.00  0.00     0.200 C 
BRANCH  48  49
HETATM   49  O5  UNL     1      -0.619   4.836   2.028  1.00  0.00    -0.398 OA
ATOM     50  H5  UNL     1       0.133   5.111   2.539  1.00  0.00     0.209 HD
ENDBRANCH  48  49
ENDBRANCH  47  48
BRANCH  47  51
HETATM   51  C15 UNL     1      -2.629   5.423   0.175  1.00  0.00     0.198 C 
HETATM   52  O6  UNL     1      -3.754   4.966   0.477  1.00  0.00    -0.646 OA
HETATM   53  O7  UNL     1      -2.422   6.776   0.150  1.00  0.00    -0.646 OA
ENDBRANCH  47  51
ENDBRANCH  45  47
ENDBRANCH   4  45
TORSDOF 15
