REMARK  10 active torsions:
REMARK  status: ('A' for Active; 'I' for Inactive)
REMARK    1  A    between atoms: C2_2  and  N1_3 
REMARK    2  A    between atoms: N1_3  and  C3_5 
REMARK    3  A    between atoms: N2_7  and  C5_8 
REMARK    4  A    between atoms: C6_11  and  N4_12 
REMARK    5  A    between atoms: C11_20  and  N6_21 
REMARK    6  A    between atoms: C13_27  and  N9_28 
REMARK    7  A    between atoms: N9_28  and  C14_30 
REMARK    8  A    between atoms: C14_30  and  C17_33 
REMARK    9  A    between atoms: C17_33  and  O2_34 
REMARK   10  A    between atoms: C18_38  and  N11_39 
ROOT
HETATM    1  N6  UNL     1       0.994   0.509   1.072  1.00  0.00    -0.051 N 
HETATM    2  N7  UNL     1       1.611   0.548   2.279  1.00  0.00    -0.219 N 
ATOM      3  H7  UNL     1       1.177   0.841   3.154  1.00  0.00     0.209 HD
HETATM    4  N8  UNL     1       2.841   0.154   2.147  1.00  0.00    -0.278 N 
ATOM      5  H8  UNL     1       3.523   0.090   2.903  1.00  0.00     0.189 HD
HETATM    6  C12 UNL     1       3.079  -0.160   0.848  1.00  0.00     0.141 A 
HETATM    7  C13 UNL     1       4.255  -0.634   0.236  1.00  0.00     0.150 A 
HETATM    8  N10 UNL     1       4.191  -0.864  -1.071  1.00  0.00    -0.174 N 
ATOM      9  H10 UNL     1       5.013  -1.208  -1.567  1.00  0.00     0.186 HD
HETATM   10  C18 UNL     1       3.036  -0.643  -1.748  1.00  0.00     0.681 A 
HETATM   11  N12 UNL     1       1.924  -0.193  -1.160  1.00  0.00    -0.168 N 
HETATM   12  C19 UNL     1       0.699   0.059  -1.903  1.00  0.00     0.177 C 
HETATM   13  C20 UNL     1       1.894   0.073   0.186  1.00  0.00     0.196 A 
ENDROOT
BRANCH   1  14
HETATM   14  C11 UNL     1      -0.353   0.862   0.848  1.00  0.00     0.735 A 
HETATM   15  N5  UNL     1      -0.743   2.162   0.828  1.00  0.00    -0.019 N 
HETATM   16  C6  UNL     1      -2.012   2.480   0.650  1.00  0.00     0.709 A 
ATOM     17  H5  UNL     1      -0.050   2.900   0.952  1.00  0.00     0.203 HD
HETATM   18  N3  UNL     1      -2.921   1.504   0.490  1.00  0.00    -0.021 N 
HETATM   19  C5  UNL     1      -2.593   0.184   0.500  1.00  0.00     0.709 A 
ATOM     20  H3  UNL     1      -3.898   1.764   0.355  1.00  0.00     0.203 HD
HETATM   21  N13 UNL     1      -1.288  -0.080   0.684  1.00  0.00    -0.019 N 
ATOM     22  H13 UNL     1      -0.993  -1.056   0.699  1.00  0.00     0.203 HD
BRANCH  16  23
HETATM   23  N4  UNL     1      -2.494   3.824   0.618  1.00  0.00    -0.213 N 
HETATM   24  C7  UNL     1      -1.488   4.869   0.672  1.00  0.00     0.167 C 
HETATM   25  C8  UNL     1      -1.976   6.153   0.053  1.00  0.00     0.188 C 
HETATM   26  O1  UNL     1      -3.337   6.358   0.271  1.00  0.00    -0.388 OA
HETATM   27  C9  UNL     1      -4.069   5.331  -0.337  1.00  0.00     0.188 C 
HETATM   28  C10 UNL     1      -3.907   4.106   0.541  1.00  0.00     0.167 C 
ENDBRANCH  16  23
BRANCH  19  29
HETATM   29  N2  UNL     1      -3.565  -0.820   0.328  1.00  0.00    -0.213 N 
HETATM   30  C4  UNL     1      -4.994  -0.892   0.132  1.00  0.00     0.168 C 
HETATM   31  C3  UNL     1      -4.921  -2.184   0.908  1.00  0.00     0.117 C 
HETATM   32  C21 UNL     1      -3.581  -2.268   0.267  1.00  0.00     0.168 C 
BRANCH  31  33
HETATM   33  N1  UNL     1      -5.907  -3.138   0.747  1.00  0.00    -0.395 N 
ATOM     34  H1  UNL     1      -6.485  -3.377   1.553  1.00  0.00     0.159 HD
BRANCH  33  35
HETATM   35  C2  UNL     1      -6.153  -3.792  -0.463  1.00  0.00     0.051 C 
HETATM   36  C1  UNL     1      -5.064  -4.751  -0.873  1.00  0.00     0.054 C 
ENDBRANCH  33  35
ENDBRANCH  31  33
ENDBRANCH  19  29
ENDBRANCH   1  14
BRANCH   7  37
HETATM   37  N9  UNL     1       5.255  -0.794   0.992  1.00  0.00    -0.363 N 
ATOM     38  H9  UNL     1       5.101  -0.560   1.973  1.00  0.00     0.162 HD
BRANCH  37  39
HETATM   39  C14 UNL     1       6.541  -1.244   0.682  1.00  0.00     0.045 C 
HETATM   40  C15 UNL     1       7.394  -0.994   1.960  1.00  0.00     0.040 C 
HETATM   41  C16 UNL     1       7.223  -0.472  -0.409  1.00  0.00     0.040 C 
BRANCH  39  42
HETATM   42  C17 UNL     1       6.660  -2.739   0.400  1.00  0.00     0.194 C 
BRANCH  42  43
HETATM   43  O2  UNL     1       6.246  -3.447   1.533  1.00  0.00    -0.398 OA
ATOM     44  H2  UNL     1       6.320  -4.378   1.357  1.00  0.00     0.209 HD
ENDBRANCH  42  43
ENDBRANCH  39  42
ENDBRANCH  37  39
ENDBRANCH   7  37
BRANCH  10  45
HETATM   45  N11 UNL     1       3.091  -0.915  -2.990  1.00  0.00    -0.234 N 
ATOM     46 2H11 UNL     1       3.940  -1.259  -3.439  1.00  0.00     0.174 HD
ATOM     47 1H11 UNL     1       2.223  -0.749  -3.499  1.00  0.00     0.174 HD
ENDBRANCH  10  45
TORSDOF 10
