REMARK  10 active torsions:
REMARK  status: ('A' for Active; 'I' for Inactive)
REMARK    1  A    between atoms: C2_3  and  C3_4 
REMARK    2  A    between atoms: C3_4  and  N2_5 
REMARK    3  A    between atoms: N2_5  and  C4_8 
REMARK    4  A    between atoms: C4_8  and  C5_9 
REMARK    5  A    between atoms: C5_9  and  C6_10 
REMARK    6  A    between atoms: C6_10  and  N3_11 
REMARK    7  A    between atoms: N3_11  and  C7_14 
REMARK    8  A    between atoms: C7_14  and  C8_15 
REMARK    9  A    between atoms: C8_15  and  C9_16 
REMARK   10  A    between atoms: C9_16  and  C10_17 
ROOT
HETATM    1  N1  UNL     1       5.751   3.130  -2.013  1.00  0.00    -0.197 NA
HETATM    2  C1  UNL     1       6.176   2.086  -1.767  1.00  0.00     0.060 C 
HETATM    3  C2  UNL     1       6.710   0.762  -1.451  1.00  0.00     0.151 C 
ENDROOT
BRANCH   3   4
HETATM    4  C3  UNL     1       5.584  -0.258  -1.561  1.00  0.00     0.246 C 
BRANCH   4   5
HETATM    5  N2  UNL     1       4.552   0.113  -0.616  1.00  0.00    -0.074 N 
ATOM      6  H22 UNL     1       4.910   0.210   0.334  1.00  0.00     0.277 HD
ATOM      7  H21 UNL     1       4.232   1.073  -0.745  1.00  0.00     0.277 HD
BRANCH   5   8
HETATM    8  C4  UNL     1       3.465  -0.854  -0.707  1.00  0.00     0.234 C 
BRANCH   8   9
HETATM    9  C5  UNL     1       2.401  -0.430   0.301  1.00  0.00     0.055 C 
BRANCH   9  10
HETATM   10  C6  UNL     1       1.251  -1.434   0.220  1.00  0.00     0.233 C 
BRANCH  10  11
HETATM   11  N3  UNL     1       0.257  -1.002   1.192  1.00  0.00    -0.075 N 
ATOM     12  H32 UNL     1       0.635  -0.895   2.133  1.00  0.00     0.277 HD
ATOM     13  H31 UNL     1      -0.039  -0.035   1.061  1.00  0.00     0.277 HD
BRANCH  11  14
HETATM   14  C7  UNL     1      -0.847  -1.957   1.121  1.00  0.00     0.232 C 
BRANCH  14  15
HETATM   15  C8  UNL     1      -1.914  -1.572   2.101  1.00  0.00     0.028 C 
BRANCH  15  16
HETATM   16  C9  UNL     1      -2.549  -0.263   1.969  1.00  0.00     0.006 C 
BRANCH  16  17
HETATM   17  C10 UNL     1      -3.359   0.108   0.797  1.00  0.00    -0.014 C 
HETATM   18  C11 UNL     1      -3.817   1.562   1.060  1.00  0.00     0.004 C 
HETATM   19  C12 UNL     1      -4.809   1.985   0.037  1.00  0.00     0.000 C 
HETATM   20  C13 UNL     1      -4.180   1.890  -1.346  1.00  0.00     0.000 C 
HETATM   21  C14 UNL     1      -3.655   0.531  -1.626  1.00  0.00     0.000 C 
HETATM   22  C15 UNL     1      -2.834  -0.113  -0.557  1.00  0.00     0.004 C 
ENDBRANCH  16  17
ENDBRANCH  15  16
ENDBRANCH  14  15
ENDBRANCH  11  14
ENDBRANCH  10  11
ENDBRANCH   9  10
ENDBRANCH   8   9
ENDBRANCH   5   8
ENDBRANCH   4   5
ENDBRANCH   3   4
TORSDOF 10
