REMARK  13 active torsions:
REMARK  status: ('A' for Active; 'I' for Inactive)
REMARK    1  A    between atoms: O1_2  and  C2_3 
REMARK    2  A    between atoms: N4_13  and  C7_15 
REMARK    3  A    between atoms: C7_15  and  C8_16 
REMARK    4  A    between atoms: C7_15  and  C9_19 
REMARK    5  A    between atoms: C9_19  and  O3_20 
REMARK    6  A    between atoms: C9_19  and  N6_22 
REMARK    7  A    between atoms: N6_22  and  C10_25 
REMARK    8  A    between atoms: C14_31  and  C15_32 
REMARK       I    between atoms: C15_32  and  N7_34 
REMARK    9  A    between atoms: N7_34  and  S3_35 
REMARK   10  A    between atoms: S3_35  and  C16_38 
REMARK   11  A    between atoms: C16_38  and  C17_39 
REMARK   12  A    between atoms: C18_42  and  C19_43 
REMARK   13  A    between atoms: C20_48  and  C21_49 
ROOT
HETATM    1  C2  UNL     1      -7.314   0.007   0.899  1.00  0.00     0.150 A 
HETATM    2  C3  UNL     1      -7.740   0.508   2.078  1.00  0.00     0.152 A 
HETATM    3  C4  UNL     1      -9.142   0.417   2.461  1.00  0.00     0.120 C 
HETATM    4  N1  UNL     1     -10.258   0.320   2.775  1.00  0.00    -0.190 NA
HETATM    5  N2  UNL     1      -6.872   1.102   2.904  1.00  0.00    -0.341 N 
ATOM      6  H2  UNL     1      -7.169   1.484   3.802  1.00  0.00     0.167 HD
HETATM    7  C5  UNL     1      -5.555   1.177   2.489  1.00  0.00     0.183 A 
HETATM    8  N3  UNL     1      -5.177   0.695   1.371  1.00  0.00    -0.336 N 
ATOM      9  H3  UNL     1      -4.187   0.789   1.145  1.00  0.00     0.168 HD
HETATM   10  C6  UNL     1      -5.952   0.071   0.450  1.00  0.00     0.140 A 
HETATM   11  N4  UNL     1      -5.667  -0.433  -0.637  1.00  0.00    -0.357 N 
ATOM     12  H4  UNL     1      -6.474  -0.845  -1.105  1.00  0.00     0.162 HD
ENDROOT
BRANCH   1  13
HETATM   13  O1  UNL     1      -8.177  -0.639  -0.031  1.00  0.00    -0.350 OA
HETATM   14  C1  UNL     1      -8.257  -2.030   0.132  1.00  0.00     0.210 C 
ENDBRANCH   1  13
BRANCH  11  15
HETATM   15  C7  UNL     1      -4.479  -0.569  -1.380  1.00  0.00     0.229 C 
BRANCH  15  16
HETATM   16  C8  UNL     1      -4.488   0.429  -2.506  1.00  0.00     0.258 C 
HETATM   17  N5  UNL     1      -4.711   1.788  -2.361  1.00  0.00    -0.060 NA
HETATM   18  O2  UNL     1      -4.257   0.008  -3.689  1.00  0.00    -0.274 OA
ENDBRANCH  15  16
BRANCH  15  19
HETATM   19  C9  UNL     1      -3.252  -0.284  -0.529  1.00  0.00     0.352 C 
BRANCH  19  20
HETATM   20  O3  UNL     1      -3.207  -1.203   0.548  1.00  0.00    -0.368 OA
ATOM     21  H3  UNL     1      -2.440  -1.025   1.080  1.00  0.00     0.212 HD
ENDBRANCH  19  20
BRANCH  19  22
HETATM   22  N6  UNL     1      -2.004  -0.615  -1.278  1.00  0.00    -0.028 N 
ATOM     23  H62 UNL     1      -2.095  -1.429  -1.886  1.00  0.00     0.282 HD
ATOM     24  H61 UNL     1      -1.775   0.057  -2.010  1.00  0.00     0.282 HD
BRANCH  22  25
HETATM   25  C10 UNL     1      -0.993  -0.750  -0.292  1.00  0.00     0.300 C 
HETATM   26  S1  UNL     1      -0.421  -2.483  -0.157  1.00  0.00    -0.059 SA
HETATM   27  S2  UNL     1       0.730  -2.735  -1.930  1.00  0.00    -0.091 SA
HETATM   28  C11 UNL     1       0.630  -1.036  -2.682  1.00  0.00     0.120 C 
HETATM   29  C12 UNL     1       0.924  -0.051  -1.580  1.00  0.00    -0.058 C 
HETATM   30  C13 UNL     1       1.917   1.016  -1.979  1.00  0.00     0.045 C 
HETATM   31  C14 UNL     1       0.256   0.098  -0.512  1.00  0.00     0.069 C 
BRANCH  31  32
HETATM   32  C15 UNL     1       0.770   0.641   0.818  1.00  0.00     0.336 C 
HETATM   33  O4  UNL     1      -0.100   0.864   1.599  1.00  0.00    -0.251 OA
HETATM   34  N7  UNL     1       2.157   0.776   0.905  1.00  0.00    -0.280 NA
BRANCH  34  35
HETATM   35  S3  UNL     1       3.758   0.933   1.011  1.00  0.00     0.302 S 
HETATM   36  O5  UNL     1       4.440   0.864   2.373  1.00  0.00    -0.191 OA
HETATM   37  O6  UNL     1       4.293   2.240   0.373  1.00  0.00    -0.191 OA
BRANCH  35  38
HETATM   38  C16 UNL     1       4.657  -0.373   0.085  1.00  0.00     0.254 C 
BRANCH  38  39
HETATM   39  C17 UNL     1       6.082  -0.134   0.335  1.00  0.00     0.101 A 
HETATM   40  N8  UNL     1       6.865  -1.143   0.719  1.00  0.00    -0.327 N 
HETATM   41  C18 UNL     1       8.205  -0.993   0.978  1.00  0.00     0.174 A 
ATOM     42  H8  UNL     1       6.449  -2.068   0.825  1.00  0.00     0.169 HD
HETATM   43  N10 UNL     1       8.700   0.246   0.836  1.00  0.00    -0.319 N 
HETATM   44  C20 UNL     1       7.933   1.293   0.457  1.00  0.00     0.186 A 
ATOM     45  H10 UNL     1       9.691   0.404   1.021  1.00  0.00     0.169 HD
HETATM   46  N11 UNL     1       6.655   1.071   0.221  1.00  0.00    -0.326 N 
ATOM     47  H11 UNL     1       6.072   1.858  -0.063  1.00  0.00     0.169 HD
BRANCH  41  48
HETATM   48  C19 UNL     1       8.985  -2.148   1.377  1.00  0.00     0.298 C 
HETATM   49  N9  UNL     1       9.801  -2.819   0.437  1.00  0.00    -0.054 NA
HETATM   50  O7  UNL     1       8.968  -2.585   2.555  1.00  0.00    -0.268 OA
ENDBRANCH  41  48
BRANCH  44  51
HETATM   51  C21 UNL     1       8.515   2.628   0.405  1.00  0.00     0.245 C 
HETATM   52  O8  UNL     1       9.724   2.825   0.696  1.00  0.00    -0.642 OA
HETATM   53  O9  UNL     1       7.809   3.757   0.042  1.00  0.00    -0.642 OA
ENDBRANCH  44  51
ENDBRANCH  38  39
ENDBRANCH  35  38
ENDBRANCH  34  35
ENDBRANCH  31  32
ENDBRANCH  22  25
ENDBRANCH  19  22
ENDBRANCH  15  19
ENDBRANCH  11  15
TORSDOF 13
