REMARK  2 active torsions:
REMARK  status: ('A' for Active; 'I' for Inactive)
REMARK    1  A    between atoms: O1_1  and  C1_3 
REMARK    2  A    between atoms: C4_7  and  O2_8 
ROOT
HETATM    1  C1  UNL     1       0.893  -0.204   0.127  1.00  0.00     0.149 C 
HETATM    2  C2  UNL     1      -0.252  -0.184   1.151  1.00  0.00     0.057 C 
HETATM    3  C3  UNL     1      -1.116  -0.766   0.030  1.00  0.00     0.116 C 
HETATM    4 CL1  UNL     1      -2.782  -0.218   0.017  1.00  0.00    -0.122 Cl
HETATM    5  C4  UNL     1      -0.184  -0.008  -0.927  1.00  0.00     0.165 C 
ENDROOT
BRANCH   1   6
HETATM    6  O1  UNL     1       1.712   0.877   0.351  1.00  0.00    -0.393 OA
ATOM      7  H1  UNL     1       2.420   0.865  -0.282  1.00  0.00     0.210 HD
ENDBRANCH   1   6
BRANCH   5   8
HETATM    8  O2  UNL     1      -0.623   1.300  -1.024  1.00  0.00    -0.391 OA
ATOM      9  H2  UNL     1      -1.296   1.423  -1.683  1.00  0.00     0.210 HD
ENDBRANCH   5   8
TORSDOF 2
