REMARK  1 active torsions:
REMARK  status: ('A' for Active; 'I' for Inactive)
REMARK    1  A    between atoms: C3_3  and  C5_5 
ROOT
HETATM    1  C5  UNL     1       0.246  -0.068  -0.775  1.00  0.00     0.178 C 
HETATM    2  O1  UNL     1      -0.453  -1.242  -0.993  1.00  0.00    -0.354 OA
HETATM    3  C6  UNL     1      -1.682  -1.157  -0.415  1.00  0.00     0.056 C 
HETATM    4  C7  UNL     1      -2.806  -0.879  -1.382  1.00  0.00     0.045 C 
HETATM    5  C8  UNL     1      -1.989  -2.518   0.224  1.00  0.00     0.045 C 
HETATM    6  C9  UNL     1      -1.614  -0.161   0.710  1.00  0.00     0.048 C 
HETATM    7  C10 UNL     1      -0.436   0.671   0.347  1.00  0.00     0.067 C 
HETATM    8  C11 UNL     1      -0.803   1.985  -0.245  1.00  0.00     0.136 C 
HETATM    9  C12 UNL     1      -0.660   3.137   0.719  1.00  0.00     0.040 C 
HETATM   10  O2  UNL     1       0.057   2.114  -1.359  1.00  0.00    -0.313 OA
HETATM   11  C13 UNL     1       0.165   0.860  -1.916  1.00  0.00     0.299 C 
HETATM   12  O3  UNL     1       0.189   0.573  -3.128  1.00  0.00    -0.261 OA
ENDROOT
BRANCH   1  13
HETATM   13  C3  UNL     1       1.673  -0.322  -0.464  1.00  0.00    -0.043 C 
HETATM   14  C2  UNL     1       2.621   0.177  -1.223  1.00  0.00    -0.025 C 
HETATM   15  C1  UNL     1       4.052  -0.060  -0.930  1.00  0.00     0.036 C 
HETATM   16  C4  UNL     1       2.078  -1.154   0.728  1.00  0.00     0.047 C 
ENDBRANCH   1  13
TORSDOF 1
