REMARK  16 active torsions:
REMARK  status: ('A' for Active; 'I' for Inactive)
REMARK    1  A    between atoms: O1_2  and  C2_3 
REMARK    2  A    between atoms: C2_3  and  C3_4 
REMARK       I    between atoms: C3_4  and  N1_6 
REMARK    3  A    between atoms: N1_6  and  C4_8 
REMARK    4  A    between atoms: C4_8  and  C5_9 
REMARK    5  A    between atoms: C5_9  and  C6_10 
REMARK    6  A    between atoms: C5_9  and  C28_44 
REMARK       I    between atoms: C6_10  and  N2_12 
REMARK    7  A    between atoms: N2_12  and  C7_14 
REMARK    8  A    between atoms: C7_14  and  C8_15 
REMARK    9  A    between atoms: C7_14  and  C9_18 
REMARK   10  A    between atoms: C9_18  and  C10_19 
REMARK   11  A    between atoms: C9_18  and  N3_26 
REMARK   12  A    between atoms: C10_19  and  C11_20 
REMARK       I    between atoms: N3_26  and  C17_28 
REMARK   13  A    between atoms: C17_28  and  O7_30 
REMARK   14  A    between atoms: O7_30  and  C18_31 
REMARK       I    between atoms: N4_33  and  C20_34 
REMARK   15  A    between atoms: C20_34  and  O9_36 
REMARK   16  A    between atoms: O9_36  and  C21_37 
ROOT
HETATM    1  C9  UNL     1      -1.062   2.729  -1.200  1.00  0.00     0.120 C 
ENDROOT
BRANCH   1   2
HETATM    2  C7  UNL     1      -1.921   1.774  -1.997  1.00  0.00     0.208 C 
BRANCH   2   3
HETATM    3  N2  UNL     1      -2.598   0.771  -1.161  1.00  0.00    -0.344 N 
HETATM    4  C6  UNL     1      -3.215  -0.357  -1.795  1.00  0.00     0.224 C 
HETATM    5  O3  UNL     1      -3.116  -0.438  -3.031  1.00  0.00    -0.273 OA
ATOM      6  H2  UNL     1      -2.628   0.876  -0.147  1.00  0.00     0.163 HD
BRANCH   4   7
HETATM    7  C5  UNL     1      -3.932  -1.346  -0.977  1.00  0.00     0.099 C 
BRANCH   7   8
HETATM    8  C4  UNL     1      -3.031  -2.261  -0.268  1.00  0.00     0.137 C 
BRANCH   8   9
HETATM    9  N1  UNL     1      -3.634  -3.260   0.588  1.00  0.00    -0.358 N 
HETATM   10  C3  UNL     1      -4.379  -2.964   1.747  1.00  0.00     0.241 C 
HETATM   11  O2  UNL     1      -4.520  -1.733   2.047  1.00  0.00    -0.271 OA
ATOM     12  H1  UNL     1      -3.512  -4.241   0.336  1.00  0.00     0.162 HD
BRANCH  10  13
HETATM   13  C2  UNL     1      -4.977  -4.020   2.573  1.00  0.00     0.269 C 
BRANCH  13  14
HETATM   14  O1  UNL     1      -4.463  -5.255   2.279  1.00  0.00    -0.387 OA
HETATM   15  C1  UNL     1      -3.150  -5.376   2.692  1.00  0.00     0.202 C 
ENDBRANCH  13  14
ENDBRANCH  10  13
ENDBRANCH   8   9
ENDBRANCH   7   8
BRANCH   7  16
HETATM   16  C28 UNL     1      -5.008  -1.978  -1.828  1.00  0.00    -0.008 C 
HETATM   17  C29 UNL     1      -4.520  -2.885  -2.900  1.00  0.00     0.010 C 
HETATM   18  C30 UNL     1      -6.196  -2.505  -1.070  1.00  0.00     0.010 C 
ENDBRANCH   7  16
ENDBRANCH   4   7
ENDBRANCH   2   3
BRANCH   2  19
HETATM   19  C8  UNL     1      -3.043   2.431  -2.733  1.00  0.00     0.198 C 
HETATM   20  O4  UNL     1      -4.243   2.213  -2.392  1.00  0.00    -0.646 OA
HETATM   21  O5  UNL     1      -2.786   3.267  -3.787  1.00  0.00    -0.646 OA
ENDBRANCH   2  19
ENDBRANCH   1   2
BRANCH   1  22
HETATM   22  C10 UNL     1      -0.579   3.840  -2.110  1.00  0.00     0.032 C 
BRANCH  22  23
HETATM   23  C11 UNL     1       0.293   4.862  -1.427  1.00  0.00    -0.013 C 
HETATM   24  C12 UNL     1       0.696   5.903  -2.462  1.00  0.00     0.005 C 
HETATM   25  C13 UNL     1       0.809   7.291  -1.982  1.00  0.00     0.000 C 
HETATM   26  C14 UNL     1      -0.481   7.662  -1.276  1.00  0.00     0.000 C 
HETATM   27  C15 UNL     1      -0.451   6.847  -0.003  1.00  0.00     0.000 C 
HETATM   28  C16 UNL     1      -0.290   5.390  -0.185  1.00  0.00     0.005 C 
ENDBRANCH  22  23
ENDBRANCH   1  22
BRANCH   1  29
HETATM   29  N3  UNL     1       0.075   2.113  -0.580  1.00  0.00    -0.330 N 
HETATM   30  C17 UNL     1       0.505   0.868  -0.189  1.00  0.00     0.361 C 
HETATM   31  O6  UNL     1      -0.075  -0.230  -0.299  1.00  0.00    -0.238 OA
ATOM     32  H3  UNL     1       0.782   2.815  -0.362  1.00  0.00     0.165 HD
BRANCH  30  33
HETATM   33  O7  UNL     1       1.781   0.682   0.441  1.00  0.00    -0.296 OA
BRANCH  33  34
HETATM   34  C18 UNL     1       2.257  -0.585   0.830  1.00  0.00     0.161 C 
HETATM   35  C19 UNL     1       3.486  -0.994   0.103  1.00  0.00     0.161 C 
HETATM   36  N4  UNL     1       4.320  -1.632   1.090  1.00  0.00    -0.325 N 
HETATM   37  C20 UNL     1       5.434  -2.503   0.869  1.00  0.00     0.363 C 
HETATM   38  C24 UNL     1       3.891  -1.295   2.430  1.00  0.00     0.139 C 
HETATM   39  O8  UNL     1       5.721  -2.772  -0.324  1.00  0.00    -0.238 OA
HETATM   40  C25 UNL     1       2.625  -0.533   2.271  1.00  0.00    -0.003 C 
HETATM   41  C26 UNL     1       1.479  -1.133   3.067  1.00  0.00     0.019 C 
HETATM   42  C27 UNL     1       2.871   0.908   2.671  1.00  0.00     0.019 C 
BRANCH  37  43
HETATM   43  O9  UNL     1       6.208  -3.062   1.864  1.00  0.00    -0.299 OA
BRANCH  43  44
HETATM   44  C21 UNL     1       7.300  -3.928   1.575  1.00  0.00     0.125 C 
HETATM   45  C22 UNL     1       7.056  -5.262   2.222  1.00  0.00     0.040 C 
HETATM   46  C23 UNL     1       8.629  -3.390   2.030  1.00  0.00     0.040 C 
ENDBRANCH  43  44
ENDBRANCH  37  43
ENDBRANCH  33  34
ENDBRANCH  30  33
ENDBRANCH   1  29
TORSDOF 16
