REMARK  14 active torsions:
REMARK  status: ('A' for Active; 'I' for Inactive)
REMARK    1  A    between atoms: C2_2  and  C3_3 
REMARK    2  A    between atoms: C3_3  and  N1_4 
REMARK    3  A    between atoms: C3_3  and  C5_8 
REMARK       I    between atoms: C5_8  and  N2_10 
REMARK    4  A    between atoms: N2_10  and  C6_11 
REMARK    5  A    between atoms: N2_10  and  C14_21 
REMARK    6  A    between atoms: C13_18  and  O2_19 
REMARK    7  A    between atoms: N3_24  and  C17_25 
REMARK    8  A    between atoms: C17_25  and  O3_26 
REMARK    9  A    between atoms: C17_25  and  C18_28 
REMARK   10  A    between atoms: C18_28  and  N4_29 
REMARK   11  A    between atoms: C18_28  and  C23_39 
REMARK   12  A    between atoms: N4_29  and  C19_30 
REMARK   13  A    between atoms: C19_30  and  O4_31 
REMARK   14  A    between atoms: C19_30  and  C20_33 
ROOT
HETATM    1  C14 UNL     1      -0.876  -0.230   0.497  1.00  0.00     0.024 C 
HETATM    2  C15 UNL     1      -0.247  -0.429  -0.814  1.00  0.00     0.078 C 
HETATM    3  C16 UNL     1       1.258  -0.576  -0.698  1.00  0.00     0.131 C 
HETATM    4  N3  UNL     1       1.820  -0.123   0.525  1.00  0.00    -0.355 N 
HETATM    5  C26 UNL     1       1.156  -0.350   1.820  1.00  0.00     0.165 C 
HETATM    6  C27 UNL     1      -0.232  -0.939   1.657  1.00  0.00    -0.021 C 
HETATM    7  C28 UNL     1      -0.344  -2.356   1.888  1.00  0.00    -0.020 C 
HETATM    8  C29 UNL     1       0.114  -3.380   0.943  1.00  0.00     0.036 C 
ENDROOT
BRANCH   1   9
HETATM    9  N2  UNL     1      -2.326  -0.197   0.500  1.00  0.00    -0.315 N 
HETATM   10  C5  UNL     1      -2.936   1.014   0.966  1.00  0.00     0.255 C 
HETATM   11  O1  UNL     1      -4.216   1.025   0.966  1.00  0.00    -0.271 OA
BRANCH  10  12
HETATM   12  C3  UNL     1      -2.282   2.221   1.434  1.00  0.00     0.276 C 
BRANCH  12  13
HETATM   13  C2  UNL     1      -1.833   3.150   0.313  1.00  0.00     0.038 C 
HETATM   14  C1  UNL     1      -1.270   4.437   0.876  1.00  0.00     0.007 C 
ENDBRANCH  12  13
BRANCH  12  15
HETATM   15  N1  UNL     1      -3.329   3.036   2.123  1.00  0.00    -0.066 N 
HETATM   16  C4  UNL     1      -3.594   2.503   3.441  1.00  0.00     0.267 C 
ATOM     17  H12 UNL     1      -3.081   4.025   2.156  1.00  0.00     0.277 HD
ATOM     18  H11 UNL     1      -4.180   3.112   1.565  1.00  0.00     0.277 HD
ENDBRANCH  12  15
ENDBRANCH  10  12
BRANCH   9  19
HETATM   19  C6  UNL     1      -3.151  -1.273   0.017  1.00  0.00     0.093 C 
HETATM   20  C7  UNL     1      -3.815  -0.889  -1.303  1.00  0.00     0.033 C 
HETATM   21  C8  UNL     1      -4.746  -1.930  -1.809  1.00  0.00     0.017 C 
HETATM   22  C9  UNL     1      -4.069  -3.296  -1.831  1.00  0.00     0.007 C 
HETATM   23  C13 UNL     1      -5.839  -2.158  -0.790  1.00  0.00     0.126 C 
HETATM   24  C10 UNL     1      -4.264  -3.890  -0.472  1.00  0.00     0.007 C 
HETATM   25  C11 UNL     1      -5.059  -2.857   0.283  1.00  0.00     0.017 C 
HETATM   26  C12 UNL     1      -4.069  -1.917   0.960  1.00  0.00     0.033 C 
BRANCH  23  27
HETATM   27  O2  UNL     1      -6.504  -1.024  -0.399  1.00  0.00    -0.395 OA
ATOM     28  H2  UNL     1      -7.191  -1.167   0.241  1.00  0.00     0.210 HD
ENDBRANCH  23  27
ENDBRANCH   9  19
ENDBRANCH   1   9
BRANCH   4  29
HETATM   29  C17 UNL     1       3.069   0.530   0.623  1.00  0.00     0.180 C 
BRANCH  29  30
HETATM   30  O3  UNL     1       3.156   1.227   1.733  1.00  0.00    -0.344 OA
ATOM     31  H3  UNL     1       3.996   1.666   1.799  1.00  0.00     0.219 HD
ENDBRANCH  29  30
BRANCH  29  32
HETATM   32  C18 UNL     1       4.239   0.587  -0.248  1.00  0.00     0.162 C 
BRANCH  32  33
HETATM   33  N4  UNL     1       4.649   1.819  -0.786  1.00  0.00    -0.373 NA
BRANCH  33  34
HETATM   34  C19 UNL     1       4.973   3.009  -1.294  1.00  0.00     0.251 C 
BRANCH  34  35
HETATM   35  O4  UNL     1       4.106   3.975  -1.556  1.00  0.00    -0.333 OA
ATOM     36  H4  UNL     1       4.337   4.823  -1.918  1.00  0.00     0.220 HD
ENDBRANCH  34  35
BRANCH  34  37
HETATM   37  C20 UNL     1       6.340   3.491  -1.651  1.00  0.00     0.165 A 
HETATM   38  C21 UNL     1       7.560   2.942  -1.544  1.00  0.00     0.064 A 
HETATM   39  C22 UNL     1       8.494   3.829  -2.030  1.00  0.00     0.117 A 
HETATM   40  N5  UNL     1       7.797   4.898  -2.417  1.00  0.00    -0.272 N 
HETATM   41  O5  UNL     1       6.540   4.691  -2.191  1.00  0.00    -0.233 OA
ATOM     42  H5  UNL     1       8.192   5.745  -2.826  1.00  0.00     0.194 HD
ENDBRANCH  34  37
ENDBRANCH  33  34
ENDBRANCH  32  33
BRANCH  32  43
HETATM   43  C23 UNL     1       4.971  -0.652  -0.513  1.00  0.00    -0.043 C 
HETATM   44  C24 UNL     1       6.135  -0.529  -1.496  1.00  0.00     0.046 C 
HETATM   45  C25 UNL     1       4.270  -1.942  -0.744  1.00  0.00     0.046 C 
ENDBRANCH  32  43
ENDBRANCH  29  32
ENDBRANCH   4  29
TORSDOF 14
