REMARK  10 active torsions:
REMARK  status: ('A' for Active; 'I' for Inactive)
REMARK    1  A    between atoms: O1_2  and  S1_3 
REMARK    2  A    between atoms: S1_3  and  N1_4 
REMARK    3  A    between atoms: S1_3  and  N2_8 
REMARK       I    between atoms: N2_8  and  C2_10 
REMARK    4  A    between atoms: C2_10  and  C3_12 
REMARK    5  A    between atoms: C3_12  and  N3_14 
REMARK       I    between atoms: N3_14  and  C5_15 
REMARK    6  A    between atoms: C5_15  and  C6_17 
REMARK    7  A    between atoms: C6_17  and  N4_18 
REMARK    8  A    between atoms: C8_20  and  O5_21 
REMARK    9  A    between atoms: C10_25  and  C11_26 
REMARK   10  A    between atoms: C13_29  and  O8_30 
ROOT
HETATM    1  N3  UNL     1      -0.930   0.468   0.199  1.00  0.00    -0.368 NA
HETATM    2  C5  UNL     1       0.415   0.414   0.375  1.00  0.00     0.310 C 
HETATM    3  O4  UNL     1       1.115   0.933   1.266  1.00  0.00    -0.255 OA
ENDROOT
BRANCH   2   4
HETATM    4  C6  UNL     1       1.240  -0.385  -0.646  1.00  0.00     0.249 C 
BRANCH   4   5
HETATM    5  N4  UNL     1       2.547  -0.715  -0.164  1.00  0.00    -0.324 N 
HETATM    6  C7  UNL     1       2.711  -1.947   0.406  1.00  0.00     0.134 A 
HETATM    7  C8  UNL     1       3.920  -2.415   0.868  1.00  0.00     0.133 A 
HETATM    8  C9  UNL     1       5.007  -1.580   0.740  1.00  0.00     0.224 A 
HETATM    9  O6  UNL     1       6.137  -1.969   1.147  1.00  0.00    -0.284 OA
HETATM   10  C10 UNL     1       4.893  -0.315   0.166  1.00  0.00     0.113 A 
HETATM   11  C13 UNL     1       3.635   0.053  -0.261  1.00  0.00     0.161 A 
BRANCH   7  12
HETATM   12  O5  UNL     1       4.062  -3.681   1.440  1.00  0.00    -0.356 OA
ATOM     13  H5  UNL     1       4.897  -4.004   1.759  1.00  0.00     0.218 HD
ENDBRANCH   7  12
BRANCH  10  14
HETATM   14  C11 UNL     1       6.057   0.513   0.045  1.00  0.00     0.164 C 
HETATM   15  C12 UNL     1       6.147   1.856  -0.516  1.00  0.00     0.097 C 
HETATM   16  O7  UNL     1       7.156   0.005   0.482  1.00  0.00    -0.292 OA
ENDBRANCH  10  14
BRANCH  11  17
HETATM   17  O8  UNL     1       3.510   1.312  -0.830  1.00  0.00    -0.345 OA
ATOM     18  H8  UNL     1       4.284   1.858  -0.899  1.00  0.00     0.219 HD
ENDBRANCH  11  17
ENDBRANCH   4   5
ENDBRANCH   2   4
BRANCH   1  19
HETATM   19  C3  UNL     1      -2.216   0.597   0.131  1.00  0.00     0.153 C 
HETATM   20  C4  UNL     1      -2.050   2.318  -0.407  1.00  0.00     0.091 C 
BRANCH  19  21
HETATM   21  C2  UNL     1      -3.605   0.735   0.060  1.00  0.00     0.291 C 
HETATM   22  N2  UNL     1      -4.466  -0.168   0.859  1.00  0.00    -0.243 N 
ATOM     23  H2  UNL     1      -4.045  -0.888   1.447  1.00  0.00     0.182 HD
HETATM   24  O3  UNL     1      -4.262   1.573  -0.625  1.00  0.00    -0.264 OA
BRANCH  22  25
HETATM   25  S1  UNL     1      -6.151  -0.002   0.794  1.00  0.00     0.235 S 
HETATM   26  O2  UNL     1      -6.808  -0.291   2.116  1.00  0.00    -0.199 OA
BRANCH  25  27
HETATM   27  O1  UNL     1      -6.879  -0.858  -0.462  1.00  0.00    -0.281 OA
HETATM   28  C1  UNL     1      -6.242  -2.024  -0.770  1.00  0.00     0.225 C 
ENDBRANCH  25  27
BRANCH  25  29
HETATM   29  N1  UNL     1      -6.434   1.519   0.485  1.00  0.00    -0.323 N 
ATOM     30  H12 UNL     1      -6.951   1.891  -0.312  1.00  0.00     0.169 HD
ATOM     31  H11 UNL     1      -5.993   2.037   1.245  1.00  0.00     0.169 HD
ENDBRANCH  25  29
ENDBRANCH  22  25
ENDBRANCH  19  21
ENDBRANCH   1  19
TORSDOF 10
