REMARK  7 active torsions:
REMARK  status: ('A' for Active; 'I' for Inactive)
REMARK    1  A    between atoms: C2_2  and  N1_5 
REMARK    2  A    between atoms: N1_5  and  C5_7 
REMARK    3  A    between atoms: C10_15  and  N4_16 
REMARK    4  A    between atoms: N4_16  and  C11_17 
REMARK    5  A    between atoms: C11_17  and  O1_18 
REMARK    6  A    between atoms: C11_17  and  C12_20 
REMARK    7  A    between atoms: C12_20  and  C13_21 
ROOT
HETATM    1  C5  UNL     1       2.192   0.734  -0.231  1.00  0.00     0.089 A 
HETATM    2  C6  UNL     1       3.266   1.327  -0.856  1.00  0.00     0.058 A 
HETATM    3  C7  UNL     1       3.156   2.657  -1.212  1.00  0.00     0.062 A 
HETATM    4  C8  UNL     1       4.227   3.328  -1.859  1.00  0.00     0.101 C 
HETATM    5  N2  UNL     1       5.086   3.870  -2.399  1.00  0.00    -0.191 NA
HETATM    6  C9  UNL     1       2.012   3.352  -0.946  1.00  0.00     0.113 A 
HETATM    7  N3  UNL     1       1.016   2.736  -0.346  1.00  0.00    -0.338 N 
ATOM      8  H3  UNL     1       0.175   3.282  -0.160  1.00  0.00     0.168 HD
HETATM    9  C10 UNL     1       1.011   1.422   0.052  1.00  0.00     0.208 A 
ENDROOT
BRANCH   1  10
HETATM   10  N1  UNL     1       2.333  -0.632   0.102  1.00  0.00    -0.378 N 
ATOM     11  H1  UNL     1       1.517  -1.076   0.522  1.00  0.00     0.160 HD
BRANCH  10  12
HETATM   12  C2  UNL     1       3.475  -1.466  -0.077  1.00  0.00     0.019 C 
HETATM   13  C1  UNL     1       3.124  -2.877   0.450  1.00  0.00     0.037 C 
HETATM   14  C3  UNL     1       4.716  -0.978   0.670  1.00  0.00     0.037 C 
HETATM   15  C4  UNL     1       3.878  -1.688  -1.516  1.00  0.00     0.037 C 
ENDBRANCH  10  12
ENDBRANCH   1  10
BRANCH   9  16
HETATM   16  N4  UNL     1       0.048   0.995   0.601  1.00  0.00    -0.362 NA
BRANCH  16  17
HETATM   17  C11 UNL     1      -0.857   0.252   1.226  1.00  0.00     0.233 C 
BRANCH  17  18
HETATM   18  O1  UNL     1      -0.467  -0.364   2.304  1.00  0.00    -0.337 OA
ATOM     19  H1  UNL     1      -1.115  -0.896   2.751  1.00  0.00     0.220 HD
ENDBRANCH  17  18
BRANCH  17  20
HETATM   20  C12 UNL     1      -2.310  -0.011   0.898  1.00  0.00     0.246 C 
HETATM   21  N5  UNL     1      -2.800  -0.991   1.861  1.00  0.00    -0.051 N 
HETATM   22  C16 UNL     1      -2.363  -2.256   1.325  1.00  0.00     0.271 C 
ATOM     23  H52 UNL     1      -2.505  -0.818   2.822  1.00  0.00     0.278 HD
ATOM     24  H51 UNL     1      -3.802  -0.936   2.042  1.00  0.00     0.278 HD
HETATM   25  C17 UNL     1      -2.825  -2.081  -0.114  1.00  0.00     0.206 C 
HETATM   26  F2  UNL     1      -2.159  -2.951  -0.902  1.00  0.00    -0.247 F 
HETATM   27  C18 UNL     1      -2.491  -0.599  -0.398  1.00  0.00     0.030 C 
HETATM   28  C19 UNL     1      -1.272  -0.690  -1.321  1.00  0.00     0.021 C 
HETATM   29  C20 UNL     1      -3.618  -0.152  -1.290  1.00  0.00     0.021 C 
BRANCH  20  30
HETATM   30  C13 UNL     1      -3.055   1.232   1.291  1.00  0.00     0.139 C 
HETATM   31  C14 UNL     1      -2.703   2.486   0.604  1.00  0.00     0.054 C 
HETATM   32  C15 UNL     1      -4.535   1.080   1.491  1.00  0.00     0.054 C 
HETATM   33  F1  UNL     1      -2.631   1.445   2.645  1.00  0.00    -0.240 F 
ENDBRANCH  20  30
ENDBRANCH  17  20
ENDBRANCH  16  17
ENDBRANCH   9  16
TORSDOF 7
