REMARK  15 active torsions:
REMARK  status: ('A' for Active; 'I' for Inactive)
REMARK    1  A    between atoms: C2_2  and  C4_4 
REMARK    2  A    between atoms: C4_4  and  O1_5 
REMARK    3  A    between atoms: C5_7  and  C6_8 
REMARK    4  A    between atoms: C6_8  and  O2_9 
REMARK    5  A    between atoms: C10_15  and  O4_16 
REMARK    6  A    between atoms: O4_16  and  C11_17 
REMARK    7  A    between atoms: C11_17  and  C12_19 
REMARK    8  A    between atoms: C16_23  and  O6_24 
REMARK    9  A    between atoms: C18_26  and  O7_27 
REMARK   10  A    between atoms: C20_29  and  O8_30 
REMARK       I    between atoms: N1_32  and  C21_33 
REMARK   11  A    between atoms: C21_33  and  C22_35 
REMARK   12  A    between atoms: C23_36  and  C24_37 
REMARK   13  A    between atoms: C25_38  and  C26_39 
REMARK   14  A    between atoms: C27_40  and  C28_41 
REMARK   15  A    between atoms: C28_41  and  C30_43 
ROOT
HETATM    1  C4  UNL     1      -0.223  -2.207   2.750  1.00  0.00     0.191 C 
HETATM    2  C5  UNL     1      -1.203  -1.539   3.629  1.00  0.00     0.208 C 
HETATM    3  O3  UNL     1      -1.977  -0.730   2.785  1.00  0.00    -0.345 OA
HETATM    4  C7  UNL     1      -1.116  -0.267   1.783  1.00  0.00     0.176 C 
HETATM    5  C8  UNL     1      -1.958  -0.171   0.540  1.00  0.00     0.072 C 
HETATM    6  C9  UNL     1      -3.301  -0.849   0.688  1.00  0.00     0.017 C 
HETATM    7  C10 UNL     1      -2.290   1.300   0.230  1.00  0.00     0.172 C 
HETATM    8  C16 UNL     1      -2.825   1.977   1.462  1.00  0.00     0.182 C 
HETATM    9  C18 UNL     1      -1.893   1.947   2.648  1.00  0.00     0.185 C 
HETATM   10  C20 UNL     1      -0.695   1.122   2.224  1.00  0.00     0.206 C 
HETATM   11  N1  UNL     1       0.003  -1.126   1.743  1.00  0.00    -0.274 N 
HETATM   12  C21 UNL     1       1.215  -1.103   0.996  1.00  0.00     0.248 C 
HETATM   13  O9  UNL     1       2.114  -1.990   1.241  1.00  0.00    -0.268 OA
ENDROOT
BRANCH  10  14
HETATM   14  O8  UNL     1       0.222   1.027   3.240  1.00  0.00    -0.388 OA
ATOM     15  H8  UNL     1       0.486   1.897   3.516  1.00  0.00     0.210 HD
ENDBRANCH  10  14
BRANCH   2  16
HETATM   16  C6  UNL     1      -2.099  -2.354   4.484  1.00  0.00     0.201 C 
BRANCH  16  17
HETATM   17  O2  UNL     1      -1.501  -3.133   5.438  1.00  0.00    -0.398 OA
ATOM     18  H2  UNL     1      -2.075  -3.655   5.986  1.00  0.00     0.209 HD
ENDBRANCH  16  17
ENDBRANCH   2  16
BRANCH   7  19
HETATM   19  O4  UNL     1      -3.400   1.224  -0.691  1.00  0.00    -0.312 OA
BRANCH  19  20
HETATM   20  C11 UNL     1      -3.286   1.706  -1.986  1.00  0.00     0.267 C 
HETATM   21  O5  UNL     1      -2.172   2.204  -2.285  1.00  0.00    -0.264 OA
BRANCH  20  22
HETATM   22  C12 UNL     1      -4.438   1.618  -2.922  1.00  0.00     0.037 C 
HETATM   23  C13 UNL     1      -5.593   2.502  -2.513  1.00  0.00     0.025 C 
HETATM   24  C14 UNL     1      -4.039   1.797  -4.364  1.00  0.00     0.025 C 
HETATM   25  C15 UNL     1      -4.972   0.183  -2.805  1.00  0.00     0.025 C 
ENDBRANCH  20  22
ENDBRANCH  19  20
ENDBRANCH   7  19
BRANCH   9  26
HETATM   26  O7  UNL     1      -2.485   1.357   3.738  1.00  0.00    -0.385 OA
HETATM   27  C19 UNL     1      -2.520   2.127   4.881  1.00  0.00     0.202 C 
ENDBRANCH   9  26
BRANCH   1  28
HETATM   28  C2  UNL     1      -0.508  -3.491   2.168  1.00  0.00    -0.035 C 
HETATM   29  C1  UNL     1      -0.666  -3.657   0.854  1.00  0.00     0.019 C 
HETATM   30  C3  UNL     1      -0.679  -4.733   2.972  1.00  0.00     0.048 C 
ENDBRANCH   1  28
BRANCH   1  31
HETATM   31  O1  UNL     1       0.970  -2.343   3.512  1.00  0.00    -0.364 OA
ATOM     32  H1  UNL     1       1.158  -1.495   3.896  1.00  0.00     0.213 HD
ENDBRANCH   1  31
BRANCH  12  33
HETATM   33  C22 UNL     1       1.532  -0.161  -0.025  1.00  0.00     0.074 C 
HETATM   34  C23 UNL     1       2.611  -0.040  -0.722  1.00  0.00     0.005 C 
BRANCH  34  35
HETATM   35  C24 UNL     1       3.824  -0.833  -0.668  1.00  0.00     0.000 C 
HETATM   36  C25 UNL     1       4.868  -0.537  -1.477  1.00  0.00    -0.000 C 
BRANCH  36  37
HETATM   37  C26 UNL     1       6.075  -1.282  -1.464  1.00  0.00    -0.004 C 
HETATM   38  C27 UNL     1       7.138  -1.080  -2.179  1.00  0.00    -0.023 C 
BRANCH  38  39
HETATM   39  C28 UNL     1       7.234   0.025  -3.165  1.00  0.00     0.004 C 
HETATM   40  C29 UNL     1       8.424   0.933  -2.835  1.00  0.00     0.014 C 
BRANCH  39  41
HETATM   41  C30 UNL     1       7.495  -0.508  -4.560  1.00  0.00     0.003 C 
HETATM   42  C31 UNL     1       7.592   0.622  -5.563  1.00  0.00     0.006 C 
ENDBRANCH  39  41
ENDBRANCH  38  39
ENDBRANCH  36  37
ENDBRANCH  34  35
ENDBRANCH  12  33
BRANCH   8  43
HETATM   43  O6  UNL     1      -3.116   3.317   1.206  1.00  0.00    -0.385 OA
HETATM   44  C17 UNL     1      -4.434   3.615   1.451  1.00  0.00     0.202 C 
ENDBRANCH   8  43
TORSDOF 15
