REMARK  9 active torsions:
REMARK  status: ('A' for Active; 'I' for Inactive)
REMARK    1  A    between atoms: C5_6  and  C6_7 
REMARK    2  A    between atoms: C6_7  and  N2_8 
REMARK    3  A    between atoms: C6_7  and  C7_12 
REMARK    4  A    between atoms: C7_12  and  O2_14 
REMARK    5  A    between atoms: O2_14  and  C8_15 
REMARK    6  A    between atoms: C8_15  and  C9_16 
REMARK    7  A    between atoms: C8_15  and  C19_31 
REMARK    8  A    between atoms: C9_16  and  C10_17 
REMARK    9  A    between atoms: C12_20  and  C13_21 
ROOT
HETATM    1  N1  UNL     1       8.349   3.859  -1.514  1.00  0.00    -0.190 NA
HETATM    2  C1  UNL     1       7.434   3.415  -0.966  1.00  0.00     0.117 C 
HETATM    3  C2  UNL     1       6.280   2.835  -0.294  1.00  0.00     0.114 A 
HETATM    4  C3  UNL     1       5.263   3.567   0.241  1.00  0.00     0.043 A 
HETATM    5  C4  UNL     1       4.372   2.659   0.777  1.00  0.00     0.030 A 
HETATM    6  C5  UNL     1       4.848   1.398   0.567  1.00  0.00     0.050 A 
HETATM    7  N4  UNL     1       6.029   1.533  -0.097  1.00  0.00    -0.349 N 
ATOM      8  H4  UNL     1       6.628   0.764  -0.397  1.00  0.00     0.166 HD
ENDROOT
BRANCH   6   9
HETATM    9  C6  UNL     1       4.200   0.127   0.978  1.00  0.00     0.332 C 
BRANCH   9  10
HETATM   10  N2  UNL     1       3.663   0.198   2.299  1.00  0.00    -0.060 N 
ATOM     11  H23 UNL     1       4.375   0.484   2.972  1.00  0.00     0.275 HD
ATOM     12  H22 UNL     1       3.023   0.986   2.395  1.00  0.00     0.275 HD
ATOM     13  H21 UNL     1       3.218  -0.675   2.581  1.00  0.00     0.275 HD
ENDBRANCH   9  10
BRANCH   9  14
HETATM   14  C7  UNL     1       3.285  -0.372  -0.048  1.00  0.00     0.300 C 
HETATM   15  O1  UNL     1       3.642  -0.391  -1.264  1.00  0.00    -0.262 OA
BRANCH  14  16
HETATM   16  O2  UNL     1       1.983  -0.860   0.154  1.00  0.00    -0.280 OA
BRANCH  16  17
HETATM   17  C8  UNL     1       1.167  -1.300  -0.866  1.00  0.00     0.071 C 
BRANCH  17  18
HETATM   18  C9  UNL     1       0.120  -0.311  -1.294  1.00  0.00     0.100 C 
BRANCH  18  19
HETATM   19  C10 UNL     1      -0.820   0.148  -0.267  1.00  0.00     0.154 C 
HETATM   20  C11 UNL     1      -1.664  -0.914   0.353  1.00  0.00     0.203 C 
HETATM   21  O3  UNL     1      -2.771  -0.181   0.894  1.00  0.00    -0.357 OA
HETATM   22  C12 UNL     1      -2.671   1.039   0.301  1.00  0.00     0.283 C 
HETATM   23  O4  UNL     1      -1.865   0.946  -0.810  1.00  0.00    -0.352 OA
BRANCH  22  24
HETATM   24  C13 UNL     1      -4.036   1.615  -0.025  1.00  0.00     0.104 C 
HETATM   25  C14 UNL     1      -3.939   2.918  -0.655  1.00  0.00     0.074 C 
HETATM   26  N3  UNL     1      -3.880   3.949  -1.168  1.00  0.00    -0.196 NA
HETATM   27  C15 UNL     1      -4.898   0.672  -0.837  1.00  0.00     0.036 C 
HETATM   28  C16 UNL     1      -6.330   1.104  -0.492  1.00  0.00     0.081 C 
HETATM   29  C17 UNL     1      -6.243   1.804   0.832  1.00  0.00     0.245 C 
HETATM   30  F1  UNL     1      -6.582   3.143   0.763  1.00  0.00    -0.206 F 
HETATM   31  F2  UNL     1      -7.030   1.181   1.786  1.00  0.00    -0.206 F 
HETATM   32  C18 UNL     1      -4.817   1.682   1.267  1.00  0.00     0.108 C 
ENDBRANCH  22  24
ENDBRANCH  18  19
ENDBRANCH  17  18
BRANCH  17  33
HETATM   33  C19 UNL     1       0.804  -2.698  -0.857  1.00  0.00     0.015 A 
HETATM   34  C20 UNL     1      -0.145  -3.212  -1.757  1.00  0.00     0.015 A 
HETATM   35  C21 UNL     1      -0.436  -4.551  -1.839  1.00  0.00     0.001 A 
HETATM   36  C22 UNL     1       0.181  -5.479  -1.047  1.00  0.00     0.002 A 
HETATM   37  C23 UNL     1       1.108  -5.025  -0.158  1.00  0.00     0.025 A 
HETATM   38  C24 UNL     1       1.396  -3.689  -0.078  1.00  0.00     0.046 A 
HETATM   39 CL1  UNL     1       2.587  -3.271   1.156  1.00  0.00    -0.083 Cl
ENDBRANCH  17  33
ENDBRANCH  16  17
ENDBRANCH  14  16
ENDBRANCH   9  14
ENDBRANCH   6   9
TORSDOF 9
