REMARK  9 active torsions:
REMARK  status: ('A' for Active; 'I' for Inactive)
REMARK    1  A    between atoms: C2_2  and  C4_4 
REMARK    2  A    between atoms: C5_6  and  C6_7 
REMARK    3  A    between atoms: C15_19  and  O2_20 
REMARK    4  A    between atoms: C16_22  and  O3_23 
REMARK    5  A    between atoms: C16_22  and  C17_25 
REMARK    6  A    between atoms: C17_25  and  O4_26 
REMARK    7  A    between atoms: C18_28  and  O5_29 
REMARK    8  A    between atoms: C20_31  and  C21_32 
REMARK    9  A    between atoms: C21_32  and  O7_34 
ROOT
HETATM    1  C4  UNL     1       1.405  -0.106   1.074  1.00  0.00     0.172 C 
HETATM    2  O1  UNL     1       2.665   0.418   0.788  1.00  0.00    -0.366 OA
HETATM    3  C5  UNL     1       2.889   1.574   0.249  1.00  0.00     0.230 C 
HETATM    4  C7  UNL     1       2.375   1.460  -1.169  1.00  0.00     0.051 C 
HETATM    5  C8  UNL     1       0.896   1.187  -1.029  1.00  0.00    -0.019 C 
HETATM    6  C9  UNL     1       0.419   2.575  -0.901  1.00  0.00     0.016 C 
HETATM    7  C10 UNL     1       0.389   0.804  -2.398  1.00  0.00     0.011 C 
HETATM    8  C11 UNL     1      -1.095   0.973  -2.278  1.00  0.00     0.013 C 
HETATM    9  C12 UNL     1      -1.755   0.237  -1.182  1.00  0.00    -0.006 C 
HETATM   10  C13 UNL     1      -2.526  -0.864  -1.891  1.00  0.00     0.018 C 
HETATM   11  C14 UNL     1      -2.936   1.130  -0.710  1.00  0.00     0.047 C 
HETATM   12  C15 UNL     1      -2.936   1.146   0.761  1.00  0.00     0.158 C 
HETATM   13  C16 UNL     1      -1.548   0.651   1.201  1.00  0.00     0.138 C 
HETATM   14  C18 UNL     1      -0.990  -0.131   0.075  1.00  0.00     0.123 C 
HETATM   15  C20 UNL     1       0.543   0.053  -0.120  1.00  0.00     0.120 C 
ENDROOT
BRANCH  13  16
HETATM   16  O3  UNL     1      -0.875   1.800   1.577  1.00  0.00    -0.382 OA
ATOM     17  H3  UNL     1      -0.018   1.494   1.849  1.00  0.00     0.211 HD
ENDBRANCH  13  16
BRANCH  13  18
HETATM   18  C17 UNL     1      -1.820   0.062   2.549  1.00  0.00     0.207 C 
BRANCH  18  19
HETATM   19  O4  UNL     1      -2.584   1.034   3.299  1.00  0.00    -0.398 OA
ATOM     20  H4  UNL     1      -2.757   0.660   4.155  1.00  0.00     0.209 HD
ENDBRANCH  18  19
ENDBRANCH  13  18
BRANCH  12  21
HETATM   21  O2  UNL     1      -3.232   2.388   1.320  1.00  0.00    -0.392 OA
ATOM     22  H2  UNL     1      -3.232   2.398   2.270  1.00  0.00     0.210 HD
ENDBRANCH  12  21
BRANCH  14  23
HETATM   23  O5  UNL     1      -1.112  -1.442   0.383  1.00  0.00    -0.379 OA
HETATM   24  C19 UNL     1      -2.120  -2.246   0.502  1.00  0.00     0.202 C 
ENDBRANCH  14  23
BRANCH  15  25
HETATM   25  C21 UNL     1       1.026  -1.161  -0.872  1.00  0.00     0.274 C 
HETATM   26  O6  UNL     1       2.177  -1.226  -1.391  1.00  0.00    -0.264 OA
BRANCH  25  27
HETATM   27  O7  UNL     1       0.396  -2.336  -1.128  1.00  0.00    -0.326 OA
HETATM   28  C22 UNL     1       0.948  -3.409  -1.842  1.00  0.00     0.213 C 
ENDBRANCH  25  27
ENDBRANCH  15  25
BRANCH   1  29
HETATM   29  C2  UNL     1       1.827  -1.430   1.597  1.00  0.00    -0.063 C 
HETATM   30  C1  UNL     1       3.112  -1.866   1.466  1.00  0.00     0.016 C 
HETATM   31  C3  UNL     1       1.095  -2.479   2.286  1.00  0.00     0.045 C 
ENDBRANCH   1  29
BRANCH   3  32
HETATM   32  C6  UNL     1       4.372   1.928   0.259  1.00  0.00     0.413 C 
HETATM   33  F1  UNL     1       4.456   3.183  -0.340  1.00  0.00    -0.168 F 
HETATM   34  F2  UNL     1       4.746   2.083   1.572  1.00  0.00    -0.168 F 
HETATM   35  F3  UNL     1       5.091   1.001  -0.430  1.00  0.00    -0.168 F 
ENDBRANCH   3  32
TORSDOF 9
