REMARK  7 active torsions:
REMARK  status: ('A' for Active; 'I' for Inactive)
REMARK    1  A    between atoms: C2_3  and  C3_4 
REMARK    2  A    between atoms: C3_4  and  N3_9 
REMARK    3  A    between atoms: N2_5  and  O1_7 
REMARK    4  A    between atoms: N3_9  and  C4_11 
REMARK    5  A    between atoms: C4_11  and  C5_12 
REMARK    6  A    between atoms: C4_11  and  C12_19 
REMARK    7  A    between atoms: C5_12  and  C6_13 
ROOT
HETATM    1  N1  UNL     1      -3.893   1.918   1.672  1.00  0.00    -0.196 NA
HETATM    2  C1  UNL     1      -3.563   1.126   0.900  1.00  0.00     0.077 C 
HETATM    3  C2  UNL     1      -3.124   0.122  -0.062  1.00  0.00     0.108 C 
HETATM    4  C13 UNL     1      -2.892   0.794  -1.418  1.00  0.00     0.033 C 
HETATM    5  C14 UNL     1      -4.221   0.754  -2.131  1.00  0.00     0.002 C 
HETATM    6  C15 UNL     1      -5.199   0.168  -1.116  1.00  0.00     0.002 C 
HETATM    7  C16 UNL     1      -4.254  -0.805  -0.379  1.00  0.00     0.033 C 
ENDROOT
BRANCH   3   8
HETATM    8  C3  UNL     1      -1.853  -0.535   0.292  1.00  0.00     0.121 C 
HETATM    9  N2  UNL     1      -1.792  -1.785   0.568  1.00  0.00    -0.255 N 
ATOM     10  H2  UNL     1      -0.864  -2.138   0.800  1.00  0.00     0.195 HD
BRANCH   9  11
HETATM   11  O1  UNL     1      -2.779  -2.694   0.594  1.00  0.00    -0.288 OA
ATOM     12  H1  UNL     1      -2.734  -3.621   0.799  1.00  0.00     0.244 HD
ENDBRANCH   9  11
BRANCH   8  13
HETATM   13  N3  UNL     1      -0.639   0.193   0.349  1.00  0.00    -0.364 N 
ATOM     14  H3  UNL     1      -0.585   1.121  -0.072  1.00  0.00     0.161 HD
BRANCH  13  15
HETATM   15  C4  UNL     1       0.513  -0.362   0.992  1.00  0.00     0.172 C 
BRANCH  15  16
HETATM   16  C5  UNL     1       1.715   0.559   0.904  1.00  0.00     0.039 C 
BRANCH  16  17
HETATM   17  C6  UNL     1       2.118   0.849  -0.505  1.00  0.00    -0.012 C 
HETATM   18  C7  UNL     1       3.316   1.768  -0.470  1.00  0.00     0.005 C 
HETATM   19  C8  UNL     1       4.570   1.044  -0.035  1.00  0.00     0.000 C 
HETATM   20  C9  UNL     1       4.802  -0.217  -0.817  1.00  0.00     0.000 C 
HETATM   21  C10 UNL     1       3.614  -1.135  -0.774  1.00  0.00     0.000 C 
HETATM   22  C11 UNL     1       2.418  -0.384  -1.307  1.00  0.00     0.005 C 
ENDBRANCH  16  17
ENDBRANCH  15  16
BRANCH  15  23
HETATM   23  C12 UNL     1       0.227  -0.533   2.440  1.00  0.00     0.253 C 
HETATM   24  N4  UNL     1       1.211  -1.083   3.332  1.00  0.00    -0.060 NA
HETATM   25  O2  UNL     1      -0.873  -0.210   2.953  1.00  0.00    -0.275 OA
ENDBRANCH  15  23
ENDBRANCH  13  15
ENDBRANCH   8  13
ENDBRANCH   3   8
TORSDOF 7
