REMARK  7 active torsions:
REMARK  status: ('A' for Active; 'I' for Inactive)
REMARK    1  A    between atoms: C2_2  and  C3_3 
REMARK    2  A    between atoms: C3_3  and  N1_4 
REMARK    3  A    between atoms: C3_3  and  C14_24 
REMARK    4  A    between atoms: N1_4  and  C4_6 
REMARK    5  A    between atoms: C6_12  and  N4_13 
REMARK    6  A    between atoms: N4_13  and  C7_15 
REMARK    7  A    between atoms: C7_15  and  C8_16 
ROOT
HETATM    1  C4  UNL     1       0.636  -0.495   1.117  1.00  0.00     0.134 A 
HETATM    2  C5  UNL     1       0.275  -0.643   2.441  1.00  0.00     0.156 A 
HETATM    3  N2  UNL     1      -0.974  -1.034   2.733  1.00  0.00    -0.294 N 
ATOM      4  H2  UNL     1      -1.235  -1.142   3.713  1.00  0.00     0.186 HD
HETATM    5  N3  UNL     1      -1.881  -1.285   1.805  1.00  0.00    -0.132 N 
ATOM      6  H3  UNL     1      -2.822  -1.581   2.063  1.00  0.00     0.205 HD
HETATM    7  C6  UNL     1      -1.541  -1.144   0.531  1.00  0.00     0.694 A 
HETATM    8  N5  UNL     1      -0.281  -0.749   0.185  1.00  0.00    -0.174 N 
ATOM      9  H5  UNL     1      -0.038  -0.647  -0.800  1.00  0.00     0.186 HD
ENDROOT
BRANCH   1  10
HETATM   10  N1  UNL     1       1.844  -0.118   0.869  1.00  0.00    -0.366 N 
ATOM     11  H1  UNL     1       2.456   0.047   1.668  1.00  0.00     0.161 HD
BRANCH  10  12
HETATM   12  C3  UNL     1       2.398   0.089  -0.441  1.00  0.00     0.116 C 
BRANCH  12  13
HETATM   13  C2  UNL     1       2.054   1.472  -0.954  1.00  0.00     0.025 C 
HETATM   14  C1  UNL     1       2.585   2.556  -0.057  1.00  0.00     0.007 C 
ENDBRANCH  12  13
BRANCH  12  15
HETATM   15  C14 UNL     1       3.854  -0.174  -0.403  1.00  0.00    -0.036 A 
HETATM   16  C15 UNL     1       4.317  -1.267   0.291  1.00  0.00     0.009 A 
HETATM   17  C16 UNL     1       5.676  -1.568   0.359  1.00  0.00     0.001 A 
HETATM   18  C17 UNL     1       6.586  -0.745  -0.290  1.00  0.00     0.000 A 
HETATM   19  C18 UNL     1       6.122   0.345  -0.981  1.00  0.00     0.001 A 
HETATM   20  C19 UNL     1       4.768   0.633  -1.041  1.00  0.00     0.009 A 
ENDBRANCH  12  15
ENDBRANCH  10  12
ENDBRANCH   1  10
BRANCH   7  21
HETATM   21  N4  UNL     1      -2.347  -1.363  -0.430  1.00  0.00    -0.221 N 
ATOM     22  H4  UNL     1      -1.981  -1.224  -1.372  1.00  0.00     0.178 HD
BRANCH  21  23
HETATM   23  C7  UNL     1      -3.707  -1.782  -0.330  1.00  0.00     0.176 C 
BRANCH  23  24
HETATM   24  C8  UNL     1      -4.665  -0.648  -0.506  1.00  0.00    -0.040 A 
HETATM   25  C9  UNL     1      -5.160  -0.285  -1.746  1.00  0.00     0.009 A 
HETATM   26  C10 UNL     1      -6.047   0.773  -1.866  1.00  0.00     0.001 A 
HETATM   27  C11 UNL     1      -6.456   1.489  -0.760  1.00  0.00     0.000 A 
HETATM   28  C12 UNL     1      -5.965   1.130   0.474  1.00  0.00     0.001 A 
HETATM   29  C13 UNL     1      -5.090   0.082   0.580  1.00  0.00     0.009 A 
ENDBRANCH  23  24
ENDBRANCH  21  23
ENDBRANCH   7  21
TORSDOF 7
