REMARK  5 active torsions:
REMARK  status: ('A' for Active; 'I' for Inactive)
REMARK    1  A    between atoms: N1_1  and  N2_4 
REMARK       I    between atoms: N2_4  and  C1_6 
REMARK    2  A    between atoms: C1_6  and  C2_8 
REMARK    3  A    between atoms: C5_11  and  N3_12 
REMARK    4  A    between atoms: C8_17  and  N5_18 
REMARK    5  A    between atoms: C12_26  and  N7_27 
ROOT
HETATM    1  C2  UNL     1      -2.872  -0.093   0.047  1.00  0.00     0.036 A 
HETATM    2  C3  UNL     1      -2.346   1.159  -0.181  1.00  0.00     0.019 A 
HETATM    3  C4  UNL     1      -0.990   1.320   0.035  1.00  0.00     0.035 A 
HETATM    4  C5  UNL     1      -0.161   0.304   0.459  1.00  0.00     0.089 A 
HETATM    5  C12 UNL     1      -0.678  -0.954   0.691  1.00  0.00     0.132 A 
HETATM    6  C13 UNL     1      -2.027  -1.123   0.478  1.00  0.00     0.055 A 
ENDROOT
BRANCH   4   7
HETATM    7  N3  UNL     1       1.229   0.541   0.660  1.00  0.00    -0.254 N 
HETATM    8  N4  UNL     1       1.826   1.190   1.641  1.00  0.00    -0.303 N 
HETATM    9  C6  UNL     1       3.157   1.197   1.475  1.00  0.00     0.125 A 
ATOM     10  H4  UNL     1       1.340   1.629   2.423  1.00  0.00     0.186 HD
HETATM   11  C7  UNL     1       3.438   0.507   0.309  1.00  0.00     0.060 A 
HETATM   12  C8  UNL     1       4.605   0.193  -0.362  1.00  0.00     0.187 A 
HETATM   13  C11 UNL     1       2.204   0.101  -0.190  1.00  0.00     0.073 A 
HETATM   14  N6  UNL     1       4.529  -0.509  -1.501  1.00  0.00    -0.347 N 
HETATM   15  C9  UNL     1       3.332  -0.917  -2.006  1.00  0.00     0.092 A 
ATOM     16  H6  UNL     1       5.387  -0.743  -2.001  1.00  0.00     0.167 HD
HETATM   17  C10 UNL     1       2.176  -0.618  -1.363  1.00  0.00     0.050 A 
BRANCH  12  18
HETATM   18  N5  UNL     1       5.845   0.616   0.163  1.00  0.00    -0.097 N 
HETATM   19  O2  UNL     1       6.089   0.744   1.390  1.00  0.00    -0.530 OA
HETATM   20  O3  UNL     1       6.916   0.930  -0.667  1.00  0.00    -0.530 OA
ENDBRANCH  12  18
ENDBRANCH   4   7
BRANCH   5  21
HETATM   21  N7  UNL     1       0.114  -2.050   1.130  1.00  0.00    -0.113 N 
HETATM   22  O4  UNL     1       1.112  -1.965   1.854  1.00  0.00    -0.532 OA
HETATM   23  O5  UNL     1      -0.268  -3.302   0.711  1.00  0.00    -0.532 OA
ENDBRANCH   5  21
BRANCH   1  24
HETATM   24  C1  UNL     1      -4.275  -0.371  -0.146  1.00  0.00     0.269 C 
HETATM   25  N2  UNL     1      -5.193   0.625  -0.545  1.00  0.00    -0.272 N 
ATOM     26  H2  UNL     1      -4.882   1.582  -0.709  1.00  0.00     0.189 HD
HETATM   27  O1  UNL     1      -4.697  -1.540   0.045  1.00  0.00    -0.266 OA
BRANCH  25  28
HETATM   28  N1  UNL     1      -6.539   0.273  -0.711  1.00  0.00    -0.342 N 
ATOM     29  H12 UNL     1      -6.834  -0.689  -0.543  1.00  0.00     0.176 HD
ATOM     30  H11 UNL     1      -7.202   0.992  -0.999  1.00  0.00     0.176 HD
ENDBRANCH  25  28
ENDBRANCH   1  24
TORSDOF 5
