REMARK  11 active torsions:
REMARK  status: ('A' for Active; 'I' for Inactive)
REMARK    1  A    between atoms: C5_6  and  N2_7 
REMARK    2  A    between atoms: N2_7  and  C6_9 
REMARK    3  A    between atoms: C6_9  and  C7_10 
REMARK    4  A    between atoms: C7_10  and  C8_11 
REMARK    5  A    between atoms: C8_11  and  C9_12 
REMARK    6  A    between atoms: C9_12  and  C10_13 
REMARK    7  A    between atoms: C10_13  and  C11_14 
REMARK    8  A    between atoms: C11_14  and  O1_15 
REMARK    9  A    between atoms: O1_15  and  C12_16 
REMARK   10  A    between atoms: C15_19  and  C16_20 
REMARK   11  A    between atoms: C16_20  and  C17_21 
ROOT
HETATM    1  O1  UNL     1      -0.329  -1.139  -0.060  1.00  0.00    -0.351 OA
ENDROOT
BRANCH   1   2
HETATM    2  C11 UNL     1       0.611  -0.520  -0.843  1.00  0.00     0.175 C 
BRANCH   2   3
HETATM    3  C10 UNL     1       1.199   0.752  -0.340  1.00  0.00     0.027 C 
BRANCH   3   4
HETATM    4  C9  UNL     1       1.904   0.537   0.986  1.00  0.00     0.002 C 
BRANCH   4   5
HETATM    5  C8  UNL     1       3.020  -0.460   0.877  1.00  0.00     0.002 C 
BRANCH   5   6
HETATM    6  C7  UNL     1       4.084  -0.060  -0.093  1.00  0.00     0.020 C 
BRANCH   6   7
HETATM    7  C6  UNL     1       4.743   1.245   0.267  1.00  0.00     0.119 C 
BRANCH   7   8
HETATM    8  N2  UNL     1       5.771   1.668  -0.626  1.00  0.00    -0.390 N 
ATOM      9  H2  UNL     1       5.580   2.503  -1.180  1.00  0.00     0.159 HD
BRANCH   8  10
HETATM   10  C5  UNL     1       7.028   1.050  -0.823  1.00  0.00     0.029 A 
HETATM   11  C4  UNL     1       7.869   1.381  -1.869  1.00  0.00     0.029 A 
HETATM   12  C3  UNL     1       9.094   0.762  -2.011  1.00  0.00     0.004 A 
HETATM   13  C2  UNL     1       9.517  -0.200  -1.122  1.00  0.00     0.027 A 
HETATM   14  C1  UNL     1       8.695  -0.548  -0.069  1.00  0.00     0.048 A 
HETATM   15  N1  UNL     1       9.046  -1.523   0.890  1.00  0.00    -0.102 NA
HETATM   16  C24 UNL     1       7.460   0.091   0.057  1.00  0.00     0.055 A 
ENDBRANCH   8  10
ENDBRANCH   7   8
ENDBRANCH   6   7
ENDBRANCH   5   6
ENDBRANCH   4   5
ENDBRANCH   3   4
ENDBRANCH   2   3
ENDBRANCH   1   2
BRANCH   1  17
HETATM   17  C12 UNL     1      -1.576  -0.754   0.330  1.00  0.00     0.068 A 
HETATM   18  C13 UNL     1      -2.164   0.412  -0.057  1.00  0.00     0.037 A 
HETATM   19  C14 UNL     1      -3.433   0.713   0.398  1.00  0.00     0.010 A 
HETATM   20  C15 UNL     1      -4.162  -0.102   1.234  1.00  0.00    -0.058 A 
HETATM   21  C22 UNL     1      -3.545  -1.279   1.613  1.00  0.00     0.010 A 
HETATM   22  C23 UNL     1      -2.297  -1.615   1.188  1.00  0.00     0.037 A 
BRANCH  20  23
HETATM   23  C16 UNL     1      -5.513   0.206   1.727  1.00  0.00     0.043 C 
BRANCH  23  24
HETATM   24  C17 UNL     1      -6.586  -0.328   0.799  1.00  0.00    -0.007 C 
HETATM   25  C18 UNL     1      -6.481   0.256  -0.578  1.00  0.00     0.032 C 
HETATM   26  C19 UNL     1      -7.818   0.239  -1.304  1.00  0.00     0.232 C 
HETATM   27  N3  UNL     1      -8.582  -0.898  -0.878  1.00  0.00    -0.075 N 
HETATM   28  C20 UNL     1      -8.947  -0.851   0.509  1.00  0.00     0.232 C 
ATOM     29  H32 UNL     1      -9.407  -1.020  -1.465  1.00  0.00     0.277 HD
ATOM     30  H31 UNL     1      -8.091  -1.766  -1.094  1.00  0.00     0.277 HD
HETATM   31  C21 UNL     1      -7.965  -0.037   1.326  1.00  0.00     0.032 C 
ENDBRANCH  23  24
ENDBRANCH  20  23
ENDBRANCH   1  17
TORSDOF 11
