REMARK  11 active torsions:
REMARK  status: ('A' for Active; 'I' for Inactive)
REMARK    1  A    between atoms: C2_2  and  C3_3 
REMARK    2  A    between atoms: C3_3  and  C4_4 
REMARK    3  A    between atoms: C4_4  and  N1_5 
REMARK    4  A    between atoms: N1_5  and  C5_7 
REMARK    5  A    between atoms: C5_7  and  C6_8 
REMARK    6  A    between atoms: C6_8  and  C7_9 
REMARK    7  A    between atoms: C7_9  and  N2_10 
REMARK    8  A    between atoms: N2_10  and  C8_12 
REMARK    9  A    between atoms: C8_12  and  C9_13 
REMARK   10  A    between atoms: C10_18  and  C11_19 
REMARK   11  A    between atoms: C17_25  and  C18_26 
ROOT
HETATM    1  C18 UNL     1      -2.849  -1.194  -0.101  1.00  0.00    -0.021 A 
HETATM    2  C19 UNL     1      -2.510  -1.986  -1.146  1.00  0.00     0.014 A 
HETATM    3  C20 UNL     1      -3.016  -3.285  -1.247  1.00  0.00     0.023 A 
HETATM    4  C21 UNL     1      -3.860  -3.793  -0.306  1.00  0.00     0.044 A 
HETATM    5  C22 UNL     1      -4.380  -5.134  -0.418  1.00  0.00     0.099 C 
HETATM    6  N5  UNL     1      -4.777  -6.208  -0.511  1.00  0.00    -0.191 NA
HETATM    7  C23 UNL     1      -4.216  -2.996   0.769  1.00  0.00     0.023 A 
HETATM    8  C24 UNL     1      -3.717  -1.721   0.864  1.00  0.00     0.014 A 
ENDROOT
BRANCH   1   9
HETATM    9  C17 UNL     1      -2.389   0.188   0.133  1.00  0.00     0.029 A 
HETATM   10  C9  UNL     1      -1.117   0.673   0.313  1.00  0.00     0.056 A 
HETATM   11  N3  UNL     1      -1.212   1.977   0.568  1.00  0.00    -0.302 N 
HETATM   12  N4  UNL     1      -2.456   2.344   0.556  1.00  0.00    -0.299 N 
ATOM     13  H3  UNL     1      -0.422   2.597   0.747  1.00  0.00     0.186 HD
HETATM   14  C10 UNL     1      -3.225   1.258   0.284  1.00  0.00     0.071 A 
ATOM     15  H4  UNL     1      -2.799   3.290   0.723  1.00  0.00     0.187 HD
BRANCH  10  16
HETATM   16  C8  UNL     1       0.145  -0.086   0.087  1.00  0.00     0.178 C 
BRANCH  16  17
HETATM   17  N2  UNL     1       1.337   0.645   0.400  1.00  0.00    -0.396 N 
ATOM     18  H2  UNL     1       1.906   0.403   1.211  1.00  0.00     0.159 HD
BRANCH  17  19
HETATM   19  C7  UNL     1       1.687   1.684  -0.430  1.00  0.00     0.061 C 
BRANCH  19  20
HETATM   20  C6  UNL     1       3.091   2.158  -0.472  1.00  0.00     0.088 C 
BRANCH  20  21
HETATM   21  C5  UNL     1       4.109   1.230  -1.041  1.00  0.00     0.060 C 
BRANCH  21  22
HETATM   22  N1  UNL     1       4.309   0.028  -0.352  1.00  0.00    -0.402 N 
ATOM     23  H1  UNL     1       3.996  -0.871  -0.718  1.00  0.00     0.158 HD
BRANCH  22  24
HETATM   24  C4  UNL     1       4.985   0.152   0.903  1.00  0.00     0.118 C 
BRANCH  24  25
HETATM   25  C3  UNL     1       6.396   0.602   0.648  1.00  0.00     0.019 C 
BRANCH  25  26
HETATM   26  C2  UNL     1       7.139  -0.318  -0.279  1.00  0.00    -0.003 C 
HETATM   27  C1  UNL     1       7.220  -1.710   0.297  1.00  0.00     0.005 C 
ENDBRANCH  25  26
ENDBRANCH  24  25
ENDBRANCH  22  24
ENDBRANCH  21  22
ENDBRANCH  20  21
ENDBRANCH  19  20
ENDBRANCH  17  19
ENDBRANCH  16  17
ENDBRANCH  10  16
BRANCH  14  28
HETATM   28  C11 UNL     1      -4.667   1.328   0.108  1.00  0.00    -0.007 A 
HETATM   29  C12 UNL     1      -5.135   1.027  -1.147  1.00  0.00     0.014 A 
HETATM   30  C13 UNL     1      -6.478   1.114  -1.402  1.00  0.00     0.001 A 
HETATM   31  C14 UNL     1      -7.343   1.496  -0.418  1.00  0.00     0.000 A 
HETATM   32  C15 UNL     1      -6.858   1.797   0.842  1.00  0.00     0.001 A 
HETATM   33  C16 UNL     1      -5.498   1.712   1.110  1.00  0.00     0.014 A 
ENDBRANCH  14  28
ENDBRANCH   1   9
TORSDOF 11
