REMARK  6 active torsions:
REMARK  status: ('A' for Active; 'I' for Inactive)
REMARK    1  A    between atoms: C3_3  and  O1_4 
REMARK    2  A    between atoms: O1_4  and  C4_5 
REMARK    3  A    between atoms: C4_5  and  C5_6 
REMARK    4  A    between atoms: C11_18  and  C12_19 
REMARK    5  A    between atoms: C11_18  and  N3_25 
REMARK    6  A    between atoms: C12_19  and  C14_21 
ROOT
HETATM    1  C1  UNL     1       1.656  -0.323   1.994  1.00  0.00     0.055 C 
HETATM    2  C2  UNL     1       0.865  -0.290   0.708  1.00  0.00     0.024 C 
HETATM    3  C3  UNL     1       1.531   0.114  -0.356  1.00  0.00     0.126 C 
HETATM    4  C9  UNL     1       0.798   0.155  -1.588  1.00  0.00     0.204 C 
HETATM    5  O2  UNL     1       1.364   0.775  -2.560  1.00  0.00    -0.288 OA
HETATM    6  C10 UNL     1      -0.511  -0.464  -1.746  1.00  0.00     0.195 C 
HETATM    7 CL1  UNL     1      -0.098  -2.119  -2.346  1.00  0.00    -0.113 Cl
HETATM    8  C11 UNL     1      -1.416  -0.522  -0.525  1.00  0.00     0.121 C 
HETATM    9  C20 UNL     1      -0.536  -0.694   0.652  1.00  0.00     0.188 C 
HETATM   10  O3  UNL     1      -0.927  -1.224   1.754  1.00  0.00    -0.290 OA
ENDROOT
BRANCH   3  11
HETATM   11  O1  UNL     1       2.890   0.487  -0.285  1.00  0.00    -0.341 OA
BRANCH  11  12
HETATM   12  C4  UNL     1       3.888  -0.515  -0.357  1.00  0.00     0.234 C 
BRANCH  12  13
HETATM   13  C5  UNL     1       5.241   0.045  -0.270  1.00  0.00     0.049 A 
HETATM   14  C6  UNL     1       5.459   1.398  -0.135  1.00  0.00     0.114 A 
HETATM   15  N1  UNL     1       6.742   1.810  -0.065  1.00  0.00    -0.372 N 
HETATM   16  C7  UNL     1       7.791   0.961  -0.121  1.00  0.00     0.104 A 
ATOM     17  H1  UNL     1       6.928   2.808   0.035  1.00  0.00     0.164 HD
HETATM   18  C8  UNL     1       7.563  -0.377  -0.254  1.00  0.00     0.105 A 
HETATM   19  N2  UNL     1       6.286  -0.806  -0.326  1.00  0.00    -0.365 N 
ATOM     20  H2  UNL     1       6.105  -1.805  -0.426  1.00  0.00     0.165 HD
ENDBRANCH  12  13
ENDBRANCH  11  12
ENDBRANCH   3  11
BRANCH   8  21
HETATM   21  C12 UNL     1      -2.276   0.683  -0.513  1.00  0.00     0.027 C 
HETATM   22  C13 UNL     1      -1.387   1.948  -0.461  1.00  0.00     0.014 C 
BRANCH  21  23
HETATM   23  C14 UNL     1      -3.329   0.940   0.451  1.00  0.00    -0.045 C 
HETATM   24  C15 UNL     1      -2.955   1.073   1.908  1.00  0.00     0.015 C 
HETATM   25  C16 UNL     1      -4.028   2.241   0.048  1.00  0.00     0.015 C 
HETATM   26  C17 UNL     1      -4.490  -0.038   0.496  1.00  0.00     0.015 C 
ENDBRANCH  21  23
ENDBRANCH   8  21
BRANCH   8  27
HETATM   27  N3  UNL     1      -2.162  -1.750  -0.676  1.00  0.00    -0.404 N 
HETATM   28  C18 UNL     1      -3.003  -1.937  -1.771  1.00  0.00     0.144 C 
HETATM   29  C19 UNL     1      -1.608  -2.943  -0.189  1.00  0.00     0.144 C 
ENDBRANCH   8  27
TORSDOF 6
