REMARK  7 active torsions:
REMARK  status: ('A' for Active; 'I' for Inactive)
REMARK    1  A    between atoms: C4_5  and  C5_6 
REMARK    2  A    between atoms: C5_6  and  O1_7 
REMARK    3  A    between atoms: O1_7  and  C6_8 
REMARK    4  A    between atoms: C6_8  and  C7_10 
REMARK    5  A    between atoms: C7_10  and  O3_11 
REMARK    6  A    between atoms: O3_11  and  C8_12 
REMARK    7  A    between atoms: C8_12  and  C9_14 
ROOT
HETATM    1  C6  UNL     1       0.109  -0.525   0.611  1.00  0.00     0.283 C 
HETATM    2  O2  UNL     1       0.620   0.370   1.332  1.00  0.00    -0.263 OA
ENDROOT
BRANCH   1   3
HETATM    3  O1  UNL     1      -1.251  -0.410   0.317  1.00  0.00    -0.315 OA
BRANCH   3   4
HETATM    4  C5  UNL     1      -1.956   0.673   0.830  1.00  0.00     0.221 C 
BRANCH   4   5
HETATM    5  C4  UNL     1      -3.372   0.704   0.465  1.00  0.00     0.008 A 
HETATM    6  C3  UNL     1      -4.255   1.686   0.863  1.00  0.00     0.043 A 
HETATM    7  C2  UNL     1      -5.513   1.418   0.348  1.00  0.00     0.025 A 
HETATM    8 BR1  UNL     1      -3.905   3.217   1.953  1.00  0.00    -0.048 Br
HETATM    9  C1  UNL     1      -6.748   2.212   0.529  1.00  0.00     0.070 C 
HETATM   10  N1  UNL     1      -5.401   0.284  -0.358  1.00  0.00    -0.357 N 
HETATM   11  C14 UNL     1      -4.120  -0.167  -0.304  1.00  0.00     0.017 A 
HETATM   12  C16 UNL     1      -6.496  -0.347  -1.065  1.00  0.00     0.156 C 
HETATM   13  C15 UNL     1      -3.569  -1.370  -0.936  1.00  0.00     0.069 C 
ENDBRANCH   4   5
ENDBRANCH   3   4
ENDBRANCH   1   3
BRANCH   1  14
HETATM   14  C7  UNL     1       0.940  -1.623   0.124  1.00  0.00     0.289 C 
BRANCH  14  15
HETATM   15  O3  UNL     1       2.272  -1.442   0.526  1.00  0.00    -0.310 OA
BRANCH  15  16
HETATM   16  C8  UNL     1       3.087  -0.406   0.160  1.00  0.00     0.288 C 
HETATM   17  O4  UNL     1       2.672   0.485  -0.600  1.00  0.00    -0.262 OA
BRANCH  16  18
HETATM   18  C9  UNL     1       4.496  -0.316   0.661  1.00  0.00     0.221 C 
HETATM   19  C10 UNL     1       5.312  -1.512   0.292  1.00  0.00     0.045 C 
HETATM   20  C11 UNL     1       6.062  -1.041  -0.918  1.00  0.00     0.034 C 
HETATM   21  C12 UNL     1       5.926   0.440  -0.880  1.00  0.00     0.118 C 
HETATM   22  C13 UNL     1       7.301   1.056  -0.646  1.00  0.00     0.039 C 
HETATM   23  O5  UNL     1       5.118   0.795   0.168  1.00  0.00    -0.371 OA
ENDBRANCH  16  18
ENDBRANCH  15  16
ENDBRANCH  14  15
ENDBRANCH   1  14
TORSDOF 7
