REMARK  5 active torsions:
REMARK  status: ('A' for Active; 'I' for Inactive)
REMARK       I    between atoms: N2_3  and  C2_5 
REMARK       I    between atoms: C2_5  and  N5_20 
REMARK    1  A    between atoms: N3_6  and  N4_8 
REMARK    2  A    between atoms: N4_8  and  S1_10 
REMARK    3  A    between atoms: S1_10  and  C3_13 
REMARK    4  A    between atoms: N5_20  and  O3_22 
REMARK    5  A    between atoms: O3_22  and  C9_23 
ROOT
HETATM    1  N1  UNL     1       3.234  -3.004  -1.208  1.00  0.00    -0.171 NA
HETATM    2  C1  UNL     1       2.805  -2.144  -0.556  1.00  0.00     0.196 C 
HETATM    3  N2  UNL     1       2.289  -1.092   0.226  1.00  0.00    -0.123 N 
ATOM      4  H2  UNL     1       2.273  -1.194   1.241  1.00  0.00     0.197 HD
HETATM    5  C2  UNL     1       1.792   0.103  -0.351  1.00  0.00     0.726 C 
HETATM    6  N3  UNL     1       0.543   0.182  -0.611  1.00  0.00    -0.120 N 
ATOM      7  H3  UNL     1       0.160   1.031  -1.027  1.00  0.00     0.206 HD
HETATM    8  N5  UNL     1       2.627   1.203  -0.647  1.00  0.00    -0.085 N 
ATOM      9  H5  UNL     1       2.250   2.151  -0.665  1.00  0.00     0.214 HD
ENDROOT
BRANCH   6  10
HETATM   10  N4  UNL     1      -0.290  -0.891  -0.326  1.00  0.00    -0.208 N 
ATOM     11  H4  UNL     1      -0.280  -1.733  -0.902  1.00  0.00     0.201 HD
BRANCH  10  12
HETATM   12  S1  UNL     1      -1.343  -0.754   1.034  1.00  0.00     0.278 S 
HETATM   13  O1  UNL     1      -1.558  -2.131   1.599  1.00  0.00    -0.199 OA
HETATM   14  O2  UNL     1      -0.774   0.097   2.109  1.00  0.00    -0.199 OA
BRANCH  12  15
HETATM   15  C3  UNL     1      -2.842  -0.057   0.461  1.00  0.00     0.102 A 
HETATM   16  C4  UNL     1      -3.322   1.135   0.949  1.00  0.00     0.027 A 
HETATM   17  C5  UNL     1      -4.501   1.638   0.467  1.00  0.00     0.002 A 
HETATM   18  C6  UNL     1      -5.260   1.018  -0.498  1.00  0.00     0.002 A 
HETATM   19  C7  UNL     1      -4.757  -0.181  -0.976  1.00  0.00     0.025 A 
HETATM   20  C8  UNL     1      -3.575  -0.706  -0.505  1.00  0.00     0.057 A 
HETATM   21 CL1  UNL     1      -3.002  -2.235  -1.163  1.00  0.00    -0.083 Cl
ENDBRANCH  12  15
ENDBRANCH  10  12
ENDBRANCH   6  10
BRANCH   8  22
HETATM   22  O3  UNL     1       3.946   0.976  -0.908  1.00  0.00    -0.169 OA
BRANCH  22  23
HETATM   23  C9  UNL     1       4.831   0.785   0.121  1.00  0.00     0.395 C 
HETATM   24  N6  UNL     1       6.217   0.543  -0.047  1.00  0.00    -0.031 NA
HETATM   25  O4  UNL     1       4.349   0.833   1.304  1.00  0.00    -0.240 OA
ENDBRANCH  22  23
ENDBRANCH   8  22
TORSDOF 5
