REMARK  9 active torsions:
REMARK  status: ('A' for Active; 'I' for Inactive)
REMARK    1  A    between atoms: C2_2  and  C3_3 
REMARK    2  A    between atoms: C6_6  and  O1_7 
REMARK    3  A    between atoms: C8_10  and  O2_11 
REMARK    4  A    between atoms: C12_16  and  N1_17 
REMARK    5  A    between atoms: N1_17  and  C13_20 
REMARK    6  A    between atoms: C13_20  and  C14_21 
REMARK    7  A    between atoms: C14_21  and  O3_22 
REMARK    8  A    between atoms: C18_26  and  O4_27 
REMARK    9  A    between atoms: C23_33  and  C24_34 
ROOT
HETATM    1  C3  UNL     1      -4.538   0.410  -0.498  1.00  0.00    -0.032 C 
HETATM    2  C4  UNL     1      -5.960  -0.230  -0.338  1.00  0.00     0.016 C 
HETATM    3  C5  UNL     1      -3.874  -0.528  -1.420  1.00  0.00     0.041 C 
HETATM    4  C6  UNL     1      -2.690  -0.119  -2.196  1.00  0.00     0.121 C 
HETATM    5  C7  UNL     1      -1.403  -0.698  -1.588  1.00  0.00     0.070 C 
HETATM    6  C8  UNL     1      -0.613   0.325  -0.861  1.00  0.00     0.072 C 
HETATM    7  C9  UNL     1       0.568   0.775  -1.690  1.00  0.00     0.044 C 
HETATM    8  C10 UNL     1       1.777   0.459  -1.018  1.00  0.00    -0.003 C 
HETATM    9  C11 UNL     1       3.159   0.780  -1.496  1.00  0.00     0.038 C 
HETATM   10  C12 UNL     1       4.029   0.049  -0.485  1.00  0.00     0.193 C 
HETATM   11  C16 UNL     1       3.339  -0.785   0.551  1.00  0.00     0.047 C 
HETATM   12  C17 UNL     1       3.386  -2.272   0.247  1.00  0.00     0.015 C 
HETATM   13  C18 UNL     1       2.092  -0.283   1.135  1.00  0.00     0.068 C 
HETATM   14  C19 UNL     1       0.797  -0.999   0.764  1.00  0.00     0.056 C 
HETATM   15  C20 UNL     1      -0.300  -0.041   0.585  1.00  0.00     0.025 C 
HETATM   16  C21 UNL     1       0.413   1.260   0.981  1.00  0.00     0.025 C 
HETATM   17  C22 UNL     1       1.750   1.006   0.364  1.00  0.00     0.026 C 
HETATM   18  C23 UNL     1      -1.530  -0.322   1.400  1.00  0.00     0.002 C 
HETATM   19  C27 UNL     1      -2.663   0.630   1.274  1.00  0.00     0.161 C 
HETATM   20  O5  UNL     1      -2.346   1.807   1.605  1.00  0.00    -0.292 OA
HETATM   21  C28 UNL     1      -4.039   0.554   0.873  1.00  0.00     0.064 C 
HETATM   22  C29 UNL     1      -4.844   1.767   1.452  1.00  0.00     0.019 C 
ENDROOT
BRANCH  10  23
HETATM   23  N1  UNL     1       5.000   0.956   0.071  1.00  0.00    -0.069 N 
ATOM     24  H12 UNL     1       4.967   1.865  -0.390  1.00  0.00     0.277 HD
ATOM     25  H11 UNL     1       4.741   1.247   1.014  1.00  0.00     0.277 HD
BRANCH  23  26
HETATM   26  C13 UNL     1       6.332   0.396   0.039  1.00  0.00     0.258 C 
BRANCH  26  27
HETATM   27  C14 UNL     1       6.932   0.263  -1.323  1.00  0.00     0.194 C 
BRANCH  27  28
HETATM   28  O3  UNL     1       8.179  -0.282  -1.303  1.00  0.00    -0.394 OA
HETATM   29  C15 UNL     1       9.107   0.402  -0.585  1.00  0.00     0.201 C 
ENDBRANCH  27  28
ENDBRANCH  26  27
ENDBRANCH  23  26
ENDBRANCH  10  23
BRANCH  13  30
HETATM   30  O4  UNL     1       2.140   0.084   2.460  1.00  0.00    -0.389 OA
ATOM     31  H4  UNL     1       1.332   0.409   2.839  1.00  0.00     0.210 HD
ENDBRANCH  13  30
BRANCH   6  32
HETATM   32  O2  UNL     1      -1.377   1.480  -0.822  1.00  0.00    -0.389 OA
ATOM     33  H2  UNL     1      -0.871   2.135  -0.356  1.00  0.00     0.210 HD
ENDBRANCH   6  32
BRANCH  18  34
HETATM   34  C24 UNL     1      -1.745  -1.574   2.125  1.00  0.00    -0.077 C 
HETATM   35  C25 UNL     1      -0.891  -1.941   3.321  1.00  0.00     0.043 C 
HETATM   36  C26 UNL     1      -3.061  -2.100   2.483  1.00  0.00     0.043 C 
ENDBRANCH  18  34
BRANCH   4  37
HETATM   37  O1  UNL     1      -2.717  -0.630  -3.520  1.00  0.00    -0.395 OA
ATOM     38  H1  UNL     1      -1.954  -0.366  -4.020  1.00  0.00     0.210 HD
ENDBRANCH   4  37
BRANCH   1  39
HETATM   39  C2  UNL     1      -4.955   1.745  -1.146  1.00  0.00     0.005 C 
HETATM   40  C1  UNL     1      -5.677   1.458  -2.445  1.00  0.00     0.006 C 
ENDBRANCH   1  39
TORSDOF 9
