REMARK  9 active torsions:
REMARK  status: ('A' for Active; 'I' for Inactive)
REMARK    1  A    between atoms: C4_4  and  O1_5 
REMARK    2  A    between atoms: C6_9  and  O2_10 
REMARK    3  A    between atoms: C7_12  and  N1_13 
REMARK    4  A    between atoms: C10_16  and  C11_17 
REMARK    5  A    between atoms: C11_17  and  C12_18 
REMARK    6  A    between atoms: C11_17  and  C17_28 
REMARK       I    between atoms: C12_18  and  N2_20 
REMARK    7  A    between atoms: N2_20  and  C13_22 
REMARK    8  A    between atoms: C15_24  and  O4_25 
REMARK    9  A    between atoms: O4_25  and  C16_26 
ROOT
HETATM    1  C11 UNL     1      -1.497   0.080  -0.282  1.00  0.00     0.120 C 
ENDROOT
BRANCH   1   2
HETATM    2  C10 UNL     1      -0.056  -0.169  -0.539  1.00  0.00    -0.027 A 
HETATM    3  C9  UNL     1       0.542  -0.365  -1.761  1.00  0.00     0.026 A 
HETATM    4  C8  UNL     1       1.881  -0.564  -1.574  1.00  0.00     0.091 A 
HETATM    5  N1  UNL     1       2.146  -0.497  -0.245  1.00  0.00    -0.358 N 
HETATM    6  C27 UNL     1       0.996  -0.262   0.380  1.00  0.00     0.099 A 
BRANCH   5   7
HETATM    7  C7  UNL     1       3.501  -0.670   0.290  1.00  0.00     0.124 C 
HETATM    8  C2  UNL     1       3.618  -0.336   1.733  1.00  0.00     0.010 C 
HETATM    9  C1  UNL     1       4.564  -1.307   2.456  1.00  0.00     0.012 C 
HETATM   10  C3  UNL     1       4.130   1.048   2.002  1.00  0.00     0.041 C 
HETATM   11  C4  UNL     1       5.410   1.363   1.310  1.00  0.00     0.155 C 
HETATM   12  C5  UNL     1       5.662   0.614   0.049  1.00  0.00     0.229 C 
HETATM   13  F1  UNL     1       6.245   1.481  -0.887  1.00  0.00    -0.244 F 
HETATM   14  C6  UNL     1       4.465   0.025  -0.609  1.00  0.00     0.178 C 
BRANCH  11  15
HETATM   15  O1  UNL     1       6.522   1.200   2.138  1.00  0.00    -0.393 OA
ATOM     16  H1  UNL     1       7.339   1.401   1.696  1.00  0.00     0.210 HD
ENDBRANCH  11  15
BRANCH  14  17
HETATM   17  O2  UNL     1       4.935  -0.892  -1.564  1.00  0.00    -0.391 OA
ATOM     18  H2  UNL     1       4.171  -1.268  -1.984  1.00  0.00     0.210 HD
ENDBRANCH  14  17
ENDBRANCH   5   7
ENDBRANCH   1   2
BRANCH   1  19
HETATM   19  C12 UNL     1      -1.955   1.335  -0.950  1.00  0.00     0.227 C 
HETATM   20  O3  UNL     1      -2.825   1.363  -1.863  1.00  0.00    -0.273 OA
HETATM   21  N2  UNL     1      -1.409   2.598  -0.571  1.00  0.00    -0.353 N 
ATOM     22  H2  UNL     1      -0.700   2.651   0.161  1.00  0.00     0.163 HD
BRANCH  21  23
HETATM   23  C13 UNL     1      -1.861   3.791  -1.223  1.00  0.00     0.116 A 
HETATM   24  C14 UNL     1      -0.818   4.859  -1.384  1.00  0.00     0.062 A 
HETATM   25  C15 UNL     1      -1.922   5.036  -0.402  1.00  0.00     0.156 A 
BRANCH  25  26
HETATM   26  O4  UNL     1      -1.723   4.879   0.973  1.00  0.00    -0.321 OA
BRANCH  26  27
HETATM   27  C16 UNL     1      -2.422   5.614   1.914  1.00  0.00     0.398 C 
HETATM   28  O5  UNL     1      -3.266   6.450   1.450  1.00  0.00    -0.276 OA
ENDBRANCH  26  27
ENDBRANCH  25  26
ENDBRANCH  21  23
ENDBRANCH   1  19
BRANCH   1  29
HETATM   29  C17 UNL     1      -2.380  -1.099  -0.477  1.00  0.00    -0.023 C 
HETATM   30  C18 UNL     1      -2.399  -1.690  -1.846  1.00  0.00     0.015 C 
HETATM   31  C19 UNL     1      -3.356  -2.865  -1.882  1.00  0.00    -0.013 C 
HETATM   32  C20 UNL     1      -2.791  -3.969  -1.014  1.00  0.00     0.009 C 
HETATM   33  C24 UNL     1      -4.739  -2.543  -1.428  1.00  0.00     0.009 C 
HETATM   34  C21 UNL     1      -2.668  -3.456   0.381  1.00  0.00    -0.013 C 
HETATM   35  C22 UNL     1      -4.047  -3.129   0.918  1.00  0.00     0.009 C 
HETATM   36  C26 UNL     1      -1.851  -2.221   0.454  1.00  0.00     0.015 C 
HETATM   37  C23 UNL     1      -4.639  -2.088   0.030  1.00  0.00    -0.013 C 
HETATM   38  C25 UNL     1      -3.786  -0.814  -0.038  1.00  0.00     0.015 C 
ENDBRANCH   1  29
TORSDOF 9
