REMARK  9 active torsions:
REMARK  status: ('A' for Active; 'I' for Inactive)
REMARK    1  A    between atoms: O1_2  and  C2_3 
REMARK    2  A    between atoms: C2_3  and  C3_5 
REMARK    3  A    between atoms: C3_5  and  N1_6 
REMARK    4  A    between atoms: C5_14  and  N4_15 
REMARK    5  A    between atoms: N4_15  and  N5_17 
REMARK    6  A    between atoms: C6_19  and  C8_22 
REMARK    7  A    between atoms: C9_23  and  O3_24 
REMARK    8  A    between atoms: C10_28  and  N8_29 
REMARK    9  A    between atoms: N9_32  and  N10_33 
ROOT
HETATM    1  N5  UNL     1      -0.955  -0.643  -0.663  1.00  0.00    -0.287 N 
ATOM      2  H5  UNL     1      -1.573  -0.926  -1.424  1.00  0.00     0.188 HD
HETATM    3  C6  UNL     1      -1.473  -0.341   0.475  1.00  0.00     0.162 C 
HETATM    4  C7  UNL     1      -0.699   0.069   1.609  1.00  0.00     0.121 C 
HETATM    5  N6  UNL     1      -0.061   0.385   2.539  1.00  0.00    -0.190 NA
ENDROOT
BRANCH   3   6
HETATM    6  C8  UNL     1      -2.918  -0.418   0.620  1.00  0.00     0.164 A 
HETATM    7  C9  UNL     1      -3.638  -0.130   1.766  1.00  0.00     0.188 A 
HETATM    8  N7  UNL     1      -4.923  -0.333   1.453  1.00  0.00    -0.167 N 
HETATM    9  C10 UNL     1      -5.048  -0.729   0.186  1.00  0.00     0.699 A 
ATOM     10  H7  UNL     1      -5.703  -0.202   2.098  1.00  0.00     0.186 HD
HETATM   11  N9  UNL     1      -3.819  -0.785  -0.339  1.00  0.00    -0.086 N 
BRANCH   7  12
HETATM   12  O3  UNL     1      -3.135   0.284   2.988  1.00  0.00    -0.344 OA
ATOM     13  H3  UNL     1      -3.629   0.482   3.775  1.00  0.00     0.219 HD
ENDBRANCH   7  12
BRANCH   9  14
HETATM   14  N8  UNL     1      -6.134  -1.022  -0.479  1.00  0.00    -0.233 N 
ATOM     15  H82 UNL     1      -7.071  -0.979  -0.079  1.00  0.00     0.174 HD
ATOM     16  H81 UNL     1      -6.230  -1.325  -1.448  1.00  0.00     0.174 HD
ENDBRANCH   9  14
BRANCH  11  17
HETATM   17  N10 UNL     1      -3.419  -1.143  -1.626  1.00  0.00    -0.324 N 
ATOM     18 2H10 UNL     1      -2.482  -1.186  -2.026  1.00  0.00     0.178 HD
ATOM     19 1H10 UNL     1      -4.092  -1.417  -2.342  1.00  0.00     0.178 HD
ENDBRANCH  11  17
ENDBRANCH   3   6
BRANCH   1  20
HETATM   20  N4  UNL     1       0.427  -0.598  -0.898  1.00  0.00    -0.277 N 
ATOM     21  H4  UNL     1       0.969  -1.458  -0.985  1.00  0.00     0.189 HD
BRANCH  20  22
HETATM   22  C5  UNL     1       1.009   0.578  -1.004  1.00  0.00     0.184 A 
HETATM   23  N1  UNL     1       2.294   0.855  -1.223  1.00  0.00    -0.258 N 
HETATM   24  N2  UNL     1       2.655   2.079  -1.292  1.00  0.00    -0.275 N 
HETATM   25  C4  UNL     1       1.737   3.036  -1.142  1.00  0.00     0.160 A 
ATOM     26  H2  UNL     1       3.632   2.321  -1.459  1.00  0.00     0.189 HD
HETATM   27  N3  UNL     1       1.916   4.340  -1.180  1.00  0.00    -0.378 N 
HETATM   28  S1  UNL     1       0.311   2.131  -0.894  1.00  0.00    -0.014 SA
ATOM     29  H32 UNL     1       2.768   4.881  -1.328  1.00  0.00     0.158 HD
ATOM     30  H31 UNL     1       1.214   5.071  -1.065  1.00  0.00     0.158 HD
BRANCH  23  31
HETATM   31  C3  UNL     1       3.252  -0.272  -1.380  1.00  0.00     0.262 C 
BRANCH  31  32
HETATM   32  C2  UNL     1       3.806  -0.644  -0.054  1.00  0.00     0.278 C 
HETATM   33  O2  UNL     1       3.447  -0.026   0.977  1.00  0.00    -0.263 OA
BRANCH  32  34
HETATM   34  O1  UNL     1       4.718  -1.669   0.037  1.00  0.00    -0.325 OA
HETATM   35  C1  UNL     1       5.298  -2.090   1.255  1.00  0.00     0.213 C 
ENDBRANCH  32  34
ENDBRANCH  31  32
ENDBRANCH  23  31
ENDBRANCH  20  22
ENDBRANCH   1  20
TORSDOF 9
