REMARK  7 active torsions:
REMARK  status: ('A' for Active; 'I' for Inactive)
REMARK    1  A    between atoms: C2_2  and  N1_3 
REMARK    2  A    between atoms: N1_3  and  C3_5 
REMARK    3  A    between atoms: N3_16  and  C12_17 
REMARK    4  A    between atoms: C12_17  and  O1_18 
REMARK    5  A    between atoms: C12_17  and  C13_20 
REMARK    6  A    between atoms: C19_30  and  C20_31 
REMARK    7  A    between atoms: C23_34  and  C24_35 
ROOT
HETATM    1  C3  UNL     1      -0.857   3.219  -1.113  1.00  0.00     0.102 A 
HETATM    2  C4  UNL     1      -1.065   1.966  -0.524  1.00  0.00     0.062 A 
HETATM    3  C5  UNL     1      -0.529   1.722   0.681  1.00  0.00     0.004 A 
HETATM    4  C6  UNL     1       0.233   2.718   1.333  1.00  0.00    -0.023 A 
HETATM    5  C7  UNL     1       0.409   3.931   0.717  1.00  0.00     0.014 A 
HETATM    6  C8  UNL     1       1.219   4.999   1.406  1.00  0.00     0.068 C 
HETATM    7  N2  UNL     1      -0.137   4.153  -0.485  1.00  0.00    -0.346 N 
ATOM      8  H2  UNL     1       0.000   5.059  -0.933  1.00  0.00     0.167 HD
HETATM    9  C9  UNL     1       0.928   2.597   2.669  1.00  0.00     0.043 C 
HETATM   10  C10 UNL     1       2.005   1.558   2.693  1.00  0.00     0.025 C 
HETATM   11  C11 UNL     1       1.506   0.120   2.568  1.00  0.00     0.132 C 
HETATM   12  N3  UNL     1       0.711  -0.032   1.389  1.00  0.00    -0.324 N 
HETATM   13  C19 UNL     1      -0.699   0.410   1.332  1.00  0.00     0.060 C 
ENDROOT
BRANCH  12  14
HETATM   14  C12 UNL     1       1.303  -0.492   0.215  1.00  0.00     0.172 C 
BRANCH  14  15
HETATM   15  O1  UNL     1       0.561  -0.621  -0.863  1.00  0.00    -0.344 OA
ATOM     16  H1  UNL     1       0.965  -0.935  -1.664  1.00  0.00     0.219 HD
ENDBRANCH  14  15
BRANCH  14  17
HETATM   17  C13 UNL     1       2.672  -0.872  -0.037  1.00  0.00     0.107 A 
HETATM   18  N4  UNL     1       3.672  -0.851   0.836  1.00  0.00    -0.296 N 
HETATM   19  N5  UNL     1       4.802  -1.254   0.299  1.00  0.00    -0.304 N 
ATOM     20  H4  UNL     1       3.575  -0.557   1.808  1.00  0.00     0.187 HD
HETATM   21  C14 UNL     1       4.590  -1.569  -0.997  1.00  0.00     0.034 A 
ATOM     22  H5  UNL     1       5.697  -1.319   0.784  1.00  0.00     0.186 HD
HETATM   23  C15 UNL     1       3.252  -1.331  -1.214  1.00  0.00    -0.002 A 
HETATM   24  C18 UNL     1       5.251  -2.058  -2.218  1.00  0.00     0.059 C 
HETATM   25  C16 UNL     1       2.910  -1.647  -2.626  1.00  0.00     0.043 C 
HETATM   26  C17 UNL     1       4.095  -2.451  -3.111  1.00  0.00     0.011 C 
ENDBRANCH  14  17
ENDBRANCH  12  14
BRANCH  13  27
HETATM   27  C20 UNL     1      -1.718  -0.502   1.033  1.00  0.00     0.021 A 
HETATM   28  C21 UNL     1      -2.971  -0.113   0.622  1.00  0.00     0.017 A 
HETATM   29  C22 UNL     1      -3.980  -0.988   0.345  1.00  0.00     0.009 A 
HETATM   30  C23 UNL     1      -3.802  -2.337   0.465  1.00  0.00    -0.044 A 
HETATM   31  C26 UNL     1      -2.550  -2.760   0.880  1.00  0.00     0.016 A 
HETATM   32  C27 UNL     1      -2.108  -4.042   1.113  1.00  0.00     0.124 A 
HETATM   33  C29 UNL     1      -1.513  -1.884   1.165  1.00  0.00     0.073 A 
HETATM   34  N6  UNL     1      -0.839  -3.921   1.529  1.00  0.00    -0.306 N 
HETATM   35  C28 UNL     1      -0.003  -5.089   1.886  1.00  0.00     0.177 C 
HETATM   36  N7  UNL     1      -0.491  -2.663   1.560  1.00  0.00    -0.298 N 
ATOM     37  H7  UNL     1       0.427  -2.320   1.844  1.00  0.00     0.187 HD
BRANCH  30  38
HETATM   38  C24 UNL     1      -4.897  -3.300   0.164  1.00  0.00     0.035 C 
HETATM   39  C25 UNL     1      -4.714  -3.988  -1.156  1.00  0.00     0.010 C 
ENDBRANCH  30  38
ENDBRANCH  13  27
BRANCH   1  40
HETATM   40  N1  UNL     1      -1.427   3.454  -2.374  1.00  0.00    -0.377 N 
ATOM     41  H1  UNL     1      -1.973   2.723  -2.830  1.00  0.00     0.161 HD
BRANCH  40  42
HETATM   42  C2  UNL     1      -1.242   4.736  -3.032  1.00  0.00     0.116 C 
HETATM   43  C1  UNL     1      -1.788   5.879  -2.224  1.00  0.00     0.026 C 
ENDBRANCH  40  42
ENDBRANCH   1  40
TORSDOF 7
