REMARK  8 active torsions:
REMARK  status: ('A' for Active; 'I' for Inactive)
REMARK    1  A    between atoms: C7_13  and  C8_14 
REMARK    2  A    between atoms: C8_14  and  O1_15 
REMARK    3  A    between atoms: C8_14  and  N5_17 
REMARK    4  A    between atoms: N5_17  and  C9_19 
REMARK    5  A    between atoms: C9_19  and  C10_20 
REMARK    6  A    between atoms: C9_19  and  C21_31 
REMARK    7  A    between atoms: C13_23  and  C14_24 
REMARK    8  A    between atoms: C24_34  and  N6_35 
ROOT
HETATM    1  C9  UNL     1      -0.717   0.608   0.594  1.00  0.00     0.150 C 
ENDROOT
BRANCH   1   2
HETATM    2  N5  UNL     1       0.533   0.103  -0.022  1.00  0.00    -0.356 N 
ATOM      3  H5  UNL     1       0.531  -0.201  -0.996  1.00  0.00     0.162 HD
BRANCH   2   4
HETATM    4  C8  UNL     1       1.697   0.041   0.710  1.00  0.00     0.166 C 
BRANCH   4   5
HETATM    5  C7  UNL     1       3.045  -0.389   0.415  1.00  0.00     0.107 A 
HETATM    6  C2  UNL     1       3.509  -0.907  -0.853  1.00  0.00    -0.012 A 
HETATM    7  C1  UNL     1       2.619  -1.058  -2.030  1.00  0.00     0.052 C 
HETATM    8  C3  UNL     1       4.792  -1.282  -1.023  1.00  0.00     0.121 A 
HETATM    9  N1  UNL     1       5.720  -1.180   0.032  1.00  0.00    -0.283 N 
HETATM   10  C4  UNL     1       7.104  -1.553  -0.060  1.00  0.00     0.169 C 
HETATM   11  N3  UNL     1       5.277  -0.681   1.257  1.00  0.00    -0.214 N 
HETATM   12  C5  UNL     1       7.882  -0.443   0.636  1.00  0.00     0.137 C 
HETATM   13  N2  UNL     1       7.549  -0.298   2.012  1.00  0.00    -0.402 N 
HETATM   14  C6  UNL     1       6.210  -0.556   2.391  1.00  0.00     0.286 C 
ATOM     15  H2  UNL     1       8.249  -0.019   2.699  1.00  0.00     0.154 HD
HETATM   16  N4  UNL     1       3.957  -0.314   1.372  1.00  0.00    -0.278 N 
ATOM     17  H4  UNL     1       3.653   0.049   2.276  1.00  0.00     0.189 HD
ENDBRANCH   4   5
BRANCH   4  18
HETATM   18  O1  UNL     1       1.549   0.465   1.943  1.00  0.00    -0.345 OA
ATOM     19  H1  UNL     1       0.663   0.748   2.137  1.00  0.00     0.219 HD
ENDBRANCH   4  18
ENDBRANCH   2   4
ENDBRANCH   1   2
BRANCH   1  20
HETATM   20  C10 UNL     1      -1.696  -0.502   0.681  1.00  0.00    -0.031 A 
HETATM   21  C11 UNL     1      -2.426  -0.716   1.831  1.00  0.00     0.010 A 
HETATM   22  C12 UNL     1      -3.345  -1.735   1.953  1.00  0.00     0.013 A 
HETATM   23  C13 UNL     1      -3.567  -2.584   0.913  1.00  0.00    -0.026 A 
HETATM   24  C19 UNL     1      -2.858  -2.402  -0.252  1.00  0.00     0.013 A 
HETATM   25  C20 UNL     1      -1.931  -1.371  -0.367  1.00  0.00     0.010 A 
BRANCH  23  26
HETATM   26  C14 UNL     1      -4.554  -3.668   1.062  1.00  0.00    -0.030 A 
HETATM   27  C15 UNL     1      -4.863  -4.552   0.136  1.00  0.00    -0.011 A 
HETATM   28  C16 UNL     1      -5.890  -5.470   0.667  1.00  0.00     0.055 A 
HETATM   29  C17 UNL     1      -6.130  -4.988   2.036  1.00  0.00    -0.022 A 
HETATM   30  C18 UNL     1      -5.349  -3.948   2.241  1.00  0.00     0.008 A 
ENDBRANCH  23  26
ENDBRANCH   1  20
BRANCH   1  31
HETATM   31  C21 UNL     1      -1.232   1.787  -0.109  1.00  0.00    -0.031 A 
HETATM   32  C22 UNL     1      -1.670   2.881   0.631  1.00  0.00     0.012 A 
HETATM   33  C23 UNL     1      -2.167   4.021   0.050  1.00  0.00     0.030 A 
HETATM   34  C24 UNL     1      -2.248   4.116  -1.330  1.00  0.00     0.039 A 
HETATM   35  C28 UNL     1      -1.818   3.041  -2.063  1.00  0.00     0.030 A 
HETATM   36  C29 UNL     1      -1.319   1.895  -1.480  1.00  0.00     0.012 A 
BRANCH  34  37
HETATM   37  N6  UNL     1      -2.761   5.291  -1.954  1.00  0.00    -0.317 N 
HETATM   38  C25 UNL     1      -2.105   6.377  -2.401  1.00  0.00     0.115 A 
HETATM   39  C26 UNL     1      -2.990   7.270  -2.932  1.00  0.00     0.106 A 
HETATM   40  N7  UNL     1      -4.211   6.724  -2.809  1.00  0.00    -0.360 N 
HETATM   41  C27 UNL     1      -4.064   5.539  -2.222  1.00  0.00     0.188 A 
ATOM     42  H7  UNL     1      -5.091   7.142  -3.111  1.00  0.00     0.166 HD
ENDBRANCH  34  37
ENDBRANCH   1  31
TORSDOF 8
