REMARK  9 active torsions:
REMARK  status: ('A' for Active; 'I' for Inactive)
REMARK    1  A    between atoms: C4_4  and  C5_5 
REMARK    2  A    between atoms: C6_6  and  S1_7 
REMARK    3  A    between atoms: C6_6  and  S2_19 
REMARK    4  A    between atoms: S1_7  and  C7_8 
REMARK    5  A    between atoms: C7_8  and  C8_9 
REMARK    6  A    between atoms: C9_13  and  C10_14 
REMARK    7  A    between atoms: C10_14  and  O2_15 
REMARK    8  A    between atoms: S2_19  and  C12_20 
REMARK    9  A    between atoms: C12_20  and  C15_23 
ROOT
HETATM    1  C5  UNL     1       0.187   0.588  -0.863  1.00  0.00     0.026 C 
HETATM    2  C6  UNL     1       1.147   1.450  -0.651  1.00  0.00     0.038 C 
ENDROOT
BRANCH   2   3
HETATM    3  S1  UNL     1       2.726   1.306  -1.399  1.00  0.00    -0.115 SA
BRANCH   3   4
HETATM    4  C7  UNL     1       3.106  -0.231  -2.198  1.00  0.00     0.158 C 
BRANCH   4   5
HETATM    5  C8  UNL     1       3.307  -1.321  -1.224  1.00  0.00     0.113 A 
HETATM    6  N1  UNL     1       2.407  -2.172  -0.745  1.00  0.00    -0.246 N 
HETATM    7  O1  UNL     1       2.927  -3.010   0.096  1.00  0.00    -0.221 OA
ATOM      8  H1  UNL     1       1.422  -2.167  -1.008  1.00  0.00     0.196 HD
HETATM    9  C9  UNL     1       4.207  -2.715   0.184  1.00  0.00     0.172 A 
HETATM   10  N2  UNL     1       4.475  -1.683  -0.613  1.00  0.00    -0.324 N 
ATOM     11  H2  UNL     1       5.386  -1.243  -0.744  1.00  0.00     0.169 HD
BRANCH   9  12
HETATM   12  C10 UNL     1       5.182  -3.426   1.038  1.00  0.00     0.253 C 
BRANCH  12  13
HETATM   13  O2  UNL     1       5.614  -4.563   0.386  1.00  0.00    -0.388 OA
HETATM   14  C11 UNL     1       6.233  -4.309  -0.824  1.00  0.00     0.202 C 
ENDBRANCH  12  13
ENDBRANCH   9  12
ENDBRANCH   4   5
ENDBRANCH   3   4
ENDBRANCH   2   3
BRANCH   2  15
HETATM   15  S2  UNL     1       0.813   2.860   0.397  1.00  0.00    -0.106 SA
BRANCH  15  16
HETATM   16  C12 UNL     1       2.225   3.990   0.490  1.00  0.00     0.066 C 
HETATM   17  C13 UNL     1       3.411   3.357   1.169  1.00  0.00     0.035 C 
HETATM   18  C14 UNL     1       2.537   4.465  -0.909  1.00  0.00     0.035 C 
BRANCH  16  19
HETATM   19  C15 UNL     1       1.836   5.176   1.302  1.00  0.00     0.141 C 
HETATM   20  C16 UNL     1       0.682   6.051   0.921  1.00  0.00     0.092 C 
HETATM   21  O3  UNL     1       2.434   5.497   2.314  1.00  0.00    -0.297 OA
ENDBRANCH  16  19
ENDBRANCH  15  16
ENDBRANCH   2  15
BRANCH   1  22
HETATM   22  C4  UNL     1      -1.126   0.688  -0.252  1.00  0.00     0.010 C 
HETATM   23  C3  UNL     1      -2.098  -0.171  -0.456  1.00  0.00    -0.044 C 
HETATM   24  C2  UNL     1      -3.405   0.037   0.229  1.00  0.00    -0.029 C 
HETATM   25  C17 UNL     1      -2.052  -1.358  -1.325  1.00  0.00     0.020 C 
HETATM   26  C1  UNL     1      -3.845   1.218   0.542  1.00  0.00     0.024 C 
HETATM   27  C22 UNL     1      -4.156  -1.191   0.520  1.00  0.00    -0.004 C 
HETATM   28  C20 UNL     1      -3.997  -2.344  -0.430  1.00  0.00     0.023 C 
HETATM   29  C23 UNL     1      -4.909  -1.313   1.590  1.00  0.00     0.156 A 
HETATM   30  C19 UNL     1      -4.339  -1.960  -1.844  1.00  0.00     0.010 C 
HETATM   31  C21 UNL     1      -2.469  -2.567  -0.524  1.00  0.00     0.019 C 
HETATM   32  C18 UNL     1      -3.140  -1.241  -2.375  1.00  0.00     0.010 C 
HETATM   33  O4  UNL     1      -5.031  -0.258   2.527  1.00  0.00    -0.255 OA
HETATM   34  C25 UNL     1      -5.721  -2.406   2.057  1.00  0.00     0.284 A 
HETATM   35  C24 UNL     1      -5.872  -0.673   3.523  1.00  0.00     0.373 A 
HETATM   36  O5  UNL     1      -6.186   0.045   4.516  1.00  0.00    -0.238 OA
HETATM   37  N3  UNL     1      -6.333  -1.985   3.296  1.00  0.00    -0.267 N 
ATOM     38  H3  UNL     1      -6.967  -2.525   3.884  1.00  0.00     0.174 HD
HETATM   39  O6  UNL     1      -5.920  -3.537   1.556  1.00  0.00    -0.265 OA
ENDBRANCH   1  22
TORSDOF 9
