REMARK  5 active torsions:
REMARK  status: ('A' for Active; 'I' for Inactive)
REMARK    1  A    between atoms: C3_5  and  N2_6 
REMARK    2  A    between atoms: N2_6  and  C4_8 
REMARK    3  A    between atoms: C4_8  and  C5_9 
REMARK    4  A    between atoms: C18_27  and  C19_28 
REMARK    5  A    between atoms: C21_30  and  N5_31 
ROOT
HETATM    1  C1  UNL     1      -2.093  -1.136  -3.476  1.00  0.00     0.089 C 
HETATM    2  C2  UNL     1      -1.124  -1.045  -2.341  1.00  0.00     0.095 A 
HETATM    3  N1  UNL     1      -1.516  -1.140  -1.063  1.00  0.00    -0.181 N 
ATOM      4  H1  UNL     1      -2.508  -1.279  -0.871  1.00  0.00     0.185 HD
HETATM    5  C3  UNL     1      -0.674  -1.062  -0.023  1.00  0.00     0.681 A 
HETATM    6  N4  UNL     1       0.640  -0.878  -0.306  1.00  0.00    -0.174 N 
ATOM      7  H4  UNL     1       1.308  -0.815   0.462  1.00  0.00     0.186 HD
HETATM    8  C18 UNL     1       1.088  -0.776  -1.573  1.00  0.00     0.149 A 
HETATM    9  N7  UNL     1       0.191  -0.862  -2.574  1.00  0.00    -0.330 N 
ATOM     10  H7  UNL     1       0.517  -0.786  -3.538  1.00  0.00     0.168 HD
ENDROOT
BRANCH   5  11
HETATM   11  N2  UNL     1      -1.121  -1.168   1.341  1.00  0.00    -0.222 N 
ATOM     12  H2  UNL     1      -0.452  -1.109   2.109  1.00  0.00     0.178 HD
BRANCH  11  13
HETATM   13  C4  UNL     1      -2.510  -1.357   1.607  1.00  0.00     0.176 C 
BRANCH  13  14
HETATM   14  C5  UNL     1      -3.394  -0.271   1.197  1.00  0.00    -0.039 A 
HETATM   15  C6  UNL     1      -2.921   0.976   0.881  1.00  0.00     0.011 A 
HETATM   16  C7  UNL     1      -3.762   2.004   0.491  1.00  0.00     0.031 A 
HETATM   17  C8  UNL     1      -5.138   1.758   0.417  1.00  0.00     0.046 A 
HETATM   18  N3  UNL     1      -5.949   2.754   0.039  1.00  0.00    -0.322 N 
HETATM   19  C16 UNL     1      -5.637   0.500   0.733  1.00  0.00     0.003 A 
HETATM   20  C9  UNL     1      -7.263   2.555  -0.042  1.00  0.00     0.257 A 
ATOM     21  H3  UNL     1      -5.559   3.669  -0.188  1.00  0.00     0.169 HD
HETATM   22  O1  UNL     1      -8.044   3.482  -0.397  1.00  0.00    -0.267 OA
HETATM   23  C10 UNL     1      -7.820   1.353   0.251  1.00  0.00     0.043 A 
HETATM   24  C11 UNL     1      -9.198   1.132   0.170  1.00  0.00     0.018 A 
HETATM   25  C15 UNL     1      -7.016   0.296   0.647  1.00  0.00    -0.008 A 
HETATM   26  C12 UNL     1      -9.721  -0.087   0.472  1.00  0.00     0.001 A 
HETATM   27  C13 UNL     1      -8.908  -1.127   0.863  1.00  0.00     0.001 A 
HETATM   28  C14 UNL     1      -7.531  -0.931   0.952  1.00  0.00     0.013 A 
HETATM   29  C17 UNL     1      -4.765  -0.503   1.120  1.00  0.00     0.023 A 
ENDBRANCH  13  14
ENDBRANCH  11  13
ENDBRANCH   5  11
BRANCH   8  30
HETATM   30  C19 UNL     1       2.505  -0.579  -1.876  1.00  0.00     0.079 A 
HETATM   31  C20 UNL     1       3.469  -0.486  -0.897  1.00  0.00     0.062 A 
HETATM   32  C21 UNL     1       4.819  -0.301  -1.157  1.00  0.00     0.033 A 
HETATM   33  C28 UNL     1       5.172  -0.209  -2.488  1.00  0.00     0.046 A 
HETATM   34  C29 UNL     1       4.212  -0.301  -3.473  1.00  0.00     0.090 A 
HETATM   35  N6  UNL     1       2.906  -0.483  -3.155  1.00  0.00    -0.363 N 
ATOM     36  H6  UNL     1       2.214  -0.548  -3.902  1.00  0.00     0.165 HD
BRANCH  32  37
HETATM   37  N5  UNL     1       5.799  -0.215  -0.158  1.00  0.00    -0.380 N 
HETATM   38  C22 UNL     1       5.476  -0.498   1.213  1.00  0.00     0.123 C 
HETATM   39  C23 UNL     1       6.635  -1.163   1.929  1.00  0.00     0.020 C 
HETATM   40  C24 UNL     1       7.910  -0.380   1.840  1.00  0.00     0.007 C 
HETATM   41  C25 UNL     1       7.914   0.625   0.734  1.00  0.00    -0.001 C 
HETATM   42  C26 UNL     1       7.301   1.929   1.219  1.00  0.00     0.011 C 
HETATM   43  C27 UNL     1       7.145   0.166  -0.493  1.00  0.00     0.127 C 
ENDBRANCH  32  37
ENDBRANCH   8  30
TORSDOF 5
