REMARK  6 active torsions:
REMARK  status: ('A' for Active; 'I' for Inactive)
REMARK    1  A    between atoms: C4_8  and  C5_9 
REMARK       I    between atoms: N3_14  and  C10_15 
REMARK    2  A    between atoms: C10_15  and  C11_17 
REMARK    3  A    between atoms: C11_17  and  C12_18 
REMARK    4  A    between atoms: C12_18  and  C13_19 
REMARK    5  A    between atoms: C13_19  and  N4_20 
REMARK    6  A    between atoms: C26_38  and  C27_39 
ROOT
HETATM    1  C5  UNL     1      -1.173   0.223  -1.451  1.00  0.00     0.155 C 
HETATM    2  C6  UNL     1      -1.274  -0.160  -2.899  1.00  0.00     0.033 C 
HETATM    3  C7  UNL     1      -1.608  -1.625  -3.088  1.00  0.00     0.004 C 
HETATM    4  C8  UNL     1      -0.661  -2.513  -2.326  1.00  0.00     0.020 C 
HETATM    5  C9  UNL     1      -0.434  -2.102  -0.914  1.00  0.00     0.127 C 
HETATM    6  N3  UNL     1      -0.404  -0.691  -0.661  1.00  0.00    -0.340 N 
HETATM    7  C10 UNL     1       0.397  -0.182   0.406  1.00  0.00     0.224 C 
HETATM    8  O1  UNL     1       0.384   1.045   0.616  1.00  0.00    -0.273 OA
ENDROOT
BRANCH   1   9
HETATM    9  C4  UNL     1      -2.551   0.463  -0.901  1.00  0.00     0.106 A 
HETATM   10  N2  UNL     1      -3.151   1.658  -0.758  1.00  0.00    -0.328 N 
HETATM   11  C3  UNL     1      -4.379   1.493  -0.231  1.00  0.00     0.134 A 
ATOM     12  H2  UNL     1      -2.738   2.555  -1.011  1.00  0.00     0.169 HD
HETATM   13  N1  UNL     1      -5.374   2.352   0.107  1.00  0.00    -0.344 N 
HETATM   14  C24 UNL     1      -4.569   0.147  -0.032  1.00  0.00     0.078 A 
HETATM   15  C2  UNL     1      -6.529   1.907   0.629  1.00  0.00     0.013 A 
ATOM     16  H1  UNL     1      -5.242   3.353  -0.038  1.00  0.00     0.167 HD
HETATM   17  C1  UNL     1      -7.612   2.873   0.999  1.00  0.00     0.068 C 
HETATM   18  C26 UNL     1      -6.784   0.557   0.856  1.00  0.00    -0.030 A 
HETATM   19  C25 UNL     1      -5.758  -0.294   0.504  1.00  0.00     0.043 A 
HETATM   20  N7  UNL     1      -3.432  -0.446  -0.452  1.00  0.00    -0.341 N 
ATOM     21  H7  UNL     1      -3.264  -1.452  -0.431  1.00  0.00     0.167 HD
BRANCH  18  22
HETATM   22  C27 UNL     1      -8.066   0.079   1.433  1.00  0.00     0.012 C 
HETATM   23  C28 UNL     1      -7.974  -1.403   1.605  1.00  0.00     0.015 C 
HETATM   24  C29 UNL     1      -9.246   0.427   0.579  1.00  0.00     0.015 C 
ENDBRANCH  18  22
ENDBRANCH   1   9
BRANCH   7  25
HETATM   25  C11 UNL     1       1.218  -1.077   1.238  1.00  0.00     0.131 C 
BRANCH  25  26
HETATM   26  C12 UNL     1       1.922  -0.482   2.383  1.00  0.00    -0.000 C 
BRANCH  26  27
HETATM   27  C13 UNL     1       2.933   0.562   2.222  1.00  0.00     0.087 C 
BRANCH  27  28
HETATM   28  N4  UNL     1       4.122   0.375   1.530  1.00  0.00    -0.362 N 
HETATM   29  C14 UNL     1       4.223   0.233   0.154  1.00  0.00     0.084 C 
HETATM   30  C15 UNL     1       5.416  -0.599  -0.305  1.00  0.00     0.175 C 
HETATM   31  N5  UNL     1       6.607  -0.022   0.237  1.00  0.00    -0.329 N 
HETATM   32  C16 UNL     1       6.561   0.551   1.451  1.00  0.00     0.103 A 
HETATM   33  C22 UNL     1       7.861   0.080  -0.261  1.00  0.00     0.063 A 
HETATM   34  N6  UNL     1       7.820   1.015   1.701  1.00  0.00    -0.343 N 
HETATM   35  C23 UNL     1       5.326   0.608   2.273  1.00  0.00     0.204 C 
HETATM   36  C17 UNL     1       8.632   0.740   0.670  1.00  0.00     0.060 A 
ATOM     37  H6  UNL     1       8.103   1.502   2.551  1.00  0.00     0.167 HD
HETATM   38  C18 UNL     1       9.980   0.995   0.436  1.00  0.00     0.032 A 
HETATM   39  C19 UNL     1      10.557   0.582  -0.742  1.00  0.00     0.002 A 
HETATM   40  C20 UNL     1       9.779  -0.075  -1.665  1.00  0.00     0.002 A 
HETATM   41  C21 UNL     1       8.438  -0.340  -1.456  1.00  0.00     0.032 A 
ENDBRANCH  27  28
ENDBRANCH  26  27
ENDBRANCH  25  26
ENDBRANCH   7  25
TORSDOF 6
