REMARK  6 active torsions:
REMARK  status: ('A' for Active; 'I' for Inactive)
REMARK    1  A    between atoms: C5_5  and  C6_6 
REMARK    2  A    between atoms: C7_7  and  C8_8 
REMARK       I    between atoms: C8_8  and  N1_10 
REMARK    3  A    between atoms: N1_10  and  C9_12 
REMARK    4  A    between atoms: C11_18  and  N4_19 
REMARK    5  A    between atoms: N4_19  and  C12_21 
REMARK    6  A    between atoms: C12_21  and  C13_22 
ROOT
HETATM    1  C9  UNL     1       1.285   0.086  -0.949  1.00  0.00     0.700 A 
HETATM    2  N2  UNL     1       0.463   1.121  -1.218  1.00  0.00    -0.186 N 
ATOM      3  H2  UNL     1       0.849   2.063  -1.283  1.00  0.00     0.185 HD
HETATM    4  C10 UNL     1      -0.859   0.934  -1.403  1.00  0.00     0.215 A 
HETATM    5  N3  UNL     1      -1.312  -0.313  -1.309  1.00  0.00    -0.187 N 
ATOM      6  H3  UNL     1      -2.311  -0.463  -1.449  1.00  0.00     0.185 HD
HETATM    7  C11 UNL     1      -0.562  -1.379  -1.047  1.00  0.00     0.697 A 
HETATM    8  N7  UNL     1       0.764  -1.132  -0.869  1.00  0.00    -0.022 N 
ATOM      9  H7  UNL     1       1.384  -1.916  -0.665  1.00  0.00     0.203 HD
ENDROOT
BRANCH   7  10
HETATM   10  N4  UNL     1      -1.085  -2.668  -0.958  1.00  0.00    -0.201 N 
ATOM     11  H4  UNL     1      -0.407  -3.407  -0.771  1.00  0.00     0.183 HD
BRANCH  10  12
HETATM   12  C12 UNL     1      -2.422  -3.088  -1.091  1.00  0.00     0.114 C 
BRANCH  12  13
HETATM   13  C13 UNL     1      -3.341  -2.956   0.067  1.00  0.00    -0.030 C 
HETATM   14  C14 UNL     1      -2.865  -3.713   1.289  1.00  0.00     0.041 C 
HETATM   15  C15 UNL     1      -3.022  -2.977   2.574  1.00  0.00     0.011 C 
HETATM   16  C16 UNL     1      -2.645  -1.515   2.470  1.00  0.00     0.058 C 
HETATM   17  C17 UNL     1      -3.631  -0.913   1.514  1.00  0.00     0.021 A 
HETATM   18  N5  UNL     1      -4.212   0.273   1.748  1.00  0.00    -0.344 N 
HETATM   19  C24 UNL     1      -3.927  -1.644   0.356  1.00  0.00    -0.005 A 
HETATM   20  C18 UNL     1      -5.105   0.837   0.904  1.00  0.00     0.116 A 
ATOM     21  H5  UNL     1      -3.969   0.773   2.603  1.00  0.00     0.167 HD
HETATM   22  N6  UNL     1      -5.677   2.022   1.149  1.00  0.00    -0.341 N 
HETATM   23  C22 UNL     1      -5.438   0.173  -0.247  1.00  0.00     0.010 A 
HETATM   24  C19 UNL     1      -6.580   2.609   0.312  1.00  0.00     0.040 A 
ATOM     25  H6  UNL     1      -5.424   2.512   2.007  1.00  0.00     0.167 HD
HETATM   26  C20 UNL     1      -6.939   1.972  -0.854  1.00  0.00    -0.012 A 
HETATM   27  C27 UNL     1      -7.219   3.763   0.424  1.00  0.00     0.007 A 
HETATM   28  C21 UNL     1      -6.359   0.750  -1.123  1.00  0.00     0.028 A 
HETATM   29  C25 UNL     1      -7.823   2.689  -1.538  1.00  0.00    -0.009 A 
HETATM   30  C26 UNL     1      -8.090   3.929  -0.766  1.00  0.00     0.057 A 
HETATM   31  C23 UNL     1      -4.855  -1.042  -0.506  1.00  0.00     0.029 A 
ENDBRANCH  12  13
ENDBRANCH  10  12
ENDBRANCH   7  10
BRANCH   1  32
HETATM   32  N1  UNL     1       2.675   0.339  -0.761  1.00  0.00    -0.155 N 
HETATM   33  C8  UNL     1       3.575  -0.708  -0.478  1.00  0.00     0.259 C 
HETATM   34  O1  UNL     1       3.076  -1.881  -0.401  1.00  0.00    -0.268 OA
ATOM     35  H1  UNL     1       3.025   1.295  -0.833  1.00  0.00     0.187 HD
BRANCH  33  36
HETATM   36  C7  UNL     1       5.002  -0.524  -0.275  1.00  0.00     0.075 C 
HETATM   37  C6  UNL     1       5.560   0.647  -0.343  1.00  0.00     0.017 C 
BRANCH  37  38
HETATM   38  C5  UNL     1       7.002   0.885  -0.145  1.00  0.00    -0.036 A 
HETATM   39  C4  UNL     1       7.873  -0.144   0.131  1.00  0.00     0.012 A 
HETATM   40  C3  UNL     1       9.233   0.106   0.314  1.00  0.00     0.007 A 
HETATM   41  C2  UNL     1       9.736   1.384   0.223  1.00  0.00    -0.062 A 
HETATM   42  C1  UNL     1      11.179   1.655   0.417  1.00  0.00     0.048 C 
HETATM   43  C29 UNL     1       8.849   2.386  -0.052  1.00  0.00     0.007 A 
HETATM   44  C28 UNL     1       7.505   2.170  -0.237  1.00  0.00     0.012 A 
ENDBRANCH  37  38
ENDBRANCH  33  36
ENDBRANCH   1  32
TORSDOF 6
