REMARK  6 active torsions:
REMARK  status: ('A' for Active; 'I' for Inactive)
REMARK    1  A    between atoms: C2_2  and  C3_3 
REMARK    2  A    between atoms: C3_3  and  C4_4 
REMARK    3  A    between atoms: C10_12  and  N2_13 
REMARK       I    between atoms: N2_13  and  C11_15 
REMARK    4  A    between atoms: C11_15  and  C12_17 
REMARK    5  A    between atoms: C16_21  and  N3_22 
REMARK    6  A    between atoms: N3_22  and  C17_24 
ROOT
HETATM    1  C12 UNL     1       0.273   0.657   0.358  1.00  0.00     0.035 A 
HETATM    2  C13 UNL     1       0.579  -0.253   1.342  1.00  0.00     0.017 A 
HETATM    3  C14 UNL     1       1.839  -0.823   1.422  1.00  0.00     0.003 A 
HETATM    4  C15 UNL     1       2.803  -0.460   0.484  1.00  0.00     0.029 A 
HETATM    5  C16 UNL     1       2.539   0.444  -0.514  1.00  0.00     0.034 A 
HETATM    6  C29 UNL     1       1.246   0.983  -0.538  1.00  0.00     0.046 A 
ENDROOT
BRANCH   1   7
HETATM    7  C11 UNL     1      -1.033   1.233   0.293  1.00  0.00     0.270 C 
HETATM    8  N2  UNL     1      -2.059   0.901   1.223  1.00  0.00    -0.154 N 
ATOM      9  H2  UNL     1      -1.938   1.110   2.214  1.00  0.00     0.187 HD
HETATM   10  O1  UNL     1      -1.293   2.070  -0.622  1.00  0.00    -0.267 OA
BRANCH   8  11
HETATM   11  C10 UNL     1      -3.140   0.336   0.809  1.00  0.00     0.701 A 
HETATM   12  N1  UNL     1      -3.420   0.011  -0.454  1.00  0.00    -0.178 N 
HETATM   13  C9  UNL     1      -4.652  -0.571  -0.515  1.00  0.00     0.115 A 
ATOM     14  H1  UNL     1      -2.806   0.173  -1.252  1.00  0.00     0.185 HD
HETATM   15  C8  UNL     1      -5.255  -1.056  -1.778  1.00  0.00     0.079 C 
HETATM   16  N7  UNL     1      -5.129  -0.596   0.752  1.00  0.00    -0.261 N 
HETATM   17  C7  UNL     1      -6.560  -0.399  -2.082  1.00  0.00     0.008 C 
HETATM   18  C6  UNL     1      -7.288  -0.088  -0.803  1.00  0.00     0.002 C 
HETATM   19  C5  UNL     1      -7.281  -1.316   0.099  1.00  0.00     0.027 C 
HETATM   20  C4  UNL     1      -6.406  -1.111   1.282  1.00  0.00     0.110 C 
HETATM   21  N6  UNL     1      -4.228  -0.057   1.538  1.00  0.00    -0.128 N 
ATOM     22  H6  UNL     1      -4.325   0.053   2.547  1.00  0.00     0.206 HD
BRANCH  20  23
HETATM   23  C3  UNL     1      -6.860  -0.227   2.363  1.00  0.00     0.027 C 
BRANCH  23  24
HETATM   24  C2  UNL     1      -8.096  -0.524   3.115  1.00  0.00    -0.002 C 
HETATM   25  C1  UNL     1      -9.367  -0.537   2.367  1.00  0.00     0.005 C 
ENDBRANCH  23  24
ENDBRANCH  20  23
ENDBRANCH   8  11
ENDBRANCH   1   7
BRANCH   5  26
HETATM   26  N3  UNL     1       3.437   0.899  -1.492  1.00  0.00    -0.342 N 
ATOM     27  H3  UNL     1       3.005   1.344  -2.302  1.00  0.00     0.167 HD
BRANCH  26  28
HETATM   28  C17 UNL     1       4.834   0.835  -1.525  1.00  0.00     0.112 A 
HETATM   29  N4  UNL     1       5.526   0.307  -0.511  1.00  0.00    -0.340 N 
HETATM   30  C18 UNL     1       6.868   0.230  -0.474  1.00  0.00     0.061 A 
ATOM     31  H4  UNL     1       5.004  -0.060   0.284  1.00  0.00     0.167 HD
HETATM   32  C19 UNL     1       7.542  -0.323   0.592  1.00  0.00     0.045 A 
HETATM   33  C22 UNL     1       7.616   0.713  -1.528  1.00  0.00     0.060 A 
HETATM   34  C20 UNL     1       8.939  -0.379   0.580  1.00  0.00    -0.011 A 
HETATM   35  C21 UNL     1       9.648   0.112  -0.485  1.00  0.00     0.039 A 
HETATM   36  C28 UNL     1       9.786  -0.867   1.500  1.00  0.00    -0.009 A 
HETATM   37  N5  UNL     1       8.956   0.657  -1.535  1.00  0.00    -0.354 N 
HETATM   38  C26 UNL     1      10.953  -0.031  -0.311  1.00  0.00     0.007 A 
ATOM     39  H5  UNL     1       9.469   1.026  -2.336  1.00  0.00     0.166 HD
HETATM   40  C27 UNL     1      11.161  -0.681   0.996  1.00  0.00     0.057 A 
HETATM   41  C23 UNL     1       6.902   1.263  -2.586  1.00  0.00     0.042 A 
HETATM   42  C24 UNL     1       5.534   1.348  -2.636  1.00  0.00    -0.016 A 
HETATM   43  C25 UNL     1       4.802   1.942  -3.783  1.00  0.00     0.052 C 
ENDBRANCH  26  28
ENDBRANCH   5  26
TORSDOF 6
