REMARK  6 active torsions:
REMARK  status: ('A' for Active; 'I' for Inactive)
REMARK    1  A    between atoms: C4_4  and  C5_5 
REMARK    2  A    between atoms: C10_13  and  N3_14 
REMARK       I    between atoms: N3_14  and  C12_16 
REMARK    3  A    between atoms: C12_16  and  C13_18 
REMARK    4  A    between atoms: C21_32  and  N7_34 
REMARK    5  A    between atoms: N7_34  and  C23_36 
REMARK    6  A    between atoms: C23_36  and  C24_37 
ROOT
HETATM    1  C13 UNL     1       0.245   1.369  -1.953  1.00  0.00     0.228 A 
HETATM    2  N4  UNL     1       0.647   2.745  -2.073  1.00  0.00    -0.318 N 
ATOM      3  H4  UNL     1       0.242   3.400  -2.742  1.00  0.00     0.181 HD
HETATM    4  N5  UNL     1       1.526   3.036  -1.284  1.00  0.00    -0.307 N 
ATOM      5  H5  UNL     1       1.950   3.960  -1.201  1.00  0.00     0.186 HD
HETATM    6  C14 UNL     1       1.887   1.887  -0.478  1.00  0.00     0.039 A 
HETATM    7  C15 UNL     1       1.162   0.881  -0.846  1.00  0.00     0.026 A 
HETATM    8  C16 UNL     1       1.396  -0.422  -0.226  1.00  0.00     0.051 A 
HETATM    9  N6  UNL     1       0.597  -1.475  -0.572  1.00  0.00    -0.365 N 
ATOM     10  H6  UNL     1      -0.121  -1.337  -1.284  1.00  0.00     0.165 HD
HETATM   11  C17 UNL     1       0.727  -2.687  -0.004  1.00  0.00     0.088 A 
HETATM   12  C18 UNL     1       1.692  -2.873   0.952  1.00  0.00     0.018 A 
HETATM   13  C19 UNL     1       2.501  -1.822   1.305  1.00  0.00     0.013 A 
HETATM   14  C20 UNL     1       2.379  -0.549   0.721  1.00  0.00    -0.003 A 
HETATM   15  C21 UNL     1       3.313   0.523   1.118  1.00  0.00     0.060 C 
HETATM   16  C22 UNL     1       3.234   0.572   2.649  1.00  0.00     0.044 C 
HETATM   17  C29 UNL     1       2.830   1.844   0.639  1.00  0.00     0.095 C 
ENDROOT
BRANCH   1  18
HETATM   18  C12 UNL     1      -1.163   1.308  -1.446  1.00  0.00     0.253 C 
HETATM   19  N3  UNL     1      -2.133   0.391  -1.885  1.00  0.00    -0.320 N 
HETATM   20  C11 UNL     1      -1.896  -0.434  -3.055  1.00  0.00     0.159 C 
HETATM   21  O1  UNL     1      -1.460   2.154  -0.568  1.00  0.00    -0.270 OA
BRANCH  19  22
HETATM   22  C10 UNL     1      -3.400   0.295  -1.194  1.00  0.00     0.042 A 
HETATM   23  C2  UNL     1      -4.358   1.265  -1.256  1.00  0.00    -0.034 A 
HETATM   24  C1  UNL     1      -4.139   2.499  -2.094  1.00  0.00     0.050 C 
HETATM   25  C3  UNL     1      -5.520   1.097  -0.545  1.00  0.00     0.022 A 
HETATM   26  C4  UNL     1      -5.769  -0.010   0.232  1.00  0.00    -0.012 A 
HETATM   27  C8  UNL     1      -4.795  -0.992   0.291  1.00  0.00     0.016 A 
HETATM   28  C9  UNL     1      -3.610  -0.822  -0.432  1.00  0.00     0.031 A 
BRANCH  26  29
HETATM   29  C5  UNL     1      -7.012  -0.152   0.988  1.00  0.00     0.033 C 
HETATM   30  N1  UNL     1      -7.948   0.741   1.000  1.00  0.00    -0.307 N 
HETATM   31  N2  UNL     1      -9.001   0.328   1.803  1.00  0.00    -0.141 NA
ATOM     32  H1  UNL     1      -7.916   1.624   0.491  1.00  0.00     0.182 HD
HETATM   33  C6  UNL     1      -8.896  -1.122   1.932  1.00  0.00     0.141 C 
HETATM   34  C7  UNL     1      -7.375  -1.315   1.822  1.00  0.00     0.076 C 
ENDBRANCH  26  29
ENDBRANCH  19  22
ENDBRANCH   1  18
BRANCH  15  35
HETATM   35  N7  UNL     1       4.637   0.367   0.654  1.00  0.00    -0.385 N 
ATOM     36  H7  UNL     1       5.051   1.101   0.079  1.00  0.00     0.160 HD
BRANCH  35  37
HETATM   37  C23 UNL     1       5.396  -0.765   0.960  1.00  0.00     0.095 C 
BRANCH  37  38
HETATM   38  C24 UNL     1       6.807  -0.597   0.428  1.00  0.00    -0.025 A 
HETATM   39  C25 UNL     1       7.468  -1.321  -0.444  1.00  0.00    -0.010 A 
HETATM   40  C26 UNL     1       8.843  -0.764  -0.658  1.00  0.00     0.055 A 
HETATM   41  C27 UNL     1       8.874   0.404   0.236  1.00  0.00    -0.022 A 
HETATM   42  C28 UNL     1       7.726   0.482   0.837  1.00  0.00     0.009 A 
ENDBRANCH  37  38
ENDBRANCH  35  37
ENDBRANCH  15  35
TORSDOF 6
