REMARK  6 active torsions:
REMARK  status: ('A' for Active; 'I' for Inactive)
REMARK    1  A    between atoms: C5_5  and  N1_6 
REMARK    2  A    between atoms: N1_6  and  C6_8 
REMARK    3  A    between atoms: C6_8  and  C7_9 
REMARK    4  A    between atoms: N2_13  and  C11_14 
REMARK    5  A    between atoms: C23_33  and  C24_34 
REMARK    6  A    between atoms: C24_34  and  N6_35 
ROOT
HETATM    1  C7  UNL     1      -1.172  -0.872   1.195  1.00  0.00    -0.046 C 
HETATM    2  C8  UNL     1      -1.567   0.450   1.768  1.00  0.00     0.039 C 
HETATM    3  C9  UNL     1      -1.183   1.630   0.890  1.00  0.00     0.025 C 
HETATM    4  C10 UNL     1       0.289   1.514   0.533  1.00  0.00     0.142 C 
HETATM    5  N2  UNL     1       0.637   0.187   0.121  1.00  0.00    -0.214 N 
HETATM    6  C22 UNL     1      -0.478  -0.718  -0.142  1.00  0.00     0.176 C 
ENDROOT
BRANCH   1   7
HETATM    7  C6  UNL     1      -2.165  -1.932   1.365  1.00  0.00     0.092 C 
BRANCH   7   8
HETATM    8  N1  UNL     1      -3.474  -1.835   0.871  1.00  0.00    -0.365 N 
ATOM      9  H1  UNL     1      -4.188  -1.624   1.568  1.00  0.00     0.165 HD
BRANCH   8  10
HETATM   10  C5  UNL     1      -3.951  -1.988  -0.457  1.00  0.00     0.040 A 
HETATM   11  C4  UNL     1      -3.165  -2.521  -1.457  1.00  0.00     0.030 A 
HETATM   12  C3  UNL     1      -3.621  -2.734  -2.730  1.00  0.00     0.009 A 
HETATM   13  C2  UNL     1      -4.919  -2.415  -3.070  1.00  0.00    -0.061 A 
HETATM   14  C1  UNL     1      -5.452  -2.629  -4.464  1.00  0.00     0.048 C 
HETATM   15  C29 UNL     1      -5.722  -1.890  -2.109  1.00  0.00     0.018 A 
HETATM   16  C23 UNL     1      -5.265  -1.668  -0.792  1.00  0.00    -0.011 A 
BRANCH  16  17
HETATM   17  C24 UNL     1      -6.225  -1.100   0.153  1.00  0.00     0.189 C 
BRANCH  17  18
HETATM   18  N6  UNL     1      -6.169   0.306   0.382  1.00  0.00    -0.299 N 
HETATM   19  C25 UNL     1      -6.815   1.233  -0.370  1.00  0.00     0.112 A 
HETATM   20  C26 UNL     1      -6.563   2.469   0.168  1.00  0.00     0.045 A 
HETATM   21  C27 UNL     1      -5.754   2.251   1.256  1.00  0.00     0.023 A 
HETATM   22  C28 UNL     1      -5.208   3.293   2.184  1.00  0.00     0.070 C 
HETATM   23  N7  UNL     1      -5.547   0.939   1.340  1.00  0.00    -0.303 N 
ATOM     24  H7  UNL     1      -4.978   0.488   2.057  1.00  0.00     0.186 HD
ENDBRANCH  17  18
ENDBRANCH  16  17
ENDBRANCH   8  10
ENDBRANCH   7   8
ENDBRANCH   1   7
BRANCH   5  25
HETATM   25  C11 UNL     1       1.964  -0.238   0.001  1.00  0.00     0.682 A 
HETATM   26  N3  UNL     1       2.387  -1.483  -0.385  1.00  0.00    -0.174 N 
HETATM   27  C12 UNL     1       3.730  -1.549  -0.371  1.00  0.00     0.149 A 
ATOM     28  H3  UNL     1       1.770  -2.252  -0.646  1.00  0.00     0.186 HD
HETATM   29  N4  UNL     1       4.630  -2.513  -0.648  1.00  0.00    -0.349 N 
HETATM   30  C16 UNL     1       4.193  -0.317   0.036  1.00  0.00     0.100 A 
HETATM   31  C13 UNL     1       5.970  -2.326  -0.543  1.00  0.00     0.099 A 
ATOM     32  H4  UNL     1       4.288  -3.425  -0.951  1.00  0.00     0.166 HD
HETATM   33  C14 UNL     1       6.481  -1.113  -0.139  1.00  0.00    -0.010 A 
HETATM   34  C15 UNL     1       5.563  -0.123   0.144  1.00  0.00    -0.015 A 
HETATM   35  C21 UNL     1       7.946  -0.872  -0.006  1.00  0.00     0.209 C 
HETATM   36  C17 UNL     1       6.086   1.192   0.581  1.00  0.00     0.079 C 
HETATM   37  C18 UNL     1       7.529   1.401   0.276  1.00  0.00     0.058 C 
HETATM   38  C19 UNL     1       8.306   1.503   1.583  1.00  0.00     0.046 C 
HETATM   39  C20 UNL     1       7.695   2.720  -0.457  1.00  0.00     0.046 C 
HETATM   40  O1  UNL     1       8.132   0.429  -0.492  1.00  0.00    -0.376 OA
HETATM   41  N5  UNL     1       3.109   0.444   0.248  1.00  0.00    -0.187 N 
ATOM     42  H5  UNL     1       3.142   1.416   0.557  1.00  0.00     0.184 HD
ENDBRANCH   5  25
TORSDOF 6
