MODEL 1
REMARK VINA RESULT: -4.857112819      0.000      0.000
REMARK  0 active torsions:
REMARK  status: ('A' for Active; 'I' for Inactive)
ROOT
HETATM    1  C1  UNL     1      26.822   6.362   3.654  1.00  0.00     0.005 C 
HETATM    2  C2  UNL     1      27.814   6.492   2.532  1.00  0.00     0.005 C 
HETATM    3  C3  UNL     1      28.609   7.759   2.679  1.00  0.00    -0.014 C 
HETATM    4  C4  UNL     1      29.047   8.022   4.097  1.00  0.00     0.005 C 
HETATM    5  C5  UNL     1      27.913   7.975   5.085  1.00  0.00     0.005 C 
HETATM    6  C6  UNL     1      26.640   7.724   4.272  1.00  0.00    -0.014 C 
HETATM    7  C7  UNL     1      26.490   8.817   3.238  1.00  0.00     0.005 C 
HETATM    8  C8  UNL     1      27.661   8.905   2.303  1.00  0.00     0.005 C 
ENDROOT
TORSDOF 0
ENDMDL
MODEL 2
REMARK VINA RESULT: -4.843786962      0.473      2.517
REMARK  0 active torsions:
REMARK  status: ('A' for Active; 'I' for Inactive)
ROOT
HETATM    1  C1  UNL     1      27.602   6.280   2.666  1.00  0.00     0.005 C 
HETATM    2  C2  UNL     1      26.756   6.646   3.853  1.00  0.00     0.005 C 
HETATM    3  C3  UNL     1      26.874   8.114   4.148  1.00  0.00    -0.014 C 
HETATM    4  C4  UNL     1      26.834   8.973   2.910  1.00  0.00     0.005 C 
HETATM    5  C5  UNL     1      27.828   8.548   1.864  1.00  0.00     0.005 C 
HETATM    6  C6  UNL     1      28.614   7.378   2.462  1.00  0.00    -0.014 C 
HETATM    7  C7  UNL     1      29.257   7.823   3.755  1.00  0.00     0.005 C 
HETATM    8  C8  UNL     1      28.263   8.316   4.766  1.00  0.00     0.005 C 
ENDROOT
TORSDOF 0
ENDMDL
MODEL 3
REMARK VINA RESULT: -4.746468245      0.261      2.515
REMARK  0 active torsions:
REMARK  status: ('A' for Active; 'I' for Inactive)
ROOT
HETATM    1  C1  UNL     1      27.667   8.824   2.225  1.00  0.00     0.005 C 
HETATM    2  C2  UNL     1      26.501   8.837   3.173  1.00  0.00     0.005 C 
HETATM    3  C3  UNL     1      26.773   7.945   4.351  1.00  0.00    -0.014 C 
HETATM    4  C4  UNL     1      28.174   8.082   4.889  1.00  0.00     0.005 C 
HETATM    5  C5  UNL     1      29.232   7.923   3.831  1.00  0.00     0.005 C 
HETATM    6  C6  UNL     1      28.496   7.602   2.527  1.00  0.00    -0.014 C 
HETATM    7  C7  UNL     1      27.654   6.363   2.726  1.00  0.00     0.005 C 
HETATM    8  C8  UNL     1      26.651   6.506   3.834  1.00  0.00     0.005 C 
ENDROOT
TORSDOF 0
ENDMDL
MODEL 4
REMARK VINA RESULT: -4.715112512      0.288      2.118
REMARK  0 active torsions:
REMARK  status: ('A' for Active; 'I' for Inactive)
ROOT
HETATM    1  C1  UNL     1      26.463   8.847   3.224  1.00  0.00     0.005 C 
HETATM    2  C2  UNL     1      27.608   8.829   2.250  1.00  0.00     0.005 C 
HETATM    3  C3  UNL     1      28.474   7.623   2.482  1.00  0.00    -0.014 C 
HETATM    4  C4  UNL     1      27.683   6.363   2.727  1.00  0.00     0.005 C 
HETATM    5  C5  UNL     1      26.657   6.513   3.817  1.00  0.00     0.005 C 
HETATM    6  C6  UNL     1      26.813   7.933   4.369  1.00  0.00    -0.014 C 
HETATM    7  C7  UNL     1      28.234   8.123   4.851  1.00  0.00     0.005 C 
HETATM    8  C8  UNL     1      29.254   7.899   3.773  1.00  0.00     0.005 C 
ENDROOT
TORSDOF 0
ENDMDL
MODEL 5
REMARK VINA RESULT: -4.706934603      0.329      2.165
REMARK  0 active torsions:
REMARK  status: ('A' for Active; 'I' for Inactive)
ROOT
HETATM    1  C1  UNL     1      28.249   8.235   4.778  1.00  0.00     0.005 C 
HETATM    2  C2  UNL     1      29.243   7.788   3.744  1.00  0.00     0.005 C 
HETATM    3  C3  UNL     1      28.568   7.598   2.415  1.00  0.00    -0.014 C 
HETATM    4  C4  UNL     1      27.590   8.696   2.083  1.00  0.00     0.005 C 
HETATM    5  C5  UNL     1      26.583   8.939   3.174  1.00  0.00     0.005 C 
HETATM    6  C6  UNL     1      26.870   7.906   4.268  1.00  0.00    -0.014 C 
HETATM    7  C7  UNL     1      26.786   6.519   3.671  1.00  0.00     0.005 C 
HETATM    8  C8  UNL     1      27.744   6.310   2.534  1.00  0.00     0.005 C 
ENDROOT
TORSDOF 0
ENDMDL
