MODEL 1
REMARK VINA RESULT: -8.501185055      0.000      0.000
REMARK  10 active torsions:
REMARK  status: ('A' for Active; 'I' for Inactive)
REMARK    1  A    between atoms: C2_2  and  C3_3 
REMARK    2  A    between atoms: C7_11  and  O1_12 
REMARK    3  A    between atoms: O1_12  and  C8_13 
REMARK    4  A    between atoms: C8_13  and  C9_14 
REMARK    5  A    between atoms: C9_14  and  O2_17 
REMARK    6  A    between atoms: C12_19  and  O3_20 
REMARK    7  A    between atoms: C12_19  and  C13_22 
REMARK    8  A    between atoms: C15_26  and  C16_27 
REMARK    9  A    between atoms: C17_28  and  C18_29 
REMARK   10  A    between atoms: C18_29  and  O4_32 
ROOT
HETATM    1  C3  UNL     1      25.097  13.161   2.504  1.00  0.00     0.037 A 
HETATM    2  N1  UNL     1      25.595  13.157   3.751  1.00  0.00    -0.304 N 
ATOM      3  H1  UNL     1      26.433  13.657   4.046  1.00  0.00     0.186 HD
HETATM    4  N2  UNL     1      24.833  12.403   4.547  1.00  0.00    -0.300 N 
ATOM      5  H2  UNL     1      24.992  12.235   5.541  1.00  0.00     0.187 HD
HETATM    6  C4  UNL     1      23.833  11.909   3.827  1.00  0.00     0.056 A 
HETATM    7  C5  UNL     1      23.941  12.366   2.505  1.00  0.00     0.014 A 
HETATM    8  C6  UNL     1      23.189  12.221   1.449  1.00  0.00     0.024 C 
HETATM    9  C7  UNL     1      21.901  11.374   1.410  1.00  0.00     0.186 C 
HETATM   10  C12 UNL     1      22.231  10.126   2.193  1.00  0.00     0.139 C 
HETATM   11  C21 UNL     1      21.779  10.411   3.626  1.00  0.00     0.077 C 
HETATM   12  C22 UNL     1      22.919  11.047   4.297  1.00  0.00     0.008 C 
ENDROOT
BRANCH  10  13
HETATM   13  O3  UNL     1      23.594   9.863   2.248  1.00  0.00    -0.380 OA
ATOM     14  H3  UNL     1      24.025   9.962   1.407  1.00  0.00     0.211 HD
ENDBRANCH  10  13
BRANCH  10  15
HETATM   15  C13 UNL     1      21.573   8.902   1.681  1.00  0.00     0.090 A 
HETATM   16  N3  UNL     1      22.104   7.908   0.991  1.00  0.00    -0.359 N 
HETATM   17  C14 UNL     1      21.389   6.880   0.659  1.00  0.00     0.116 A 
ATOM     18  H3  UNL     1      23.086   7.950   0.718  1.00  0.00     0.165 HD
HETATM   19  C15 UNL     1      20.076   6.865   1.042  1.00  0.00     0.075 A 
HETATM   20  S1  UNL     1      19.942   8.354   1.876  1.00  0.00    -0.063 SA
BRANCH  19  21
HETATM   21  C16 UNL     1      19.068   5.841   0.823  1.00  0.00    -0.055 C 
HETATM   22  C17 UNL     1      18.220   5.005   0.673  1.00  0.00    -0.063 C 
BRANCH  22  23
HETATM   23  C18 UNL     1      17.148   3.995   0.499  1.00  0.00     0.114 C 
HETATM   24  C19 UNL     1      17.740   2.591   0.532  1.00  0.00     0.060 C 
HETATM   25  C20 UNL     1      16.570   4.220  -0.864  1.00  0.00     0.060 C 
BRANCH  23  26
HETATM   26  O4  UNL     1      16.178   4.148   1.482  1.00  0.00    -0.378 OA
ATOM     27  H4  UNL     1      15.375   4.486   1.103  1.00  0.00     0.211 HD
ENDBRANCH  23  26
ENDBRANCH  22  23
ENDBRANCH  19  21
ENDBRANCH  10  15
BRANCH   9  28
HETATM   28  O1  UNL     1      21.050  12.158   2.131  1.00  0.00    -0.376 OA
BRANCH  28  29
HETATM   29  C8  UNL     1      20.863  13.439   2.113  1.00  0.00     0.205 C 
BRANCH  29  30
HETATM   30  C9  UNL     1      20.525  14.074   3.419  1.00  0.00     0.072 C 
HETATM   31  C10 UNL     1      21.689  14.728   4.056  1.00  0.00     0.047 C 
HETATM   32  C11 UNL     1      19.444  15.162   3.204  1.00  0.00     0.047 C 
BRANCH  30  33
HETATM   33  O2  UNL     1      19.870  13.169   4.274  1.00  0.00    -0.388 OA
ATOM     34  H2  UNL     1      18.998  12.965   3.957  1.00  0.00     0.210 HD
ENDBRANCH  30  33
ENDBRANCH  29  30
ENDBRANCH  28  29
ENDBRANCH   9  28
BRANCH   1  35
HETATM   35  C2  UNL     1      25.738  13.817   1.341  1.00  0.00     0.055 C 
HETATM   36  C1  UNL     1      27.245  13.538   1.348  1.00  0.00     0.011 C 
ENDBRANCH   1  35
TORSDOF 10
ENDMDL
MODEL 2
REMARK VINA RESULT: -8.248647405      3.840      9.554
REMARK  10 active torsions:
REMARK  status: ('A' for Active; 'I' for Inactive)
REMARK    1  A    between atoms: C2_2  and  C3_3 
REMARK    2  A    between atoms: C7_11  and  O1_12 
REMARK    3  A    between atoms: O1_12  and  C8_13 
REMARK    4  A    between atoms: C8_13  and  C9_14 
REMARK    5  A    between atoms: C9_14  and  O2_17 
REMARK    6  A    between atoms: C12_19  and  O3_20 
REMARK    7  A    between atoms: C12_19  and  C13_22 
REMARK    8  A    between atoms: C15_26  and  C16_27 
REMARK    9  A    between atoms: C17_28  and  C18_29 
REMARK   10  A    between atoms: C18_29  and  O4_32 
ROOT
HETATM    1  C3  UNL     1      21.227  13.317   3.386  1.00  0.00     0.037 A 
HETATM    2  N1  UNL     1      21.186  13.350   4.728  1.00  0.00    -0.304 N 
ATOM      3  H1  UNL     1      20.406  13.705   5.280  1.00  0.00     0.186 HD
HETATM    4  N2  UNL     1      22.317  12.851   5.234  1.00  0.00    -0.300 N 
ATOM      5  H2  UNL     1      22.539  12.762   6.226  1.00  0.00     0.187 HD
HETATM    6  C4  UNL     1      23.103  12.489   4.227  1.00  0.00     0.056 A 
HETATM    7  C5  UNL     1      22.456  12.754   3.011  1.00  0.00     0.014 A 
HETATM    8  C6  UNL     1      22.771  12.529   1.766  1.00  0.00     0.024 C 
HETATM    9  C7  UNL     1      24.102  11.895   1.310  1.00  0.00     0.186 C 
HETATM   10  C12 UNL     1      25.157  12.535   2.179  1.00  0.00     0.139 C 
HETATM   11  C21 UNL     1      25.332  11.593   3.371  1.00  0.00     0.077 C 
HETATM   12  C22 UNL     1      24.350  12.015   4.376  1.00  0.00     0.008 C 
ENDROOT
BRANCH  10  13
HETATM   13  O3  UNL     1      24.765  13.764   2.695  1.00  0.00    -0.380 OA
ATOM     14  H3  UNL     1      25.497  14.296   2.986  1.00  0.00     0.211 HD
ENDBRANCH  10  13
BRANCH  10  15
HETATM   15  C13 UNL     1      26.454  12.746   1.496  1.00  0.00     0.090 A 
HETATM   16  N3  UNL     1      27.211  11.860   0.871  1.00  0.00    -0.359 N 
HETATM   17  C14 UNL     1      28.305  12.225   0.283  1.00  0.00     0.116 A 
ATOM     18  H3  UNL     1      26.930  10.879   0.853  1.00  0.00     0.165 HD
HETATM   19  C15 UNL     1      28.647  13.549   0.334  1.00  0.00     0.075 A 
HETATM   20  S1  UNL     1      27.351  14.206   1.241  1.00  0.00    -0.063 SA
BRANCH  19  21
HETATM   21  C16 UNL     1      29.793  14.224  -0.250  1.00  0.00    -0.055 C 
HETATM   22  C17 UNL     1      30.722  14.813  -0.732  1.00  0.00    -0.063 C 
BRANCH  22  23
HETATM   23  C18 UNL     1      31.863  15.567  -1.303  1.00  0.00     0.114 C 
HETATM   24  C19 UNL     1      32.730  14.644  -2.152  1.00  0.00     0.060 C 
HETATM   25  C20 UNL     1      32.687  16.033  -0.142  1.00  0.00     0.060 C 
BRANCH  23  26
HETATM   26  O4  UNL     1      31.404  16.644  -2.051  1.00  0.00    -0.378 OA
ATOM     27  H4  UNL     1      32.010  16.837  -2.757  1.00  0.00     0.211 HD
ENDBRANCH  23  26
ENDBRANCH  22  23
ENDBRANCH  19  21
ENDBRANCH  10  15
BRANCH   9  28
HETATM   28  O1  UNL     1      23.919  10.598   1.688  1.00  0.00    -0.376 OA
BRANCH  28  29
HETATM   29  C8  UNL     1      23.675   9.541   0.982  1.00  0.00     0.205 C 
BRANCH  29  30
HETATM   30  C9  UNL     1      22.273   9.033   1.018  1.00  0.00     0.072 C 
HETATM   31  C10 UNL     1      22.177   7.593   0.695  1.00  0.00     0.047 C 
HETATM   32  C11 UNL     1      21.686   9.229   2.438  1.00  0.00     0.047 C 
BRANCH  30  33
HETATM   33  O2  UNL     1      21.421   9.829   0.231  1.00  0.00    -0.388 OA
ATOM     34  H2  UNL     1      21.630   9.750  -0.692  1.00  0.00     0.210 HD
ENDBRANCH  30  33
ENDBRANCH  29  30
ENDBRANCH  28  29
ENDBRANCH   9  28
BRANCH   1  35
HETATM   35  C2  UNL     1      20.183  13.875   2.497  1.00  0.00     0.055 C 
HETATM   36  C1  UNL     1      19.488  15.057   3.182  1.00  0.00     0.011 C 
ENDBRANCH   1  35
TORSDOF 10
ENDMDL
MODEL 3
REMARK VINA RESULT: -8.159634375      1.293      1.475
REMARK  10 active torsions:
REMARK  status: ('A' for Active; 'I' for Inactive)
REMARK    1  A    between atoms: C2_2  and  C3_3 
REMARK    2  A    between atoms: C7_11  and  O1_12 
REMARK    3  A    between atoms: O1_12  and  C8_13 
REMARK    4  A    between atoms: C8_13  and  C9_14 
REMARK    5  A    between atoms: C9_14  and  O2_17 
REMARK    6  A    between atoms: C12_19  and  O3_20 
REMARK    7  A    between atoms: C12_19  and  C13_22 
REMARK    8  A    between atoms: C15_26  and  C16_27 
REMARK    9  A    between atoms: C17_28  and  C18_29 
REMARK   10  A    between atoms: C18_29  and  O4_32 
ROOT
HETATM    1  C3  UNL     1      26.571  12.142   1.923  1.00  0.00     0.037 A 
HETATM    2  N1  UNL     1      27.249  12.163   3.082  1.00  0.00    -0.304 N 
ATOM      3  H1  UNL     1      28.253  12.324   3.169  1.00  0.00     0.186 HD
HETATM    4  N2  UNL     1      26.418  11.943   4.104  1.00  0.00    -0.300 N 
ATOM      5  H2  UNL     1      26.681  11.909   5.090  1.00  0.00     0.187 HD
HETATM    6  C4  UNL     1      25.193  11.776   3.621  1.00  0.00     0.056 A 
HETATM    7  C5  UNL     1      25.222  11.901   2.224  1.00  0.00     0.014 A 
HETATM    8  C6  UNL     1      24.293  11.883   1.308  1.00  0.00     0.024 C 
HETATM    9  C7  UNL     1      22.797  11.642   1.596  1.00  0.00     0.186 C 
HETATM   10  C12 UNL     1      22.770  10.533   2.620  1.00  0.00     0.139 C 
HETATM   11  C21 UNL     1      22.728  11.234   3.979  1.00  0.00     0.077 C 
HETATM   12  C22 UNL     1      24.124  11.462   4.368  1.00  0.00     0.008 C 
ENDROOT
BRANCH  10  13
HETATM   13  O3  UNL     1      23.920   9.754   2.608  1.00  0.00    -0.380 OA
ATOM     14  H3  UNL     1      23.891   9.039   3.233  1.00  0.00     0.211 HD
ENDBRANCH  10  13
BRANCH  10  15
HETATM   15  C13 UNL     1      21.620   9.611   2.481  1.00  0.00     0.090 A 
HETATM   16  N3  UNL     1      20.493   9.589   3.172  1.00  0.00    -0.359 N 
HETATM   17  C14 UNL     1      19.562   8.735   2.886  1.00  0.00     0.116 A 
ATOM     18  H3  UNL     1      20.355  10.250   3.936  1.00  0.00     0.165 HD
HETATM   19  C15 UNL     1      19.788   7.864   1.856  1.00  0.00     0.075 A 
HETATM   20  S1  UNL     1      21.354   8.332   1.345  1.00  0.00    -0.063 SA
BRANCH  19  21
HETATM   21  C16 UNL     1      18.917   6.831   1.319  1.00  0.00    -0.055 C 
HETATM   22  C17 UNL     1      18.176   5.984   0.902  1.00  0.00    -0.063 C 
BRANCH  22  23
HETATM   23  C18 UNL     1      17.233   4.959   0.395  1.00  0.00     0.114 C 
HETATM   24  C19 UNL     1      18.002   3.764  -0.156  1.00  0.00     0.060 C 
HETATM   25  C20 UNL     1      16.491   5.592  -0.742  1.00  0.00     0.060 C 
BRANCH  23  26
HETATM   26  O4  UNL     1      16.360   4.567   1.401  1.00  0.00    -0.378 OA
ATOM     27  H4  UNL     1      16.678   3.779   1.825  1.00  0.00     0.211 HD
ENDBRANCH  23  26
ENDBRANCH  22  23
ENDBRANCH  19  21
ENDBRANCH  10  15
BRANCH   9  28
HETATM   28  O1  UNL     1      22.449  12.821   2.185  1.00  0.00    -0.376 OA
BRANCH  28  29
HETATM   29  C8  UNL     1      21.349  13.501   2.124  1.00  0.00     0.205 C 
BRANCH  29  30
HETATM   30  C9  UNL     1      20.714  13.844   3.430  1.00  0.00     0.072 C 
HETATM   31  C10 UNL     1      21.663  14.461   4.383  1.00  0.00     0.047 C 
HETATM   32  C11 UNL     1      19.566  14.858   3.200  1.00  0.00     0.047 C 
BRANCH  30  33
HETATM   33  O2  UNL     1      20.032  12.740   3.973  1.00  0.00    -0.388 OA
ATOM     34  H2  UNL     1      19.614  12.225   3.293  1.00  0.00     0.210 HD
ENDBRANCH  30  33
ENDBRANCH  29  30
ENDBRANCH  28  29
ENDBRANCH   9  28
BRANCH   1  35
HETATM   35  C2  UNL     1      27.189  12.256   0.582  1.00  0.00     0.055 C 
HETATM   36  C1  UNL     1      28.187  13.419   0.563  1.00  0.00     0.011 C 
ENDBRANCH   1  35
TORSDOF 10
ENDMDL
MODEL 4
REMARK VINA RESULT: -8.122970845      2.376      3.913
REMARK  10 active torsions:
REMARK  status: ('A' for Active; 'I' for Inactive)
REMARK    1  A    between atoms: C2_2  and  C3_3 
REMARK    2  A    between atoms: C7_11  and  O1_12 
REMARK    3  A    between atoms: O1_12  and  C8_13 
REMARK    4  A    between atoms: C8_13  and  C9_14 
REMARK    5  A    between atoms: C9_14  and  O2_17 
REMARK    6  A    between atoms: C12_19  and  O3_20 
REMARK    7  A    between atoms: C12_19  and  C13_22 
REMARK    8  A    between atoms: C15_26  and  C16_27 
REMARK    9  A    between atoms: C17_28  and  C18_29 
REMARK   10  A    between atoms: C18_29  and  O4_32 
ROOT
HETATM    1  C3  UNL     1      26.163  11.557   4.445  1.00  0.00     0.037 A 
HETATM    2  N1  UNL     1      26.061  12.853   4.782  1.00  0.00    -0.304 N 
ATOM      3  H1  UNL     1      26.699  13.346   5.406  1.00  0.00     0.186 HD
HETATM    4  N2  UNL     1      25.002  13.401   4.180  1.00  0.00    -0.300 N 
ATOM      5  H2  UNL     1      24.702  14.373   4.268  1.00  0.00     0.187 HD
HETATM    6  C4  UNL     1      24.406  12.469   3.447  1.00  0.00     0.056 A 
HETATM    7  C5  UNL     1      25.110  11.261   3.567  1.00  0.00     0.014 A 
HETATM    8  C6  UNL     1      24.971  10.089   3.010  1.00  0.00     0.024 C 
HETATM    9  C7  UNL     1      23.840   9.725   2.027  1.00  0.00     0.186 C 
HETATM   10  C12 UNL     1      22.599  10.360   2.606  1.00  0.00     0.139 C 
HETATM   11  C21 UNL     1      22.490  11.731   1.935  1.00  0.00     0.077 C 
HETATM   12  C22 UNL     1      23.265  12.658   2.767  1.00  0.00     0.008 C 
ENDROOT
BRANCH  10  13
HETATM   13  O3  UNL     1      22.694  10.590   3.973  1.00  0.00    -0.380 OA
ATOM     14  H3  UNL     1      22.827  11.507   4.187  1.00  0.00     0.211 HD
ENDBRANCH  10  13
BRANCH  10  15
HETATM   15  C13 UNL     1      21.362   9.579   2.382  1.00  0.00     0.090 A 
HETATM   16  N3  UNL     1      20.132   9.848   2.786  1.00  0.00    -0.359 N 
HETATM   17  C14 UNL     1      19.147   9.073   2.461  1.00  0.00     0.116 A 
ATOM     18  H3  UNL     1      19.957  10.673   3.359  1.00  0.00     0.165 HD
HETATM   19  C15 UNL     1      19.424   7.974   1.694  1.00  0.00     0.075 A 
HETATM   20  S1  UNL     1      21.117   8.122   1.478  1.00  0.00    -0.063 SA
BRANCH  19  21
HETATM   21  C16 UNL     1      18.518   6.963   1.175  1.00  0.00    -0.055 C 
HETATM   22  C17 UNL     1      17.797   6.109   0.737  1.00  0.00    -0.063 C 
BRANCH  22  23
HETATM   23  C18 UNL     1      16.929   5.029   0.210  1.00  0.00     0.114 C 
HETATM   24  C19 UNL     1      17.781   3.913  -0.382  1.00  0.00     0.060 C 
HETATM   25  C20 UNL     1      16.126   5.634  -0.900  1.00  0.00     0.060 C 
BRANCH  23  26
HETATM   26  O4  UNL     1      16.101   4.542   1.214  1.00  0.00    -0.378 OA
ATOM     27  H4  UNL     1      15.220   4.418   0.883  1.00  0.00     0.211 HD
ENDBRANCH  23  26
ENDBRANCH  22  23
ENDBRANCH  19  21
ENDBRANCH  10  15
BRANCH   9  28
HETATM   28  O1  UNL     1      24.230  10.410   0.913  1.00  0.00    -0.376 OA
BRANCH  28  29
HETATM   29  C8  UNL     1      25.048  10.081  -0.035  1.00  0.00     0.205 C 
BRANCH  29  30
HETATM   30  C9  UNL     1      24.427   9.693  -1.335  1.00  0.00     0.072 C 
HETATM   31  C10 UNL     1      24.053   8.263  -1.387  1.00  0.00     0.047 C 
HETATM   32  C11 UNL     1      23.136  10.518  -1.560  1.00  0.00     0.047 C 
BRANCH  30  33
HETATM   33  O2  UNL     1      25.227  10.090  -2.422  1.00  0.00    -0.388 OA
ATOM     34  H2  UNL     1      24.710  10.194  -3.212  1.00  0.00     0.210 HD
ENDBRANCH  30  33
ENDBRANCH  29  30
ENDBRANCH  28  29
ENDBRANCH   9  28
BRANCH   1  35
HETATM   35  C2  UNL     1      27.165  10.618   5.000  1.00  0.00     0.055 C 
HETATM   36  C1  UNL     1      28.131  11.368   5.923  1.00  0.00     0.011 C 
ENDBRANCH   1  35
TORSDOF 10
ENDMDL
MODEL 5
REMARK VINA RESULT: -7.994637764      3.983      9.787
REMARK  10 active torsions:
REMARK  status: ('A' for Active; 'I' for Inactive)
REMARK    1  A    between atoms: C2_2  and  C3_3 
REMARK    2  A    between atoms: C7_11  and  O1_12 
REMARK    3  A    between atoms: O1_12  and  C8_13 
REMARK    4  A    between atoms: C8_13  and  C9_14 
REMARK    5  A    between atoms: C9_14  and  O2_17 
REMARK    6  A    between atoms: C12_19  and  O3_20 
REMARK    7  A    between atoms: C12_19  and  C13_22 
REMARK    8  A    between atoms: C15_26  and  C16_27 
REMARK    9  A    between atoms: C17_28  and  C18_29 
REMARK   10  A    between atoms: C18_29  and  O4_32 
ROOT
HETATM    1  C3  UNL     1      21.256   9.735   2.739  1.00  0.00     0.037 A 
HETATM    2  N1  UNL     1      20.548  10.206   3.778  1.00  0.00    -0.304 N 
ATOM      3  H1  UNL     1      19.565  10.000   3.958  1.00  0.00     0.186 HD
HETATM    4  N2  UNL     1      21.318  10.984   4.543  1.00  0.00    -0.300 N 
ATOM      5  H2  UNL     1      21.024  11.464   5.394  1.00  0.00     0.187 HD
HETATM    6  C4  UNL     1      22.533  11.027   4.009  1.00  0.00     0.056 A 
HETATM    7  C5  UNL     1      22.561  10.237   2.850  1.00  0.00     0.014 A 
HETATM    8  C6  UNL     1      23.511   9.907   2.019  1.00  0.00     0.024 C 
HETATM    9  C7  UNL     1      24.963  10.419   2.115  1.00  0.00     0.186 C 
HETATM   10  C12 UNL     1      24.839  11.881   2.470  1.00  0.00     0.139 C 
HETATM   11  C21 UNL     1      24.914  11.939   3.996  1.00  0.00     0.077 C 
HETATM   12  C22 UNL     1      23.539  11.778   4.482  1.00  0.00     0.008 C 
ENDROOT
BRANCH  10  13
HETATM   13  O3  UNL     1      23.613  12.426   2.109  1.00  0.00    -0.380 OA
ATOM     14  H3  UNL     1      22.896  12.117   2.650  1.00  0.00     0.211 HD
ENDBRANCH  10  13
BRANCH  10  15
HETATM   15  C13 UNL     1      25.888  12.737   1.871  1.00  0.00     0.090 A 
HETATM   16  N3  UNL     1      26.042  14.046   1.973  1.00  0.00    -0.359 N 
HETATM   17  C14 UNL     1      27.052  14.637   1.417  1.00  0.00     0.116 A 
ATOM     18  H3  UNL     1      25.360  14.596   2.494  1.00  0.00     0.165 HD
HETATM   19  C15 UNL     1      27.942  13.863   0.724  1.00  0.00     0.075 A 
HETATM   20  S1  UNL     1      27.266  12.301   0.917  1.00  0.00    -0.063 SA
BRANCH  19  21
HETATM   21  C16 UNL     1      29.156  14.258   0.030  1.00  0.00    -0.055 C 
HETATM   22  C17 UNL     1      30.149  14.618  -0.541  1.00  0.00    -0.063 C 
BRANCH  22  23
HETATM   23  C18 UNL     1      31.378  15.091  -1.222  1.00  0.00     0.114 C 
HETATM   24  C19 UNL     1      31.856  14.048  -2.225  1.00  0.00     0.060 C 
HETATM   25  C20 UNL     1      32.427  15.223  -0.160  1.00  0.00     0.060 C 
BRANCH  23  26
HETATM   26  O4  UNL     1      31.146  16.310  -1.845  1.00  0.00    -0.378 OA
ATOM     27  H4  UNL     1      31.949  16.816  -1.889  1.00  0.00     0.211 HD
ENDBRANCH  23  26
ENDBRANCH  22  23
ENDBRANCH  19  21
ENDBRANCH  10  15
BRANCH   9  28
HETATM   28  O1  UNL     1      25.417   9.720   3.194  1.00  0.00    -0.376 OA
BRANCH  28  29
HETATM   29  C8  UNL     1      26.329   8.806   3.284  1.00  0.00     0.205 C 
BRANCH  29  30
HETATM   30  C9  UNL     1      27.431   9.068   4.256  1.00  0.00     0.072 C 
HETATM   31  C10 UNL     1      28.204   7.852   4.586  1.00  0.00     0.047 C 
HETATM   32  C11 UNL     1      28.421  10.096   3.654  1.00  0.00     0.047 C 
BRANCH  30  33
HETATM   33  O2  UNL     1      26.957   9.744   5.396  1.00  0.00    -0.388 OA
ATOM     34  H2  UNL     1      27.279   9.342   6.194  1.00  0.00     0.210 HD
ENDBRANCH  30  33
ENDBRANCH  29  30
ENDBRANCH  28  29
ENDBRANCH   9  28
BRANCH   1  35
HETATM   35  C2  UNL     1      20.696   8.917   1.639  1.00  0.00     0.055 C 
HETATM   36  C1  UNL     1      19.176   8.798   1.796  1.00  0.00     0.011 C 
ENDBRANCH   1  35
TORSDOF 10
ENDMDL
