MODEL 1
REMARK VINA RESULT: -8.320540409      0.000      0.000
REMARK  7 active torsions:
REMARK  status: ('A' for Active; 'I' for Inactive)
REMARK    1  A    between atoms: C4_7  and  N3_8 
REMARK    2  A    between atoms: C5_10  and  C6_11 
REMARK    3  A    between atoms: C6_11  and  N4_12 
REMARK    4  A    between atoms: N5_15  and  C9_16 
REMARK    5  A    between atoms: C17_26  and  N7_27 
REMARK    6  A    between atoms: N7_27  and  C18_29 
REMARK    7  A    between atoms: C21_32  and  O1_33 
ROOT
HETATM    1  N1  UNL     1      29.640   7.717   5.328  1.00  0.00    -0.191 NA
HETATM    2  C1  UNL     1      28.958   8.578   4.924  1.00  0.00     0.104 C 
HETATM    3  C2  UNL     1      28.139   9.633   4.413  1.00  0.00     0.104 A 
HETATM    4  C3  UNL     1      27.218   9.418   3.438  1.00  0.00     0.132 A 
HETATM    5  N2  UNL     1      26.454  10.450   2.973  1.00  0.00    -0.200 N 
ATOM      6  H2  UNL     1      25.771  10.258   2.241  1.00  0.00     0.183 HD
HETATM    7  C4  UNL     1      26.559  11.699   3.431  1.00  0.00     0.683 A 
HETATM    8  N6  UNL     1      27.503  11.893   4.421  1.00  0.00    -0.175 N 
ATOM      9  H6  UNL     1      27.619  12.832   4.801  1.00  0.00     0.186 HD
HETATM   10  C17 UNL     1      28.257  10.932   4.898  1.00  0.00     0.139 A 
ENDROOT
BRANCH  10  11
HETATM   11  N7  UNL     1      29.134  11.110   5.820  1.00  0.00    -0.370 N 
ATOM     12  H7  UNL     1      29.137  10.425   6.576  1.00  0.00     0.161 HD
BRANCH  11  13
HETATM   13  C18 UNL     1      30.101  12.150   5.911  1.00  0.00     0.083 C 
HETATM   14  C19 UNL     1      31.520  11.579   6.036  1.00  0.00     0.028 C 
HETATM   15  C20 UNL     1      31.557  10.514   7.106  1.00  0.00     0.034 C 
HETATM   16  C21 UNL     1      30.983  10.945   8.411  1.00  0.00     0.118 C 
HETATM   17  C22 UNL     1      29.750  11.792   8.303  1.00  0.00     0.034 C 
HETATM   18  C23 UNL     1      29.858  12.861   7.251  1.00  0.00     0.028 C 
BRANCH  16  19
HETATM   19  O1  UNL     1      30.615   9.770   9.108  1.00  0.00    -0.396 OA
ATOM     20  H1  UNL     1      30.227  10.046   9.930  1.00  0.00     0.210 HD
ENDBRANCH  16  19
ENDBRANCH  11  13
ENDBRANCH  10  11
BRANCH   7  21
HETATM   21  N3  UNL     1      25.909  12.667   3.066  1.00  0.00    -0.203 N 
HETATM   22  C5  UNL     1      24.865  13.481   3.363  1.00  0.00     0.109 C 
ATOM     23  H3  UNL     1      26.312  12.994   2.188  1.00  0.00     0.183 HD
BRANCH  22  24
HETATM   24  C6  UNL     1      23.976  13.139   4.560  1.00  0.00     0.318 C 
BRANCH  24  25
HETATM   25  N4  UNL     1      22.737  12.640   4.003  1.00  0.00     0.102 N 
HETATM   26  C7  UNL     1      22.462  13.082   2.667  1.00  0.00     0.318 C 
HETATM   27  C8  UNL     1      21.623  12.094   1.898  1.00  0.00     0.093 C 
HETATM   28  N5  UNL     1      22.094  10.770   1.868  1.00  0.00    -0.366 N 
HETATM   29  C15 UNL     1      22.817  10.395   3.009  1.00  0.00     0.093 C 
HETATM   30  C16 UNL     1      22.514  11.236   4.194  1.00  0.00     0.318 C 
BRANCH  28  31
HETATM   31  C9  UNL     1      21.139   9.862   1.341  1.00  0.00     0.088 C 
HETATM   32  C10 UNL     1      19.697  10.250   1.549  1.00  0.00     0.026 C 
HETATM   33  C11 UNL     1      18.913   9.164   2.287  1.00  0.00     0.002 C 
HETATM   34  C12 UNL     1      18.943   7.863   1.548  1.00  0.00     0.000 C 
HETATM   35  C13 UNL     1      20.328   7.606   1.005  1.00  0.00     0.002 C 
HETATM   36  C14 UNL     1      21.296   8.446   1.849  1.00  0.00     0.026 C 
ENDBRANCH  28  31
ENDBRANCH  24  25
ENDBRANCH  22  24
ENDBRANCH   7  21
TORSDOF 7
ENDMDL
MODEL 2
REMARK VINA RESULT: -8.294167167      4.645      9.891
REMARK  7 active torsions:
REMARK  status: ('A' for Active; 'I' for Inactive)
REMARK    1  A    between atoms: C4_7  and  N3_8 
REMARK    2  A    between atoms: C5_10  and  C6_11 
REMARK    3  A    between atoms: C6_11  and  N4_12 
REMARK    4  A    between atoms: N5_15  and  C9_16 
REMARK    5  A    between atoms: C17_26  and  N7_27 
REMARK    6  A    between atoms: N7_27  and  C18_29 
REMARK    7  A    between atoms: C21_32  and  O1_33 
ROOT
HETATM    1  N1  UNL     1      22.862   3.645   0.170  1.00  0.00    -0.191 NA
HETATM    2  C1  UNL     1      22.374   4.690   0.365  1.00  0.00     0.104 C 
HETATM    3  C2  UNL     1      21.784   5.966   0.627  1.00  0.00     0.104 A 
HETATM    4  C3  UNL     1      22.514   7.112   0.605  1.00  0.00     0.132 A 
HETATM    5  N2  UNL     1      21.916   8.313   0.861  1.00  0.00    -0.200 N 
ATOM      6  H2  UNL     1      22.490   9.156   0.837  1.00  0.00     0.183 HD
HETATM    7  C4  UNL     1      20.617   8.437   1.141  1.00  0.00     0.683 A 
HETATM    8  N6  UNL     1      19.897   7.258   1.158  1.00  0.00    -0.175 N 
ATOM      9  H6  UNL     1      18.900   7.304   1.368  1.00  0.00     0.186 HD
HETATM   10  C17 UNL     1      20.428   6.084   0.918  1.00  0.00     0.139 A 
ENDROOT
BRANCH  10  11
HETATM   11  N7  UNL     1      19.759   4.986   0.931  1.00  0.00    -0.370 N 
ATOM     12  H7  UNL     1      19.875   4.399   1.757  1.00  0.00     0.161 HD
BRANCH  11  13
HETATM   13  C18 UNL     1      18.877   4.494  -0.071  1.00  0.00     0.083 C 
HETATM   14  C19 UNL     1      17.410   4.733   0.316  1.00  0.00     0.028 C 
HETATM   15  C20 UNL     1      17.166   4.269   1.731  1.00  0.00     0.034 C 
HETATM   16  C21 UNL     1      17.622   2.877   2.001  1.00  0.00     0.118 C 
HETATM   17  C22 UNL     1      18.925   2.510   1.355  1.00  0.00     0.034 C 
HETATM   18  C23 UNL     1      19.024   2.965  -0.074  1.00  0.00     0.028 C 
BRANCH  16  19
HETATM   19  O1  UNL     1      17.812   2.769   3.399  1.00  0.00    -0.396 OA
ATOM     20  H1  UNL     1      17.198   2.115   3.712  1.00  0.00     0.210 HD
ENDBRANCH  16  19
ENDBRANCH  11  13
ENDBRANCH  10  11
BRANCH   7  21
HETATM   21  N3  UNL     1      20.017   9.475   1.375  1.00  0.00    -0.203 N 
HETATM   22  C5  UNL     1      19.872  10.501   2.251  1.00  0.00     0.109 C 
ATOM     23  H3  UNL     1      19.366   9.634   0.607  1.00  0.00     0.183 HD
BRANCH  22  24
HETATM   24  C6  UNL     1      20.626  10.452   3.581  1.00  0.00     0.318 C 
BRANCH  24  25
HETATM   25  N4  UNL     1      21.599  11.523   3.525  1.00  0.00     0.102 N 
HETATM   26  C7  UNL     1      22.352  11.709   4.731  1.00  0.00     0.318 C 
HETATM   27  C8  UNL     1      23.720  12.283   4.469  1.00  0.00     0.093 C 
HETATM   28  N5  UNL     1      24.509  11.605   3.523  1.00  0.00    -0.366 N 
HETATM   29  C15 UNL     1      23.769  10.968   2.517  1.00  0.00     0.093 C 
HETATM   30  C16 UNL     1      22.410  11.537   2.342  1.00  0.00     0.318 C 
BRANCH  28  31
HETATM   31  C9  UNL     1      25.669  12.335   3.155  1.00  0.00     0.088 C 
HETATM   32  C10 UNL     1      25.498  13.831   3.094  1.00  0.00     0.026 C 
HETATM   33  C11 UNL     1      25.868  14.394   1.721  1.00  0.00     0.002 C 
HETATM   34  C12 UNL     1      27.283  14.073   1.356  1.00  0.00     0.000 C 
HETATM   35  C13 UNL     1      27.608  12.649   1.739  1.00  0.00     0.002 C 
HETATM   36  C14 UNL     1      26.270  11.902   1.836  1.00  0.00     0.026 C 
ENDBRANCH  28  31
ENDBRANCH  24  25
ENDBRANCH  22  24
ENDBRANCH   7  21
TORSDOF 7
ENDMDL
MODEL 3
REMARK VINA RESULT: -8.292171447      4.843      8.535
REMARK  7 active torsions:
REMARK  status: ('A' for Active; 'I' for Inactive)
REMARK    1  A    between atoms: C4_7  and  N3_8 
REMARK    2  A    between atoms: C5_10  and  C6_11 
REMARK    3  A    between atoms: C6_11  and  N4_12 
REMARK    4  A    between atoms: N5_15  and  C9_16 
REMARK    5  A    between atoms: C17_26  and  N7_27 
REMARK    6  A    between atoms: N7_27  and  C18_29 
REMARK    7  A    between atoms: C21_32  and  O1_33 
ROOT
HETATM    1  N1  UNL     1      20.623  14.070   3.298  1.00  0.00    -0.191 NA
HETATM    2  C1  UNL     1      20.634  12.975   2.885  1.00  0.00     0.104 C 
HETATM    3  C2  UNL     1      20.645  11.629   2.403  1.00  0.00     0.104 A 
HETATM    4  C3  UNL     1      19.498  10.964   2.105  1.00  0.00     0.132 A 
HETATM    5  N2  UNL     1      19.546   9.679   1.647  1.00  0.00    -0.200 N 
ATOM      6  H2  UNL     1      18.669   9.206   1.432  1.00  0.00     0.183 HD
HETATM    7  C4  UNL     1      20.687   9.011   1.467  1.00  0.00     0.683 A 
HETATM    8  N6  UNL     1      21.840   9.708   1.777  1.00  0.00    -0.175 N 
ATOM      9  H6  UNL     1      22.737   9.237   1.656  1.00  0.00     0.186 HD
HETATM   10  C17 UNL     1      21.841  10.942   2.219  1.00  0.00     0.139 A 
ENDROOT
BRANCH  10  11
HETATM   11  N7  UNL     1      22.912  11.592   2.506  1.00  0.00    -0.370 N 
ATOM     12  H7  UNL     1      23.106  12.414   1.935  1.00  0.00     0.161 HD
BRANCH  11  13
HETATM   13  C18 UNL     1      23.860  11.298   3.526  1.00  0.00     0.083 C 
HETATM   14  C19 UNL     1      24.202  12.552   4.343  1.00  0.00     0.028 C 
HETATM   15  C20 UNL     1      24.526  13.700   3.418  1.00  0.00     0.034 C 
HETATM   16  C21 UNL     1      25.550  13.377   2.385  1.00  0.00     0.118 C 
HETATM   17  C22 UNL     1      25.427  12.006   1.790  1.00  0.00     0.034 C 
HETATM   18  C23 UNL     1      25.173  10.937   2.816  1.00  0.00     0.028 C 
BRANCH  16  19
HETATM   19  O1  UNL     1      25.376  14.301   1.328  1.00  0.00    -0.396 OA
ATOM     20  H1  UNL     1      26.073  14.942   1.404  1.00  0.00     0.210 HD
ENDBRANCH  16  19
ENDBRANCH  11  13
ENDBRANCH  10  11
BRANCH   7  21
HETATM   21  N3  UNL     1      20.806   7.866   1.059  1.00  0.00    -0.203 N 
HETATM   22  C5  UNL     1      20.215   6.647   0.982  1.00  0.00     0.109 C 
ATOM     23  H3  UNL     1      21.708   7.799   0.589  1.00  0.00     0.183 HD
BRANCH  22  24
HETATM   24  C6  UNL     1      18.904   6.410   1.734  1.00  0.00     0.318 C 
BRANCH  24  25
HETATM   25  N4  UNL     1      18.097   5.575   0.869  1.00  0.00     0.102 N 
HETATM   26  C7  UNL     1      18.676   5.312  -0.416  1.00  0.00     0.318 C 
HETATM   27  C8  UNL     1      18.224   3.994  -0.989  1.00  0.00     0.093 C 
HETATM   28  N5  UNL     1      18.384   2.869  -0.162  1.00  0.00    -0.366 N 
HETATM   29  C15 UNL     1      18.290   3.150   1.208  1.00  0.00     0.093 C 
HETATM   30  C16 UNL     1      17.554   4.407   1.497  1.00  0.00     0.318 C 
BRANCH  28  31
HETATM   31  C9  UNL     1      17.719   1.721  -0.666  1.00  0.00     0.088 C 
HETATM   32  C10 UNL     1      18.527   0.870  -1.613  1.00  0.00     0.026 C 
HETATM   33  C11 UNL     1      17.829   0.695  -2.962  1.00  0.00     0.002 C 
HETATM   34  C12 UNL     1      16.479   0.067  -2.809  1.00  0.00     0.000 C 
HETATM   35  C13 UNL     1      15.762   0.660  -1.620  1.00  0.00     0.002 C 
HETATM   36  C14 UNL     1      16.406   2.028  -1.354  1.00  0.00     0.026 C 
ENDBRANCH  28  31
ENDBRANCH  24  25
ENDBRANCH  22  24
ENDBRANCH   7  21
TORSDOF 7
ENDMDL
MODEL 4
REMARK VINA RESULT: -8.268712627      4.839      8.457
REMARK  7 active torsions:
REMARK  status: ('A' for Active; 'I' for Inactive)
REMARK    1  A    between atoms: C4_7  and  N3_8 
REMARK    2  A    between atoms: C5_10  and  C6_11 
REMARK    3  A    between atoms: C6_11  and  N4_12 
REMARK    4  A    between atoms: N5_15  and  C9_16 
REMARK    5  A    between atoms: C17_26  and  N7_27 
REMARK    6  A    between atoms: N7_27  and  C18_29 
REMARK    7  A    between atoms: C21_32  and  O1_33 
ROOT
HETATM    1  N1  UNL     1      23.707  11.952   4.724  1.00  0.00    -0.191 NA
HETATM    2  C1  UNL     1      22.805  11.418   4.205  1.00  0.00     0.104 C 
HETATM    3  C2  UNL     1      21.712  10.744   3.577  1.00  0.00     0.104 A 
HETATM    4  C3  UNL     1      20.594  10.394   4.265  1.00  0.00     0.132 A 
HETATM    5  N2  UNL     1      19.569   9.750   3.632  1.00  0.00    -0.200 N 
ATOM      6  H2  UNL     1      18.743   9.501   4.175  1.00  0.00     0.183 HD
HETATM    7  C4  UNL     1      19.596   9.433   2.337  1.00  0.00     0.683 A 
HETATM    8  N6  UNL     1      20.743   9.798   1.658  1.00  0.00    -0.175 N 
ATOM      9  H6  UNL     1      20.810   9.574   0.665  1.00  0.00     0.186 HD
HETATM   10  C17 UNL     1      21.751  10.417   2.224  1.00  0.00     0.139 A 
ENDROOT
BRANCH  10  11
HETATM   11  N7  UNL     1      22.818  10.760   1.595  1.00  0.00    -0.370 N 
ATOM     12  H7  UNL     1      23.196  11.680   1.818  1.00  0.00     0.161 HD
BRANCH  11  13
HETATM   13  C18 UNL     1      23.533  10.006   0.622  1.00  0.00     0.083 C 
HETATM   14  C19 UNL     1      24.505   9.022   1.288  1.00  0.00     0.028 C 
HETATM   15  C20 UNL     1      25.322   9.734   2.339  1.00  0.00     0.034 C 
HETATM   16  C21 UNL     1      25.987  10.975   1.854  1.00  0.00     0.118 C 
HETATM   17  C22 UNL     1      25.154  11.809   0.926  1.00  0.00     0.034 C 
HETATM   18  C23 UNL     1      24.443  10.996  -0.120  1.00  0.00     0.028 C 
BRANCH  16  19
HETATM   19  O1  UNL     1      26.256  11.771   2.992  1.00  0.00    -0.396 OA
ATOM     20  H1  UNL     1      26.717  11.220   3.613  1.00  0.00     0.210 HD
ENDBRANCH  16  19
ENDBRANCH  11  13
ENDBRANCH  10  11
BRANCH   7  21
HETATM   21  N3  UNL     1      18.719   8.863   1.706  1.00  0.00    -0.203 N 
HETATM   22  C5  UNL     1      18.215   7.656   1.345  1.00  0.00     0.109 C 
ATOM     23  H3  UNL     1      18.130   9.580   1.283  1.00  0.00     0.183 HD
BRANCH  22  24
HETATM   24  C6  UNL     1      18.986   6.389   1.719  1.00  0.00     0.318 C 
BRANCH  24  25
HETATM   25  N4  UNL     1      18.052   5.294   1.558  1.00  0.00     0.102 N 
HETATM   26  C7  UNL     1      17.022   5.527   0.588  1.00  0.00     0.318 C 
HETATM   27  C8  UNL     1      16.527   4.250  -0.040  1.00  0.00     0.093 C 
HETATM   28  N5  UNL     1      17.509   3.406  -0.589  1.00  0.00    -0.366 N 
HETATM   29  C15 UNL     1      18.751   3.480   0.058  1.00  0.00     0.093 C 
HETATM   30  C16 UNL     1      18.657   3.999   1.445  1.00  0.00     0.318 C 
BRANCH  28  31
HETATM   31  C9  UNL     1      16.999   2.128  -0.936  1.00  0.00     0.088 C 
HETATM   32  C10 UNL     1      18.036   1.097  -1.304  1.00  0.00     0.026 C 
HETATM   33  C11 UNL     1      17.797   0.519  -2.699  1.00  0.00     0.002 C 
HETATM   34  C12 UNL     1      16.447  -0.119  -2.809  1.00  0.00     0.000 C 
HETATM   35  C13 UNL     1      15.411   0.737  -2.122  1.00  0.00     0.002 C 
HETATM   36  C14 UNL     1      15.985   2.159  -2.059  1.00  0.00     0.026 C 
ENDBRANCH  28  31
ENDBRANCH  24  25
ENDBRANCH  22  24
ENDBRANCH   7  21
TORSDOF 7
ENDMDL
MODEL 5
REMARK VINA RESULT: -8.246399003      3.015      8.960
REMARK  7 active torsions:
REMARK  status: ('A' for Active; 'I' for Inactive)
REMARK    1  A    between atoms: C4_7  and  N3_8 
REMARK    2  A    between atoms: C5_10  and  C6_11 
REMARK    3  A    between atoms: C6_11  and  N4_12 
REMARK    4  A    between atoms: N5_15  and  C9_16 
REMARK    5  A    between atoms: C17_26  and  N7_27 
REMARK    6  A    between atoms: N7_27  and  C18_29 
REMARK    7  A    between atoms: C21_32  and  O1_33 
ROOT
HETATM    1  N1  UNL     1      20.471  11.261   0.573  1.00  0.00    -0.191 NA
HETATM    2  C1  UNL     1      21.636  11.367   0.570  1.00  0.00     0.104 C 
HETATM    3  C2  UNL     1      23.061  11.477   0.580  1.00  0.00     0.104 A 
HETATM    4  C3  UNL     1      23.842  10.780  -0.286  1.00  0.00     0.132 A 
HETATM    5  N2  UNL     1      25.200  10.911  -0.247  1.00  0.00    -0.200 N 
ATOM      6  H2  UNL     1      25.759  10.374  -0.910  1.00  0.00     0.183 HD
HETATM    7  C4  UNL     1      25.832  11.706   0.618  1.00  0.00     0.683 A 
HETATM    8  N6  UNL     1      25.018  12.404   1.489  1.00  0.00    -0.175 N 
ATOM      9  H6  UNL     1      25.457  13.024   2.170  1.00  0.00     0.186 HD
HETATM   10  C17 UNL     1      23.710  12.311   1.487  1.00  0.00     0.139 A 
ENDROOT
BRANCH  10  11
HETATM   11  N7  UNL     1      22.951  12.960   2.295  1.00  0.00    -0.370 N 
ATOM     12  H7  UNL     1      22.090  13.337   1.899  1.00  0.00     0.161 HD
BRANCH  11  13
HETATM   13  C18 UNL     1      23.171  13.217   3.678  1.00  0.00     0.083 C 
HETATM   14  C19 UNL     1      23.376  11.911   4.458  1.00  0.00     0.028 C 
HETATM   15  C20 UNL     1      22.288  10.924   4.110  1.00  0.00     0.034 C 
HETATM   16  C21 UNL     1      20.908  11.471   4.236  1.00  0.00     0.118 C 
HETATM   17  C22 UNL     1      20.751  12.886   3.766  1.00  0.00     0.034 C 
HETATM   18  C23 UNL     1      21.858  13.790   4.233  1.00  0.00     0.028 C 
BRANCH  16  19
HETATM   19  O1  UNL     1      20.072  10.671   3.422  1.00  0.00    -0.396 OA
ATOM     20  H1  UNL     1      19.415  11.247   3.049  1.00  0.00     0.210 HD
ENDBRANCH  16  19
ENDBRANCH  11  13
ENDBRANCH  10  11
BRANCH   7  21
HETATM   21  N3  UNL     1      27.039  11.874   0.707  1.00  0.00    -0.203 N 
HETATM   22  C5  UNL     1      28.164  11.516   1.377  1.00  0.00     0.109 C 
ATOM     23  H3  UNL     1      27.308  12.553  -0.004  1.00  0.00     0.183 HD
BRANCH  22  24
HETATM   24  C6  UNL     1      28.040  10.612   2.604  1.00  0.00     0.318 C 
BRANCH  24  25
HETATM   25  N4  UNL     1      28.327  11.453   3.747  1.00  0.00     0.102 N 
HETATM   26  C7  UNL     1      27.628  11.089   4.945  1.00  0.00     0.318 C 
HETATM   27  C8  UNL     1      28.387  11.472   6.189  1.00  0.00     0.093 C 
HETATM   28  N5  UNL     1      29.719  11.026   6.267  1.00  0.00    -0.366 N 
HETATM   29  C15 UNL     1      30.352  10.903   5.022  1.00  0.00     0.093 C 
HETATM   30  C16 UNL     1      29.718  11.724   3.961  1.00  0.00     0.318 C 
BRANCH  28  31
HETATM   31  C9  UNL     1      30.434  11.624   7.336  1.00  0.00     0.088 C 
HETATM   32  C10 UNL     1      29.624  11.907   8.576  1.00  0.00     0.026 C 
HETATM   33  C11 UNL     1      29.678  13.383   8.971  1.00  0.00     0.002 C 
HETATM   34  C12 UNL     1      31.083  13.837   9.220  1.00  0.00     0.000 C 
HETATM   35  C13 UNL     1      32.007  13.265   8.171  1.00  0.00     0.002 C 
HETATM   36  C14 UNL     1      31.133  12.912   6.960  1.00  0.00     0.026 C 
ENDBRANCH  28  31
ENDBRANCH  24  25
ENDBRANCH  22  24
ENDBRANCH   7  21
TORSDOF 7
ENDMDL
