MODEL 1
REMARK VINA RESULT: -8.958293274      0.000      0.000
REMARK  7 active torsions:
REMARK  status: ('A' for Active; 'I' for Inactive)
REMARK    1  A    between atoms: O1_2  and  C2_3 
REMARK    2  A    between atoms: C7_8  and  N1_9 
REMARK    3  A    between atoms: N1_9  and  C8_10 
REMARK    4  A    between atoms: C9_13  and  N3_14 
REMARK    5  A    between atoms: N3_14  and  C10_16 
REMARK    6  A    between atoms: C13_19  and  S1_20 
REMARK    7  A    between atoms: S1_20  and  N4_23 
ROOT
HETATM    1  C8  UNL     1      19.731   6.126   0.762  1.00  0.00     0.224 A 
HETATM    2  N2  UNL     1      19.615   7.404   1.269  1.00  0.00    -0.162 N 
ATOM      3  H2  UNL     1      20.468   7.890   1.547  1.00  0.00     0.187 HD
HETATM    4  C9  UNL     1      18.455   8.038   1.415  1.00  0.00     0.686 A 
HETATM    5  N5  UNL     1      17.347   7.391   1.047  1.00  0.00    -0.174 N 
ATOM      6  H5  UNL     1      16.450   7.863   1.154  1.00  0.00     0.186 HD
HETATM    7  C18 UNL     1      17.361   6.145   0.544  1.00  0.00     0.153 A 
HETATM    8  N6  UNL     1      16.393   5.294   0.108  1.00  0.00    -0.336 N 
ATOM      9  H6  UNL     1      15.393   5.497   0.095  1.00  0.00     0.168 HD
HETATM   10  C19 UNL     1      16.955   4.144  -0.305  1.00  0.00     0.182 A 
HETATM   11  N7  UNL     1      18.296   4.246  -0.136  1.00  0.00    -0.345 N 
ATOM     12  H7  UNL     1      18.991   3.534  -0.359  1.00  0.00     0.167 HD
HETATM   13  C20 UNL     1      18.539   5.477   0.385  1.00  0.00     0.137 A 
ENDROOT
BRANCH   4  14
HETATM   14  N3  UNL     1      18.469   9.231   1.900  1.00  0.00    -0.192 N 
ATOM     15  H3  UNL     1      17.569   9.707   1.972  1.00  0.00     0.184 HD
BRANCH  14  16
HETATM   16  C10 UNL     1      19.590   9.940   2.338  1.00  0.00     0.049 A 
HETATM   17  C11 UNL     1      20.052   9.773   3.636  1.00  0.00     0.031 A 
HETATM   18  C12 UNL     1      21.169  10.490   4.039  1.00  0.00     0.027 A 
HETATM   19  C13 UNL     1      21.835  11.363   3.198  1.00  0.00     0.074 A 
HETATM   20  C16 UNL     1      21.364  11.525   1.897  1.00  0.00     0.027 A 
HETATM   21  C17 UNL     1      20.243  10.806   1.486  1.00  0.00     0.031 A 
BRANCH  19  22
HETATM   22  S1  UNL     1      23.226  12.235   3.748  1.00  0.00     0.242 S 
HETATM   23  O2  UNL     1      23.685  13.163   2.642  1.00  0.00    -0.206 OA
HETATM   24  O3  UNL     1      22.877  13.137   4.919  1.00  0.00    -0.206 OA
BRANCH  22  25
HETATM   25  N4  UNL     1      24.539  11.211   4.143  1.00  0.00    -0.215 NA
HETATM   26  C14 UNL     1      25.692  11.949   4.599  1.00  0.00     0.129 C 
HETATM   27  C15 UNL     1      24.890  10.423   2.979  1.00  0.00     0.129 C 
ENDBRANCH  22  25
ENDBRANCH  19  22
ENDBRANCH  14  16
ENDBRANCH   4  14
BRANCH   1  28
HETATM   28  N1  UNL     1      20.767   5.563   0.636  1.00  0.00    -0.382 NA
BRANCH  28  29
HETATM   29  C7  UNL     1      21.921   4.938   0.498  1.00  0.00     0.142 A 
HETATM   30  C2  UNL     1      21.966   3.539   0.323  1.00  0.00     0.108 A 
HETATM   31  C3  UNL     1      23.174   2.926   0.183  1.00  0.00     0.040 A 
HETATM   32  C4  UNL     1      24.351   3.645   0.208  1.00  0.00     0.003 A 
HETATM   33  C5  UNL     1      24.320   5.005   0.377  1.00  0.00     0.003 A 
HETATM   34  C6  UNL     1      23.126   5.642   0.519  1.00  0.00     0.048 A 
BRANCH  30  35
HETATM   35  O1  UNL     1      20.780   2.853   0.303  1.00  0.00    -0.353 OA
HETATM   36  C1  UNL     1      20.551   1.494   0.209  1.00  0.00     0.210 C 
ENDBRANCH  30  35
ENDBRANCH  28  29
ENDBRANCH   1  28
TORSDOF 7
ENDMDL
MODEL 2
REMARK VINA RESULT: -8.834617901      0.929      1.393
REMARK  7 active torsions:
REMARK  status: ('A' for Active; 'I' for Inactive)
REMARK    1  A    between atoms: O1_2  and  C2_3 
REMARK    2  A    between atoms: C7_8  and  N1_9 
REMARK    3  A    between atoms: N1_9  and  C8_10 
REMARK    4  A    between atoms: C9_13  and  N3_14 
REMARK    5  A    between atoms: N3_14  and  C10_16 
REMARK    6  A    between atoms: C13_19  and  S1_20 
REMARK    7  A    between atoms: S1_20  and  N4_23 
ROOT
HETATM    1  C8  UNL     1      19.696   6.276   0.755  1.00  0.00     0.224 A 
HETATM    2  N2  UNL     1      19.657   7.516   1.356  1.00  0.00    -0.162 N 
ATOM      3  H2  UNL     1      20.536   7.920   1.683  1.00  0.00     0.187 HD
HETATM    4  C9  UNL     1      18.540   8.216   1.535  1.00  0.00     0.686 A 
HETATM    5  N5  UNL     1      17.398   7.676   1.105  1.00  0.00    -0.174 N 
ATOM      6  H5  UNL     1      16.533   8.199   1.235  1.00  0.00     0.186 HD
HETATM    7  C18 UNL     1      17.338   6.474   0.508  1.00  0.00     0.153 A 
HETATM    8  N6  UNL     1      16.322   5.727  -0.005  1.00  0.00    -0.336 N 
ATOM      9  H6  UNL     1      15.339   5.998  -0.015  1.00  0.00     0.168 HD
HETATM   10  C19 UNL     1      16.812   4.575  -0.497  1.00  0.00     0.182 A 
HETATM   11  N7  UNL     1      18.155   4.572  -0.303  1.00  0.00    -0.345 N 
ATOM     12  H7  UNL     1      18.804   3.832  -0.570  1.00  0.00     0.167 HD
HETATM   13  C20 UNL     1      18.471   5.740   0.314  1.00  0.00     0.137 A 
ENDROOT
BRANCH   4  14
HETATM   14  N3  UNL     1      18.626   9.366   2.110  1.00  0.00    -0.192 N 
ATOM     15  H3  UNL     1      17.747   9.821   2.357  1.00  0.00     0.184 HD
BRANCH  14  16
HETATM   16  C10 UNL     1      19.799  10.052   2.431  1.00  0.00     0.049 A 
HETATM   17  C11 UNL     1      20.469  10.774   1.452  1.00  0.00     0.031 A 
HETATM   18  C12 UNL     1      21.630  11.446   1.804  1.00  0.00     0.027 A 
HETATM   19  C13 UNL     1      22.143  11.423   3.088  1.00  0.00     0.074 A 
HETATM   20  C16 UNL     1      21.465  10.695   4.064  1.00  0.00     0.027 A 
HETATM   21  C17 UNL     1      20.297  10.019   3.717  1.00  0.00     0.031 A 
BRANCH  19  22
HETATM   22  S1  UNL     1      23.597  12.279   3.478  1.00  0.00     0.242 S 
HETATM   23  O2  UNL     1      23.225  13.584   4.153  1.00  0.00    -0.206 OA
HETATM   24  O3  UNL     1      24.425  11.514   4.497  1.00  0.00    -0.206 OA
BRANCH  22  25
HETATM   25  N4  UNL     1      24.534  12.658   2.098  1.00  0.00    -0.215 NA
HETATM   26  C14 UNL     1      25.400  11.572   1.707  1.00  0.00     0.129 C 
HETATM   27  C15 UNL     1      25.327  13.840   2.375  1.00  0.00     0.129 C 
ENDBRANCH  22  25
ENDBRANCH  19  22
ENDBRANCH  14  16
ENDBRANCH   4  14
BRANCH   1  28
HETATM   28  N1  UNL     1      20.694   5.654   0.600  1.00  0.00    -0.382 NA
BRANCH  28  29
HETATM   29  C7  UNL     1      21.806   4.964   0.428  1.00  0.00     0.142 A 
HETATM   30  C2  UNL     1      21.781   3.554   0.394  1.00  0.00     0.108 A 
HETATM   31  C3  UNL     1      22.946   2.873   0.214  1.00  0.00     0.040 A 
HETATM   32  C4  UNL     1      24.148   3.535   0.066  1.00  0.00     0.003 A 
HETATM   33  C5  UNL     1      24.185   4.904   0.097  1.00  0.00     0.003 A 
HETATM   34  C6  UNL     1      23.035   5.608   0.275  1.00  0.00     0.048 A 
BRANCH  30  35
HETATM   35  O1  UNL     1      20.572   2.927   0.545  1.00  0.00    -0.353 OA
HETATM   36  C1  UNL     1      20.176   1.668   0.135  1.00  0.00     0.210 C 
ENDBRANCH  30  35
ENDBRANCH  28  29
ENDBRANCH   1  28
TORSDOF 7
ENDMDL
MODEL 3
REMARK VINA RESULT: -8.818113224      2.021      4.389
REMARK  7 active torsions:
REMARK  status: ('A' for Active; 'I' for Inactive)
REMARK    1  A    between atoms: O1_2  and  C2_3 
REMARK    2  A    between atoms: C7_8  and  N1_9 
REMARK    3  A    between atoms: N1_9  and  C8_10 
REMARK    4  A    between atoms: C9_13  and  N3_14 
REMARK    5  A    between atoms: N3_14  and  C10_16 
REMARK    6  A    between atoms: C13_19  and  S1_20 
REMARK    7  A    between atoms: S1_20  and  N4_23 
ROOT
HETATM    1  C8  UNL     1      17.475   5.680   0.129  1.00  0.00     0.224 A 
HETATM    2  N2  UNL     1      17.530   6.984   0.577  1.00  0.00    -0.162 N 
ATOM      3  H2  UNL     1      16.825   7.639   0.237  1.00  0.00     0.187 HD
HETATM    4  C9  UNL     1      18.448   7.435   1.427  1.00  0.00     0.686 A 
HETATM    5  N5  UNL     1      19.364   6.568   1.863  1.00  0.00    -0.174 N 
ATOM      6  H5  UNL     1      20.076   6.899   2.514  1.00  0.00     0.186 HD
HETATM    7  C18 UNL     1      19.392   5.280   1.482  1.00  0.00     0.153 A 
HETATM    8  N6  UNL     1      20.202   4.227   1.778  1.00  0.00    -0.336 N 
ATOM      9  H6  UNL     1      21.004   4.261   2.407  1.00  0.00     0.168 HD
HETATM   10  C19 UNL     1      19.783   3.135   1.114  1.00  0.00     0.182 A 
HETATM   11  N7  UNL     1      18.694   3.478   0.382  1.00  0.00    -0.345 N 
ATOM     12  H7  UNL     1      18.154   2.863  -0.226  1.00  0.00     0.167 HD
HETATM   13  C20 UNL     1      18.459   4.796   0.612  1.00  0.00     0.137 A 
ENDROOT
BRANCH   4  14
HETATM   14  N3  UNL     1      18.400   8.674   1.776  1.00  0.00    -0.192 N 
ATOM     15  H3  UNL     1      17.486   9.126   1.739  1.00  0.00     0.184 HD
BRANCH  14  16
HETATM   16  C10 UNL     1      19.472   9.463   2.200  1.00  0.00     0.049 A 
HETATM   17  C11 UNL     1      19.741   9.595   3.556  1.00  0.00     0.031 A 
HETATM   18  C12 UNL     1      20.814  10.383   3.944  1.00  0.00     0.027 A 
HETATM   19  C13 UNL     1      21.622  11.040   3.034  1.00  0.00     0.074 A 
HETATM   20  C16 UNL     1      21.345  10.902   1.676  1.00  0.00     0.027 A 
HETATM   21  C17 UNL     1      20.269  10.110   1.280  1.00  0.00     0.031 A 
BRANCH  19  22
HETATM   22  S1  UNL     1      22.951  12.012   3.569  1.00  0.00     0.242 S 
HETATM   23  O2  UNL     1      23.377  12.919   2.432  1.00  0.00    -0.206 OA
HETATM   24  O3  UNL     1      22.529  12.941   4.695  1.00  0.00    -0.206 OA
BRANCH  22  25
HETATM   25  N4  UNL     1      24.312  11.083   4.028  1.00  0.00    -0.215 NA
HETATM   26  C14 UNL     1      25.387  11.898   4.539  1.00  0.00     0.129 C 
HETATM   27  C15 UNL     1      24.774  10.324   2.884  1.00  0.00     0.129 C 
ENDBRANCH  22  25
ENDBRANCH  19  22
ENDBRANCH  14  16
ENDBRANCH   4  14
BRANCH   1  28
HETATM   28  N1  UNL     1      16.656   5.283  -0.631  1.00  0.00    -0.382 NA
BRANCH  28  29
HETATM   29  C7  UNL     1      15.743   4.842  -1.476  1.00  0.00     0.142 A 
HETATM   30  C2  UNL     1      15.610   3.462  -1.737  1.00  0.00     0.108 A 
HETATM   31  C3  UNL     1      14.657   3.041  -2.614  1.00  0.00     0.040 A 
HETATM   32  C4  UNL     1      13.822   3.937  -3.251  1.00  0.00     0.003 A 
HETATM   33  C5  UNL     1      13.942   5.280  -3.005  1.00  0.00     0.003 A 
HETATM   34  C6  UNL     1      14.886   5.726  -2.133  1.00  0.00     0.048 A 
BRANCH  30  35
HETATM   35  O1  UNL     1      16.454   2.599  -1.090  1.00  0.00    -0.353 OA
HETATM   36  C1  UNL     1      16.592   1.231  -1.230  1.00  0.00     0.210 C 
ENDBRANCH  30  35
ENDBRANCH  28  29
ENDBRANCH   1  28
TORSDOF 7
ENDMDL
MODEL 4
REMARK VINA RESULT: -8.779684796      0.961      1.753
REMARK  7 active torsions:
REMARK  status: ('A' for Active; 'I' for Inactive)
REMARK    1  A    between atoms: O1_2  and  C2_3 
REMARK    2  A    between atoms: C7_8  and  N1_9 
REMARK    3  A    between atoms: N1_9  and  C8_10 
REMARK    4  A    between atoms: C9_13  and  N3_14 
REMARK    5  A    between atoms: N3_14  and  C10_16 
REMARK    6  A    between atoms: C13_19  and  S1_20 
REMARK    7  A    between atoms: S1_20  and  N4_23 
ROOT
HETATM    1  C8  UNL     1      19.637   6.179   0.740  1.00  0.00     0.224 A 
HETATM    2  N2  UNL     1      19.574   7.453   1.266  1.00  0.00    -0.162 N 
ATOM      3  H2  UNL     1      20.447   7.899   1.550  1.00  0.00     0.187 HD
HETATM    4  C9  UNL     1      18.442   8.133   1.424  1.00  0.00     0.686 A 
HETATM    5  N5  UNL     1      17.308   7.538   1.049  1.00  0.00    -0.174 N 
ATOM      6  H5  UNL     1      16.431   8.046   1.165  1.00  0.00     0.186 HD
HETATM    7  C18 UNL     1      17.269   6.300   0.528  1.00  0.00     0.153 A 
HETATM    8  N6  UNL     1      16.265   5.497   0.082  1.00  0.00    -0.336 N 
ATOM      9  H6  UNL     1      15.275   5.742   0.074  1.00  0.00     0.168 HD
HETATM   10  C19 UNL     1      16.778   4.331  -0.349  1.00  0.00     0.182 A 
HETATM   11  N7  UNL     1      18.123   4.374  -0.182  1.00  0.00    -0.345 N 
ATOM     12  H7  UNL     1      18.787   3.637  -0.416  1.00  0.00     0.167 HD
HETATM   13  C20 UNL     1      18.418   5.586   0.357  1.00  0.00     0.137 A 
ENDROOT
BRANCH   4  14
HETATM   14  N3  UNL     1      18.507   9.318   1.926  1.00  0.00    -0.192 N 
ATOM     15  H3  UNL     1      17.625   9.821   2.026  1.00  0.00     0.184 HD
BRANCH  14  16
HETATM   16  C10 UNL     1      19.661   9.983   2.347  1.00  0.00     0.049 A 
HETATM   17  C11 UNL     1      20.075   9.882   3.668  1.00  0.00     0.031 A 
HETATM   18  C12 UNL     1      21.227  10.553   4.053  1.00  0.00     0.027 A 
HETATM   19  C13 UNL     1      21.972  11.317   3.174  1.00  0.00     0.074 A 
HETATM   20  C16 UNL     1      21.548  11.413   1.850  1.00  0.00     0.027 A 
HETATM   21  C17 UNL     1      20.393  10.740   1.457  1.00  0.00     0.031 A 
BRANCH  19  22
HETATM   22  S1  UNL     1      23.403  12.135   3.703  1.00  0.00     0.242 S 
HETATM   23  O2  UNL     1      23.880  13.047   2.591  1.00  0.00    -0.206 OA
HETATM   24  O3  UNL     1      23.105  13.049   4.880  1.00  0.00    -0.206 OA
BRANCH  22  25
HETATM   25  N4  UNL     1      24.682  11.062   4.078  1.00  0.00    -0.215 NA
HETATM   26  C14 UNL     1      25.872  11.756   4.507  1.00  0.00     0.129 C 
HETATM   27  C15 UNL     1      24.978  10.255   2.912  1.00  0.00     0.129 C 
ENDBRANCH  22  25
ENDBRANCH  19  22
ENDBRANCH  14  16
ENDBRANCH   4  14
BRANCH   1  28
HETATM   28  N1  UNL     1      20.648   5.576   0.604  1.00  0.00    -0.382 NA
BRANCH  28  29
HETATM   29  C7  UNL     1      21.775   4.906   0.452  1.00  0.00     0.142 A 
HETATM   30  C2  UNL     1      23.020   5.567   0.514  1.00  0.00     0.108 A 
HETATM   31  C3  UNL     1      24.163   4.845   0.354  1.00  0.00     0.040 A 
HETATM   32  C4  UNL     1      24.127   3.483   0.133  1.00  0.00     0.003 A 
HETATM   33  C5  UNL     1      22.924   2.830   0.071  1.00  0.00     0.003 A 
HETATM   34  C6  UNL     1      21.767   3.528   0.228  1.00  0.00     0.048 A 
BRANCH  30  35
HETATM   35  O1  UNL     1      23.022   6.919   0.734  1.00  0.00    -0.353 OA
HETATM   36  C1  UNL     1      23.333   7.951  -0.130  1.00  0.00     0.210 C 
ENDBRANCH  30  35
ENDBRANCH  28  29
ENDBRANCH   1  28
TORSDOF 7
ENDMDL
MODEL 5
REMARK VINA RESULT: -8.774502285      2.452      4.692
REMARK  7 active torsions:
REMARK  status: ('A' for Active; 'I' for Inactive)
REMARK    1  A    between atoms: O1_2  and  C2_3 
REMARK    2  A    between atoms: C7_8  and  N1_9 
REMARK    3  A    between atoms: N1_9  and  C8_10 
REMARK    4  A    between atoms: C9_13  and  N3_14 
REMARK    5  A    between atoms: N3_14  and  C10_16 
REMARK    6  A    between atoms: C13_19  and  S1_20 
REMARK    7  A    between atoms: S1_20  and  N4_23 
ROOT
HETATM    1  C8  UNL     1      17.309   5.483   0.052  1.00  0.00     0.224 A 
HETATM    2  N2  UNL     1      17.460   6.784   0.485  1.00  0.00    -0.162 N 
ATOM      3  H2  UNL     1      16.831   7.492   0.107  1.00  0.00     0.187 HD
HETATM    4  C9  UNL     1      18.379   7.167   1.367  1.00  0.00     0.686 A 
HETATM    5  N5  UNL     1      19.197   6.231   1.853  1.00  0.00    -0.174 N 
ATOM      6  H5  UNL     1      19.908   6.509   2.529  1.00  0.00     0.186 HD
HETATM    7  C18 UNL     1      19.126   4.939   1.490  1.00  0.00     0.153 A 
HETATM    8  N6  UNL     1      19.827   3.824   1.834  1.00  0.00    -0.336 N 
ATOM      9  H6  UNL     1      20.603   3.798   2.496  1.00  0.00     0.168 HD
HETATM   10  C19 UNL     1      19.341   2.762   1.168  1.00  0.00     0.182 A 
HETATM   11  N7  UNL     1      18.317   3.187   0.386  1.00  0.00    -0.345 N 
ATOM     12  H7  UNL     1      17.751   2.611  -0.236  1.00  0.00     0.167 HD
HETATM   13  C20 UNL     1      18.191   4.524   0.589  1.00  0.00     0.137 A 
ENDROOT
BRANCH   4  14
HETATM   14  N3  UNL     1      18.427   8.411   1.697  1.00  0.00    -0.192 N 
ATOM     15  H3  UNL     1      17.554   8.936   1.634  1.00  0.00     0.184 HD
BRANCH  14  16
HETATM   16  C10 UNL     1      19.551   9.116   2.134  1.00  0.00     0.049 A 
HETATM   17  C11 UNL     1      19.595   9.618   3.427  1.00  0.00     0.031 A 
HETATM   18  C12 UNL     1      20.728  10.310   3.830  1.00  0.00     0.027 A 
HETATM   19  C13 UNL     1      21.809  10.519   2.994  1.00  0.00     0.074 A 
HETATM   20  C16 UNL     1      21.756  10.011   1.697  1.00  0.00     0.027 A 
HETATM   21  C17 UNL     1      20.621   9.314   1.287  1.00  0.00     0.031 A 
BRANCH  19  22
HETATM   22  S1  UNL     1      23.200  11.390   3.544  1.00  0.00     0.242 S 
HETATM   23  O2  UNL     1      22.963  11.829   4.975  1.00  0.00    -0.206 OA
HETATM   24  O3  UNL     1      24.424  10.491   3.591  1.00  0.00    -0.206 OA
BRANCH  22  25
HETATM   25  N4  UNL     1      23.515  12.793   2.617  1.00  0.00    -0.215 NA
HETATM   26  C14 UNL     1      24.141  12.487   1.353  1.00  0.00     0.129 C 
HETATM   27  C15 UNL     1      24.365  13.683   3.381  1.00  0.00     0.129 C 
ENDBRANCH  22  25
ENDBRANCH  19  22
ENDBRANCH  14  16
ENDBRANCH   4  14
BRANCH   1  28
HETATM   28  N1  UNL     1      16.490   5.146  -0.736  1.00  0.00    -0.382 NA
BRANCH  28  29
HETATM   29  C7  UNL     1      15.577   4.773  -1.613  1.00  0.00     0.142 A 
HETATM   30  C2  UNL     1      15.388   3.409  -1.921  1.00  0.00     0.108 A 
HETATM   31  C3  UNL     1      14.437   3.059  -2.830  1.00  0.00     0.040 A 
HETATM   32  C4  UNL     1      13.658   4.010  -3.455  1.00  0.00     0.003 A 
HETATM   33  C5  UNL     1      13.832   5.338  -3.165  1.00  0.00     0.003 A 
HETATM   34  C6  UNL     1      14.775   5.714  -2.260  1.00  0.00     0.048 A 
BRANCH  30  35
HETATM   35  O1  UNL     1      16.179   2.489  -1.283  1.00  0.00    -0.353 OA
HETATM   36  C1  UNL     1      16.333   1.139  -1.532  1.00  0.00     0.210 C 
ENDBRANCH  30  35
ENDBRANCH  28  29
ENDBRANCH   1  28
TORSDOF 7
ENDMDL
