MODEL 1
REMARK VINA RESULT: -8.653569889      0.000      0.000
REMARK  8 active torsions:
REMARK  status: ('A' for Active; 'I' for Inactive)
REMARK    1  A    between atoms: C2_2  and  N1_3 
REMARK    2  A    between atoms: C5_9  and  N3_10 
REMARK    3  A    between atoms: N3_10  and  C6_12 
REMARK    4  A    between atoms: C6_12  and  C7_13 
REMARK    5  A    between atoms: C7_13  and  C8_14 
REMARK    6  A    between atoms: C11_17  and  S2_18 
REMARK    7  A    between atoms: S2_18  and  N4_19 
REMARK    8  A    between atoms: C17_33  and  N7_34 
ROOT
HETATM    1  N1  UNL     1      25.468  11.766   2.862  1.00  0.00    -0.308 N 
HETATM    2  C3  UNL     1      24.781  10.589   2.827  1.00  0.00     0.180 A 
HETATM    3  S1  UNL     1      25.607   9.263   2.358  1.00  0.00    -0.040 SA
HETATM    4  N2  UNL     1      23.506  10.439   3.141  1.00  0.00    -0.328 N 
ATOM      5  H2  UNL     1      23.070   9.519   3.087  1.00  0.00     0.168 HD
HETATM    6  C4  UNL     1      22.785  11.506   3.534  1.00  0.00     0.109 A 
HETATM    7  C5  UNL     1      21.430  11.365   3.869  1.00  0.00     0.131 A 
HETATM    8  N5  UNL     1      20.751  12.452   4.251  1.00  0.00    -0.337 N 
ATOM      9  H5  UNL     1      19.765  12.385   4.501  1.00  0.00     0.168 HD
HETATM   10  C15 UNL     1      21.395  13.643   4.301  1.00  0.00     0.182 A 
HETATM   11  N6  UNL     1      22.688  13.773   3.981  1.00  0.00    -0.347 N 
ATOM     12  H6  UNL     1      23.130  14.691   4.035  1.00  0.00     0.167 HD
HETATM   13  C16 UNL     1      23.411  12.714   3.592  1.00  0.00     0.108 A 
HETATM   14  C17 UNL     1      24.792  12.855   3.247  1.00  0.00     0.138 A 
ENDROOT
BRANCH   7  15
HETATM   15  N3  UNL     1      20.958  10.181   3.775  1.00  0.00    -0.374 N 
ATOM     16  H3  UNL     1      21.466   9.414   4.215  1.00  0.00     0.161 HD
BRANCH  15  17
HETATM   17  C6  UNL     1      19.736   9.890   3.075  1.00  0.00     0.126 C 
BRANCH  17  18
HETATM   18  C7  UNL     1      20.029   9.440   1.659  1.00  0.00     0.058 C 
BRANCH  18  19
HETATM   19  C8  UNL     1      20.008   7.997   1.456  1.00  0.00    -0.051 A 
HETATM   20  C9  UNL     1      18.894   7.214   1.716  1.00  0.00     0.009 A 
HETATM   21  C10 UNL     1      18.872   5.863   1.514  1.00  0.00     0.026 A 
HETATM   22  C11 UNL     1      19.996   5.214   1.027  1.00  0.00     0.079 A 
HETATM   23  C12 UNL     1      21.111   5.966   0.761  1.00  0.00     0.032 A 
HETATM   24  C13 UNL     1      21.121   7.349   0.973  1.00  0.00    -0.054 A 
HETATM   25  C14 UNL     1      22.367   8.083   0.672  1.00  0.00     0.049 C 
BRANCH  22  26
HETATM   26  S2  UNL     1      19.954   3.483   0.769  1.00  0.00     0.256 S 
HETATM   27  O1  UNL     1      19.258   2.847   1.911  1.00  0.00    -0.201 OA
HETATM   28  O2  UNL     1      19.297   3.226  -0.561  1.00  0.00    -0.201 OA
BRANCH  26  29
HETATM   29  N4  UNL     1      21.577   2.929   0.643  1.00  0.00    -0.324 N 
ATOM     30  H42 UNL     1      22.408   3.489   0.835  1.00  0.00     0.169 HD
ATOM     31  H41 UNL     1      21.551   1.953   0.346  1.00  0.00     0.169 HD
ENDBRANCH  26  29
ENDBRANCH  22  26
ENDBRANCH  18  19
ENDBRANCH  17  18
ENDBRANCH  15  17
ENDBRANCH   7  15
BRANCH  14  32
HETATM   32  N7  UNL     1      25.229  14.003   3.358  1.00  0.00    -0.360 N 
HETATM   33  C18 UNL     1      25.635  15.133   2.716  1.00  0.00     0.120 C 
ATOM     34  H7  UNL     1      25.331  14.182   4.357  1.00  0.00     0.165 HD
ENDBRANCH  14  32
BRANCH   1  35
HETATM   35  C2  UNL     1      26.845  11.768   2.489  1.00  0.00     0.128 C 
HETATM   36  C1  UNL     1      27.081  12.205   1.062  1.00  0.00     0.027 C 
ENDBRANCH   1  35
TORSDOF 8
ENDMDL
MODEL 2
REMARK VINA RESULT: -8.237388997      4.293      9.516
REMARK  8 active torsions:
REMARK  status: ('A' for Active; 'I' for Inactive)
REMARK    1  A    between atoms: C2_2  and  N1_3 
REMARK    2  A    between atoms: C5_9  and  N3_10 
REMARK    3  A    between atoms: N3_10  and  C6_12 
REMARK    4  A    between atoms: C6_12  and  C7_13 
REMARK    5  A    between atoms: C7_13  and  C8_14 
REMARK    6  A    between atoms: C11_17  and  S2_18 
REMARK    7  A    between atoms: S2_18  and  N4_19 
REMARK    8  A    between atoms: C17_33  and  N7_34 
ROOT
HETATM    1  N1  UNL     1      17.760   2.802  -0.309  1.00  0.00    -0.308 N 
HETATM    2  C3  UNL     1      18.891   3.178   0.355  1.00  0.00     0.180 A 
HETATM    3  S1  UNL     1      20.030   2.034   0.583  1.00  0.00    -0.040 SA
HETATM    4  N2  UNL     1      19.134   4.389   0.823  1.00  0.00    -0.328 N 
ATOM      5  H2  UNL     1      20.009   4.584   1.309  1.00  0.00     0.168 HD
HETATM    6  C4  UNL     1      18.222   5.365   0.657  1.00  0.00     0.109 A 
HETATM    7  C5  UNL     1      18.462   6.656   1.151  1.00  0.00     0.131 A 
HETATM    8  N5  UNL     1      17.528   7.595   0.966  1.00  0.00    -0.337 N 
ATOM      9  H5  UNL     1      17.670   8.543   1.313  1.00  0.00     0.168 HD
HETATM   10  C15 UNL     1      16.388   7.265   0.312  1.00  0.00     0.182 A 
HETATM   11  N6  UNL     1      16.162   6.032  -0.158  1.00  0.00    -0.347 N 
ATOM     12  H6  UNL     1      15.289   5.831  -0.646  1.00  0.00     0.167 HD
HETATM   13  C16 UNL     1      17.068   5.058   0.003  1.00  0.00     0.108 A 
HETATM   14  C17 UNL     1      16.824   3.740  -0.497  1.00  0.00     0.138 A 
ENDROOT
BRANCH   7  15
HETATM   15  N3  UNL     1      19.581   6.821   1.747  1.00  0.00    -0.374 N 
ATOM     16  H3  UNL     1      19.740   6.341   2.633  1.00  0.00     0.161 HD
BRANCH  15  17
HETATM   17  C6  UNL     1      20.624   7.656   1.215  1.00  0.00     0.126 C 
BRANCH  17  18
HETATM   18  C7  UNL     1      20.549   9.046   1.812  1.00  0.00     0.058 C 
BRANCH  18  19
HETATM   19  C8  UNL     1      21.822   9.586   2.274  1.00  0.00    -0.051 A 
HETATM   20  C9  UNL     1      23.039   9.234   1.712  1.00  0.00     0.009 A 
HETATM   21  C10 UNL     1      24.231   9.750   2.137  1.00  0.00     0.026 A 
HETATM   22  C11 UNL     1      24.259  10.670   3.174  1.00  0.00     0.079 A 
HETATM   23  C12 UNL     1      23.069  11.035   3.747  1.00  0.00     0.032 A 
HETATM   24  C13 UNL     1      21.855  10.499   3.302  1.00  0.00    -0.054 A 
HETATM   25  C14 UNL     1      20.619  10.937   3.981  1.00  0.00     0.049 C 
BRANCH  22  26
HETATM   26  S2  UNL     1      25.793  11.326   3.707  1.00  0.00     0.256 S 
HETATM   27  O1  UNL     1      26.367  10.425   4.732  1.00  0.00    -0.201 OA
HETATM   28  O2  UNL     1      26.669  11.505   2.496  1.00  0.00    -0.201 OA
BRANCH  26  29
HETATM   29  N4  UNL     1      25.499  12.894   4.352  1.00  0.00    -0.324 N 
ATOM     30  H42 UNL     1      25.581  13.769   3.833  1.00  0.00     0.169 HD
ATOM     31  H41 UNL     1      25.235  12.784   5.330  1.00  0.00     0.169 HD
ENDBRANCH  26  29
ENDBRANCH  22  26
ENDBRANCH  18  19
ENDBRANCH  17  18
ENDBRANCH  15  17
ENDBRANCH   7  15
BRANCH  14  32
HETATM   32  N7  UNL     1      15.745   3.609  -1.080  1.00  0.00    -0.360 N 
HETATM   33  C18 UNL     1      15.097   3.548  -2.276  1.00  0.00     0.120 C 
ATOM     34  H7  UNL     1      15.034   3.497  -0.357  1.00  0.00     0.165 HD
ENDBRANCH  14  32
BRANCH   1  35
HETATM   35  C2  UNL     1      17.643   1.452  -0.751  1.00  0.00     0.128 C 
HETATM   36  C1  UNL     1      18.101   1.242  -2.175  1.00  0.00     0.027 C 
ENDBRANCH   1  35
TORSDOF 8
ENDMDL
MODEL 3
REMARK VINA RESULT: -8.217740472      3.453      3.871
REMARK  8 active torsions:
REMARK  status: ('A' for Active; 'I' for Inactive)
REMARK    1  A    between atoms: C2_2  and  N1_3 
REMARK    2  A    between atoms: C5_9  and  N3_10 
REMARK    3  A    between atoms: N3_10  and  C6_12 
REMARK    4  A    between atoms: C6_12  and  C7_13 
REMARK    5  A    between atoms: C7_13  and  C8_14 
REMARK    6  A    between atoms: C11_17  and  S2_18 
REMARK    7  A    between atoms: S2_18  and  N4_19 
REMARK    8  A    between atoms: C17_33  and  N7_34 
ROOT
HETATM    1  N1  UNL     1      25.765  11.826   2.816  1.00  0.00    -0.308 N 
HETATM    2  C3  UNL     1      25.115  10.627   2.843  1.00  0.00     0.180 A 
HETATM    3  S1  UNL     1      25.965   9.313   2.384  1.00  0.00    -0.040 SA
HETATM    4  N2  UNL     1      23.858  10.449   3.210  1.00  0.00    -0.328 N 
ATOM      5  H2  UNL     1      23.450   9.515   3.201  1.00  0.00     0.168 HD
HETATM    6  C4  UNL     1      23.119  11.505   3.597  1.00  0.00     0.109 A 
HETATM    7  C5  UNL     1      21.783  11.335   3.988  1.00  0.00     0.131 A 
HETATM    8  N5  UNL     1      21.084  12.412   4.362  1.00  0.00    -0.337 N 
ATOM      9  H5  UNL     1      20.110  12.323   4.651  1.00  0.00     0.168 HD
HETATM   10  C15 UNL     1      21.691  13.623   4.350  1.00  0.00     0.182 A 
HETATM   11  N6  UNL     1      22.967  13.782   3.977  1.00  0.00    -0.347 N 
ATOM     12  H6  UNL     1      23.382  14.714   3.986  1.00  0.00     0.167 HD
HETATM   13  C16 UNL     1      23.707  12.733   3.594  1.00  0.00     0.108 A 
HETATM   14  C17 UNL     1      25.070  12.905   3.193  1.00  0.00     0.138 A 
ENDROOT
BRANCH   7  15
HETATM   15  N3  UNL     1      21.344  10.134   3.949  1.00  0.00    -0.374 N 
ATOM     16  H3  UNL     1      22.013   9.366   4.011  1.00  0.00     0.161 HD
BRANCH  15  17
HETATM   17  C6  UNL     1      19.946   9.826   3.823  1.00  0.00     0.126 C 
BRANCH  17  18
HETATM   18  C7  UNL     1      19.612   9.438   2.398  1.00  0.00     0.058 C 
BRANCH  18  19
HETATM   19  C8  UNL     1      20.712   9.572   1.451  1.00  0.00    -0.051 A 
HETATM   20  C9  UNL     1      21.597   8.543   1.172  1.00  0.00     0.009 A 
HETATM   21  C10 UNL     1      22.620   8.666   0.274  1.00  0.00     0.026 A 
HETATM   22  C11 UNL     1      22.809   9.860  -0.406  1.00  0.00     0.079 A 
HETATM   23  C12 UNL     1      21.946  10.893  -0.148  1.00  0.00     0.032 A 
HETATM   24  C13 UNL     1      20.902  10.754   0.774  1.00  0.00    -0.054 A 
HETATM   25  C14 UNL     1      20.025  11.921   1.001  1.00  0.00     0.049 C 
BRANCH  22  26
HETATM   26  S2  UNL     1      24.122  10.003  -1.555  1.00  0.00     0.256 S 
HETATM   27  O1  UNL     1      23.686  10.871  -2.672  1.00  0.00    -0.201 OA
HETATM   28  O2  UNL     1      25.330  10.519  -0.820  1.00  0.00    -0.201 OA
BRANCH  26  29
HETATM   29  N4  UNL     1      24.510   8.422  -2.111  1.00  0.00    -0.324 N 
ATOM     30  H42 UNL     1      25.046   8.208  -2.953  1.00  0.00     0.169 HD
ATOM     31  H41 UNL     1      24.110   7.753  -1.454  1.00  0.00     0.169 HD
ENDBRANCH  26  29
ENDBRANCH  22  26
ENDBRANCH  18  19
ENDBRANCH  17  18
ENDBRANCH  15  17
ENDBRANCH   7  15
BRANCH  14  32
HETATM   32  N7  UNL     1      25.475  14.069   3.251  1.00  0.00    -0.360 N 
HETATM   33  C18 UNL     1      25.838  15.184   2.559  1.00  0.00     0.120 C 
ATOM     34  H7  UNL     1      25.584  14.291   4.240  1.00  0.00     0.165 HD
ENDBRANCH  14  32
BRANCH   1  35
HETATM   35  C2  UNL     1      27.126  11.857   2.390  1.00  0.00     0.128 C 
HETATM   36  C1  UNL     1      27.308  12.401   0.992  1.00  0.00     0.027 C 
ENDBRANCH   1  35
TORSDOF 8
ENDMDL
MODEL 4
REMARK VINA RESULT: -8.186199220      4.614      9.535
REMARK  8 active torsions:
REMARK  status: ('A' for Active; 'I' for Inactive)
REMARK    1  A    between atoms: C2_2  and  N1_3 
REMARK    2  A    between atoms: C5_9  and  N3_10 
REMARK    3  A    between atoms: N3_10  and  C6_12 
REMARK    4  A    between atoms: C6_12  and  C7_13 
REMARK    5  A    between atoms: C7_13  and  C8_14 
REMARK    6  A    between atoms: C11_17  and  S2_18 
REMARK    7  A    between atoms: S2_18  and  N4_19 
REMARK    8  A    between atoms: C17_33  and  N7_34 
ROOT
HETATM    1  N1  UNL     1      18.639   2.999  -1.681  1.00  0.00    -0.308 N 
HETATM    2  C3  UNL     1      19.057   3.494  -0.481  1.00  0.00     0.180 A 
HETATM    3  S1  UNL     1      20.228   2.665   0.295  1.00  0.00    -0.040 SA
HETATM    4  N2  UNL     1      18.590   4.586   0.099  1.00  0.00    -0.328 N 
ATOM      5  H2  UNL     1      18.960   4.885   1.000  1.00  0.00     0.168 HD
HETATM    6  C4  UNL     1      17.623   5.302  -0.505  1.00  0.00     0.109 A 
HETATM    7  C5  UNL     1      17.114   6.462   0.097  1.00  0.00     0.131 A 
HETATM    8  N5  UNL     1      16.152   7.141  -0.537  1.00  0.00    -0.337 N 
ATOM      9  H5  UNL     1      15.760   7.988  -0.127  1.00  0.00     0.168 HD
HETATM   10  C15 UNL     1      15.707   6.685  -1.733  1.00  0.00     0.182 A 
HETATM   11  N6  UNL     1      16.196   5.578  -2.305  1.00  0.00    -0.347 N 
ATOM     12  H6  UNL     1      15.830   5.274  -3.207  1.00  0.00     0.167 HD
HETATM   13  C16 UNL     1      17.160   4.863  -1.708  1.00  0.00     0.108 A 
HETATM   14  C17 UNL     1      17.678   3.679  -2.319  1.00  0.00     0.138 A 
ENDROOT
BRANCH   7  15
HETATM   15  N3  UNL     1      17.630   6.771   1.225  1.00  0.00    -0.374 N 
ATOM     16  H3  UNL     1      17.487   6.145   2.018  1.00  0.00     0.161 HD
BRANCH  15  17
HETATM   17  C6  UNL     1      18.403   7.967   1.419  1.00  0.00     0.126 C 
BRANCH  17  18
HETATM   18  C7  UNL     1      19.860   7.627   1.654  1.00  0.00     0.058 C 
BRANCH  18  19
HETATM   19  C8  UNL     1      20.660   8.707   2.219  1.00  0.00    -0.051 A 
HETATM   20  C9  UNL     1      20.219   9.508   3.261  1.00  0.00     0.009 A 
HETATM   21  C10 UNL     1      20.974  10.512   3.798  1.00  0.00     0.026 A 
HETATM   22  C11 UNL     1      22.244  10.767   3.303  1.00  0.00     0.079 A 
HETATM   23  C12 UNL     1      22.704   9.989   2.273  1.00  0.00     0.032 A 
HETATM   24  C13 UNL     1      21.920   8.964   1.732  1.00  0.00    -0.054 A 
HETATM   25  C14 UNL     1      22.487   8.180   0.615  1.00  0.00     0.049 C 
BRANCH  22  26
HETATM   26  S2  UNL     1      23.203  12.054   4.003  1.00  0.00     0.256 S 
HETATM   27  O1  UNL     1      24.366  11.459   4.698  1.00  0.00    -0.201 OA
HETATM   28  O2  UNL     1      23.577  13.007   2.900  1.00  0.00    -0.201 OA
BRANCH  26  29
HETATM   29  N4  UNL     1      22.200  12.922   5.098  1.00  0.00    -0.324 N 
ATOM     30  H42 UNL     1      21.196  13.067   4.991  1.00  0.00     0.169 HD
ATOM     31  H41 UNL     1      22.789  13.258   5.860  1.00  0.00     0.169 HD
ENDBRANCH  26  29
ENDBRANCH  22  26
ENDBRANCH  18  19
ENDBRANCH  17  18
ENDBRANCH  15  17
ENDBRANCH   7  15
BRANCH  14  32
HETATM   32  N7  UNL     1      17.176   3.408  -3.413  1.00  0.00    -0.360 N 
HETATM   33  C18 UNL     1      17.332   3.393  -4.765  1.00  0.00     0.120 C 
ATOM     34  H7  UNL     1      16.246   3.035  -3.222  1.00  0.00     0.165 HD
ENDBRANCH  14  32
BRANCH   1  35
HETATM   35  C2  UNL     1      19.239   1.803  -2.175  1.00  0.00     0.128 C 
HETATM   36  C1  UNL     1      18.350   0.589  -2.054  1.00  0.00     0.027 C 
ENDBRANCH   1  35
TORSDOF 8
ENDMDL
MODEL 5
REMARK VINA RESULT: -8.146936744      4.945     10.218
REMARK  8 active torsions:
REMARK  status: ('A' for Active; 'I' for Inactive)
REMARK    1  A    between atoms: C2_2  and  N1_3 
REMARK    2  A    between atoms: C5_9  and  N3_10 
REMARK    3  A    between atoms: N3_10  and  C6_12 
REMARK    4  A    between atoms: C6_12  and  C7_13 
REMARK    5  A    between atoms: C7_13  and  C8_14 
REMARK    6  A    between atoms: C11_17  and  S2_18 
REMARK    7  A    between atoms: S2_18  and  N4_19 
REMARK    8  A    between atoms: C17_33  and  N7_34 
ROOT
HETATM    1  N1  UNL     1      15.949   4.015  -2.507  1.00  0.00    -0.308 N 
HETATM    2  C3  UNL     1      16.355   5.315  -2.433  1.00  0.00     0.180 A 
HETATM    3  S1  UNL     1      16.159   6.228  -3.771  1.00  0.00    -0.040 SA
HETATM    4  N2  UNL     1      16.890   5.888  -1.370  1.00  0.00    -0.328 N 
ATOM      5  H2  UNL     1      17.166   6.869  -1.403  1.00  0.00     0.168 HD
HETATM    6  C4  UNL     1      17.070   5.173  -0.245  1.00  0.00     0.109 A 
HETATM    7  C5  UNL     1      17.639   5.765   0.892  1.00  0.00     0.131 A 
HETATM    8  N5  UNL     1      17.802   5.017   1.988  1.00  0.00    -0.337 N 
ATOM      9  H5  UNL     1      18.213   5.417   2.832  1.00  0.00     0.168 HD
HETATM   10  C15 UNL     1      17.412   3.720   1.960  1.00  0.00     0.182 A 
HETATM   11  N6  UNL     1      16.869   3.158   0.873  1.00  0.00    -0.347 N 
ATOM     12  H6  UNL     1      16.590   2.177   0.900  1.00  0.00     0.167 HD
HETATM   13  C16 UNL     1      16.686   3.867  -0.249  1.00  0.00     0.108 A 
HETATM   14  C17 UNL     1      16.108   3.264  -1.410  1.00  0.00     0.138 A 
ENDROOT
BRANCH   7  15
HETATM   15  N3  UNL     1      17.958   6.998   0.773  1.00  0.00    -0.374 N 
ATOM     16  H3  UNL     1      17.655   7.504  -0.059  1.00  0.00     0.161 HD
BRANCH  15  17
HETATM   17  C6  UNL     1      18.725   7.697   1.767  1.00  0.00     0.126 C 
BRANCH  17  18
HETATM   18  C7  UNL     1      20.194   7.709   1.396  1.00  0.00     0.058 C 
BRANCH  18  19
HETATM   19  C8  UNL     1      20.980   8.759   2.031  1.00  0.00    -0.051 A 
HETATM   20  C9  UNL     1      20.503   9.529   3.080  1.00  0.00     0.009 A 
HETATM   21  C10 UNL     1      21.245  10.505   3.683  1.00  0.00     0.026 A 
HETATM   22  C11 UNL     1      22.538  10.762   3.251  1.00  0.00     0.079 A 
HETATM   23  C12 UNL     1      23.034  10.014   2.215  1.00  0.00     0.032 A 
HETATM   24  C13 UNL     1      22.262   9.017   1.606  1.00  0.00    -0.054 A 
HETATM   25  C14 UNL     1      22.868   8.264   0.488  1.00  0.00     0.049 C 
BRANCH  22  26
HETATM   26  S2  UNL     1      23.480  12.013   4.033  1.00  0.00     0.256 S 
HETATM   27  O1  UNL     1      24.603  11.380   4.761  1.00  0.00    -0.201 OA
HETATM   28  O2  UNL     1      23.916  12.995   2.979  1.00  0.00    -0.201 OA
BRANCH  26  29
HETATM   29  N4  UNL     1      22.439  12.860   5.110  1.00  0.00    -0.324 N 
ATOM     30  H42 UNL     1      21.563  12.500   5.488  1.00  0.00     0.169 HD
ATOM     31  H41 UNL     1      22.857  13.773   5.293  1.00  0.00     0.169 HD
ENDBRANCH  26  29
ENDBRANCH  22  26
ENDBRANCH  18  19
ENDBRANCH  17  18
ENDBRANCH  15  17
ENDBRANCH   7  15
BRANCH  14  32
HETATM   32  N7  UNL     1      15.796   2.079  -1.267  1.00  0.00    -0.360 N 
HETATM   33  C18 UNL     1      16.025   0.789  -1.638  1.00  0.00     0.120 C 
ATOM     34  H7  UNL     1      15.046   2.056  -0.576  1.00  0.00     0.165 HD
ENDBRANCH  14  32
BRANCH   1  35
HETATM   35  C2  UNL     1      15.391   3.539  -3.730  1.00  0.00     0.128 C 
HETATM   36  C1  UNL     1      13.886   3.414  -3.698  1.00  0.00     0.027 C 
ENDBRANCH   1  35
TORSDOF 8
ENDMDL
