MODEL 1
REMARK VINA RESULT: -9.394466027      0.000      0.000
REMARK  8 active torsions:
REMARK  status: ('A' for Active; 'I' for Inactive)
REMARK    1  A    between atoms: C4_6  and  C5_7 
REMARK    2  A    between atoms: C5_7  and  N2_8 
REMARK    3  A    between atoms: N2_8  and  C6_10 
REMARK    4  A    between atoms: C13_23  and  N6_24 
REMARK    5  A    between atoms: N6_24  and  C14_26 
REMARK    6  A    between atoms: C14_26  and  C15_27 
REMARK    7  A    between atoms: C15_27  and  N7_28 
REMARK    8  A    between atoms: N7_28  and  C16_30 
ROOT
HETATM    1  C6  UNL     1      19.524   4.419   1.737  1.00  0.00     0.678 A 
HETATM    2  N3  UNL     1      19.371   5.760   1.767  1.00  0.00    -0.190 N 
ATOM      3  H3  UNL     1      18.522   6.183   2.142  1.00  0.00     0.184 HD
HETATM    4  C7  UNL     1      20.364   6.519   1.291  1.00  0.00     0.070 A 
HETATM    5  C8  UNL     1      21.534   6.017   0.768  1.00  0.00    -0.014 A 
HETATM    6  C9  UNL     1      21.679   4.633   0.743  1.00  0.00     0.115 A 
HETATM    7  N4  UNL     1      20.660   3.905   1.232  1.00  0.00    -0.201 N 
ATOM      8  H4  UNL     1      20.755   2.889   1.220  1.00  0.00     0.183 HD
HETATM    9  C10 UNL     1      22.535   6.900   0.207  1.00  0.00     0.048 C 
HETATM   10  C11 UNL     1      22.510   8.314   0.626  1.00  0.00     0.063 C 
HETATM   11  C12 UNL     1      21.190   8.814   1.027  1.00  0.00     0.041 A 
HETATM   12  N5  UNL     1      20.973  10.182   1.083  1.00  0.00    -0.195 N 
ATOM     13  H5  UNL     1      21.716  10.817   0.791  1.00  0.00     0.184 HD
HETATM   14  C13 UNL     1      19.810  10.690   1.511  1.00  0.00     0.678 A 
HETATM   15  N9  UNL     1      18.830   9.856   1.897  1.00  0.00    -0.201 N 
ATOM     16  H9  UNL     1      17.944  10.240   2.224  1.00  0.00     0.183 HD
HETATM   17  C21 UNL     1      18.999   8.520   1.857  1.00  0.00     0.121 A 
HETATM   18  C22 UNL     1      20.193   7.974   1.416  1.00  0.00     0.031 A 
ENDROOT
BRANCH  14  19
HETATM   19  N6  UNL     1      19.677  11.978   1.536  1.00  0.00    -0.224 N 
ATOM     20  H6  UNL     1      18.772  12.380   1.293  1.00  0.00     0.177 HD
BRANCH  19  21
HETATM   21  C14 UNL     1      20.756  12.873   1.894  1.00  0.00     0.157 C 
BRANCH  21  22
HETATM   22  C15 UNL     1      20.568  13.197   3.372  1.00  0.00     0.140 C 
BRANCH  22  23
HETATM   23  N7  UNL     1      21.298  12.231   4.144  1.00  0.00    -0.388 N 
ATOM     24  H7  UNL     1      20.789  11.630   4.791  1.00  0.00     0.159 HD
BRANCH  23  25
HETATM   25  C16 UNL     1      22.564  12.101   4.047  1.00  0.00     0.030 A 
HETATM   26  C17 UNL     1      23.416  13.103   4.407  1.00  0.00     0.046 A 
HETATM   27  C18 UNL     1      24.791  12.863   4.264  1.00  0.00     0.089 A 
HETATM   28  N8  UNL     1      25.270  11.704   3.795  1.00  0.00    -0.375 N 
HETATM   29  C19 UNL     1      24.450  10.706   3.435  1.00  0.00     0.089 A 
ATOM     30  H8  UNL     1      26.279  11.577   3.709  1.00  0.00     0.164 HD
HETATM   31  C20 UNL     1      23.101  10.906   3.562  1.00  0.00     0.046 A 
ENDBRANCH  23  25
ENDBRANCH  22  23
ENDBRANCH  21  22
ENDBRANCH  19  21
ENDBRANCH  14  19
BRANCH   1  32
HETATM   32  N2  UNL     1      18.574   3.638   2.193  1.00  0.00    -0.222 N 
ATOM     33  H2  UNL     1      18.759   2.973   2.944  1.00  0.00     0.178 HD
BRANCH  32  34
HETATM   34  C5  UNL     1      17.260   3.744   1.602  1.00  0.00     0.178 C 
BRANCH  34  35
HETATM   35  C4  UNL     1      17.240   3.218   0.212  1.00  0.00    -0.025 A 
HETATM   36  C3  UNL     1      16.860   3.990  -0.866  1.00  0.00     0.096 A 
HETATM   37  N1  UNL     1      16.854   3.481  -2.109  1.00  0.00    -0.375 N 
HETATM   38  C2  UNL     1      17.210   2.214  -2.374  1.00  0.00     0.087 A 
ATOM     39  H1  UNL     1      16.566   4.081  -2.882  1.00  0.00     0.164 HD
HETATM   40  C1  UNL     1      17.596   1.416  -1.320  1.00  0.00     0.018 A 
HETATM   41  C23 UNL     1      17.612   1.912  -0.036  1.00  0.00     0.011 A 
ENDBRANCH  34  35
ENDBRANCH  32  34
ENDBRANCH   1  32
TORSDOF 8
ENDMDL
MODEL 2
REMARK VINA RESULT: -9.388615436      1.719      3.487
REMARK  8 active torsions:
REMARK  status: ('A' for Active; 'I' for Inactive)
REMARK    1  A    between atoms: C4_6  and  C5_7 
REMARK    2  A    between atoms: C5_7  and  N2_8 
REMARK    3  A    between atoms: N2_8  and  C6_10 
REMARK    4  A    between atoms: C13_23  and  N6_24 
REMARK    5  A    between atoms: N6_24  and  C14_26 
REMARK    6  A    between atoms: C14_26  and  C15_27 
REMARK    7  A    between atoms: C15_27  and  N7_28 
REMARK    8  A    between atoms: N7_28  and  C16_30 
ROOT
HETATM    1  C6  UNL     1      20.306   6.468   1.086  1.00  0.00     0.678 A 
HETATM    2  N3  UNL     1      21.307   7.366   0.967  1.00  0.00    -0.190 N 
ATOM      3  H3  UNL     1      22.259   7.065   0.755  1.00  0.00     0.184 HD
HETATM    4  C7  UNL     1      21.016   8.660   1.134  1.00  0.00     0.070 A 
HETATM    5  C8  UNL     1      19.758   9.136   1.423  1.00  0.00    -0.014 A 
HETATM    6  C9  UNL     1      18.734   8.199   1.542  1.00  0.00     0.115 A 
HETATM    7  N4  UNL     1      19.066   6.909   1.366  1.00  0.00    -0.201 N 
ATOM      8  H4  UNL     1      18.324   6.214   1.451  1.00  0.00     0.183 HD
HETATM    9  C10 UNL     1      19.533  10.547   1.659  1.00  0.00     0.048 C 
HETATM   10  C11 UNL     1      20.531  11.495   1.127  1.00  0.00     0.063 C 
HETATM   11  C12 UNL     1      21.886  10.950   0.990  1.00  0.00     0.041 A 
HETATM   12  N5  UNL     1      22.956  11.822   0.858  1.00  0.00    -0.195 N 
ATOM     13  H5  UNL     1      22.789  12.827   0.914  1.00  0.00     0.184 HD
HETATM   14  C13 UNL     1      24.202  11.377   0.659  1.00  0.00     0.678 A 
HETATM   15  N9  UNL     1      24.424  10.053   0.584  1.00  0.00    -0.201 N 
ATOM     16  H9  UNL     1      25.373   9.711   0.430  1.00  0.00     0.183 HD
HETATM   17  C21 UNL     1      23.413   9.171   0.708  1.00  0.00     0.121 A 
HETATM   18  C22 UNL     1      22.117   9.611   0.916  1.00  0.00     0.031 A 
ENDROOT
BRANCH  14  19
HETATM   19  N6  UNL     1      25.153  12.249   0.545  1.00  0.00    -0.224 N 
ATOM     20  H6  UNL     1      25.802  12.164  -0.238  1.00  0.00     0.177 HD
BRANCH  19  21
HETATM   21  C14 UNL     1      25.337  13.338   1.479  1.00  0.00     0.157 C 
BRANCH  21  22
HETATM   22  C15 UNL     1      25.890  12.715   2.757  1.00  0.00     0.140 C 
BRANCH  22  23
HETATM   23  N7  UNL     1      25.117  13.198   3.866  1.00  0.00    -0.388 N 
ATOM     24  H7  UNL     1      25.552  13.841   4.527  1.00  0.00     0.159 HD
BRANCH  23  25
HETATM   25  C16 UNL     1      23.904  12.849   4.053  1.00  0.00     0.030 A 
HETATM   26  C17 UNL     1      23.565  11.555   4.321  1.00  0.00     0.046 A 
HETATM   27  C18 UNL     1      22.205  11.271   4.512  1.00  0.00     0.089 A 
HETATM   28  N8  UNL     1      21.259  12.215   4.438  1.00  0.00    -0.375 N 
HETATM   29  C19 UNL     1      21.570  13.493   4.176  1.00  0.00     0.089 A 
ATOM     30  H8  UNL     1      20.282  11.958   4.585  1.00  0.00     0.164 HD
HETATM   31  C20 UNL     1      22.889  13.806   3.985  1.00  0.00     0.046 A 
ENDBRANCH  23  25
ENDBRANCH  22  23
ENDBRANCH  21  22
ENDBRANCH  19  21
ENDBRANCH  14  19
BRANCH   1  32
HETATM   32  N2  UNL     1      20.547   5.189   0.931  1.00  0.00    -0.222 N 
ATOM     33  H2  UNL     1      21.217   4.863   0.233  1.00  0.00     0.178 HD
BRANCH  32  34
HETATM   34  C5  UNL     1      19.840   4.252   1.773  1.00  0.00     0.178 C 
BRANCH  34  35
HETATM   35  C4  UNL     1      18.984   3.335   0.975  1.00  0.00    -0.025 A 
HETATM   36  C3  UNL     1      17.610   3.320   1.088  1.00  0.00     0.096 A 
HETATM   37  N1  UNL     1      16.868   2.477   0.351  1.00  0.00    -0.375 N 
HETATM   38  C2  UNL     1      17.408   1.615  -0.525  1.00  0.00     0.087 A 
ATOM     39  H1  UNL     1      15.854   2.493   0.461  1.00  0.00     0.164 HD
HETATM   40  C1  UNL     1      18.777   1.606  -0.664  1.00  0.00     0.018 A 
HETATM   41  C23 UNL     1      19.562   2.459   0.080  1.00  0.00     0.011 A 
ENDBRANCH  34  35
ENDBRANCH  32  34
ENDBRANCH   1  32
TORSDOF 8
ENDMDL
MODEL 3
REMARK VINA RESULT: -9.268067669      0.819      1.203
REMARK  8 active torsions:
REMARK  status: ('A' for Active; 'I' for Inactive)
REMARK    1  A    between atoms: C4_6  and  C5_7 
REMARK    2  A    between atoms: C5_7  and  N2_8 
REMARK    3  A    between atoms: N2_8  and  C6_10 
REMARK    4  A    between atoms: C13_23  and  N6_24 
REMARK    5  A    between atoms: N6_24  and  C14_26 
REMARK    6  A    between atoms: C14_26  and  C15_27 
REMARK    7  A    between atoms: C15_27  and  N7_28 
REMARK    8  A    between atoms: N7_28  and  C16_30 
ROOT
HETATM    1  C6  UNL     1      20.312   4.043   1.334  1.00  0.00     0.678 A 
HETATM    2  N3  UNL     1      19.968   5.342   1.461  1.00  0.00    -0.190 N 
ATOM      3  H3  UNL     1      19.062   5.610   1.846  1.00  0.00     0.184 HD
HETATM    4  C7  UNL     1      20.850   6.268   1.068  1.00  0.00     0.070 A 
HETATM    5  C8  UNL     1      22.086   5.980   0.539  1.00  0.00    -0.014 A 
HETATM    6  C9  UNL     1      22.428   4.636   0.413  1.00  0.00     0.115 A 
HETATM    7  N4  UNL     1      21.517   3.736   0.820  1.00  0.00    -0.201 N 
ATOM      8  H4  UNL     1      21.756   2.747   0.734  1.00  0.00     0.183 HD
HETATM    9  C10 UNL     1      22.959   7.036   0.070  1.00  0.00     0.048 C 
HETATM   10  C11 UNL     1      22.725   8.396   0.594  1.00  0.00     0.063 C 
HETATM   11  C12 UNL     1      21.342   8.671   0.998  1.00  0.00     0.041 A 
HETATM   12  N5  UNL     1      20.931   9.986   1.152  1.00  0.00    -0.195 N 
ATOM     13  H5  UNL     1      21.580  10.741   0.927  1.00  0.00     0.184 HD
HETATM   14  C13 UNL     1      19.702  10.290   1.587  1.00  0.00     0.678 A 
HETATM   15  N9  UNL     1      18.845   9.298   1.885  1.00  0.00    -0.201 N 
ATOM     16  H9  UNL     1      17.909   9.526   2.218  1.00  0.00     0.183 HD
HETATM   17  C21 UNL     1      19.204   8.006   1.749  1.00  0.00     0.121 A 
HETATM   18  C22 UNL     1      20.470   7.670   1.298  1.00  0.00     0.031 A 
ENDROOT
BRANCH  14  19
HETATM   19  N6  UNL     1      19.386  11.540   1.706  1.00  0.00    -0.224 N 
ATOM     20  H6  UNL     1      18.400  11.788   1.794  1.00  0.00     0.177 HD
BRANCH  19  21
HETATM   21  C14 UNL     1      20.368  12.601   1.719  1.00  0.00     0.157 C 
BRANCH  21  22
HETATM   22  C15 UNL     1      20.288  13.239   3.102  1.00  0.00     0.140 C 
BRANCH  22  23
HETATM   23  N7  UNL     1      21.045  12.432   4.017  1.00  0.00    -0.388 N 
ATOM     24  H7  UNL     1      20.556  11.949   4.769  1.00  0.00     0.159 HD
BRANCH  23  25
HETATM   25  C16 UNL     1      22.311  12.300   3.919  1.00  0.00     0.030 A 
HETATM   26  C17 UNL     1      22.893  11.075   3.772  1.00  0.00     0.046 A 
HETATM   27  C18 UNL     1      24.292  11.034   3.673  1.00  0.00     0.089 A 
HETATM   28  N8  UNL     1      25.045  12.139   3.718  1.00  0.00    -0.375 N 
HETATM   29  C19 UNL     1      24.494  13.352   3.862  1.00  0.00     0.089 A 
ATOM     30  H8  UNL     1      26.059  12.057   3.642  1.00  0.00     0.164 HD
HETATM   31  C20 UNL     1      23.130  13.430   3.961  1.00  0.00     0.046 A 
ENDBRANCH  23  25
ENDBRANCH  22  23
ENDBRANCH  21  22
ENDBRANCH  19  21
ENDBRANCH  14  19
BRANCH   1  32
HETATM   32  N2  UNL     1      19.477   3.102   1.706  1.00  0.00    -0.222 N 
ATOM     33  H2  UNL     1      19.783   2.132   1.785  1.00  0.00     0.178 HD
BRANCH  32  34
HETATM   34  C5  UNL     1      18.113   3.476   2.000  1.00  0.00     0.178 C 
BRANCH  34  35
HETATM   35  C4  UNL     1      17.283   3.530   0.768  1.00  0.00    -0.025 A 
HETATM   36  C3  UNL     1      16.417   4.571   0.504  1.00  0.00     0.096 A 
HETATM   37  N1  UNL     1      15.682   4.587  -0.620  1.00  0.00    -0.375 N 
HETATM   38  C2  UNL     1      15.743   3.610  -1.538  1.00  0.00     0.087 A 
ATOM     39  H1  UNL     1      15.053   5.373  -0.782  1.00  0.00     0.164 HD
HETATM   40  C1  UNL     1      16.598   2.556  -1.307  1.00  0.00     0.018 A 
HETATM   41  C23 UNL     1      17.363   2.514  -0.163  1.00  0.00     0.011 A 
ENDBRANCH  34  35
ENDBRANCH  32  34
ENDBRANCH   1  32
TORSDOF 8
ENDMDL
MODEL 4
REMARK VINA RESULT: -8.901203827      3.372      5.778
REMARK  8 active torsions:
REMARK  status: ('A' for Active; 'I' for Inactive)
REMARK    1  A    between atoms: C4_6  and  C5_7 
REMARK    2  A    between atoms: C5_7  and  N2_8 
REMARK    3  A    between atoms: N2_8  and  C6_10 
REMARK    4  A    between atoms: C13_23  and  N6_24 
REMARK    5  A    between atoms: N6_24  and  C14_26 
REMARK    6  A    between atoms: C14_26  and  C15_27 
REMARK    7  A    between atoms: C15_27  and  N7_28 
REMARK    8  A    between atoms: N7_28  and  C16_30 
ROOT
HETATM    1  C6  UNL     1      20.228   8.138   1.786  1.00  0.00     0.678 A 
HETATM    2  N3  UNL     1      21.495   8.592   1.895  1.00  0.00    -0.190 N 
ATOM      3  H3  UNL     1      22.258   8.146   1.386  1.00  0.00     0.184 HD
HETATM    4  C7  UNL     1      21.721   9.643   2.691  1.00  0.00     0.070 A 
HETATM    5  C8  UNL     1      20.743  10.290   3.409  1.00  0.00    -0.014 A 
HETATM    6  C9  UNL     1      19.441   9.812   3.286  1.00  0.00     0.115 A 
HETATM    7  N4  UNL     1      19.253   8.756   2.477  1.00  0.00    -0.201 N 
ATOM      8  H4  UNL     1      18.303   8.397   2.378  1.00  0.00     0.183 HD
HETATM    9  C10 UNL     1      21.075  11.378   4.305  1.00  0.00     0.048 C 
HETATM   10  C11 UNL     1      22.354  12.080   4.080  1.00  0.00     0.063 C 
HETATM   11  C12 UNL     1      23.397  11.269   3.443  1.00  0.00     0.041 A 
HETATM   12  N5  UNL     1      24.718  11.686   3.516  1.00  0.00    -0.195 N 
ATOM     13  H5  UNL     1      24.948  12.519   4.058  1.00  0.00     0.184 HD
HETATM   14  C13 UNL     1      25.698  11.022   2.892  1.00  0.00     0.678 A 
HETATM   15  N9  UNL     1      25.397   9.925   2.176  1.00  0.00    -0.201 N 
ATOM     16  H9  UNL     1      26.142   9.418   1.699  1.00  0.00     0.183 HD
HETATM   17  C21 UNL     1      24.128   9.484   2.080  1.00  0.00     0.121 A 
HETATM   18  C22 UNL     1      23.099  10.155   2.719  1.00  0.00     0.031 A 
ENDROOT
BRANCH  14  19
HETATM   19  N6  UNL     1      26.908  11.469   3.004  1.00  0.00    -0.224 N 
ATOM     20  H6  UNL     1      27.133  12.377   2.597  1.00  0.00     0.177 HD
BRANCH  19  21
HETATM   21  C14 UNL     1      27.956  10.737   3.681  1.00  0.00     0.157 C 
BRANCH  21  22
HETATM   22  C15 UNL     1      27.860  11.121   5.154  1.00  0.00     0.140 C 
BRANCH  22  23
HETATM   23  N7  UNL     1      28.997  11.933   5.484  1.00  0.00    -0.388 N 
ATOM     24  H7  UNL     1      29.382  12.555   4.773  1.00  0.00     0.159 HD
BRANCH  23  25
HETATM   25  C16 UNL     1      29.543  11.902   6.637  1.00  0.00     0.030 A 
HETATM   26  C17 UNL     1      30.294  10.839   7.045  1.00  0.00     0.046 A 
HETATM   27  C18 UNL     1      30.853  10.900   8.330  1.00  0.00     0.089 A 
HETATM   28  N8  UNL     1      30.670  11.948   9.142  1.00  0.00    -0.375 N 
HETATM   29  C19 UNL     1      29.935  13.003   8.761  1.00  0.00     0.089 A 
ATOM     30  H8  UNL     1      31.097  11.945  10.068  1.00  0.00     0.164 HD
HETATM   31  C20 UNL     1      29.375  12.978   7.512  1.00  0.00     0.046 A 
ENDBRANCH  23  25
ENDBRANCH  22  23
ENDBRANCH  21  22
ENDBRANCH  19  21
ENDBRANCH  14  19
BRANCH   1  32
HETATM   32  N2  UNL     1      19.962   7.109   1.017  1.00  0.00    -0.222 N 
ATOM     33  H2  UNL     1      20.713   6.546   0.617  1.00  0.00     0.178 HD
BRANCH  32  34
HETATM   34  C5  UNL     1      18.577   6.796   0.751  1.00  0.00     0.178 C 
BRANCH  34  35
HETATM   35  C4  UNL     1      18.167   5.526   1.407  1.00  0.00    -0.025 A 
HETATM   36  C3  UNL     1      16.951   4.925   1.160  1.00  0.00     0.096 A 
HETATM   37  N1  UNL     1      16.613   3.778   1.772  1.00  0.00    -0.375 N 
HETATM   38  C2  UNL     1      17.424   3.157   2.644  1.00  0.00     0.087 A 
ATOM     39  H1  UNL     1      15.705   3.362   1.565  1.00  0.00     0.164 HD
HETATM   40  C1  UNL     1      18.647   3.730   2.912  1.00  0.00     0.018 A 
HETATM   41  C23 UNL     1      19.018   4.906   2.299  1.00  0.00     0.011 A 
ENDBRANCH  34  35
ENDBRANCH  32  34
ENDBRANCH   1  32
TORSDOF 8
ENDMDL
MODEL 5
REMARK VINA RESULT: -8.892955610      1.926      9.457
REMARK  8 active torsions:
REMARK  status: ('A' for Active; 'I' for Inactive)
REMARK    1  A    between atoms: C4_6  and  C5_7 
REMARK    2  A    between atoms: C5_7  and  N2_8 
REMARK    3  A    between atoms: N2_8  and  C6_10 
REMARK    4  A    between atoms: C13_23  and  N6_24 
REMARK    5  A    between atoms: N6_24  and  C14_26 
REMARK    6  A    between atoms: C14_26  and  C15_27 
REMARK    7  A    between atoms: C15_27  and  N7_28 
REMARK    8  A    between atoms: N7_28  and  C16_30 
ROOT
HETATM    1  C6  UNL     1      20.192   9.118   1.479  1.00  0.00     0.678 A 
HETATM    2  N3  UNL     1      19.459   7.987   1.403  1.00  0.00    -0.190 N 
ATOM      3  H3  UNL     1      18.463   7.992   1.626  1.00  0.00     0.184 HD
HETATM    4  C7  UNL     1      20.075   6.861   1.029  1.00  0.00     0.070 A 
HETATM    5  C8  UNL     1      21.412   6.781   0.718  1.00  0.00    -0.014 A 
HETATM    6  C9  UNL     1      22.157   7.954   0.800  1.00  0.00     0.115 A 
HETATM    7  N4  UNL     1      21.502   9.065   1.178  1.00  0.00    -0.201 N 
ATOM      8  H4  UNL     1      22.037   9.932   1.241  1.00  0.00     0.183 HD
HETATM    9  C10 UNL     1      22.024   5.510   0.389  1.00  0.00     0.048 C 
HETATM   10  C11 UNL     1      21.136   4.424  -0.070  1.00  0.00     0.063 C 
HETATM   11  C12 UNL     1      19.760   4.502   0.430  1.00  0.00     0.041 A 
HETATM   12  N5  UNL     1      18.954   3.375   0.373  1.00  0.00    -0.195 N 
ATOM     13  H5  UNL     1      19.350   2.496   0.037  1.00  0.00     0.184 HD
HETATM   14  C13 UNL     1      17.670   3.411   0.750  1.00  0.00     0.678 A 
HETATM   15  N9  UNL     1      17.147   4.567   1.192  1.00  0.00    -0.201 N 
ATOM     16  H9  UNL     1      16.168   4.598   1.478  1.00  0.00     0.183 HD
HETATM   17  C21 UNL     1      17.894   5.686   1.264  1.00  0.00     0.121 A 
HETATM   18  C22 UNL     1      19.225   5.669   0.881  1.00  0.00     0.031 A 
ENDROOT
BRANCH  14  19
HETATM   19  N6  UNL     1      16.978   2.319   0.671  1.00  0.00    -0.224 N 
ATOM     20  H6  UNL     1      16.554   1.948   1.521  1.00  0.00     0.177 HD
BRANCH  19  21
HETATM   21  C14 UNL     1      16.779   1.603  -0.570  1.00  0.00     0.157 C 
BRANCH  21  22
HETATM   22  C15 UNL     1      16.624   2.664  -1.654  1.00  0.00     0.140 C 
BRANCH  22  23
HETATM   23  N7  UNL     1      15.280   3.166  -1.606  1.00  0.00    -0.388 N 
ATOM     24  H7  UNL     1      14.535   2.550  -1.283  1.00  0.00     0.159 HD
BRANCH  23  25
HETATM   25  C16 UNL     1      14.987   4.358  -1.955  1.00  0.00     0.030 A 
HETATM   26  C17 UNL     1      15.884   5.379  -1.836  1.00  0.00     0.046 A 
HETATM   27  C18 UNL     1      15.467   6.654  -2.247  1.00  0.00     0.089 A 
HETATM   28  N8  UNL     1      14.244   6.883  -2.740  1.00  0.00    -0.375 N 
HETATM   29  C19 UNL     1      13.348   5.894  -2.866  1.00  0.00     0.089 A 
ATOM     30  H8  UNL     1      13.988   7.829  -3.025  1.00  0.00     0.164 HD
HETATM   31  C20 UNL     1      13.721   4.636  -2.474  1.00  0.00     0.046 A 
ENDBRANCH  23  25
ENDBRANCH  22  23
ENDBRANCH  21  22
ENDBRANCH  19  21
ENDBRANCH  14  19
BRANCH   1  32
HETATM   32  N2  UNL     1      19.628  10.245   1.843  1.00  0.00    -0.222 N 
ATOM     33  H2  UNL     1      18.814  10.248   2.458  1.00  0.00     0.178 HD
BRANCH  32  34
HETATM   34  C5  UNL     1      20.190  11.480   1.348  1.00  0.00     0.178 C 
BRANCH  34  35
HETATM   35  C4  UNL     1      20.668  12.347   2.458  1.00  0.00    -0.025 A 
HETATM   36  C3  UNL     1      21.525  11.890   3.437  1.00  0.00     0.096 A 
HETATM   37  N1  UNL     1      21.937  12.701   4.425  1.00  0.00    -0.375 N 
HETATM   38  C2  UNL     1      21.549  13.983   4.518  1.00  0.00     0.087 A 
ATOM     39  H1  UNL     1      22.570  12.329   5.132  1.00  0.00     0.164 HD
HETATM   40  C1  UNL     1      20.694  14.472   3.555  1.00  0.00     0.018 A 
HETATM   41  C23 UNL     1      20.256  13.662   2.532  1.00  0.00     0.011 A 
ENDBRANCH  34  35
ENDBRANCH  32  34
ENDBRANCH   1  32
TORSDOF 8
ENDMDL
