MODEL 1
REMARK VINA RESULT: -6.187142328      0.000      0.000
REMARK  12 active torsions:
REMARK  status: ('A' for Active; 'I' for Inactive)
REMARK    1  A    between atoms: N1_2  and  O1_3 
REMARK    2  A    between atoms: N1_2  and  C2_5 
REMARK    3  A    between atoms: C2_5  and  O2_6 
REMARK    4  A    between atoms: C2_5  and  C3_8 
REMARK    5  A    between atoms: C2_5  and  C14_43 
REMARK    6  A    between atoms: C4_11  and  C5_12 
REMARK       I    between atoms: C5_12  and  N3_14 
REMARK    7  A    between atoms: N3_14  and  C6_16 
REMARK    8  A    between atoms: N5_21  and  N6_22 
REMARK    9  A    between atoms: N6_22  and  N7_24 
REMARK   10  A    between atoms: C10_30  and  N9_31 
REMARK   11  A    between atoms: C11_36  and  N11_37 
REMARK   12  A    between atoms: C14_43  and  O4_46 
ROOT
HETATM    1  C3  UNL     1     105.595  25.335  -2.007  1.00  0.00     0.102 A 
HETATM    2  N2  UNL     1     104.517  24.424  -1.948  1.00  0.00    -0.335 N 
ATOM      3  H2  UNL     1     104.746  23.460  -2.187  1.00  0.00     0.167 HD
HETATM    4  C4  UNL     1     103.280  24.638  -1.636  1.00  0.00     0.176 A 
HETATM    5  N8  UNL     1     102.917  25.851  -1.318  1.00  0.00    -0.333 N 
ATOM      6  H8  UNL     1     101.944  26.037  -1.074  1.00  0.00     0.168 HD
HETATM    7  C9  UNL     1     103.801  26.854  -1.308  1.00  0.00     0.108 A 
HETATM    8  C10 UNL     1     103.408  28.128  -0.888  1.00  0.00     0.144 A 
HETATM    9  N10 UNL     1     104.303  29.126  -0.785  1.00  0.00    -0.175 N 
ATOM     10  H10 UNL     1     104.032  30.062  -0.482  1.00  0.00     0.186 HD
HETATM   11  C11 UNL     1     105.574  28.828  -1.101  1.00  0.00     0.679 A 
HETATM   12  N12 UNL     1     105.962  27.575  -1.517  1.00  0.00    -0.183 N 
HETATM   13  C12 UNL     1     107.340  27.271  -1.611  1.00  0.00     0.175 C 
HETATM   14  C13 UNL     1     105.109  26.557  -1.648  1.00  0.00     0.109 A 
ENDROOT
BRANCH   4  15
HETATM   15  C5  UNL     1     102.297  23.547  -1.627  1.00  0.00     0.291 C 
HETATM   16  O3  UNL     1     101.501  23.409  -2.582  1.00  0.00    -0.264 OA
HETATM   17  N3  UNL     1     102.230  22.638  -0.553  1.00  0.00    -0.303 N 
ATOM     18  H3  UNL     1     102.880  22.757   0.224  1.00  0.00     0.171 HD
BRANCH  17  19
HETATM   19  C6  UNL     1     101.318  21.581  -0.499  1.00  0.00     0.151 A 
HETATM   20  C7  UNL     1     101.490  20.224  -0.602  1.00  0.00     0.071 A 
HETATM   21  C8  UNL     1     100.255  19.572  -0.473  1.00  0.00     0.113 A 
HETATM   22  N4  UNL     1      99.388  20.571  -0.298  1.00  0.00    -0.288 N 
HETATM   23  N5  UNL     1      99.973  21.731  -0.308  1.00  0.00    -0.166 N 
ATOM     24  H4  UNL     1      98.385  20.439  -0.171  1.00  0.00     0.188 HD
BRANCH  23  25
HETATM   25  N6  UNL     1      99.312  22.952  -0.152  1.00  0.00    -0.226 N 
ATOM     26  H6  UNL     1      99.251  23.355   0.783  1.00  0.00     0.210 HD
BRANCH  25  27
HETATM   27  N7  UNL     1      98.734  23.644  -1.209  1.00  0.00    -0.329 N 
ATOM     28  H72 UNL     1      98.643  23.153  -2.098  1.00  0.00     0.178 HD
ATOM     29  H71 UNL     1      98.403  24.606  -1.132  1.00  0.00     0.178 HD
ENDBRANCH  25  27
ENDBRANCH  23  25
ENDBRANCH  17  19
ENDBRANCH   4  15
BRANCH   1  30
HETATM   30  C2  UNL     1     106.779  24.995  -2.673  1.00  0.00     0.232 C 
BRANCH  30  31
HETATM   31  N1  UNL     1     107.008  23.817  -1.832  1.00  0.00    -0.237 N 
HETATM   32  C1  UNL     1     106.517  22.627  -1.713  1.00  0.00     0.153 C 
BRANCH  31  33
HETATM   33  O1  UNL     1     107.618  24.211  -0.657  1.00  0.00    -0.285 OA
ATOM     34  H1  UNL     1     107.897  25.118  -0.712  1.00  0.00     0.245 HD
ENDBRANCH  31  33
ENDBRANCH  30  31
BRANCH  30  35
HETATM   35  O2  UNL     1     105.863  24.552  -3.804  1.00  0.00    -0.361 OA
ATOM     36  H2  UNL     1     105.202  25.227  -3.899  1.00  0.00     0.213 HD
ENDBRANCH  30  35
BRANCH  30  37
HETATM   37  C14 UNL     1     107.734  24.570  -3.607  1.00  0.00     0.109 C 
HETATM   38  C15 UNL     1     107.138  23.636  -4.718  1.00  0.00     0.051 C 
HETATM   39  C16 UNL     1     108.525  25.491  -4.533  1.00  0.00     0.051 C 
BRANCH  37  40
HETATM   40  O4  UNL     1     108.858  23.781  -3.186  1.00  0.00    -0.385 OA
ATOM     41  H4  UNL     1     109.381  23.312  -3.827  1.00  0.00     0.210 HD
ENDBRANCH  37  40
ENDBRANCH  30  37
ENDBRANCH   1  30
BRANCH   8  42
HETATM   42  N9  UNL     1     102.162  28.301  -0.606  1.00  0.00    -0.383 N 
ATOM     43  H92 UNL     1     101.515  27.516  -0.530  1.00  0.00     0.157 HD
ATOM     44  H91 UNL     1     101.842  29.258  -0.461  1.00  0.00     0.157 HD
ENDBRANCH   8  42
BRANCH  11  45
HETATM   45  N11 UNL     1     106.488  29.741  -1.019  1.00  0.00    -0.234 N 
ATOM     46 2H11 UNL     1     107.101  29.724  -0.203  1.00  0.00     0.174 HD
ATOM     47 1H11 UNL     1     106.570  30.442  -1.756  1.00  0.00     0.174 HD
ENDBRANCH  11  45
TORSDOF 12
ENDMDL
MODEL 2
REMARK VINA RESULT: -6.151039524      2.371      6.937
REMARK  12 active torsions:
REMARK  status: ('A' for Active; 'I' for Inactive)
REMARK    1  A    between atoms: N1_2  and  O1_3 
REMARK    2  A    between atoms: N1_2  and  C2_5 
REMARK    3  A    between atoms: C2_5  and  O2_6 
REMARK    4  A    between atoms: C2_5  and  C3_8 
REMARK    5  A    between atoms: C2_5  and  C14_43 
REMARK    6  A    between atoms: C4_11  and  C5_12 
REMARK       I    between atoms: C5_12  and  N3_14 
REMARK    7  A    between atoms: N3_14  and  C6_16 
REMARK    8  A    between atoms: N5_21  and  N6_22 
REMARK    9  A    between atoms: N6_22  and  N7_24 
REMARK   10  A    between atoms: C10_30  and  N9_31 
REMARK   11  A    between atoms: C11_36  and  N11_37 
REMARK   12  A    between atoms: C14_43  and  O4_46 
ROOT
HETATM    1  C3  UNL     1     103.495  21.100  -0.942  1.00  0.00     0.102 A 
HETATM    2  N2  UNL     1     103.725  22.456  -1.262  1.00  0.00    -0.335 N 
ATOM      3  H2  UNL     1     104.688  22.691  -1.502  1.00  0.00     0.167 HD
HETATM    4  C4  UNL     1     102.890  23.444  -1.294  1.00  0.00     0.176 A 
HETATM    5  N8  UNL     1     101.639  23.213  -0.997  1.00  0.00    -0.333 N 
ATOM      6  H8  UNL     1     100.969  23.982  -1.013  1.00  0.00     0.168 HD
HETATM    7  C9  UNL     1     101.223  21.984  -0.674  1.00  0.00     0.108 A 
HETATM    8  C10 UNL     1      99.866  21.746  -0.439  1.00  0.00     0.144 A 
HETATM    9  N10 UNL     1      99.417  20.500  -0.202  1.00  0.00    -0.175 N 
ATOM     10  H10 UNL     1      98.430  20.310  -0.026  1.00  0.00     0.186 HD
HETATM   11  C11 UNL     1     100.335  19.520  -0.208  1.00  0.00     0.679 A 
HETATM   12  N12 UNL     1     101.671  19.753  -0.437  1.00  0.00    -0.183 N 
HETATM   13  C12 UNL     1     102.540  18.659  -0.656  1.00  0.00     0.175 C 
HETATM   14  C13 UNL     1     102.167  20.972  -0.664  1.00  0.00     0.109 A 
ENDROOT
BRANCH   4  15
HETATM   15  C5  UNL     1     103.325  24.797  -1.660  1.00  0.00     0.291 C 
HETATM   16  O3  UNL     1     102.610  25.509  -2.399  1.00  0.00    -0.264 OA
HETATM   17  N3  UNL     1     104.546  25.320  -1.192  1.00  0.00    -0.303 N 
ATOM     18  H3  UNL     1     105.126  24.733  -0.592  1.00  0.00     0.171 HD
BRANCH  17  19
HETATM   19  C6  UNL     1     105.002  26.603  -1.507  1.00  0.00     0.151 A 
HETATM   20  C7  UNL     1     106.012  27.032  -2.329  1.00  0.00     0.071 A 
HETATM   21  C8  UNL     1     106.074  28.434  -2.321  1.00  0.00     0.113 A 
HETATM   22  N4  UNL     1     105.094  28.788  -1.488  1.00  0.00    -0.288 N 
HETATM   23  N5  UNL     1     104.466  27.756  -1.010  1.00  0.00    -0.166 N 
ATOM     24  H4  UNL     1     104.865  29.753  -1.255  1.00  0.00     0.188 HD
BRANCH  23  25
HETATM   25  N6  UNL     1     103.398  27.827  -0.111  1.00  0.00    -0.226 N 
ATOM     26  H6  UNL     1     103.599  27.774   0.887  1.00  0.00     0.210 HD
BRANCH  25  27
HETATM   27  N7  UNL     1     102.075  27.966  -0.511  1.00  0.00    -0.329 N 
ATOM     28  H72 UNL     1     101.901  28.425  -1.405  1.00  0.00     0.178 HD
ATOM     29  H71 UNL     1     101.286  27.633   0.043  1.00  0.00     0.178 HD
ENDBRANCH  25  27
ENDBRANCH  23  25
ENDBRANCH  17  19
ENDBRANCH   4  15
BRANCH   1  30
HETATM   30  C2  UNL     1     104.564  20.246  -0.644  1.00  0.00     0.232 C 
BRANCH  30  31
HETATM   31  N1  UNL     1     105.322  20.652  -1.831  1.00  0.00    -0.237 N 
HETATM   32  C1  UNL     1     106.152  21.592  -2.152  1.00  0.00     0.153 C 
BRANCH  31  33
HETATM   33  O1  UNL     1     104.707  20.142  -2.957  1.00  0.00    -0.285 OA
ATOM     34  H1  UNL     1     104.400  19.256  -2.798  1.00  0.00     0.245 HD
ENDBRANCH  31  33
ENDBRANCH  30  31
BRANCH  30  35
HETATM   35  O2  UNL     1     104.894  21.253   0.448  1.00  0.00    -0.361 OA
ATOM     36  H2  UNL     1     105.341  20.772   1.135  1.00  0.00     0.213 HD
ENDBRANCH  30  35
BRANCH  30  37
HETATM   37  C14 UNL     1     105.691  19.632  -0.080  1.00  0.00     0.109 C 
HETATM   38  C15 UNL     1     106.190  18.387  -0.896  1.00  0.00     0.051 C 
HETATM   39  C16 UNL     1     107.051  20.298   0.107  1.00  0.00     0.051 C 
BRANCH  37  40
HETATM   40  O4  UNL     1     105.622  19.062   1.237  1.00  0.00    -0.385 OA
ATOM     41  H4  UNL     1     105.861  19.581   1.997  1.00  0.00     0.210 HD
ENDBRANCH  37  40
ENDBRANCH  30  37
ENDBRANCH   1  30
BRANCH   8  42
HETATM   42  N9  UNL     1      99.073  22.761  -0.460  1.00  0.00    -0.383 N 
ATOM     43  H92 UNL     1      99.408  23.699  -0.680  1.00  0.00     0.157 HD
ATOM     44  H91 UNL     1      98.090  22.594  -0.248  1.00  0.00     0.157 HD
ENDBRANCH   8  42
BRANCH  11  45
HETATM   45  N11 UNL     1      99.969  18.296   0.008  1.00  0.00    -0.234 N 
ATOM     46 2H11 UNL     1      99.415  18.110   0.845  1.00  0.00     0.174 HD
ATOM     47 1H11 UNL     1     100.238  17.564  -0.649  1.00  0.00     0.174 HD
ENDBRANCH  11  45
TORSDOF 12
ENDMDL
MODEL 3
REMARK VINA RESULT: -6.147037102      3.518      8.136
REMARK  12 active torsions:
REMARK  status: ('A' for Active; 'I' for Inactive)
REMARK    1  A    between atoms: N1_2  and  O1_3 
REMARK    2  A    between atoms: N1_2  and  C2_5 
REMARK    3  A    between atoms: C2_5  and  O2_6 
REMARK    4  A    between atoms: C2_5  and  C3_8 
REMARK    5  A    between atoms: C2_5  and  C14_43 
REMARK    6  A    between atoms: C4_11  and  C5_12 
REMARK       I    between atoms: C5_12  and  N3_14 
REMARK    7  A    between atoms: N3_14  and  C6_16 
REMARK    8  A    between atoms: N5_21  and  N6_22 
REMARK    9  A    between atoms: N6_22  and  N7_24 
REMARK   10  A    between atoms: C10_30  and  N9_31 
REMARK   11  A    between atoms: C11_36  and  N11_37 
REMARK   12  A    between atoms: C14_43  and  O4_46 
ROOT
HETATM    1  C3  UNL     1     104.251  27.089  -1.628  1.00  0.00     0.102 A 
HETATM    2  N2  UNL     1     104.154  28.486  -1.818  1.00  0.00    -0.335 N 
ATOM      3  H2  UNL     1     103.267  28.904  -1.540  1.00  0.00     0.167 HD
HETATM    4  C4  UNL     1     105.030  29.311  -2.293  1.00  0.00     0.176 A 
HETATM    5  N8  UNL     1     106.190  28.842  -2.668  1.00  0.00    -0.333 N 
ATOM      6  H8  UNL     1     106.889  29.479  -3.050  1.00  0.00     0.168 HD
HETATM    7  C9  UNL     1     106.475  27.540  -2.559  1.00  0.00     0.108 A 
HETATM    8  C10 UNL     1     107.750  27.074  -2.891  1.00  0.00     0.144 A 
HETATM    9  N10 UNL     1     108.083  25.784  -2.702  1.00  0.00    -0.175 N 
ATOM     10  H10 UNL     1     109.008  25.428  -2.942  1.00  0.00     0.186 HD
HETATM   11  C11 UNL     1     107.133  24.990  -2.181  1.00  0.00     0.679 A 
HETATM   12  N12 UNL     1     105.877  25.447  -1.856  1.00  0.00    -0.183 N 
HETATM   13  C12 UNL     1     105.010  24.619  -1.105  1.00  0.00     0.175 C 
HETATM   14  C13 UNL     1     105.496  26.713  -2.037  1.00  0.00     0.109 A 
ENDROOT
BRANCH   4  15
HETATM   15  C5  UNL     1     104.741  30.746  -2.408  1.00  0.00     0.291 C 
HETATM   16  O3  UNL     1     105.219  31.410  -3.353  1.00  0.00    -0.264 OA
HETATM   17  N3  UNL     1     103.926  31.400  -1.463  1.00  0.00    -0.303 N 
ATOM     18  H3  UNL     1     103.542  30.853  -0.693  1.00  0.00     0.171 HD
BRANCH  17  19
HETATM   19  C6  UNL     1     103.617  32.762  -1.530  1.00  0.00     0.151 A 
HETATM   20  C7  UNL     1     102.422  33.416  -1.682  1.00  0.00     0.071 A 
HETATM   21  C8  UNL     1     102.631  34.803  -1.680  1.00  0.00     0.113 A 
HETATM   22  N4  UNL     1     103.951  34.923  -1.527  1.00  0.00    -0.288 N 
HETATM   23  N5  UNL     1     104.537  33.767  -1.438  1.00  0.00    -0.166 N 
ATOM     24  H4  UNL     1     104.441  35.816  -1.485  1.00  0.00     0.188 HD
BRANCH  23  25
HETATM   25  N6  UNL     1     105.914  33.588  -1.278  1.00  0.00    -0.226 N 
ATOM     26  H6  UNL     1     106.263  33.302  -0.363  1.00  0.00     0.210 HD
BRANCH  25  27
HETATM   27  N7  UNL     1     106.831  33.781  -2.304  1.00  0.00    -0.329 N 
ATOM     28  H72 UNL     1     107.518  34.525  -2.185  1.00  0.00     0.178 HD
ATOM     29  H71 UNL     1     106.843  33.218  -3.155  1.00  0.00     0.178 HD
ENDBRANCH  25  27
ENDBRANCH  23  25
ENDBRANCH  17  19
ENDBRANCH   4  15
BRANCH   1  30
HETATM   30  C2  UNL     1     103.103  26.319  -1.409  1.00  0.00     0.232 C 
BRANCH  30  31
HETATM   31  N1  UNL     1     102.784  27.005  -0.154  1.00  0.00    -0.237 N 
HETATM   32  C1  UNL     1     102.886  26.762   1.112  1.00  0.00     0.153 C 
BRANCH  31  33
HETATM   33  O1  UNL     1     101.804  27.949  -0.391  1.00  0.00    -0.285 OA
ATOM     34  H1  UNL     1     101.998  28.441  -1.181  1.00  0.00     0.245 HD
ENDBRANCH  31  33
ENDBRANCH  30  31
BRANCH  30  35
HETATM   35  O2  UNL     1     102.490  27.150  -2.527  1.00  0.00    -0.361 OA
ATOM     36  H2  UNL     1     101.882  26.582  -2.987  1.00  0.00     0.213 HD
ENDBRANCH  30  35
BRANCH  30  37
HETATM   37  C14 UNL     1     101.826  25.742  -1.470  1.00  0.00     0.109 C 
HETATM   38  C15 UNL     1     101.499  25.112  -2.870  1.00  0.00     0.051 C 
HETATM   39  C16 UNL     1     101.353  24.569  -0.616  1.00  0.00     0.051 C 
BRANCH  37  40
HETATM   40  O4  UNL     1     100.655  26.550  -1.274  1.00  0.00    -0.385 OA
ATOM     41  H4  UNL     1      99.929  26.224  -0.756  1.00  0.00     0.210 HD
ENDBRANCH  37  40
ENDBRANCH  30  37
ENDBRANCH   1  30
BRANCH   8  42
HETATM   42  N9  UNL     1     108.584  27.926  -3.381  1.00  0.00    -0.383 N 
ATOM     43  H92 UNL     1     108.557  28.200  -4.363  1.00  0.00     0.157 HD
ATOM     44  H91 UNL     1     109.278  28.321  -2.747  1.00  0.00     0.157 HD
ENDBRANCH   8  42
BRANCH  11  45
HETATM   45  N11 UNL     1     107.389  23.738  -1.969  1.00  0.00    -0.234 N 
ATOM     46 2H11 UNL     1     107.223  23.375  -1.030  1.00  0.00     0.174 HD
ATOM     47 1H11 UNL     1     107.743  23.158  -2.730  1.00  0.00     0.174 HD
ENDBRANCH  11  45
TORSDOF 12
ENDMDL
MODEL 4
REMARK VINA RESULT: -6.132490873      4.039      8.329
REMARK  12 active torsions:
REMARK  status: ('A' for Active; 'I' for Inactive)
REMARK    1  A    between atoms: N1_2  and  O1_3 
REMARK    2  A    between atoms: N1_2  and  C2_5 
REMARK    3  A    between atoms: C2_5  and  O2_6 
REMARK    4  A    between atoms: C2_5  and  C3_8 
REMARK    5  A    between atoms: C2_5  and  C14_43 
REMARK    6  A    between atoms: C4_11  and  C5_12 
REMARK       I    between atoms: C5_12  and  N3_14 
REMARK    7  A    between atoms: N3_14  and  C6_16 
REMARK    8  A    between atoms: N5_21  and  N6_22 
REMARK    9  A    between atoms: N6_22  and  N7_24 
REMARK   10  A    between atoms: C10_30  and  N9_31 
REMARK   11  A    between atoms: C11_36  and  N11_37 
REMARK   12  A    between atoms: C14_43  and  O4_46 
ROOT
HETATM    1  C3  UNL     1     105.171  28.371  -0.213  1.00  0.00     0.102 A 
HETATM    2  N2  UNL     1     104.909  29.600  -0.859  1.00  0.00    -0.335 N 
ATOM      3  H2  UNL     1     104.083  29.612  -1.456  1.00  0.00     0.167 HD
HETATM    4  C4  UNL     1     105.569  30.711  -0.802  1.00  0.00     0.176 A 
HETATM    5  N8  UNL     1     106.638  30.765  -0.054  1.00  0.00    -0.333 N 
ATOM      6  H8  UNL     1     107.171  31.633  -0.003  1.00  0.00     0.168 HD
HETATM    7  C9  UNL     1     107.044  29.700   0.645  1.00  0.00     0.108 A 
HETATM    8  C10 UNL     1     108.145  29.805   1.500  1.00  0.00     0.144 A 
HETATM    9  N10 UNL     1     108.513  28.772   2.278  1.00  0.00    -0.175 N 
ATOM     10  H10 UNL     1     109.315  28.831   2.906  1.00  0.00     0.186 HD
HETATM   11  C11 UNL     1     107.769  27.657   2.187  1.00  0.00     0.679 A 
HETATM   12  N12 UNL     1     106.687  27.552   1.344  1.00  0.00    -0.183 N 
HETATM   13  C12 UNL     1     105.818  26.443   1.465  1.00  0.00     0.175 C 
HETATM   14  C13 UNL     1     106.291  28.544   0.543  1.00  0.00     0.109 A 
ENDROOT
BRANCH   4  15
HETATM   15  C5  UNL     1     105.130  31.896  -1.551  1.00  0.00     0.291 C 
HETATM   16  O3  UNL     1     105.135  31.887  -2.802  1.00  0.00    -0.264 OA
HETATM   17  N3  UNL     1     104.698  33.059  -0.884  1.00  0.00    -0.303 N 
ATOM     18  H3  UNL     1     104.701  33.061   0.136  1.00  0.00     0.171 HD
BRANCH  17  19
HETATM   19  C6  UNL     1     104.267  34.209  -1.549  1.00  0.00     0.151 A 
HETATM   20  C7  UNL     1     104.956  35.289  -2.040  1.00  0.00     0.071 A 
HETATM   21  C8  UNL     1     104.067  36.192  -2.641  1.00  0.00     0.113 A 
HETATM   22  N4  UNL     1     102.875  35.614  -2.483  1.00  0.00    -0.288 N 
HETATM   23  N5  UNL     1     102.964  34.477  -1.861  1.00  0.00    -0.166 N 
ATOM     24  H4  UNL     1     101.998  36.017  -2.812  1.00  0.00     0.188 HD
BRANCH  23  25
HETATM   25  N6  UNL     1     101.876  33.655  -1.555  1.00  0.00    -0.226 N 
ATOM     26  H6  UNL     1     101.947  33.037  -0.747  1.00  0.00     0.210 HD
BRANCH  25  27
HETATM   27  N7  UNL     1     100.702  33.639  -2.298  1.00  0.00    -0.329 N 
ATOM     28  H72 UNL     1     100.461  34.487  -2.811  1.00  0.00     0.178 HD
ATOM     29  H71 UNL     1     100.085  32.829  -2.350  1.00  0.00     0.178 HD
ENDBRANCH  25  27
ENDBRANCH  23  25
ENDBRANCH  17  19
ENDBRANCH   4  15
BRANCH   1  30
HETATM   30  C2  UNL     1     104.545  27.193  -0.641  1.00  0.00     0.232 C 
BRANCH  30  31
HETATM   31  N1  UNL     1     103.258  27.861  -0.857  1.00  0.00    -0.237 N 
HETATM   32  C1  UNL     1     102.088  27.868  -0.305  1.00  0.00     0.153 C 
BRANCH  31  33
HETATM   33  O1  UNL     1     103.177  28.272  -2.173  1.00  0.00    -0.285 OA
ATOM     34  H1  UNL     1     103.786  27.783  -2.714  1.00  0.00     0.245 HD
ENDBRANCH  31  33
ENDBRANCH  30  31
BRANCH  30  35
HETATM   35  O2  UNL     1     105.352  27.383  -1.917  1.00  0.00    -0.361 OA
ATOM     36  H2  UNL     1     106.000  26.687  -1.935  1.00  0.00     0.213 HD
ENDBRANCH  30  35
BRANCH  30  37
HETATM   37  C14 UNL     1     104.131  26.064  -1.361  1.00  0.00     0.109 C 
HETATM   38  C15 UNL     1     105.280  25.418  -2.212  1.00  0.00     0.051 C 
HETATM   39  C16 UNL     1     103.602  24.774  -0.740  1.00  0.00     0.051 C 
BRANCH  37  40
HETATM   40  O4  UNL     1     103.106  26.178  -2.362  1.00  0.00    -0.385 OA
ATOM     41  H4  UNL     1     103.339  26.235  -3.281  1.00  0.00     0.210 HD
ENDBRANCH  37  40
ENDBRANCH  30  37
ENDBRANCH   1  30
BRANCH   8  42
HETATM   42  N9  UNL     1     108.784  30.924   1.509  1.00  0.00    -0.383 N 
ATOM     43  H92 UNL     1     108.859  31.507   0.675  1.00  0.00     0.157 HD
ATOM     44  H91 UNL     1     109.217  31.210   2.387  1.00  0.00     0.157 HD
ENDBRANCH   8  42
BRANCH  11  45
HETATM   45  N11 UNL     1     108.065  26.626   2.913  1.00  0.00    -0.234 N 
ATOM     46 2H11 UNL     1     107.967  26.717   3.925  1.00  0.00     0.174 HD
ATOM     47 1H11 UNL     1     108.383  25.766   2.465  1.00  0.00     0.174 HD
ENDBRANCH  11  45
TORSDOF 12
ENDMDL
MODEL 5
REMARK VINA RESULT: -6.097046247      3.915      8.479
REMARK  12 active torsions:
REMARK  status: ('A' for Active; 'I' for Inactive)
REMARK    1  A    between atoms: N1_2  and  O1_3 
REMARK    2  A    between atoms: N1_2  and  C2_5 
REMARK    3  A    between atoms: C2_5  and  O2_6 
REMARK    4  A    between atoms: C2_5  and  C3_8 
REMARK    5  A    between atoms: C2_5  and  C14_43 
REMARK    6  A    between atoms: C4_11  and  C5_12 
REMARK       I    between atoms: C5_12  and  N3_14 
REMARK    7  A    between atoms: N3_14  and  C6_16 
REMARK    8  A    between atoms: N5_21  and  N6_22 
REMARK    9  A    between atoms: N6_22  and  N7_24 
REMARK   10  A    between atoms: C10_30  and  N9_31 
REMARK   11  A    between atoms: C11_36  and  N11_37 
REMARK   12  A    between atoms: C14_43  and  O4_46 
ROOT
HETATM    1  C3  UNL     1     105.026  28.050  -0.070  1.00  0.00     0.102 A 
HETATM    2  N2  UNL     1     104.710  29.260  -0.728  1.00  0.00    -0.335 N 
ATOM      3  H2  UNL     1     103.859  29.242  -1.289  1.00  0.00     0.167 HD
HETATM    4  C4  UNL     1     105.345  30.386  -0.721  1.00  0.00     0.176 A 
HETATM    5  N8  UNL     1     106.444  30.479  -0.021  1.00  0.00    -0.333 N 
ATOM      6  H8  UNL     1     106.959  31.359  -0.009  1.00  0.00     0.168 HD
HETATM    7  C9  UNL     1     106.904  29.437   0.680  1.00  0.00     0.108 A 
HETATM    8  C10 UNL     1     108.037  29.584   1.485  1.00  0.00     0.144 A 
HETATM    9  N10 UNL     1     108.461  28.575   2.266  1.00  0.00    -0.175 N 
ATOM     10  H10 UNL     1     109.288  28.664   2.857  1.00  0.00     0.186 HD
HETATM   11  C11 UNL     1     107.740  27.442   2.228  1.00  0.00     0.679 A 
HETATM   12  N12 UNL     1     106.626  27.296   1.435  1.00  0.00    -0.183 N 
HETATM   13  C12 UNL     1     105.788  26.171   1.614  1.00  0.00     0.175 C 
HETATM   14  C13 UNL     1     106.174  28.263   0.633  1.00  0.00     0.109 A 
ENDROOT
BRANCH   4  15
HETATM   15  C5  UNL     1     104.848  31.546  -1.473  1.00  0.00     0.291 C 
HETATM   16  O3  UNL     1     104.348  31.392  -2.609  1.00  0.00    -0.264 OA
HETATM   17  N3  UNL     1     104.922  32.846  -0.936  1.00  0.00    -0.303 N 
ATOM     18  H3  UNL     1     105.334  32.965  -0.011  1.00  0.00     0.171 HD
BRANCH  17  19
HETATM   19  C6  UNL     1     104.459  33.980  -1.608  1.00  0.00     0.151 A 
HETATM   20  C7  UNL     1     103.295  34.695  -1.491  1.00  0.00     0.071 A 
HETATM   21  C8  UNL     1     103.300  35.771  -2.390  1.00  0.00     0.113 A 
HETATM   22  N4  UNL     1     104.474  35.656  -3.013  1.00  0.00    -0.288 N 
HETATM   23  N5  UNL     1     105.156  34.639  -2.581  1.00  0.00    -0.166 N 
ATOM     24  H4  UNL     1     104.798  36.292  -3.741  1.00  0.00     0.188 HD
BRANCH  23  25
HETATM   25  N6  UNL     1     106.419  34.274  -3.056  1.00  0.00    -0.226 N 
ATOM     26  H6  UNL     1     107.236  34.754  -2.679  1.00  0.00     0.210 HD
BRANCH  25  27
HETATM   27  N7  UNL     1     106.616  33.289  -4.016  1.00  0.00    -0.329 N 
ATOM     28  H72 UNL     1     106.796  33.595  -4.972  1.00  0.00     0.178 HD
ATOM     29  H71 UNL     1     106.587  32.291  -3.806  1.00  0.00     0.178 HD
ENDBRANCH  25  27
ENDBRANCH  23  25
ENDBRANCH  17  19
ENDBRANCH   4  15
BRANCH   1  30
HETATM   30  C2  UNL     1     104.410  26.851  -0.449  1.00  0.00     0.232 C 
BRANCH  30  31
HETATM   31  N1  UNL     1     103.066  27.357  -0.158  1.00  0.00    -0.237 N 
HETATM   32  C1  UNL     1     102.151  28.031  -0.776  1.00  0.00     0.153 C 
BRANCH  31  33
HETATM   33  O1  UNL     1     102.910  27.468   1.210  1.00  0.00    -0.285 OA
ATOM     34  H1  UNL     1     103.688  27.844   1.606  1.00  0.00     0.245 HD
ENDBRANCH  31  33
ENDBRANCH  30  31
BRANCH  30  35
HETATM   35  O2  UNL     1     104.738  27.282  -1.871  1.00  0.00    -0.361 OA
ATOM     36  H2  UNL     1     105.210  28.104  -1.804  1.00  0.00     0.213 HD
ENDBRANCH  30  35
BRANCH  30  37
HETATM   37  C14 UNL     1     103.894  25.758  -1.159  1.00  0.00     0.109 C 
HETATM   38  C15 UNL     1     105.003  24.901  -1.865  1.00  0.00     0.051 C 
HETATM   39  C16 UNL     1     103.117  24.599  -0.542  1.00  0.00     0.051 C 
BRANCH  37  40
HETATM   40  O4  UNL     1     102.995  25.969  -2.261  1.00  0.00    -0.385 OA
ATOM     41  H4  UNL     1     102.546  25.234  -2.660  1.00  0.00     0.210 HD
ENDBRANCH  37  40
ENDBRANCH  30  37
ENDBRANCH   1  30
BRANCH   8  42
HETATM   42  N9  UNL     1     108.650  30.716   1.445  1.00  0.00    -0.383 N 
ATOM     43  H92 UNL     1     108.797  31.278   2.284  1.00  0.00     0.157 HD
ATOM     44  H91 UNL     1     108.988  31.036   0.537  1.00  0.00     0.157 HD
ENDBRANCH   8  42
BRANCH  11  45
HETATM   45  N11 UNL     1     108.091  26.433   2.960  1.00  0.00    -0.234 N 
ATOM     46 2H11 UNL     1     109.087  26.300   3.135  1.00  0.00     0.174 HD
ATOM     47 1H11 UNL     1     107.377  25.809   3.337  1.00  0.00     0.174 HD
ENDBRANCH  11  45
TORSDOF 12
ENDMDL
