MODEL 1
REMARK VINA RESULT: -9.000756046      0.000      0.000
REMARK  17 active torsions:
REMARK  status: ('A' for Active; 'I' for Inactive)
REMARK    1  A    between atoms: C2_2  and  C3_3 
REMARK    2  A    between atoms: C3_3  and  N1_4 
REMARK    3  A    between atoms: C3_3  and  C11_15 
REMARK       I    between atoms: N1_4  and  C4_6 
REMARK    4  A    between atoms: C4_6  and  C5_8 
REMARK       I    between atoms: C11_15  and  N2_17 
REMARK    5  A    between atoms: N2_17  and  C12_19 
REMARK    6  A    between atoms: C12_19  and  C13_20 
REMARK    7  A    between atoms: C12_19  and  C29_46 
REMARK       I    between atoms: C13_20  and  N3_22 
REMARK    8  A    between atoms: N3_22  and  C14_24 
REMARK    9  A    between atoms: C14_24  and  C15_25 
REMARK   10  A    between atoms: C14_24  and  C19_29 
REMARK   11  A    between atoms: C15_25  and  C16_26 
REMARK   12  A    between atoms: C19_29  and  O5_30 
REMARK   13  A    between atoms: C19_29  and  N4_32 
REMARK   14  A    between atoms: N4_32  and  C20_34 
REMARK   15  A    between atoms: C20_34  and  C21_35 
REMARK   16  A    between atoms: C20_34  and  C26_41 
REMARK   17  A    between atoms: C21_35  and  C22_37 
REMARK       I    between atoms: C26_41  and  N5_43 
ROOT
HETATM    1  C13 UNL     1      18.231 -15.027  21.661  1.00  0.00     0.241 C 
HETATM    2  O4  UNL     1      17.314 -15.909  21.525  1.00  0.00    -0.271 OA
HETATM    3  N3  UNL     1      19.136 -15.242  22.677  1.00  0.00    -0.347 N 
ATOM      4  H3  UNL     1      19.896 -14.577  22.822  1.00  0.00     0.163 HD
ENDROOT
BRANCH   1   5
HETATM    5  C12 UNL     1      18.193 -13.911  20.715  1.00  0.00     0.184 C 
BRANCH   5   6
HETATM    6  N2  UNL     1      16.874 -13.831  20.115  1.00  0.00    -0.345 N 
HETATM    7  C11 UNL     1      16.139 -12.626  20.031  1.00  0.00     0.241 C 
HETATM    8  O3  UNL     1      16.644 -11.578  20.504  1.00  0.00    -0.271 OA
ATOM      9  H2  UNL     1      16.458 -14.682  19.738  1.00  0.00     0.163 HD
BRANCH   7  10
HETATM   10  C3  UNL     1      14.811 -12.564  19.402  1.00  0.00     0.176 C 
BRANCH  10  11
HETATM   11  C2  UNL     1      14.522 -13.844  18.663  1.00  0.00     0.030 C 
HETATM   12  C1  UNL     1      14.890 -13.720  17.222  1.00  0.00     0.007 C 
ENDBRANCH  10  11
BRANCH  10  13
HETATM   13  N1  UNL     1      13.836 -12.421  20.505  1.00  0.00    -0.347 N 
HETATM   14  C4  UNL     1      13.012 -11.270  20.532  1.00  0.00     0.225 C 
HETATM   15  O1  UNL     1      13.130 -10.391  19.605  1.00  0.00    -0.273 OA
ATOM     16  H1  UNL     1      13.760 -13.135  21.229  1.00  0.00     0.163 HD
BRANCH  14  17
HETATM   17  C5  UNL     1      12.008 -11.011  21.576  1.00  0.00     0.109 C 
HETATM   18  C6  UNL     1      11.408 -12.322  22.036  1.00  0.00     0.048 C 
HETATM   19  C7  UNL     1      11.740 -12.299  23.512  1.00  0.00     0.122 C 
HETATM   20  C8  UNL     1      10.978 -11.229  24.219  1.00  0.00     0.034 C 
HETATM   21  O2  UNL     1      13.038 -11.732  23.450  1.00  0.00    -0.380 OA
HETATM   22  C9  UNL     1      11.696  -9.959  23.775  1.00  0.00     0.035 C 
HETATM   23  C10 UNL     1      12.720 -10.525  22.815  1.00  0.00     0.135 C 
ENDBRANCH  14  17
ENDBRANCH  10  13
ENDBRANCH   7  10
ENDBRANCH   5   6
BRANCH   5  24
HETATM   24  C29 UNL     1      19.161 -13.938  19.584  1.00  0.00    -0.022 C 
HETATM   25  C30 UNL     1      18.667 -13.555  18.242  1.00  0.00     0.017 C 
HETATM   26  C31 UNL     1      19.741 -15.334  19.490  1.00  0.00     0.017 C 
HETATM   27  C32 UNL     1      20.342 -13.006  19.905  1.00  0.00     0.017 C 
ENDBRANCH   5  24
ENDBRANCH   1   5
BRANCH   3  28
HETATM   28  C14 UNL     1      19.021 -16.426  23.563  1.00  0.00     0.159 C 
BRANCH  28  29
HETATM   29  C15 UNL     1      18.495 -15.966  24.844  1.00  0.00     0.037 C 
BRANCH  29  30
HETATM   30  C16 UNL     1      17.572 -16.790  25.635  1.00  0.00    -0.020 C 
HETATM   31  C17 UNL     1      16.742 -17.612  24.610  1.00  0.00     0.009 C 
HETATM   32  C18 UNL     1      18.294 -17.770  26.559  1.00  0.00     0.009 C 
ENDBRANCH  29  30
ENDBRANCH  28  29
BRANCH  28  33
HETATM   33  C19 UNL     1      20.202 -17.253  23.448  1.00  0.00     0.135 C 
BRANCH  33  34
HETATM   34  O5  UNL     1      19.913 -18.527  23.382  1.00  0.00    -0.348 OA
ATOM     35  H5  UNL     1      19.546 -18.772  22.540  1.00  0.00     0.219 HD
ENDBRANCH  33  34
BRANCH  33  36
HETATM   36  N4  UNL     1      21.567 -16.983  23.393  1.00  0.00    -0.353 N 
ATOM     37  H4  UNL     1      22.090 -17.106  22.525  1.00  0.00     0.162 HD
BRANCH  36  38
HETATM   38  C20 UNL     1      22.253 -16.504  24.648  1.00  0.00     0.246 C 
BRANCH  38  39
HETATM   39  C21 UNL     1      22.191 -15.029  24.572  1.00  0.00     0.162 C 
HETATM   40  O6  UNL     1      22.009 -14.460  23.519  1.00  0.00    -0.295 OA
BRANCH  39  41
HETATM   41  C22 UNL     1      22.345 -14.194  25.780  1.00  0.00     0.058 C 
HETATM   42  C23 UNL     1      21.224 -13.170  25.964  1.00  0.00     0.012 C 
HETATM   43  C24 UNL     1      20.509 -14.262  26.773  1.00  0.00     0.002 C 
HETATM   44  C25 UNL     1      21.868 -14.909  27.054  1.00  0.00     0.012 C 
ENDBRANCH  39  41
ENDBRANCH  38  39
BRANCH  38  45
HETATM   45  C26 UNL     1      23.632 -17.000  24.649  1.00  0.00     0.249 C 
HETATM   46  O7  UNL     1      24.348 -16.716  23.627  1.00  0.00    -0.271 OA
HETATM   47  N5  UNL     1      24.211 -17.749  25.674  1.00  0.00    -0.359 N 
HETATM   48  C27 UNL     1      25.615 -18.167  25.632  1.00  0.00     0.152 C 
HETATM   49  C28 UNL     1      23.454 -18.169  26.822  1.00  0.00     0.152 C 
ENDBRANCH  38  45
ENDBRANCH  36  38
ENDBRANCH  33  36
ENDBRANCH  28  33
ENDBRANCH   3  28
TORSDOF 17
ENDMDL
MODEL 2
REMARK VINA RESULT: -8.654058389      2.327      8.639
REMARK  17 active torsions:
REMARK  status: ('A' for Active; 'I' for Inactive)
REMARK    1  A    between atoms: C2_2  and  C3_3 
REMARK    2  A    between atoms: C3_3  and  N1_4 
REMARK    3  A    between atoms: C3_3  and  C11_15 
REMARK       I    between atoms: N1_4  and  C4_6 
REMARK    4  A    between atoms: C4_6  and  C5_8 
REMARK       I    between atoms: C11_15  and  N2_17 
REMARK    5  A    between atoms: N2_17  and  C12_19 
REMARK    6  A    between atoms: C12_19  and  C13_20 
REMARK    7  A    between atoms: C12_19  and  C29_46 
REMARK       I    between atoms: C13_20  and  N3_22 
REMARK    8  A    between atoms: N3_22  and  C14_24 
REMARK    9  A    between atoms: C14_24  and  C15_25 
REMARK   10  A    between atoms: C14_24  and  C19_29 
REMARK   11  A    between atoms: C15_25  and  C16_26 
REMARK   12  A    between atoms: C19_29  and  O5_30 
REMARK   13  A    between atoms: C19_29  and  N4_32 
REMARK   14  A    between atoms: N4_32  and  C20_34 
REMARK   15  A    between atoms: C20_34  and  C21_35 
REMARK   16  A    between atoms: C20_34  and  C26_41 
REMARK   17  A    between atoms: C21_35  and  C22_37 
REMARK       I    between atoms: C26_41  and  N5_43 
ROOT
HETATM    1  C13 UNL     1      15.143 -15.457  21.863  1.00  0.00     0.241 C 
HETATM    2  O4  UNL     1      16.169 -14.699  21.955  1.00  0.00    -0.271 OA
HETATM    3  N3  UNL     1      13.936 -14.826  21.656  1.00  0.00    -0.347 N 
ATOM      4  H3  UNL     1      13.088 -15.383  21.562  1.00  0.00     0.163 HD
ENDROOT
BRANCH   1   5
HETATM    5  C12 UNL     1      15.393 -16.894  21.990  1.00  0.00     0.184 C 
BRANCH   5   6
HETATM    6  N2  UNL     1      16.436 -17.118  22.974  1.00  0.00    -0.345 N 
HETATM    7  C11 UNL     1      16.259 -17.941  24.109  1.00  0.00     0.241 C 
HETATM    8  O3  UNL     1      15.147 -18.499  24.281  1.00  0.00    -0.271 OA
ATOM      9  H2  UNL     1      17.337 -16.659  22.841  1.00  0.00     0.163 HD
BRANCH   7  10
HETATM   10  C3  UNL     1      17.336 -18.169  25.084  1.00  0.00     0.176 C 
BRANCH  10  11
HETATM   11  C2  UNL     1      17.965 -19.520  24.863  1.00  0.00     0.030 C 
HETATM   12  C1  UNL     1      19.088 -19.429  23.885  1.00  0.00     0.007 C 
ENDBRANCH  10  11
BRANCH  10  13
HETATM   13  N1  UNL     1      18.351 -17.124  24.833  1.00  0.00    -0.347 N 
HETATM   14  C4  UNL     1      18.476 -16.065  25.765  1.00  0.00     0.225 C 
HETATM   15  O1  UNL     1      17.711 -16.042  26.796  1.00  0.00    -0.273 OA
ATOM     16  H1  UNL     1      18.948 -17.165  24.007  1.00  0.00     0.163 HD
BRANCH  14  17
HETATM   17  C5  UNL     1      19.444 -14.966  25.626  1.00  0.00     0.109 C 
HETATM   18  C6  UNL     1      20.198 -14.790  26.925  1.00  0.00     0.048 C 
HETATM   19  C7  UNL     1      21.626 -15.001  26.472  1.00  0.00     0.122 C 
HETATM   20  C8  UNL     1      22.078 -13.892  25.582  1.00  0.00     0.034 C 
HETATM   21  O2  UNL     1      21.422 -16.050  25.540  1.00  0.00    -0.380 OA
HETATM   22  C9  UNL     1      21.348 -14.192  24.278  1.00  0.00     0.035 C 
HETATM   23  C10 UNL     1      20.531 -15.403  24.674  1.00  0.00     0.135 C 
ENDBRANCH  14  17
ENDBRANCH  10  13
ENDBRANCH   7  10
ENDBRANCH   5   6
BRANCH   5  24
HETATM   24  C29 UNL     1      15.817 -17.626  20.764  1.00  0.00    -0.022 C 
HETATM   25  C30 UNL     1      15.513 -17.012  19.452  1.00  0.00     0.017 C 
HETATM   26  C31 UNL     1      15.189 -19.005  20.795  1.00  0.00     0.017 C 
HETATM   27  C32 UNL     1      17.339 -17.849  20.808  1.00  0.00     0.017 C 
ENDBRANCH   5  24
ENDBRANCH   1   5
BRANCH   3  28
HETATM   28  C14 UNL     1      13.855 -13.347  21.568  1.00  0.00     0.159 C 
BRANCH  28  29
HETATM   29  C15 UNL     1      12.612 -12.937  22.213  1.00  0.00     0.037 C 
BRANCH  29  30
HETATM   30  C16 UNL     1      12.464 -11.605  22.814  1.00  0.00    -0.020 C 
HETATM   31  C17 UNL     1      12.003 -10.664  21.668  1.00  0.00     0.009 C 
HETATM   32  C18 UNL     1      11.408 -11.566  23.918  1.00  0.00     0.009 C 
ENDBRANCH  29  30
ENDBRANCH  28  29
BRANCH  28  33
HETATM   33  C19 UNL     1      14.240 -12.904  20.246  1.00  0.00     0.135 C 
BRANCH  33  34
HETATM   34  O5  UNL     1      13.334 -13.183  19.344  1.00  0.00    -0.348 OA
ATOM     35  H5  UNL     1      13.197 -12.467  18.735  1.00  0.00     0.219 HD
ENDBRANCH  33  34
BRANCH  33  36
HETATM   36  N4  UNL     1      15.358 -12.248  19.735  1.00  0.00    -0.353 N 
ATOM     37  H4  UNL     1      15.493 -11.249  19.889  1.00  0.00     0.162 HD
BRANCH  36  38
HETATM   38  C20 UNL     1      16.363 -13.055  18.950  1.00  0.00     0.246 C 
BRANCH  38  39
HETATM   39  C21 UNL     1      17.666 -12.740  19.572  1.00  0.00     0.162 C 
HETATM   40  O6  UNL     1      17.746 -12.004  20.530  1.00  0.00    -0.295 OA
BRANCH  39  41
HETATM   41  C22 UNL     1      18.922 -13.316  19.049  1.00  0.00     0.058 C 
HETATM   42  C23 UNL     1      20.124 -13.102  19.969  1.00  0.00     0.012 C 
HETATM   43  C24 UNL     1      19.737 -14.446  20.603  1.00  0.00     0.002 C 
HETATM   44  C25 UNL     1      19.026 -14.828  19.303  1.00  0.00     0.012 C 
ENDBRANCH  39  41
ENDBRANCH  38  39
BRANCH  38  45
HETATM   45  C26 UNL     1      16.305 -12.638  17.546  1.00  0.00     0.249 C 
HETATM   46  O7  UNL     1      16.700 -11.450  17.280  1.00  0.00    -0.271 OA
HETATM   47  N5  UNL     1      15.857 -13.438  16.493  1.00  0.00    -0.359 N 
HETATM   48  C27 UNL     1      15.877 -12.974  15.104  1.00  0.00     0.152 C 
HETATM   49  C28 UNL     1      15.332 -14.757  16.719  1.00  0.00     0.152 C 
ENDBRANCH  38  45
ENDBRANCH  36  38
ENDBRANCH  33  36
ENDBRANCH  28  33
ENDBRANCH   3  28
TORSDOF 17
ENDMDL
MODEL 3
REMARK VINA RESULT: -8.614635434      1.741      3.992
REMARK  17 active torsions:
REMARK  status: ('A' for Active; 'I' for Inactive)
REMARK    1  A    between atoms: C2_2  and  C3_3 
REMARK    2  A    between atoms: C3_3  and  N1_4 
REMARK    3  A    between atoms: C3_3  and  C11_15 
REMARK       I    between atoms: N1_4  and  C4_6 
REMARK    4  A    between atoms: C4_6  and  C5_8 
REMARK       I    between atoms: C11_15  and  N2_17 
REMARK    5  A    between atoms: N2_17  and  C12_19 
REMARK    6  A    between atoms: C12_19  and  C13_20 
REMARK    7  A    between atoms: C12_19  and  C29_46 
REMARK       I    between atoms: C13_20  and  N3_22 
REMARK    8  A    between atoms: N3_22  and  C14_24 
REMARK    9  A    between atoms: C14_24  and  C15_25 
REMARK   10  A    between atoms: C14_24  and  C19_29 
REMARK   11  A    between atoms: C15_25  and  C16_26 
REMARK   12  A    between atoms: C19_29  and  O5_30 
REMARK   13  A    between atoms: C19_29  and  N4_32 
REMARK   14  A    between atoms: N4_32  and  C20_34 
REMARK   15  A    between atoms: C20_34  and  C21_35 
REMARK   16  A    between atoms: C20_34  and  C26_41 
REMARK   17  A    between atoms: C21_35  and  C22_37 
REMARK       I    between atoms: C26_41  and  N5_43 
ROOT
HETATM    1  C13 UNL     1      18.520 -14.095  21.630  1.00  0.00     0.241 C 
HETATM    2  O4  UNL     1      17.486 -14.690  22.091  1.00  0.00    -0.271 OA
HETATM    3  N3  UNL     1      19.677 -14.222  22.368  1.00  0.00    -0.347 N 
ATOM      4  H3  UNL     1      20.534 -13.779  22.040  1.00  0.00     0.163 HD
ENDROOT
BRANCH   1   5
HETATM    5  C12 UNL     1      18.334 -13.361  20.377  1.00  0.00     0.184 C 
BRANCH   5   6
HETATM    6  N2  UNL     1      16.989 -13.589  19.880  1.00  0.00    -0.345 N 
HETATM    7  C11 UNL     1      16.020 -12.565  19.788  1.00  0.00     0.241 C 
HETATM    8  O3  UNL     1      16.329 -11.407  20.161  1.00  0.00    -0.271 OA
ATOM      9  H2  UNL     1      16.733 -14.531  19.584  1.00  0.00     0.163 HD
BRANCH   7  10
HETATM   10  C3  UNL     1      14.668 -12.815  19.264  1.00  0.00     0.176 C 
BRANCH  10  11
HETATM   11  C2  UNL     1      14.544 -14.241  18.796  1.00  0.00     0.030 C 
HETATM   12  C1  UNL     1      14.889 -14.359  17.350  1.00  0.00     0.007 C 
ENDBRANCH  10  11
BRANCH  10  13
HETATM   13  N1  UNL     1      13.739 -12.601  20.394  1.00  0.00    -0.347 N 
HETATM   14  C4  UNL     1      12.991 -11.399  20.435  1.00  0.00     0.225 C 
HETATM   15  O1  UNL     1      13.137 -10.535  19.496  1.00  0.00    -0.273 OA
ATOM     16  H1  UNL     1      13.639 -13.303  21.127  1.00  0.00     0.163 HD
BRANCH  14  17
HETATM   17  C5  UNL     1      12.038 -11.068  21.505  1.00  0.00     0.109 C 
HETATM   18  C6  UNL     1      11.375 -12.334  22.001  1.00  0.00     0.048 C 
HETATM   19  C7  UNL     1      11.754 -12.316  23.465  1.00  0.00     0.122 C 
HETATM   20  C8  UNL     1      11.081 -11.193  24.182  1.00  0.00     0.034 C 
HETATM   21  O2  UNL     1      13.082 -11.830  23.356  1.00  0.00    -0.380 OA
HETATM   22  C9  UNL     1      11.860  -9.975  23.700  1.00  0.00     0.035 C 
HETATM   23  C10 UNL     1      12.818 -10.613  22.716  1.00  0.00     0.135 C 
ENDBRANCH  14  17
ENDBRANCH  10  13
ENDBRANCH   7  10
ENDBRANCH   5   6
BRANCH   5  24
HETATM   24  C29 UNL     1      19.252 -13.685  19.250  1.00  0.00    -0.022 C 
HETATM   25  C30 UNL     1      19.707 -15.086  19.110  1.00  0.00     0.017 C 
HETATM   26  C31 UNL     1      20.477 -12.802  19.368  1.00  0.00     0.017 C 
HETATM   27  C32 UNL     1      18.577 -13.303  17.921  1.00  0.00     0.017 C 
ENDBRANCH   5  24
ENDBRANCH   1   5
BRANCH   3  28
HETATM   28  C14 UNL     1      19.690 -14.994  23.635  1.00  0.00     0.159 C 
BRANCH  28  29
HETATM   29  C15 UNL     1      20.141 -14.095  24.692  1.00  0.00     0.037 C 
BRANCH  29  30
HETATM   30  C16 UNL     1      21.077 -14.542  25.732  1.00  0.00    -0.020 C 
HETATM   31  C17 UNL     1      22.436 -13.863  25.409  1.00  0.00     0.009 C 
HETATM   32  C18 UNL     1      20.652 -14.117  27.137  1.00  0.00     0.009 C 
ENDBRANCH  29  30
ENDBRANCH  28  29
BRANCH  28  33
HETATM   33  C19 UNL     1      20.266 -16.303  23.416  1.00  0.00     0.135 C 
BRANCH  33  34
HETATM   34  O5  UNL     1      21.547 -16.246  23.157  1.00  0.00    -0.348 OA
ATOM     35  H5  UNL     1      21.786 -15.458  22.684  1.00  0.00     0.219 HD
ENDBRANCH  33  34
BRANCH  33  36
HETATM   36  N4  UNL     1      19.751 -17.597  23.423  1.00  0.00    -0.353 N 
ATOM     37  H4  UNL     1      20.371 -18.407  23.452  1.00  0.00     0.162 HD
BRANCH  36  38
HETATM   38  C20 UNL     1      18.253 -17.771  23.388  1.00  0.00     0.246 C 
BRANCH  38  39
HETATM   39  C21 UNL     1      17.955 -18.700  24.499  1.00  0.00     0.162 C 
HETATM   40  O6  UNL     1      18.290 -19.863  24.454  1.00  0.00    -0.295 OA
BRANCH  39  41
HETATM   41  C22 UNL     1      17.240 -18.242  25.707  1.00  0.00     0.058 C 
HETATM   42  C23 UNL     1      17.992 -18.525  27.008  1.00  0.00     0.012 C 
HETATM   43  C24 UNL     1      18.620 -17.137  26.817  1.00  0.00     0.002 C 
HETATM   44  C25 UNL     1      17.416 -16.737  25.960  1.00  0.00     0.012 C 
ENDBRANCH  39  41
ENDBRANCH  38  39
BRANCH  38  45
HETATM   45  C26 UNL     1      17.875 -18.327  22.086  1.00  0.00     0.249 C 
HETATM   46  O7  UNL     1      18.811 -18.853  21.389  1.00  0.00    -0.271 OA
HETATM   47  N5  UNL     1      16.582 -18.324  21.561  1.00  0.00    -0.359 N 
HETATM   48  C27 UNL     1      16.266 -18.947  20.273  1.00  0.00     0.152 C 
HETATM   49  C28 UNL     1      15.490 -17.691  22.249  1.00  0.00     0.152 C 
ENDBRANCH  38  45
ENDBRANCH  36  38
ENDBRANCH  33  36
ENDBRANCH  28  33
ENDBRANCH   3  28
TORSDOF 17
ENDMDL
MODEL 4
REMARK VINA RESULT: -8.608426434      1.596      2.903
REMARK  17 active torsions:
REMARK  status: ('A' for Active; 'I' for Inactive)
REMARK    1  A    between atoms: C2_2  and  C3_3 
REMARK    2  A    between atoms: C3_3  and  N1_4 
REMARK    3  A    between atoms: C3_3  and  C11_15 
REMARK       I    between atoms: N1_4  and  C4_6 
REMARK    4  A    between atoms: C4_6  and  C5_8 
REMARK       I    between atoms: C11_15  and  N2_17 
REMARK    5  A    between atoms: N2_17  and  C12_19 
REMARK    6  A    between atoms: C12_19  and  C13_20 
REMARK    7  A    between atoms: C12_19  and  C29_46 
REMARK       I    between atoms: C13_20  and  N3_22 
REMARK    8  A    between atoms: N3_22  and  C14_24 
REMARK    9  A    between atoms: C14_24  and  C15_25 
REMARK   10  A    between atoms: C14_24  and  C19_29 
REMARK   11  A    between atoms: C15_25  and  C16_26 
REMARK   12  A    between atoms: C19_29  and  O5_30 
REMARK   13  A    between atoms: C19_29  and  N4_32 
REMARK   14  A    between atoms: N4_32  and  C20_34 
REMARK   15  A    between atoms: C20_34  and  C21_35 
REMARK   16  A    between atoms: C20_34  and  C26_41 
REMARK   17  A    between atoms: C21_35  and  C22_37 
REMARK       I    between atoms: C26_41  and  N5_43 
ROOT
HETATM    1  C13 UNL     1      18.498 -13.969  21.630  1.00  0.00     0.241 C 
HETATM    2  O4  UNL     1      17.537 -14.710  22.035  1.00  0.00    -0.271 OA
HETATM    3  N3  UNL     1      19.602 -13.898  22.452  1.00  0.00    -0.347 N 
ATOM      4  H3  UNL     1      20.402 -13.333  22.171  1.00  0.00     0.163 HD
ENDROOT
BRANCH   1   5
HETATM    5  C12 UNL     1      18.294 -13.298  20.345  1.00  0.00     0.184 C 
BRANCH   5   6
HETATM    6  N2  UNL     1      16.944 -13.553  19.876  1.00  0.00    -0.345 N 
HETATM    7  C11 UNL     1      15.959 -12.544  19.785  1.00  0.00     0.241 C 
HETATM    8  O3  UNL     1      16.259 -11.375  20.132  1.00  0.00    -0.271 OA
ATOM      9  H2  UNL     1      16.695 -14.503  19.601  1.00  0.00     0.163 HD
BRANCH   7  10
HETATM   10  C3  UNL     1      14.602 -12.821  19.290  1.00  0.00     0.176 C 
BRANCH  10  11
HETATM   11  C2  UNL     1      14.487 -14.258  18.855  1.00  0.00     0.030 C 
HETATM   12  C1  UNL     1      14.831 -14.405  17.411  1.00  0.00     0.007 C 
ENDBRANCH  10  11
BRANCH  10  13
HETATM   13  N1  UNL     1      13.690 -12.594  20.432  1.00  0.00    -0.347 N 
HETATM   14  C4  UNL     1      12.938 -11.395  20.469  1.00  0.00     0.225 C 
HETATM   15  O1  UNL     1      13.066 -10.544  19.516  1.00  0.00    -0.273 OA
ATOM     16  H1  UNL     1      13.604 -13.286  21.176  1.00  0.00     0.163 HD
BRANCH  14  17
HETATM   17  C5  UNL     1      12.001 -11.052  21.550  1.00  0.00     0.109 C 
HETATM   18  C6  UNL     1      11.335 -12.311  22.058  1.00  0.00     0.048 C 
HETATM   19  C7  UNL     1      11.732 -12.291  23.517  1.00  0.00     0.122 C 
HETATM   20  C8  UNL     1      11.077 -11.160  24.238  1.00  0.00     0.034 C 
HETATM   21  O2  UNL     1      13.062 -11.815  23.390  1.00  0.00    -0.380 OA
HETATM   22  C9  UNL     1      11.860  -9.950  23.742  1.00  0.00     0.035 C 
HETATM   23  C10 UNL     1      12.800 -10.598  22.748  1.00  0.00     0.135 C 
ENDBRANCH  14  17
ENDBRANCH  10  13
ENDBRANCH   7  10
ENDBRANCH   5   6
BRANCH   5  24
HETATM   24  C29 UNL     1      19.199 -13.676  19.223  1.00  0.00    -0.022 C 
HETATM   25  C30 UNL     1      18.694 -13.512  17.842  1.00  0.00     0.017 C 
HETATM   26  C31 UNL     1      19.602 -15.125  19.407  1.00  0.00     0.017 C 
HETATM   27  C32 UNL     1      20.497 -12.856  19.321  1.00  0.00     0.017 C 
ENDBRANCH   5  24
ENDBRANCH   1   5
BRANCH   3  28
HETATM   28  C14 UNL     1      19.640 -14.634  23.740  1.00  0.00     0.159 C 
BRANCH  28  29
HETATM   29  C15 UNL     1      20.410 -13.828  24.682  1.00  0.00     0.037 C 
BRANCH  29  30
HETATM   30  C16 UNL     1      21.275 -14.449  25.693  1.00  0.00    -0.020 C 
HETATM   31  C17 UNL     1      22.735 -14.158  25.249  1.00  0.00     0.009 C 
HETATM   32  C18 UNL     1      21.074 -13.860  27.089  1.00  0.00     0.009 C 
ENDBRANCH  29  30
ENDBRANCH  28  29
BRANCH  28  33
HETATM   33  C19 UNL     1      19.902 -16.037  23.506  1.00  0.00     0.135 C 
BRANCH  33  34
HETATM   34  O5  UNL     1      19.001 -16.810  24.054  1.00  0.00    -0.348 OA
ATOM     35  H5  UNL     1      19.320 -17.238  24.840  1.00  0.00     0.219 HD
ENDBRANCH  33  34
BRANCH  33  36
HETATM   36  N4  UNL     1      20.901 -16.732  22.828  1.00  0.00    -0.353 N 
ATOM     37  H4  UNL     1      21.446 -16.280  22.094  1.00  0.00     0.162 HD
BRANCH  36  38
HETATM   38  C20 UNL     1      21.156 -18.170  23.208  1.00  0.00     0.246 C 
BRANCH  38  39
HETATM   39  C21 UNL     1      22.392 -18.132  24.018  1.00  0.00     0.162 C 
HETATM   40  O6  UNL     1      23.362 -17.502  23.659  1.00  0.00    -0.295 OA
BRANCH  39  41
HETATM   41  C22 UNL     1      22.487 -18.859  25.300  1.00  0.00     0.058 C 
HETATM   42  C23 UNL     1      22.956 -17.987  26.466  1.00  0.00     0.012 C 
HETATM   43  C24 UNL     1      21.466 -17.700  26.705  1.00  0.00     0.002 C 
HETATM   44  C25 UNL     1      21.124 -19.012  25.993  1.00  0.00     0.012 C 
ENDBRANCH  39  41
ENDBRANCH  38  39
BRANCH  38  45
HETATM   45  C26 UNL     1      21.322 -18.957  21.982  1.00  0.00     0.249 C 
HETATM   46  O7  UNL     1      21.697 -18.323  20.936  1.00  0.00    -0.271 OA
HETATM   47  N5  UNL     1      21.104 -20.332  21.880  1.00  0.00    -0.359 N 
HETATM   48  C27 UNL     1      21.342 -21.064  20.634  1.00  0.00     0.152 C 
HETATM   49  C28 UNL     1      20.614 -21.102  22.991  1.00  0.00     0.152 C 
ENDBRANCH  38  45
ENDBRANCH  36  38
ENDBRANCH  33  36
ENDBRANCH  28  33
ENDBRANCH   3  28
TORSDOF 17
ENDMDL
MODEL 5
REMARK VINA RESULT: -8.568213703      2.064      4.640
REMARK  17 active torsions:
REMARK  status: ('A' for Active; 'I' for Inactive)
REMARK    1  A    between atoms: C2_2  and  C3_3 
REMARK    2  A    between atoms: C3_3  and  N1_4 
REMARK    3  A    between atoms: C3_3  and  C11_15 
REMARK       I    between atoms: N1_4  and  C4_6 
REMARK    4  A    between atoms: C4_6  and  C5_8 
REMARK       I    between atoms: C11_15  and  N2_17 
REMARK    5  A    between atoms: N2_17  and  C12_19 
REMARK    6  A    between atoms: C12_19  and  C13_20 
REMARK    7  A    between atoms: C12_19  and  C29_46 
REMARK       I    between atoms: C13_20  and  N3_22 
REMARK    8  A    between atoms: N3_22  and  C14_24 
REMARK    9  A    between atoms: C14_24  and  C15_25 
REMARK   10  A    between atoms: C14_24  and  C19_29 
REMARK   11  A    between atoms: C15_25  and  C16_26 
REMARK   12  A    between atoms: C19_29  and  O5_30 
REMARK   13  A    between atoms: C19_29  and  N4_32 
REMARK   14  A    between atoms: N4_32  and  C20_34 
REMARK   15  A    between atoms: C20_34  and  C21_35 
REMARK   16  A    between atoms: C20_34  and  C26_41 
REMARK   17  A    between atoms: C21_35  and  C22_37 
REMARK       I    between atoms: C26_41  and  N5_43 
ROOT
HETATM    1  C13 UNL     1      18.196 -14.001  22.053  1.00  0.00     0.241 C 
HETATM    2  O4  UNL     1      17.054 -14.135  22.614  1.00  0.00    -0.271 OA
HETATM    3  N3  UNL     1      19.286 -14.421  22.784  1.00  0.00    -0.347 N 
ATOM      4  H3  UNL     1      20.219 -14.349  22.379  1.00  0.00     0.163 HD
ENDROOT
BRANCH   1   5
HETATM    5  C12 UNL     1      18.187 -13.422  20.709  1.00  0.00     0.184 C 
BRANCH   5   6
HETATM    6  N2  UNL     1      16.870 -13.587  20.121  1.00  0.00    -0.345 N 
HETATM    7  C11 UNL     1      15.980 -12.509  19.916  1.00  0.00     0.241 C 
HETATM    8  O3  UNL     1      16.337 -11.357  20.265  1.00  0.00    -0.271 OA
ATOM      9  H2  UNL     1      16.574 -14.523  19.844  1.00  0.00     0.163 HD
BRANCH   7  10
HETATM   10  C3  UNL     1      14.656 -12.696  19.301  1.00  0.00     0.176 C 
BRANCH  10  11
HETATM   11  C2  UNL     1      14.540 -14.081  18.722  1.00  0.00     0.030 C 
HETATM   12  C1  UNL     1      14.925 -14.089  17.281  1.00  0.00     0.007 C 
ENDBRANCH  10  11
BRANCH  10  13
HETATM   13  N1  UNL     1      13.668 -12.550  20.391  1.00  0.00    -0.347 N 
HETATM   14  C4  UNL     1      12.977 -11.321  20.517  1.00  0.00     0.225 C 
HETATM   15  O1  UNL     1      13.223 -10.374  19.686  1.00  0.00    -0.273 OA
ATOM     16  H1  UNL     1      13.489 -13.319  21.038  1.00  0.00     0.163 HD
BRANCH  14  17
HETATM   17  C5  UNL     1      11.975 -11.052  21.560  1.00  0.00     0.109 C 
HETATM   18  C6  UNL     1      11.376 -12.358  22.034  1.00  0.00     0.048 C 
HETATM   19  C7  UNL     1      11.710 -12.322  23.508  1.00  0.00     0.122 C 
HETATM   20  C8  UNL     1      10.949 -11.244  24.206  1.00  0.00     0.034 C 
HETATM   21  O2  UNL     1      13.008 -11.755  23.439  1.00  0.00    -0.380 OA
HETATM   22  C9  UNL     1      11.666  -9.979  23.750  1.00  0.00     0.035 C 
HETATM   23  C10 UNL     1      12.689 -10.554  22.793  1.00  0.00     0.135 C 
ENDBRANCH  14  17
ENDBRANCH  10  13
ENDBRANCH   7  10
ENDBRANCH   5   6
BRANCH   5  24
HETATM   24  C29 UNL     1      19.154 -13.973  19.719  1.00  0.00    -0.022 C 
HETATM   25  C30 UNL     1      19.613 -15.368  19.904  1.00  0.00     0.017 C 
HETATM   26  C31 UNL     1      20.374 -13.076  19.698  1.00  0.00     0.017 C 
HETATM   27  C32 UNL     1      18.539 -13.892  18.311  1.00  0.00     0.017 C 
ENDBRANCH   5  24
ENDBRANCH   1   5
BRANCH   3  28
HETATM   28  C14 UNL     1      19.120 -14.974  24.151  1.00  0.00     0.159 C 
BRANCH  28  29
HETATM   29  C15 UNL     1      20.341 -14.679  24.894  1.00  0.00     0.037 C 
BRANCH  29  30
HETATM   30  C16 UNL     1      20.409 -14.845  26.351  1.00  0.00    -0.020 C 
HETATM   31  C17 UNL     1      21.318 -16.079  26.602  1.00  0.00     0.009 C 
HETATM   32  C18 UNL     1      21.033 -13.641  27.057  1.00  0.00     0.009 C 
ENDBRANCH  29  30
ENDBRANCH  28  29
BRANCH  28  33
HETATM   33  C19 UNL     1      18.538 -16.296  24.087  1.00  0.00     0.135 C 
BRANCH  33  34
HETATM   34  O5  UNL     1      19.429 -17.222  23.843  1.00  0.00    -0.348 OA
ATOM     35  H5  UNL     1      19.182 -18.066  24.204  1.00  0.00     0.219 HD
ENDBRANCH  33  34
BRANCH  33  36
HETATM   36  N4  UNL     1      17.241 -16.787  24.229  1.00  0.00    -0.353 N 
ATOM     37  H4  UNL     1      16.564 -16.310  24.824  1.00  0.00     0.162 HD
BRANCH  36  38
HETATM   38  C20 UNL     1      16.866 -18.042  23.480  1.00  0.00     0.246 C 
BRANCH  38  39
HETATM   39  C21 UNL     1      15.594 -17.710  22.804  1.00  0.00     0.162 C 
HETATM   40  O6  UNL     1      14.532 -18.110  23.227  1.00  0.00    -0.295 OA
BRANCH  39  41
HETATM   41  C22 UNL     1      15.571 -16.873  21.586  1.00  0.00     0.058 C 
HETATM   42  C23 UNL     1      16.697 -17.194  20.602  1.00  0.00     0.012 C 
HETATM   43  C24 UNL     1      15.713 -18.190  19.972  1.00  0.00     0.002 C 
HETATM   44  C25 UNL     1      14.554 -17.372  20.548  1.00  0.00     0.012 C 
ENDBRANCH  39  41
ENDBRANCH  38  39
BRANCH  38  45
HETATM   45  C26 UNL     1      16.711 -19.135  24.443  1.00  0.00     0.249 C 
HETATM   46  O7  UNL     1      16.474 -18.806  25.656  1.00  0.00    -0.271 OA
HETATM   47  N5  UNL     1      16.802 -20.493  24.131  1.00  0.00    -0.359 N 
HETATM   48  C27 UNL     1      16.583 -21.536  25.136  1.00  0.00     0.152 C 
HETATM   49  C28 UNL     1      17.136 -20.943  22.807  1.00  0.00     0.152 C 
ENDBRANCH  38  45
ENDBRANCH  36  38
ENDBRANCH  33  36
ENDBRANCH  28  33
ENDBRANCH   3  28
TORSDOF 17
ENDMDL
