MODEL 1
REMARK VINA RESULT: -4.874827769      0.000      0.000
REMARK  3 active torsions:
REMARK  status: ('A' for Active; 'I' for Inactive)
REMARK    1  A    between atoms: N1_2  and  C2_4 
REMARK    2  A    between atoms: N2_5  and  C3_7 
REMARK    3  A    between atoms: C3_7  and  N3_9 
ROOT
HETATM    1  C2  UNL     1     183.777   7.458  62.138  1.00  0.00     0.176 C 
HETATM    2  N2  UNL     1     184.028   6.763  63.186  1.00  0.00    -0.359 N 
ATOM      3  H2  UNL     1     184.128   5.750  63.122  1.00  0.00     0.162 HD
ENDROOT
BRANCH   2   4
HETATM    4  C3  UNL     1     184.167   7.431  64.459  1.00  0.00     0.278 C 
HETATM    5  C4  UNL     1     185.598   7.476  64.915  1.00  0.00     0.063 C 
BRANCH   4   6
HETATM    6  N3  UNL     1     183.671   8.788  64.305  1.00  0.00    -0.059 N 
ATOM      7  H33 UNL     1     183.565   9.062  63.328  1.00  0.00     0.276 HD
ATOM      8  H32 UNL     1     182.693   8.885  64.580  1.00  0.00     0.276 HD
ATOM      9  H31 UNL     1     184.291   9.409  64.824  1.00  0.00     0.276 HD
ENDBRANCH   4   6
ENDBRANCH   2   4
BRANCH   1  10
HETATM   10  N1  UNL     1     183.633   6.821  60.856  1.00  0.00    -0.372 N 
HETATM   11  C1  UNL     1     184.602   6.867  60.023  1.00  0.00     0.118 C 
ATOM     12  H1  UNL     1     182.767   6.339  60.615  1.00  0.00     0.165 HD
ENDBRANCH   1  10
TORSDOF 3
ENDMDL
MODEL 2
REMARK VINA RESULT: -4.857648805      1.197      4.186
REMARK  3 active torsions:
REMARK  status: ('A' for Active; 'I' for Inactive)
REMARK    1  A    between atoms: N1_2  and  C2_4 
REMARK    2  A    between atoms: N2_5  and  C3_7 
REMARK    3  A    between atoms: C3_7  and  N3_9 
ROOT
HETATM    1  C2  UNL     1     184.002   7.384  62.048  1.00  0.00     0.176 C 
HETATM    2  N2  UNL     1     183.621   6.811  60.966  1.00  0.00    -0.359 N 
ATOM      3  H2  UNL     1     182.675   6.438  60.886  1.00  0.00     0.162 HD
ENDROOT
BRANCH   2   4
HETATM    4  C3  UNL     1     184.546   6.701  59.862  1.00  0.00     0.278 C 
HETATM    5  C4  UNL     1     183.938   5.980  58.692  1.00  0.00     0.063 C 
BRANCH   4   6
HETATM    6  N3  UNL     1     184.916   8.046  59.457  1.00  0.00    -0.059 N 
ATOM      7  H33 UNL     1     184.429   8.354  58.616  1.00  0.00     0.276 HD
ATOM      8  H32 UNL     1     184.561   8.762  60.091  1.00  0.00     0.276 HD
ATOM      9  H31 UNL     1     185.931   8.074  59.358  1.00  0.00     0.276 HD
ENDBRANCH   4   6
ENDBRANCH   2   4
BRANCH   1  10
HETATM   10  N1  UNL     1     183.105   7.509  63.165  1.00  0.00    -0.372 N 
HETATM   11  C1  UNL     1     183.587   7.631  64.344  1.00  0.00     0.118 C 
ATOM     12  H1  UNL     1     182.096   7.500  63.018  1.00  0.00     0.165 HD
ENDBRANCH   1  10
TORSDOF 3
ENDMDL
MODEL 3
REMARK VINA RESULT: -4.801630951      1.330      3.681
REMARK  3 active torsions:
REMARK  status: ('A' for Active; 'I' for Inactive)
REMARK    1  A    between atoms: N1_2  and  C2_4 
REMARK    2  A    between atoms: N2_5  and  C3_7 
REMARK    3  A    between atoms: C3_7  and  N3_9 
ROOT
HETATM    1  C2  UNL     1     184.434   7.618  63.690  1.00  0.00     0.176 C 
HETATM    2  N2  UNL     1     183.352   8.130  63.229  1.00  0.00    -0.359 N 
ATOM      3  H2  UNL     1     182.736   8.668  63.838  1.00  0.00     0.162 HD
ENDROOT
BRANCH   2   4
HETATM    4  C3  UNL     1     183.016   7.935  61.838  1.00  0.00     0.278 C 
HETATM    5  C4  UNL     1     184.066   7.137  61.115  1.00  0.00     0.063 C 
BRANCH   4   6
HETATM    6  N3  UNL     1     181.751   7.224  61.782  1.00  0.00    -0.059 N 
ATOM      7  H33 UNL     1     181.861   6.214  61.875  1.00  0.00     0.276 HD
ATOM      8  H32 UNL     1     181.175   7.375  62.610  1.00  0.00     0.276 HD
ATOM      9  H31 UNL     1     181.280   7.492  60.918  1.00  0.00     0.276 HD
ENDBRANCH   4   6
ENDBRANCH   2   4
BRANCH   1  10
HETATM   10  N1  UNL     1     184.796   7.794  65.070  1.00  0.00    -0.372 N 
HETATM   11  C1  UNL     1     186.023   7.683  65.414  1.00  0.00     0.118 C 
ATOM     12  H1  UNL     1     184.082   8.005  65.767  1.00  0.00     0.165 HD
ENDBRANCH   1  10
TORSDOF 3
ENDMDL
MODEL 4
REMARK VINA RESULT: -4.776741390      1.168      4.046
REMARK  3 active torsions:
REMARK  status: ('A' for Active; 'I' for Inactive)
REMARK    1  A    between atoms: N1_2  and  C2_4 
REMARK    2  A    between atoms: N2_5  and  C3_7 
REMARK    3  A    between atoms: C3_7  and  N3_9 
ROOT
HETATM    1  C2  UNL     1     183.781   7.521  61.981  1.00  0.00     0.176 C 
HETATM    2  N2  UNL     1     183.487   6.771  60.983  1.00  0.00    -0.359 N 
ATOM      3  H2  UNL     1     182.738   6.083  61.059  1.00  0.00     0.162 HD
ENDROOT
BRANCH   2   4
HETATM    4  C3  UNL     1     184.229   6.911  59.752  1.00  0.00     0.278 C 
HETATM    5  C4  UNL     1     185.288   7.974  59.854  1.00  0.00     0.063 C 
BRANCH   4   6
HETATM    6  N3  UNL     1     184.859   5.634  59.465  1.00  0.00    -0.059 N 
ATOM      7  H33 UNL     1     185.759   5.733  58.996  1.00  0.00     0.276 HD
ATOM      8  H32 UNL     1     185.194   5.161  60.304  1.00  0.00     0.276 HD
ATOM      9  H31 UNL     1     184.195   5.071  58.933  1.00  0.00     0.276 HD
ENDBRANCH   4   6
ENDBRANCH   2   4
BRANCH   1  10
HETATM   10  N1  UNL     1     183.061   7.405  63.220  1.00  0.00    -0.372 N 
HETATM   11  C1  UNL     1     183.664   7.661  64.320  1.00  0.00     0.118 C 
ATOM     12  H1  UNL     1     182.081   7.123  63.222  1.00  0.00     0.165 HD
ENDBRANCH   1  10
TORSDOF 3
ENDMDL
MODEL 5
REMARK VINA RESULT: -4.686326066      1.406      1.533
REMARK  3 active torsions:
REMARK  status: ('A' for Active; 'I' for Inactive)
REMARK    1  A    between atoms: N1_2  and  C2_4 
REMARK    2  A    between atoms: N2_5  and  C3_7 
REMARK    3  A    between atoms: C3_7  and  N3_9 
ROOT
HETATM    1  C2  UNL     1     183.963   7.138  61.290  1.00  0.00     0.176 C 
HETATM    2  N2  UNL     1     183.669   6.633  62.432  1.00  0.00    -0.359 N 
ATOM      3  H2  UNL     1     183.069   5.811  62.493  1.00  0.00     0.162 HD
ENDROOT
BRANCH   2   4
HETATM    4  C3  UNL     1     184.198   7.243  63.629  1.00  0.00     0.278 C 
HETATM    5  C4  UNL     1     183.655   8.630  63.839  1.00  0.00     0.063 C 
BRANCH   4   6
HETATM    6  N3  UNL     1     183.824   6.407  64.756  1.00  0.00    -0.059 N 
ATOM      7  H33 UNL     1     182.891   6.616  65.111  1.00  0.00     0.276 HD
ATOM      8  H32 UNL     1     183.655   5.437  64.490  1.00  0.00     0.276 HD
ATOM      9  H31 UNL     1     184.548   6.500  65.469  1.00  0.00     0.276 HD
ENDBRANCH   4   6
ENDBRANCH   2   4
BRANCH   1  10
HETATM   10  N1  UNL     1     183.451   6.554  60.080  1.00  0.00    -0.372 N 
HETATM   11  C1  UNL     1     184.266   6.234  59.147  1.00  0.00     0.118 C 
ATOM     12  H1  UNL     1     182.449   6.397  59.967  1.00  0.00     0.165 HD
ENDBRANCH   1  10
TORSDOF 3
ENDMDL
