MODEL 1
REMARK VINA RESULT: -4.984594803      0.000      0.000
REMARK  3 active torsions:
REMARK  status: ('A' for Active; 'I' for Inactive)
REMARK    1  A    between atoms: N1_2  and  N2_3 
REMARK    2  A    between atoms: N2_3  and  C2_5 
REMARK    3  A    between atoms: C3_6  and  C4_7 
ROOT
HETATM    1  C2  UNL     1     183.842   7.170  61.704  1.00  0.00     0.104 C 
HETATM    2  C3  UNL     1     183.131   7.757  62.652  1.00  0.00     0.034 C 
ENDROOT
BRANCH   1   3
HETATM    3  N2  UNL     1     183.289   6.784  60.463  1.00  0.00    -0.316 N 
ATOM      4  H2  UNL     1     182.296   6.588  60.334  1.00  0.00     0.181 HD
BRANCH   3   5
HETATM    5  N1  UNL     1     184.207   6.694  59.440  1.00  0.00    -0.146 NA
HETATM    6  C1  UNL     1     185.452   7.386  59.733  1.00  0.00     0.159 C 
ENDBRANCH   3   5
ENDBRANCH   1   3
BRANCH   2   7
HETATM    7  C4  UNL     1     183.684   8.157  63.929  1.00  0.00     0.082 C 
HETATM    8  N3  UNL     1     183.369   7.552  65.024  1.00  0.00    -0.408 N 
ATOM      9  H32 UNL     1     182.713   6.774  64.972  1.00  0.00     0.155 HD
ATOM     10  H31 UNL     1     183.759   7.834  65.924  1.00  0.00     0.155 HD
ENDBRANCH   2   7
TORSDOF 3
ENDMDL
MODEL 2
REMARK VINA RESULT: -4.929767095      1.857      4.179
REMARK  3 active torsions:
REMARK  status: ('A' for Active; 'I' for Inactive)
REMARK    1  A    between atoms: N1_2  and  N2_3 
REMARK    2  A    between atoms: N2_3  and  C2_5 
REMARK    3  A    between atoms: C3_6  and  C4_7 
ROOT
HETATM    1  C2  UNL     1     183.663   8.170  63.739  1.00  0.00     0.104 C 
HETATM    2  C3  UNL     1     183.988   7.440  62.686  1.00  0.00     0.034 C 
ENDROOT
BRANCH   1   3
HETATM    3  N2  UNL     1     184.432   8.187  64.924  1.00  0.00    -0.316 N 
ATOM      4  H2  UNL     1     184.122   8.646  65.781  1.00  0.00     0.181 HD
BRANCH   3   5
HETATM    5  N1  UNL     1     185.637   7.528  64.822  1.00  0.00    -0.146 NA
HETATM    6  C1  UNL     1     186.530   7.802  65.936  1.00  0.00     0.159 C 
ENDBRANCH   3   5
ENDBRANCH   1   3
BRANCH   2   7
HETATM    7  C4  UNL     1     183.209   7.412  61.465  1.00  0.00     0.082 C 
HETATM    8  N3  UNL     1     181.919   7.383  61.485  1.00  0.00    -0.408 N 
ATOM      9  H32 UNL     1     181.452   7.379  62.391  1.00  0.00     0.155 HD
ATOM     10  H31 UNL     1     181.370   7.363  60.625  1.00  0.00     0.155 HD
ENDBRANCH   2   7
TORSDOF 3
ENDMDL
MODEL 3
REMARK VINA RESULT: -4.818331633      2.574      4.753
REMARK  3 active torsions:
REMARK  status: ('A' for Active; 'I' for Inactive)
REMARK    1  A    between atoms: N1_2  and  N2_3 
REMARK    2  A    between atoms: N2_3  and  C2_5 
REMARK    3  A    between atoms: C3_6  and  C4_7 
ROOT
HETATM    1  C2  UNL     1     184.927   7.643  64.380  1.00  0.00     0.104 C 
HETATM    2  C3  UNL     1     183.820   8.224  63.947  1.00  0.00     0.034 C 
ENDROOT
BRANCH   1   3
HETATM    3  N2  UNL     1     185.671   8.137  65.475  1.00  0.00    -0.316 N 
ATOM      4  H2  UNL     1     185.490   9.044  65.906  1.00  0.00     0.181 HD
BRANCH   3   5
HETATM    5  N1  UNL     1     186.661   7.286  65.912  1.00  0.00    -0.146 NA
HETATM    6  C1  UNL     1     187.558   7.904  66.875  1.00  0.00     0.159 C 
ENDBRANCH   3   5
ENDBRANCH   1   3
BRANCH   2   7
HETATM    7  C4  UNL     1     183.049   7.730  62.825  1.00  0.00     0.082 C 
HETATM    8  N3  UNL     1     183.379   6.652  62.198  1.00  0.00    -0.408 N 
ATOM      9  H32 UNL     1     184.207   6.147  62.513  1.00  0.00     0.155 HD
ATOM     10  H31 UNL     1     182.836   6.303  61.407  1.00  0.00     0.155 HD
ENDBRANCH   2   7
TORSDOF 3
ENDMDL
MODEL 4
REMARK VINA RESULT: -4.747795386      1.304      4.172
REMARK  3 active torsions:
REMARK  status: ('A' for Active; 'I' for Inactive)
REMARK    1  A    between atoms: N1_2  and  N2_3 
REMARK    2  A    between atoms: N2_3  and  C2_5 
REMARK    3  A    between atoms: C3_6  and  C4_7 
ROOT
HETATM    1  C2  UNL     1     184.142   7.502  62.316  1.00  0.00     0.104 C 
HETATM    2  C3  UNL     1     184.023   7.113  61.058  1.00  0.00     0.034 C 
ENDROOT
BRANCH   1   3
HETATM    3  N2  UNL     1     183.172   7.209  63.301  1.00  0.00    -0.316 N 
ATOM      4  H2  UNL     1     182.188   7.056  63.083  1.00  0.00     0.181 HD
BRANCH   3   5
HETATM    5  N1  UNL     1     183.672   7.149  64.583  1.00  0.00    -0.146 NA
HETATM    6  C1  UNL     1     185.060   7.574  64.672  1.00  0.00     0.159 C 
ENDBRANCH   3   5
ENDBRANCH   1   3
BRANCH   2   7
HETATM    7  C4  UNL     1     185.008   7.406  60.038  1.00  0.00     0.082 C 
HETATM    8  N3  UNL     1     185.151   6.657  58.998  1.00  0.00    -0.408 N 
ATOM      9  H32 UNL     1     184.547   5.841  58.906  1.00  0.00     0.155 HD
ATOM     10  H31 UNL     1     185.845   6.864  58.279  1.00  0.00     0.155 HD
ENDBRANCH   2   7
TORSDOF 3
ENDMDL
MODEL 5
REMARK VINA RESULT: -4.658091452      2.396      3.295
REMARK  3 active torsions:
REMARK  status: ('A' for Active; 'I' for Inactive)
REMARK    1  A    between atoms: N1_2  and  N2_3 
REMARK    2  A    between atoms: N2_3  and  C2_5 
REMARK    3  A    between atoms: C3_6  and  C4_7 
ROOT
HETATM    1  C2  UNL     1     184.266   7.262  64.843  1.00  0.00     0.104 C 
HETATM    2  C3  UNL     1     185.472   7.804  64.845  1.00  0.00     0.034 C 
ENDROOT
BRANCH   1   3
HETATM    3  N2  UNL     1     183.326   7.494  63.813  1.00  0.00    -0.316 N 
ATOM      4  H2  UNL     1     182.569   8.172  63.896  1.00  0.00     0.181 HD
BRANCH   3   5
HETATM    5  N1  UNL     1     183.522   6.724  62.688  1.00  0.00    -0.146 NA
HETATM    6  C1  UNL     1     183.965   7.498  61.540  1.00  0.00     0.159 C 
ENDBRANCH   3   5
ENDBRANCH   1   3
BRANCH   2   7
HETATM    7  C4  UNL     1     186.445   7.576  65.894  1.00  0.00     0.082 C 
HETATM    8  N3  UNL     1     186.820   8.520  66.688  1.00  0.00    -0.408 N 
ATOM      9  H32 UNL     1     186.411   9.445  66.561  1.00  0.00     0.155 HD
ATOM     10  H31 UNL     1     187.505   8.359  67.427  1.00  0.00     0.155 HD
ENDBRANCH   2   7
TORSDOF 3
ENDMDL
