MODEL 1
REMARK VINA RESULT: -8.860505305      0.000      0.000
REMARK  21 active torsions:
REMARK  status: ('A' for Active; 'I' for Inactive)
REMARK    1  A    between atoms: C5_7  and  N2_8 
REMARK    2  A    between atoms: N2_8  and  C6_10 
REMARK    3  A    between atoms: C6_10  and  C7_11 
REMARK    4  A    between atoms: C7_11  and  C8_12 
REMARK    5  A    between atoms: C7_11  and  C9_15 
REMARK    6  A    between atoms: C8_12  and  O1_13 
REMARK    7  A    between atoms: N5_20  and  C10_21 
REMARK    8  A    between atoms: C10_21  and  C11_22 
REMARK    9  A    between atoms: C11_22  and  C12_23 
REMARK   10  A    between atoms: C12_23  and  C13_24 
REMARK   11  A    between atoms: C13_24  and  C14_25 
REMARK   12  A    between atoms: C14_25  and  C15_26 
REMARK   13  A    between atoms: C15_26  and  C16_27 
REMARK   14  A    between atoms: C16_27  and  C17_28 
REMARK   15  A    between atoms: C17_28  and  N6_29 
REMARK   16  A    between atoms: C20_32  and  C21_33 
REMARK       I    between atoms: C21_33  and  N7_35 
REMARK   17  A    between atoms: N7_35  and  C22_37 
REMARK   18  A    between atoms: C22_37  and  C23_38 
REMARK   19  A    between atoms: C23_38  and  N8_39 
REMARK       I    between atoms: N8_39  and  C24_41 
REMARK   20  A    between atoms: C24_41  and  C25_43 
REMARK   21  A    between atoms: C25_43  and  C26_44 
ROOT
HETATM    1  C12 UNL     1      43.438  19.750  64.158  1.00  0.00     0.002 C 
ENDROOT
BRANCH   1   2
HETATM    2  C11 UNL     1      43.848  19.172  65.456  1.00  0.00     0.022 C 
BRANCH   2   3
HETATM    3  C10 UNL     1      43.050  18.071  66.027  1.00  0.00     0.148 C 
BRANCH   3   4
HETATM    4  N5  UNL     1      41.620  18.268  66.064  1.00  0.00    -0.301 N 
HETATM    5  N4  UNL     1      40.838  17.454  65.330  1.00  0.00    -0.282 N 
HETATM    6  C5  UNL     1      39.508  17.578  65.328  1.00  0.00     0.144 A 
ATOM      7  H4  UNL     1      41.272  16.726  64.762  1.00  0.00     0.189 HD
HETATM    8  C4  UNL     1      38.846  18.540  66.074  1.00  0.00     0.090 A 
HETATM    9  N1  UNL     1      37.558  18.887  66.260  1.00  0.00    -0.362 N 
HETATM   10  C28 UNL     1      39.624  19.387  66.835  1.00  0.00     0.019 A 
HETATM   11  C3  UNL     1      37.501  19.933  67.122  1.00  0.00     0.096 A 
ATOM     12  H1  UNL     1      36.754  18.436  65.824  1.00  0.00     0.165 HD
HETATM   13  C2  UNL     1      38.783  20.268  67.500  1.00  0.00    -0.033 A 
HETATM   14  C1  UNL     1      39.187  21.353  68.430  1.00  0.00     0.050 C 
HETATM   15  C27 UNL     1      40.990  19.202  66.788  1.00  0.00     0.124 A 
BRANCH   6  16
HETATM   16  N2  UNL     1      38.752  16.791  64.620  1.00  0.00    -0.372 N 
ATOM     17  H2  UNL     1      38.599  16.981  63.630  1.00  0.00     0.161 HD
BRANCH  16  18
HETATM   18  C6  UNL     1      38.125  15.635  65.252  1.00  0.00     0.137 C 
BRANCH  18  19
HETATM   19  C7  UNL     1      37.347  14.858  64.209  1.00  0.00     0.116 C 
BRANCH  19  20
HETATM   20  C8  UNL     1      35.936  15.404  64.114  1.00  0.00     0.179 C 
BRANCH  20  21
HETATM   21  O1  UNL     1      35.869  16.740  64.433  1.00  0.00    -0.400 OA
ATOM     22  H1  UNL     1      35.906  17.298  63.665  1.00  0.00     0.209 HD
ENDBRANCH  20  21
ENDBRANCH  19  20
BRANCH  19  23
HETATM   23  C9  UNL     1      38.069  14.883  62.930  1.00  0.00     0.238 C 
HETATM   24  N3  UNL     1      39.208  14.080  62.654  1.00  0.00    -0.062 NA
HETATM   25  O2  UNL     1      37.683  15.645  62.011  1.00  0.00    -0.276 OA
ENDBRANCH  19  23
ENDBRANCH  18  19
ENDBRANCH  16  18
ENDBRANCH   6  16
ENDBRANCH   3   4
ENDBRANCH   2   3
ENDBRANCH   1   2
BRANCH   1  26
HETATM   26  C13 UNL     1      42.922  21.174  64.220  1.00  0.00     0.000 C 
BRANCH  26  27
HETATM   27  C14 UNL     1      43.192  21.845  65.502  1.00  0.00     0.000 C 
BRANCH  27  28
HETATM   28  C15 UNL     1      44.107  22.964  65.645  1.00  0.00     0.002 C 
BRANCH  28  29
HETATM   29  C16 UNL     1      45.232  22.907  66.582  1.00  0.00     0.022 C 
BRANCH  29  30
HETATM   30  C17 UNL     1      45.346  23.980  67.583  1.00  0.00     0.148 C 
BRANCH  30  31
HETATM   31  N6  UNL     1      46.489  24.864  67.277  1.00  0.00    -0.303 N 
HETATM   32  C18 UNL     1      47.349  25.349  68.187  1.00  0.00     0.112 A 
HETATM   33  C19 UNL     1      48.246  26.103  67.434  1.00  0.00     0.055 A 
HETATM   34  C20 UNL     1      47.881  26.037  66.093  1.00  0.00     0.117 A 
HETATM   35  N10 UNL     1      46.785  25.255  66.070  1.00  0.00    -0.294 N 
ATOM     36  H10 UNL     1      46.263  25.005  65.231  1.00  0.00     0.187 HD
BRANCH  34  37
HETATM   37  C21 UNL     1      48.549  26.674  64.967  1.00  0.00     0.269 C 
HETATM   38  O3  UNL     1      48.618  27.914  64.938  1.00  0.00    -0.266 OA
HETATM   39  N7  UNL     1      49.094  25.884  63.947  1.00  0.00    -0.354 N 
ATOM     40  H7  UNL     1      49.004  24.870  64.012  1.00  0.00     0.162 HD
BRANCH  39  41
HETATM   41  C22 UNL     1      49.772  26.445  62.820  1.00  0.00     0.142 C 
BRANCH  41  42
HETATM   42  C23 UNL     1      49.345  25.773  61.552  1.00  0.00     0.142 C 
BRANCH  42  43
HETATM   43  N8  UNL     1      48.282  24.844  61.825  1.00  0.00    -0.359 N 
HETATM   44  C24 UNL     1      48.308  23.478  61.434  1.00  0.00     0.226 C 
HETATM   45  O4  UNL     1      49.294  23.034  60.825  1.00  0.00    -0.273 OA
ATOM     46  H8  UNL     1      47.463  25.185  62.328  1.00  0.00     0.162 HD
BRANCH  44  47
HETATM   47  C25 UNL     1      47.173  22.570  61.740  1.00  0.00     0.202 C 
BRANCH  47  48
HETATM   48  C26 UNL     1      47.135  22.197  63.149  1.00  0.00     0.239 C 
HETATM   49  N9  UNL     1      47.872  22.964  64.114  1.00  0.00    -0.062 NA
HETATM   50  O5  UNL     1      46.483  21.232  63.560  1.00  0.00    -0.276 OA
ENDBRANCH  47  48
ENDBRANCH  44  47
ENDBRANCH  42  43
ENDBRANCH  41  42
ENDBRANCH  39  41
ENDBRANCH  34  37
ENDBRANCH  30  31
ENDBRANCH  29  30
ENDBRANCH  28  29
ENDBRANCH  27  28
ENDBRANCH  26  27
ENDBRANCH   1  26
TORSDOF 21
ENDMDL
MODEL 2
REMARK VINA RESULT: -8.849225327      1.989      4.613
REMARK  21 active torsions:
REMARK  status: ('A' for Active; 'I' for Inactive)
REMARK    1  A    between atoms: C5_7  and  N2_8 
REMARK    2  A    between atoms: N2_8  and  C6_10 
REMARK    3  A    between atoms: C6_10  and  C7_11 
REMARK    4  A    between atoms: C7_11  and  C8_12 
REMARK    5  A    between atoms: C7_11  and  C9_15 
REMARK    6  A    between atoms: C8_12  and  O1_13 
REMARK    7  A    between atoms: N5_20  and  C10_21 
REMARK    8  A    between atoms: C10_21  and  C11_22 
REMARK    9  A    between atoms: C11_22  and  C12_23 
REMARK   10  A    between atoms: C12_23  and  C13_24 
REMARK   11  A    between atoms: C13_24  and  C14_25 
REMARK   12  A    between atoms: C14_25  and  C15_26 
REMARK   13  A    between atoms: C15_26  and  C16_27 
REMARK   14  A    between atoms: C16_27  and  C17_28 
REMARK   15  A    between atoms: C17_28  and  N6_29 
REMARK   16  A    between atoms: C20_32  and  C21_33 
REMARK       I    between atoms: C21_33  and  N7_35 
REMARK   17  A    between atoms: N7_35  and  C22_37 
REMARK   18  A    between atoms: C22_37  and  C23_38 
REMARK   19  A    between atoms: C23_38  and  N8_39 
REMARK       I    between atoms: N8_39  and  C24_41 
REMARK   20  A    between atoms: C24_41  and  C25_43 
REMARK   21  A    between atoms: C25_43  and  C26_44 
ROOT
HETATM    1  C12 UNL     1      41.986  20.157  63.854  1.00  0.00     0.002 C 
ENDROOT
BRANCH   1   2
HETATM    2  C11 UNL     1      42.116  18.757  63.396  1.00  0.00     0.022 C 
BRANCH   2   3
HETATM    3  C10 UNL     1      41.957  17.670  64.380  1.00  0.00     0.148 C 
BRANCH   3   4
HETATM    4  N5  UNL     1      40.729  16.914  64.309  1.00  0.00    -0.301 N 
HETATM    5  N4  UNL     1      39.944  16.857  65.401  1.00  0.00    -0.282 N 
HETATM    6  C5  UNL     1      38.790  16.184  65.397  1.00  0.00     0.144 A 
ATOM      7  H4  UNL     1      40.236  17.339  66.250  1.00  0.00     0.189 HD
HETATM    8  C4  UNL     1      38.324  15.506  64.282  1.00  0.00     0.090 A 
HETATM    9  N1  UNL     1      37.234  14.766  63.997  1.00  0.00    -0.362 N 
HETATM   10  C28 UNL     1      39.109  15.549  63.150  1.00  0.00     0.019 A 
HETATM   11  C3  UNL     1      37.310  14.342  62.712  1.00  0.00     0.096 A 
ATOM     12  H1  UNL     1      36.474  14.560  64.645  1.00  0.00     0.165 HD
HETATM   13  C2  UNL     1      38.477  14.817  62.154  1.00  0.00    -0.033 A 
HETATM   14  C1  UNL     1      38.962  14.594  60.769  1.00  0.00     0.050 C 
HETATM   15  C27 UNL     1      40.288  16.262  63.226  1.00  0.00     0.124 A 
BRANCH   6  16
HETATM   16  N2  UNL     1      38.030  16.129  66.451  1.00  0.00    -0.372 N 
ATOM     17  H2  UNL     1      37.281  15.439  66.509  1.00  0.00     0.161 HD
BRANCH  16  18
HETATM   18  C6  UNL     1      38.257  17.061  67.551  1.00  0.00     0.137 C 
BRANCH  18  19
HETATM   19  C7  UNL     1      36.993  17.863  67.792  1.00  0.00     0.116 C 
BRANCH  19  20
HETATM   20  C8  UNL     1      37.172  19.269  67.254  1.00  0.00     0.179 C 
BRANCH  20  21
HETATM   21  O1  UNL     1      37.937  19.300  66.112  1.00  0.00    -0.400 OA
ATOM     22  H1  UNL     1      37.598  19.908  65.465  1.00  0.00     0.209 HD
ENDBRANCH  20  21
ENDBRANCH  19  20
BRANCH  19  23
HETATM   23  C9  UNL     1      35.841  17.160  67.214  1.00  0.00     0.238 C 
HETATM   24  N3  UNL     1      35.126  16.134  67.889  1.00  0.00    -0.062 NA
HETATM   25  O2  UNL     1      35.440  17.460  66.063  1.00  0.00    -0.276 OA
ENDBRANCH  19  23
ENDBRANCH  18  19
ENDBRANCH  16  18
ENDBRANCH   6  16
ENDBRANCH   3   4
ENDBRANCH   2   3
ENDBRANCH   1   2
BRANCH   1  26
HETATM   26  C13 UNL     1      41.245  20.342  65.163  1.00  0.00     0.000 C 
BRANCH  26  27
HETATM   27  C14 UNL     1      42.007  21.096  66.172  1.00  0.00     0.000 C 
BRANCH  27  28
HETATM   28  C15 UNL     1      43.031  22.073  65.841  1.00  0.00     0.002 C 
BRANCH  28  29
HETATM   29  C16 UNL     1      44.307  22.103  66.558  1.00  0.00     0.022 C 
BRANCH  29  30
HETATM   30  C17 UNL     1      45.173  20.916  66.468  1.00  0.00     0.148 C 
BRANCH  30  31
HETATM   31  N6  UNL     1      45.766  20.800  65.120  1.00  0.00    -0.303 N 
HETATM   32  C18 UNL     1      45.580  19.764  64.287  1.00  0.00     0.112 A 
HETATM   33  C19 UNL     1      46.311  20.109  63.152  1.00  0.00     0.055 A 
HETATM   34  C20 UNL     1      46.910  21.348  63.357  1.00  0.00     0.117 A 
HETATM   35  N10 UNL     1      46.530  21.716  64.596  1.00  0.00    -0.294 N 
ATOM     36  H10 UNL     1      46.801  22.584  65.056  1.00  0.00     0.187 HD
BRANCH  34  37
HETATM   37  C21 UNL     1      47.755  22.082  62.426  1.00  0.00     0.269 C 
HETATM   38  O3  UNL     1      48.768  21.523  61.973  1.00  0.00    -0.266 OA
HETATM   39  N7  UNL     1      47.415  23.390  62.064  1.00  0.00    -0.354 N 
ATOM     40  H7  UNL     1      46.578  23.809  62.469  1.00  0.00     0.162 HD
BRANCH  39  41
HETATM   41  C22 UNL     1      48.196  24.162  61.147  1.00  0.00     0.142 C 
BRANCH  41  42
HETATM   42  C23 UNL     1      48.888  25.287  61.851  1.00  0.00     0.142 C 
BRANCH  42  43
HETATM   43  N8  UNL     1      48.436  25.363  63.214  1.00  0.00    -0.359 N 
HETATM   44  C24 UNL     1      49.156  26.019  64.248  1.00  0.00     0.226 C 
HETATM   45  O4  UNL     1      50.237  26.570  63.988  1.00  0.00    -0.273 OA
ATOM     46  H8  UNL     1      47.548  24.921  63.452  1.00  0.00     0.162 HD
BRANCH  44  47
HETATM   47  C25 UNL     1      48.639  26.057  65.640  1.00  0.00     0.202 C 
BRANCH  47  48
HETATM   48  C26 UNL     1      48.681  24.745  66.276  1.00  0.00     0.239 C 
HETATM   49  N9  UNL     1      48.454  24.626  67.689  1.00  0.00    -0.062 NA
HETATM   50  O5  UNL     1      48.908  23.711  65.641  1.00  0.00    -0.276 OA
ENDBRANCH  47  48
ENDBRANCH  44  47
ENDBRANCH  42  43
ENDBRANCH  41  42
ENDBRANCH  39  41
ENDBRANCH  34  37
ENDBRANCH  30  31
ENDBRANCH  29  30
ENDBRANCH  28  29
ENDBRANCH  27  28
ENDBRANCH  26  27
ENDBRANCH   1  26
TORSDOF 21
ENDMDL
MODEL 3
REMARK VINA RESULT: -8.820878992      2.163      4.088
REMARK  21 active torsions:
REMARK  status: ('A' for Active; 'I' for Inactive)
REMARK    1  A    between atoms: C5_7  and  N2_8 
REMARK    2  A    between atoms: N2_8  and  C6_10 
REMARK    3  A    between atoms: C6_10  and  C7_11 
REMARK    4  A    between atoms: C7_11  and  C8_12 
REMARK    5  A    between atoms: C7_11  and  C9_15 
REMARK    6  A    between atoms: C8_12  and  O1_13 
REMARK    7  A    between atoms: N5_20  and  C10_21 
REMARK    8  A    between atoms: C10_21  and  C11_22 
REMARK    9  A    between atoms: C11_22  and  C12_23 
REMARK   10  A    between atoms: C12_23  and  C13_24 
REMARK   11  A    between atoms: C13_24  and  C14_25 
REMARK   12  A    between atoms: C14_25  and  C15_26 
REMARK   13  A    between atoms: C15_26  and  C16_27 
REMARK   14  A    between atoms: C16_27  and  C17_28 
REMARK   15  A    between atoms: C17_28  and  N6_29 
REMARK   16  A    between atoms: C20_32  and  C21_33 
REMARK       I    between atoms: C21_33  and  N7_35 
REMARK   17  A    between atoms: N7_35  and  C22_37 
REMARK   18  A    between atoms: C22_37  and  C23_38 
REMARK   19  A    between atoms: C23_38  and  N8_39 
REMARK       I    between atoms: N8_39  and  C24_41 
REMARK   20  A    between atoms: C24_41  and  C25_43 
REMARK   21  A    between atoms: C25_43  and  C26_44 
ROOT
HETATM    1  C12 UNL     1      43.806  19.864  62.543  1.00  0.00     0.002 C 
ENDROOT
BRANCH   1   2
HETATM    2  C11 UNL     1      42.579  19.185  63.013  1.00  0.00     0.022 C 
BRANCH   2   3
HETATM    3  C10 UNL     1      42.581  17.714  63.131  1.00  0.00     0.148 C 
BRANCH   3   4
HETATM    4  N5  UNL     1      41.324  17.098  63.481  1.00  0.00    -0.301 N 
HETATM    5  N4  UNL     1      40.801  17.347  64.696  1.00  0.00    -0.282 N 
HETATM    6  C5  UNL     1      39.636  16.816  65.078  1.00  0.00     0.144 A 
ATOM      7  H4  UNL     1      41.305  17.957  65.340  1.00  0.00     0.189 HD
HETATM    8  C4  UNL     1      38.892  15.981  64.259  1.00  0.00     0.090 A 
HETATM    9  N1  UNL     1      37.722  15.322  64.375  1.00  0.00    -0.362 N 
HETATM   10  C28 UNL     1      39.406  15.709  63.010  1.00  0.00     0.019 A 
HETATM   11  C3  UNL     1      37.483  14.640  63.227  1.00  0.00     0.096 A 
ATOM     12  H1  UNL     1      37.115  15.333  65.193  1.00  0.00     0.165 HD
HETATM   13  C2  UNL     1      38.524  14.864  62.351  1.00  0.00    -0.033 A 
HETATM   14  C1  UNL     1      38.673  14.314  60.981  1.00  0.00     0.050 C 
HETATM   15  C27 UNL     1      40.613  16.291  62.683  1.00  0.00     0.124 A 
BRANCH   6  16
HETATM   16  N2  UNL     1      39.129  17.058  66.251  1.00  0.00    -0.372 N 
ATOM     17  H2  UNL     1      39.279  16.405  67.020  1.00  0.00     0.161 HD
BRANCH  16  18
HETATM   18  C6  UNL     1      38.343  18.269  66.459  1.00  0.00     0.137 C 
BRANCH  18  19
HETATM   19  C7  UNL     1      38.987  19.100  67.552  1.00  0.00     0.116 C 
BRANCH  19  20
HETATM   20  C8  UNL     1      39.870  18.215  68.410  1.00  0.00     0.179 C 
BRANCH  20  21
HETATM   21  O1  UNL     1      41.155  18.133  67.929  1.00  0.00    -0.400 OA
ATOM     22  H1  UNL     1      41.772  17.841  68.590  1.00  0.00     0.209 HD
ENDBRANCH  20  21
ENDBRANCH  19  20
BRANCH  19  23
HETATM   23  C9  UNL     1      39.704  20.235  66.955  1.00  0.00     0.238 C 
HETATM   24  N3  UNL     1      40.699  20.097  65.950  1.00  0.00    -0.062 NA
HETATM   25  O2  UNL     1      39.444  21.404  67.331  1.00  0.00    -0.276 OA
ENDBRANCH  19  23
ENDBRANCH  18  19
ENDBRANCH  16  18
ENDBRANCH   6  16
ENDBRANCH   3   4
ENDBRANCH   2   3
ENDBRANCH   1   2
BRANCH   1  26
HETATM   26  C13 UNL     1      45.107  19.259  63.034  1.00  0.00     0.000 C 
BRANCH  26  27
HETATM   27  C14 UNL     1      45.681  19.955  64.197  1.00  0.00     0.000 C 
BRANCH  27  28
HETATM   28  C15 UNL     1      45.193  19.786  65.555  1.00  0.00     0.002 C 
BRANCH  28  29
HETATM   29  C16 UNL     1      44.241  20.732  66.141  1.00  0.00     0.022 C 
BRANCH  29  30
HETATM   30  C17 UNL     1      44.161  22.078  65.550  1.00  0.00     0.148 C 
BRANCH  30  31
HETATM   31  N6  UNL     1      45.168  22.975  66.151  1.00  0.00    -0.303 N 
HETATM   32  C18 UNL     1      45.171  23.378  67.431  1.00  0.00     0.112 A 
HETATM   33  C19 UNL     1      46.303  24.184  67.529  1.00  0.00     0.055 A 
HETATM   34  C20 UNL     1      46.936  24.230  66.292  1.00  0.00     0.117 A 
HETATM   35  N10 UNL     1      46.179  23.460  65.486  1.00  0.00    -0.294 N 
ATOM     36  H10 UNL     1      46.368  23.284  64.500  1.00  0.00     0.187 HD
BRANCH  34  37
HETATM   37  C21 UNL     1      48.155  24.950  65.952  1.00  0.00     0.269 C 
HETATM   38  O3  UNL     1      49.063  25.018  66.798  1.00  0.00    -0.266 OA
HETATM   39  N7  UNL     1      48.279  25.548  64.693  1.00  0.00    -0.354 N 
ATOM     40  H7  UNL     1      47.502  25.473  64.036  1.00  0.00     0.162 HD
BRANCH  39  41
HETATM   41  C22 UNL     1      49.453  26.261  64.292  1.00  0.00     0.142 C 
BRANCH  41  42
HETATM   42  C23 UNL     1      49.553  26.327  62.800  1.00  0.00     0.142 C 
BRANCH  42  43
HETATM   43  N8  UNL     1      48.592  25.438  62.205  1.00  0.00    -0.359 N 
HETATM   44  C24 UNL     1      48.919  24.471  61.217  1.00  0.00     0.226 C 
HETATM   45  O4  UNL     1      50.094  24.363  60.830  1.00  0.00    -0.273 OA
ATOM     46  H8  UNL     1      47.621  25.505  62.510  1.00  0.00     0.162 HD
BRANCH  44  47
HETATM   47  C25 UNL     1      47.879  23.585  60.635  1.00  0.00     0.202 C 
BRANCH  47  48
HETATM   48  C26 UNL     1      47.157  22.841  61.661  1.00  0.00     0.239 C 
HETATM   49  N9  UNL     1      47.745  22.653  62.957  1.00  0.00    -0.062 NA
HETATM   50  O5  UNL     1      46.039  22.356  61.461  1.00  0.00    -0.276 OA
ENDBRANCH  47  48
ENDBRANCH  44  47
ENDBRANCH  42  43
ENDBRANCH  41  42
ENDBRANCH  39  41
ENDBRANCH  34  37
ENDBRANCH  30  31
ENDBRANCH  29  30
ENDBRANCH  28  29
ENDBRANCH  27  28
ENDBRANCH  26  27
ENDBRANCH   1  26
TORSDOF 21
ENDMDL
MODEL 4
REMARK VINA RESULT: -8.577182372      1.899      3.543
REMARK  21 active torsions:
REMARK  status: ('A' for Active; 'I' for Inactive)
REMARK    1  A    between atoms: C5_7  and  N2_8 
REMARK    2  A    between atoms: N2_8  and  C6_10 
REMARK    3  A    between atoms: C6_10  and  C7_11 
REMARK    4  A    between atoms: C7_11  and  C8_12 
REMARK    5  A    between atoms: C7_11  and  C9_15 
REMARK    6  A    between atoms: C8_12  and  O1_13 
REMARK    7  A    between atoms: N5_20  and  C10_21 
REMARK    8  A    between atoms: C10_21  and  C11_22 
REMARK    9  A    between atoms: C11_22  and  C12_23 
REMARK   10  A    between atoms: C12_23  and  C13_24 
REMARK   11  A    between atoms: C13_24  and  C14_25 
REMARK   12  A    between atoms: C14_25  and  C15_26 
REMARK   13  A    between atoms: C15_26  and  C16_27 
REMARK   14  A    between atoms: C16_27  and  C17_28 
REMARK   15  A    between atoms: C17_28  and  N6_29 
REMARK   16  A    between atoms: C20_32  and  C21_33 
REMARK       I    between atoms: C21_33  and  N7_35 
REMARK   17  A    between atoms: N7_35  and  C22_37 
REMARK   18  A    between atoms: C22_37  and  C23_38 
REMARK   19  A    between atoms: C23_38  and  N8_39 
REMARK       I    between atoms: N8_39  and  C24_41 
REMARK   20  A    between atoms: C24_41  and  C25_43 
REMARK   21  A    between atoms: C25_43  and  C26_44 
ROOT
HETATM    1  C12 UNL     1      43.355  19.811  62.834  1.00  0.00     0.002 C 
ENDROOT
BRANCH   1   2
HETATM    2  C11 UNL     1      42.838  18.749  63.723  1.00  0.00     0.022 C 
BRANCH   2   3
HETATM    3  C10 UNL     1      42.482  17.443  63.136  1.00  0.00     0.148 C 
BRANCH   3   4
HETATM    4  N5  UNL     1      41.213  16.884  63.539  1.00  0.00    -0.301 N 
HETATM    5  N4  UNL     1      40.779  17.109  64.793  1.00  0.00    -0.282 N 
HETATM    6  C5  UNL     1      39.609  16.628  65.225  1.00  0.00     0.144 A 
ATOM      7  H4  UNL     1      41.356  17.659  65.429  1.00  0.00     0.189 HD
HETATM    8  C4  UNL     1      38.769  15.874  64.421  1.00  0.00     0.090 A 
HETATM    9  N1  UNL     1      37.571  15.278  64.582  1.00  0.00    -0.362 N 
HETATM   10  C28 UNL     1      39.190  15.629  63.131  1.00  0.00     0.019 A 
HETATM   11  C3  UNL     1      37.224  14.664  63.424  1.00  0.00     0.096 A 
ATOM     12  H1  UNL     1      37.016  15.289  65.437  1.00  0.00     0.165 HD
HETATM   13  C2  UNL     1      38.221  14.867  62.495  1.00  0.00    -0.033 A 
HETATM   14  C1  UNL     1      38.255  14.371  61.096  1.00  0.00     0.050 C 
HETATM   15  C27 UNL     1      40.409  16.156  62.754  1.00  0.00     0.124 A 
BRANCH   6  16
HETATM   16  N2  UNL     1      39.189  16.846  66.436  1.00  0.00    -0.372 N 
ATOM     17  H2  UNL     1      39.264  16.116  67.145  1.00  0.00     0.161 HD
BRANCH  16  18
HETATM   18  C6  UNL     1      38.609  18.141  66.774  1.00  0.00     0.137 C 
BRANCH  18  19
HETATM   19  C7  UNL     1      37.444  17.934  67.723  1.00  0.00     0.116 C 
BRANCH  19  20
HETATM   20  C8  UNL     1      36.148  18.293  67.025  1.00  0.00     0.179 C 
BRANCH  20  21
HETATM   21  O1  UNL     1      36.004  17.646  65.820  1.00  0.00    -0.400 OA
ATOM     22  H1  UNL     1      35.981  18.248  65.086  1.00  0.00     0.209 HD
ENDBRANCH  20  21
ENDBRANCH  19  20
BRANCH  19  23
HETATM   23  C9  UNL     1      37.466  16.559  68.241  1.00  0.00     0.238 C 
HETATM   24  N3  UNL     1      36.711  15.495  67.680  1.00  0.00    -0.062 NA
HETATM   25  O2  UNL     1      38.182  16.278  69.233  1.00  0.00    -0.276 OA
ENDBRANCH  19  23
ENDBRANCH  18  19
ENDBRANCH  16  18
ENDBRANCH   6  16
ENDBRANCH   3   4
ENDBRANCH   2   3
ENDBRANCH   1   2
BRANCH   1  26
HETATM   26  C13 UNL     1      43.615  21.145  63.505  1.00  0.00     0.000 C 
BRANCH  26  27
HETATM   27  C14 UNL     1      42.587  21.522  64.490  1.00  0.00     0.000 C 
BRANCH  27  28
HETATM   28  C15 UNL     1      42.863  21.723  65.902  1.00  0.00     0.002 C 
BRANCH  28  29
HETATM   29  C16 UNL     1      44.228  21.632  66.426  1.00  0.00     0.022 C 
BRANCH  29  30
HETATM   30  C17 UNL     1      44.574  22.469  67.587  1.00  0.00     0.148 C 
BRANCH  30  31
HETATM   31  N6  UNL     1      45.514  23.540  67.200  1.00  0.00    -0.303 N 
HETATM   32  C18 UNL     1      45.556  24.762  67.754  1.00  0.00     0.112 A 
HETATM   33  C19 UNL     1      46.597  25.401  67.084  1.00  0.00     0.055 A 
HETATM   34  C20 UNL     1      47.139  24.526  66.149  1.00  0.00     0.117 A 
HETATM   35  N10 UNL     1      46.420  23.395  66.275  1.00  0.00    -0.294 N 
ATOM     36  H10 UNL     1      46.563  22.547  65.726  1.00  0.00     0.187 HD
BRANCH  34  37
HETATM   37  C21 UNL     1      48.247  24.785  65.240  1.00  0.00     0.269 C 
HETATM   38  O3  UNL     1      49.235  24.032  65.274  1.00  0.00    -0.266 OA
HETATM   39  N7  UNL     1      48.179  25.867  64.354  1.00  0.00    -0.354 N 
ATOM     40  H7  UNL     1      47.351  26.462  64.370  1.00  0.00     0.162 HD
BRANCH  39  41
HETATM   41  C22 UNL     1      49.227  26.170  63.429  1.00  0.00     0.142 C 
BRANCH  41  42
HETATM   42  C23 UNL     1      48.906  25.636  62.068  1.00  0.00     0.142 C 
BRANCH  42  43
HETATM   43  N8  UNL     1      48.327  24.325  62.180  1.00  0.00    -0.359 N 
HETATM   44  C24 UNL     1      47.654  23.666  61.116  1.00  0.00     0.226 C 
HETATM   45  O4  UNL     1      47.550  24.229  60.014  1.00  0.00    -0.273 OA
ATOM     46  H8  UNL     1      48.403  23.840  63.074  1.00  0.00     0.162 HD
BRANCH  44  47
HETATM   47  C25 UNL     1      47.069  22.313  61.297  1.00  0.00     0.202 C 
BRANCH  47  48
HETATM   48  C26 UNL     1      47.558  21.663  62.508  1.00  0.00     0.239 C 
HETATM   49  N9  UNL     1      48.767  20.890  62.470  1.00  0.00    -0.062 NA
HETATM   50  O5  UNL     1      46.966  21.751  63.589  1.00  0.00    -0.276 OA
ENDBRANCH  47  48
ENDBRANCH  44  47
ENDBRANCH  42  43
ENDBRANCH  41  42
ENDBRANCH  39  41
ENDBRANCH  34  37
ENDBRANCH  30  31
ENDBRANCH  29  30
ENDBRANCH  28  29
ENDBRANCH  27  28
ENDBRANCH  26  27
ENDBRANCH   1  26
TORSDOF 21
ENDMDL
MODEL 5
REMARK VINA RESULT: -8.553075452      2.057      4.780
REMARK  21 active torsions:
REMARK  status: ('A' for Active; 'I' for Inactive)
REMARK    1  A    between atoms: C5_7  and  N2_8 
REMARK    2  A    between atoms: N2_8  and  C6_10 
REMARK    3  A    between atoms: C6_10  and  C7_11 
REMARK    4  A    between atoms: C7_11  and  C8_12 
REMARK    5  A    between atoms: C7_11  and  C9_15 
REMARK    6  A    between atoms: C8_12  and  O1_13 
REMARK    7  A    between atoms: N5_20  and  C10_21 
REMARK    8  A    between atoms: C10_21  and  C11_22 
REMARK    9  A    between atoms: C11_22  and  C12_23 
REMARK   10  A    between atoms: C12_23  and  C13_24 
REMARK   11  A    between atoms: C13_24  and  C14_25 
REMARK   12  A    between atoms: C14_25  and  C15_26 
REMARK   13  A    between atoms: C15_26  and  C16_27 
REMARK   14  A    between atoms: C16_27  and  C17_28 
REMARK   15  A    between atoms: C17_28  and  N6_29 
REMARK   16  A    between atoms: C20_32  and  C21_33 
REMARK       I    between atoms: C21_33  and  N7_35 
REMARK   17  A    between atoms: N7_35  and  C22_37 
REMARK   18  A    between atoms: C22_37  and  C23_38 
REMARK   19  A    between atoms: C23_38  and  N8_39 
REMARK       I    between atoms: N8_39  and  C24_41 
REMARK   20  A    between atoms: C24_41  and  C25_43 
REMARK   21  A    between atoms: C25_43  and  C26_44 
ROOT
HETATM    1  C12 UNL     1      42.610  21.893  64.554  1.00  0.00     0.002 C 
ENDROOT
BRANCH   1   2
HETATM    2  C11 UNL     1      41.562  20.857  64.679  1.00  0.00     0.022 C 
BRANCH   2   3
HETATM    3  C10 UNL     1      41.603  19.693  63.774  1.00  0.00     0.148 C 
BRANCH   3   4
HETATM    4  N5  UNL     1      40.687  18.617  64.071  1.00  0.00    -0.301 N 
HETATM    5  N4  UNL     1      40.211  18.505  65.325  1.00  0.00    -0.282 N 
HETATM    6  C5  UNL     1      39.352  17.539  65.663  1.00  0.00     0.144 A 
ATOM      7  H4  UNL     1      40.513  19.173  66.034  1.00  0.00     0.189 HD
HETATM    8  C4  UNL     1      38.896  16.595  64.756  1.00  0.00     0.090 A 
HETATM    9  N1  UNL     1      38.057  15.542  64.812  1.00  0.00    -0.362 N 
HETATM   10  C28 UNL     1      39.368  16.688  63.465  1.00  0.00     0.019 A 
HETATM   11  C3  UNL     1      37.986  14.967  63.587  1.00  0.00     0.096 A 
ATOM     12  H1  UNL     1      37.556  15.228  65.643  1.00  0.00     0.165 HD
HETATM   13  C2  UNL     1      38.799  15.665  62.719  1.00  0.00    -0.033 A 
HETATM   14  C1  UNL     1      39.022  15.382  61.280  1.00  0.00     0.050 C 
HETATM   15  C27 UNL     1      40.252  17.710  63.188  1.00  0.00     0.124 A 
BRANCH   6  16
HETATM   16  N2  UNL     1      38.891  17.430  66.874  1.00  0.00    -0.372 N 
ATOM     17  H2  UNL     1      39.246  16.703  67.495  1.00  0.00     0.161 HD
BRANCH  16  18
HETATM   18  C6  UNL     1      37.863  18.355  67.338  1.00  0.00     0.137 C 
BRANCH  18  19
HETATM   19  C7  UNL     1      36.787  17.578  68.071  1.00  0.00     0.116 C 
BRANCH  19  20
HETATM   20  C8  UNL     1      35.532  17.521  67.223  1.00  0.00     0.179 C 
BRANCH  20  21
HETATM   21  O1  UNL     1      35.805  17.595  65.878  1.00  0.00    -0.400 OA
ATOM     22  H1  UNL     1      35.817  16.740  65.463  1.00  0.00     0.209 HD
ENDBRANCH  20  21
ENDBRANCH  19  20
BRANCH  19  23
HETATM   23  C9  UNL     1      37.300  16.252  68.443  1.00  0.00     0.238 C 
HETATM   24  N3  UNL     1      38.120  16.016  69.579  1.00  0.00    -0.062 NA
HETATM   25  O2  UNL     1      37.013  15.253  67.740  1.00  0.00    -0.276 OA
ENDBRANCH  19  23
ENDBRANCH  18  19
ENDBRANCH  16  18
ENDBRANCH   6  16
ENDBRANCH   3   4
ENDBRANCH   2   3
ENDBRANCH   1   2
BRANCH   1  26
HETATM   26  C13 UNL     1      43.472  22.090  65.785  1.00  0.00     0.000 C 
BRANCH  26  27
HETATM   27  C14 UNL     1      44.862  21.638  65.611  1.00  0.00     0.000 C 
BRANCH  27  28
HETATM   28  C15 UNL     1      45.276  20.250  65.733  1.00  0.00     0.002 C 
BRANCH  28  29
HETATM   29  C16 UNL     1      45.198  19.335  64.592  1.00  0.00     0.022 C 
BRANCH  29  30
HETATM   30  C17 UNL     1      46.316  19.338  63.634  1.00  0.00     0.148 C 
BRANCH  30  31
HETATM   31  N6  UNL     1      46.167  20.437  62.659  1.00  0.00    -0.303 N 
HETATM   32  C18 UNL     1      45.158  20.554  61.781  1.00  0.00     0.112 A 
HETATM   33  C19 UNL     1      45.438  21.736  61.100  1.00  0.00     0.055 A 
HETATM   34  C20 UNL     1      46.614  22.282  61.602  1.00  0.00     0.117 A 
HETATM   35  N10 UNL     1      47.011  21.425  62.563  1.00  0.00    -0.294 N 
ATOM     36  H10 UNL     1      47.850  21.534  63.132  1.00  0.00     0.187 HD
BRANCH  34  37
HETATM   37  C21 UNL     1      47.263  23.514  61.180  1.00  0.00     0.269 C 
HETATM   38  O3  UNL     1      46.995  23.976  60.058  1.00  0.00    -0.266 OA
HETATM   39  N7  UNL     1      48.169  24.150  62.037  1.00  0.00    -0.354 N 
ATOM     40  H7  UNL     1      48.364  23.728  62.945  1.00  0.00     0.162 HD
BRANCH  39  41
HETATM   41  C22 UNL     1      48.833  25.368  61.688  1.00  0.00     0.142 C 
BRANCH  41  42
HETATM   42  C23 UNL     1      49.281  26.102  62.914  1.00  0.00     0.142 C 
BRANCH  42  43
HETATM   43  N8  UNL     1      48.531  25.650  64.055  1.00  0.00    -0.359 N 
HETATM   44  C24 UNL     1      48.237  26.469  65.179  1.00  0.00     0.226 C 
HETATM   45  O4  UNL     1      48.631  27.645  65.201  1.00  0.00    -0.273 OA
ATOM     46  H8  UNL     1      48.192  24.688  64.058  1.00  0.00     0.162 HD
BRANCH  44  47
HETATM   47  C25 UNL     1      47.463  25.941  66.331  1.00  0.00     0.202 C 
BRANCH  47  48
HETATM   48  C26 UNL     1      48.095  24.768  66.924  1.00  0.00     0.239 C 
HETATM   49  N9  UNL     1      48.082  24.589  68.349  1.00  0.00    -0.062 NA
HETATM   50  O5  UNL     1      48.654  23.903  66.242  1.00  0.00    -0.276 OA
ENDBRANCH  47  48
ENDBRANCH  44  47
ENDBRANCH  42  43
ENDBRANCH  41  42
ENDBRANCH  39  41
ENDBRANCH  34  37
ENDBRANCH  30  31
ENDBRANCH  29  30
ENDBRANCH  28  29
ENDBRANCH  27  28
ENDBRANCH  26  27
ENDBRANCH   1  26
TORSDOF 21
ENDMDL
