MODEL 1
REMARK VINA RESULT: -7.344417049      0.000      0.000
REMARK  21 active torsions:
REMARK  status: ('A' for Active; 'I' for Inactive)
REMARK    1  A    between atoms: C2_2  and  C3_3 
REMARK    2  A    between atoms: C3_3  and  C5_5 
REMARK    3  A    between atoms: C6_8  and  O1_9 
REMARK    4  A    between atoms: C7_11  and  N2_12 
REMARK       I    between atoms: N2_12  and  C9_14 
REMARK    5  A    between atoms: C9_14  and  C10_16 
REMARK    6  A    between atoms: C10_16  and  C11_17 
REMARK    7  A    between atoms: C11_17  and  C12_18 
REMARK    8  A    between atoms: C12_18  and  C13_19 
REMARK    9  A    between atoms: C13_19  and  N3_20 
REMARK   10  A    between atoms: N3_20  and  C14_22 
REMARK   11  A    between atoms: C14_22  and  C15_23 
REMARK   12  A    between atoms: C15_23  and  C16_24 
REMARK   13  A    between atoms: C16_24  and  C17_25 
REMARK   14  A    between atoms: N6_32  and  C20_34 
REMARK   15  A    between atoms: C21_38  and  O4_39 
REMARK   16  A    between atoms: C22_41  and  C23_42 
REMARK   17  A    between atoms: C23_42  and  C24_43 
REMARK   18  A    between atoms: C24_43  and  C25_44 
REMARK   19  A    between atoms: C25_44  and  C26_45 
REMARK   20  A    between atoms: C26_45  and  N8_46 
REMARK   21  A    between atoms: C28_52  and  O5_53 
ROOT
HETATM    1  C5  UNL     1     -10.393  16.193   4.787  1.00  0.00     0.162 C 
HETATM    2  N1  UNL     1     -10.231  16.815   3.481  1.00  0.00    -0.355 N 
ATOM      3  H1  UNL     1      -9.258  17.044   3.274  1.00  0.00     0.162 HD
HETATM    4  C6  UNL     1     -11.089  17.169   2.452  1.00  0.00     0.182 C 
HETATM    5  C7  UNL     1     -11.804  16.450   1.414  1.00  0.00     0.163 C 
HETATM    6  N7  UNL     1     -12.874  15.564   1.714  1.00  0.00    -0.318 N 
ATOM      7  H7  UNL     1     -13.277  15.178   0.860  1.00  0.00     0.169 HD
HETATM    8  C21 UNL     1     -13.524  15.076   2.829  1.00  0.00     0.165 C 
HETATM    9  C22 UNL     1     -13.086  14.220   3.953  1.00  0.00     0.064 C 
HETATM   10  N9  UNL     1     -12.681  14.953   5.143  1.00  0.00    -0.334 N 
HETATM   11  C27 UNL     1     -13.384  14.542   6.400  1.00  0.00     0.158 C 
HETATM   12  C28 UNL     1     -11.737  15.992   5.246  1.00  0.00     0.141 C 
ENDROOT
BRANCH   5  13
HETATM   13  N2  UNL     1     -10.908  15.876   0.387  1.00  0.00    -0.305 N 
HETATM   14  C8  UNL     1     -10.489  14.494   0.394  1.00  0.00     0.161 C 
HETATM   15  C9  UNL     1     -10.423  16.697  -0.665  1.00  0.00     0.225 C 
HETATM   16  O2  UNL     1     -10.759  17.907  -0.713  1.00  0.00    -0.273 OA
BRANCH  15  17
HETATM   17  C10 UNL     1      -9.528  16.187  -1.721  1.00  0.00     0.103 C 
BRANCH  17  18
HETATM   18  C11 UNL     1     -10.308  16.033  -3.006  1.00  0.00     0.011 C 
BRANCH  18  19
HETATM   19  C12 UNL     1      -9.416  15.768  -4.184  1.00  0.00     0.020 C 
BRANCH  19  20
HETATM   20  C13 UNL     1      -9.005  17.084  -4.801  1.00  0.00     0.121 C 
BRANCH  20  21
HETATM   21  N3  UNL     1      -7.617  17.018  -5.165  1.00  0.00    -0.380 N 
ATOM     22  H3  UNL     1      -7.285  16.297  -5.806  1.00  0.00     0.160 HD
BRANCH  21  23
HETATM   23  C14 UNL     1      -6.695  17.988  -4.612  1.00  0.00     0.079 C 
HETATM   24  N6  UNL     1      -5.666  18.320  -5.284  1.00  0.00    -0.324 N 
ATOM     25  H6  UNL     1      -5.010  19.002  -4.903  1.00  0.00     0.169 HD
BRANCH  23  26
HETATM   26  C15 UNL     1      -7.018  18.510  -3.288  1.00  0.00     0.082 C 
BRANCH  26  27
HETATM   27  C16 UNL     1      -6.068  18.187  -2.186  1.00  0.00     0.066 C 
BRANCH  27  28
HETATM   28  C17 UNL     1      -6.621  18.153  -0.833  1.00  0.00     0.025 A 
HETATM   29  C18 UNL     1      -6.175  17.290   0.178  1.00  0.00     0.114 A 
HETATM   30  N4  UNL     1      -6.880  17.537   1.282  1.00  0.00    -0.360 N 
HETATM   31  C19 UNL     1      -7.747  18.517   1.000  1.00  0.00     0.180 A 
ATOM     32  H4  UNL     1      -6.779  17.063   2.179  1.00  0.00     0.166 HD
HETATM   33  N5  UNL     1      -7.585  18.885  -0.280  1.00  0.00    -0.355 N 
ATOM     34  H5  UNL     1      -8.117  19.612  -0.756  1.00  0.00     0.166 HD
ENDBRANCH  27  28
ENDBRANCH  26  27
ENDBRANCH  23  26
BRANCH  24  35
HETATM   35  C20 UNL     1      -5.425  17.750  -6.558  1.00  0.00     0.354 C 
HETATM   36  O3  UNL     1      -4.786  16.671  -6.609  1.00  0.00    -0.283 OA
ENDBRANCH  24  35
ENDBRANCH  21  23
ENDBRANCH  20  21
ENDBRANCH  19  20
ENDBRANCH  18  19
ENDBRANCH  17  18
ENDBRANCH  15  17
ENDBRANCH   5  13
BRANCH   4  37
HETATM   37  O1  UNL     1     -11.285  18.472   2.429  1.00  0.00    -0.344 OA
ATOM     38  H1  UNL     1     -11.848  18.744   3.145  1.00  0.00     0.219 HD
ENDBRANCH   4  37
BRANCH   8  39
HETATM   39  O4  UNL     1     -14.786  15.449   2.907  1.00  0.00    -0.345 OA
ATOM     40  H4  UNL     1     -15.313  14.891   3.468  1.00  0.00     0.219 HD
ENDBRANCH   8  39
BRANCH   1  41
HETATM   41  C3  UNL     1      -9.391  15.086   4.876  1.00  0.00     0.012 C 
HETATM   42  C4  UNL     1      -8.614  14.947   3.564  1.00  0.00     0.012 C 
BRANCH  41  43
HETATM   43  C2  UNL     1      -8.362  15.210   5.956  1.00  0.00     0.002 C 
HETATM   44  C1  UNL     1      -8.090  16.684   6.275  1.00  0.00     0.005 C 
ENDBRANCH  41  43
ENDBRANCH   1  41
BRANCH   9  45
HETATM   45  C23 UNL     1     -12.311  13.002   3.676  1.00  0.00     0.062 C 
BRANCH  45  46
HETATM   46  C24 UNL     1     -12.988  11.674   3.760  1.00  0.00     0.008 C 
BRANCH  46  47
HETATM   47  C25 UNL     1     -13.323  11.143   5.098  1.00  0.00     0.027 C 
BRANCH  47  48
HETATM   48  C26 UNL     1     -13.363   9.614   4.965  1.00  0.00     0.229 C 
BRANCH  48  49
HETATM   49  N8  UNL     1     -12.234   9.116   4.215  1.00  0.00    -0.079 N 
ATOM     50  H83 UNL     1     -12.482   8.944   3.240  1.00  0.00     0.274 HD
ATOM     51  H82 UNL     1     -11.532   9.842   4.074  1.00  0.00     0.274 HD
ATOM     52  H81 UNL     1     -11.831   8.286   4.649  1.00  0.00     0.274 HD
ENDBRANCH  48  49
ENDBRANCH  47  48
ENDBRANCH  46  47
ENDBRANCH  45  46
ENDBRANCH   9  45
BRANCH  12  53
HETATM   53  O5  UNL     1     -12.238  16.997   5.925  1.00  0.00    -0.348 OA
ATOM     54  H5  UNL     1     -12.502  17.740   5.396  1.00  0.00     0.219 HD
ENDBRANCH  12  53
TORSDOF 21
ENDMDL
MODEL 2
REMARK VINA RESULT: -7.145717886      2.059      4.472
REMARK  21 active torsions:
REMARK  status: ('A' for Active; 'I' for Inactive)
REMARK    1  A    between atoms: C2_2  and  C3_3 
REMARK    2  A    between atoms: C3_3  and  C5_5 
REMARK    3  A    between atoms: C6_8  and  O1_9 
REMARK    4  A    between atoms: C7_11  and  N2_12 
REMARK       I    between atoms: N2_12  and  C9_14 
REMARK    5  A    between atoms: C9_14  and  C10_16 
REMARK    6  A    between atoms: C10_16  and  C11_17 
REMARK    7  A    between atoms: C11_17  and  C12_18 
REMARK    8  A    between atoms: C12_18  and  C13_19 
REMARK    9  A    between atoms: C13_19  and  N3_20 
REMARK   10  A    between atoms: N3_20  and  C14_22 
REMARK   11  A    between atoms: C14_22  and  C15_23 
REMARK   12  A    between atoms: C15_23  and  C16_24 
REMARK   13  A    between atoms: C16_24  and  C17_25 
REMARK   14  A    between atoms: N6_32  and  C20_34 
REMARK   15  A    between atoms: C21_38  and  O4_39 
REMARK   16  A    between atoms: C22_41  and  C23_42 
REMARK   17  A    between atoms: C23_42  and  C24_43 
REMARK   18  A    between atoms: C24_43  and  C25_44 
REMARK   19  A    between atoms: C25_44  and  C26_45 
REMARK   20  A    between atoms: C26_45  and  N8_46 
REMARK   21  A    between atoms: C28_52  and  O5_53 
ROOT
HETATM    1  C5  UNL     1      -9.960  17.801   2.780  1.00  0.00     0.162 C 
HETATM    2  N1  UNL     1      -8.775  18.393   2.174  1.00  0.00    -0.355 N 
ATOM      3  H1  UNL     1      -8.022  18.536   2.847  1.00  0.00     0.162 HD
HETATM    4  C6  UNL     1      -8.432  18.806   0.897  1.00  0.00     0.182 C 
HETATM    5  C7  UNL     1      -8.059  18.137  -0.336  1.00  0.00     0.163 C 
HETATM    6  N7  UNL     1      -8.984  17.347  -1.072  1.00  0.00    -0.318 N 
ATOM      7  H7  UNL     1      -8.557  16.987  -1.925  1.00  0.00     0.169 HD
HETATM    8  C21 UNL     1     -10.295  16.928  -0.963  1.00  0.00     0.165 C 
HETATM    9  C22 UNL     1     -10.993  16.052   0.003  1.00  0.00     0.064 C 
HETATM   10  N9  UNL     1     -11.668  16.761   1.078  1.00  0.00    -0.334 N 
HETATM   11  C27 UNL     1     -13.120  16.426   1.233  1.00  0.00     0.158 C 
HETATM   12  C28 UNL     1     -11.133  17.719   1.960  1.00  0.00     0.141 C 
ENDROOT
BRANCH   5  13
HETATM   13  N2  UNL     1      -6.738  17.478  -0.259  1.00  0.00    -0.305 N 
HETATM   14  C8  UNL     1      -6.413  16.482   0.734  1.00  0.00     0.161 C 
HETATM   15  C9  UNL     1      -5.724  17.820  -1.193  1.00  0.00     0.225 C 
HETATM   16  O2  UNL     1      -5.959  18.682  -2.076  1.00  0.00    -0.273 OA
BRANCH  15  17
HETATM   17  C10 UNL     1      -4.386  17.198  -1.173  1.00  0.00     0.103 C 
BRANCH  17  18
HETATM   18  C11 UNL     1      -3.456  17.985  -2.066  1.00  0.00     0.011 C 
BRANCH  18  19
HETATM   19  C12 UNL     1      -3.174  17.276  -3.360  1.00  0.00     0.020 C 
BRANCH  19  20
HETATM   20  C13 UNL     1      -3.730  18.092  -4.504  1.00  0.00     0.121 C 
BRANCH  20  21
HETATM   21  N3  UNL     1      -4.509  17.237  -5.355  1.00  0.00    -0.380 N 
ATOM     22  H3  UNL     1      -4.277  16.248  -5.443  1.00  0.00     0.160 HD
BRANCH  21  23
HETATM   23  C14 UNL     1      -5.625  17.797  -6.087  1.00  0.00     0.079 C 
HETATM   24  N6  UNL     1      -5.578  17.833  -7.359  1.00  0.00    -0.324 N 
ATOM     25  H6  UNL     1      -6.359  18.226  -7.884  1.00  0.00     0.169 HD
BRANCH  23  26
HETATM   26  C15 UNL     1      -6.738  18.302  -5.289  1.00  0.00     0.082 C 
BRANCH  26  27
HETATM   27  C16 UNL     1      -8.111  17.945  -5.743  1.00  0.00     0.066 C 
BRANCH  27  28
HETATM   28  C17 UNL     1      -8.767  16.842  -5.045  1.00  0.00     0.025 A 
HETATM   29  C18 UNL     1     -10.149  16.604  -5.069  1.00  0.00     0.114 A 
HETATM   30  N4  UNL     1     -10.400  15.513  -4.346  1.00  0.00    -0.360 N 
HETATM   31  C19 UNL     1      -9.232  15.061  -3.872  1.00  0.00     0.180 A 
ATOM     32  H4  UNL     1     -11.316  15.098  -4.182  1.00  0.00     0.166 HD
HETATM   33  N5  UNL     1      -8.249  15.869  -4.299  1.00  0.00    -0.355 N 
ATOM     34  H5  UNL     1      -7.259  15.756  -4.084  1.00  0.00     0.166 HD
ENDBRANCH  27  28
ENDBRANCH  26  27
ENDBRANCH  23  26
BRANCH  24  35
HETATM   35  C20 UNL     1      -4.448  17.331  -8.051  1.00  0.00     0.354 C 
HETATM   36  O3  UNL     1      -4.185  16.109  -7.940  1.00  0.00    -0.283 OA
ENDBRANCH  24  35
ENDBRANCH  21  23
ENDBRANCH  20  21
ENDBRANCH  19  20
ENDBRANCH  18  19
ENDBRANCH  17  18
ENDBRANCH  15  17
ENDBRANCH   5  13
BRANCH   4  37
HETATM   37  O1  UNL     1      -8.452  20.120   0.805  1.00  0.00    -0.344 OA
ATOM     38  H1  UNL     1      -7.792  20.428   0.195  1.00  0.00     0.219 HD
ENDBRANCH   4  37
BRANCH   8  39
HETATM   39  O4  UNL     1     -11.079  17.406  -1.908  1.00  0.00    -0.345 OA
ATOM     40  H4  UNL     1     -11.864  17.826  -1.573  1.00  0.00     0.219 HD
ENDBRANCH   8  39
BRANCH   1  41
HETATM   41  C3  UNL     1      -9.506  16.615   3.570  1.00  0.00     0.012 C 
HETATM   42  C4  UNL     1      -8.480  17.026   4.630  1.00  0.00     0.012 C 
BRANCH  41  43
HETATM   43  C2  UNL     1     -10.573  15.857   4.298  1.00  0.00     0.002 C 
HETATM   44  C1  UNL     1     -10.503  16.139   5.802  1.00  0.00     0.005 C 
ENDBRANCH  41  43
ENDBRANCH   1  41
BRANCH   9  45
HETATM   45  C23 UNL     1     -10.384  14.770   0.387  1.00  0.00     0.062 C 
BRANCH  45  46
HETATM   46  C24 UNL     1     -10.948  14.014   1.544  1.00  0.00     0.008 C 
BRANCH  46  47
HETATM   47  C25 UNL     1     -12.245  13.328   1.366  1.00  0.00     0.027 C 
BRANCH  47  48
HETATM   48  C26 UNL     1     -12.738  12.954   2.771  1.00  0.00     0.229 C 
BRANCH  48  49
HETATM   49  N8  UNL     1     -14.139  13.261   2.942  1.00  0.00    -0.079 N 
ATOM     50  H83 UNL     1     -14.345  14.223   2.673  1.00  0.00     0.274 HD
ATOM     51  H82 UNL     1     -14.713  12.776   2.253  1.00  0.00     0.274 HD
ATOM     52  H81 UNL     1     -14.453  13.065   3.893  1.00  0.00     0.274 HD
ENDBRANCH  48  49
ENDBRANCH  47  48
ENDBRANCH  46  47
ENDBRANCH  45  46
ENDBRANCH   9  45
BRANCH  12  53
HETATM   53  O5  UNL     1     -11.917  18.771   2.021  1.00  0.00    -0.348 OA
ATOM     54  H5  UNL     1     -12.765  18.656   1.611  1.00  0.00     0.219 HD
ENDBRANCH  12  53
TORSDOF 21
ENDMDL
MODEL 3
REMARK VINA RESULT: -7.096005137      3.528     10.551
REMARK  21 active torsions:
REMARK  status: ('A' for Active; 'I' for Inactive)
REMARK    1  A    between atoms: C2_2  and  C3_3 
REMARK    2  A    between atoms: C3_3  and  C5_5 
REMARK    3  A    between atoms: C6_8  and  O1_9 
REMARK    4  A    between atoms: C7_11  and  N2_12 
REMARK       I    between atoms: N2_12  and  C9_14 
REMARK    5  A    between atoms: C9_14  and  C10_16 
REMARK    6  A    between atoms: C10_16  and  C11_17 
REMARK    7  A    between atoms: C11_17  and  C12_18 
REMARK    8  A    between atoms: C12_18  and  C13_19 
REMARK    9  A    between atoms: C13_19  and  N3_20 
REMARK   10  A    between atoms: N3_20  and  C14_22 
REMARK   11  A    between atoms: C14_22  and  C15_23 
REMARK   12  A    between atoms: C15_23  and  C16_24 
REMARK   13  A    between atoms: C16_24  and  C17_25 
REMARK   14  A    between atoms: N6_32  and  C20_34 
REMARK   15  A    between atoms: C21_38  and  O4_39 
REMARK   16  A    between atoms: C22_41  and  C23_42 
REMARK   17  A    between atoms: C23_42  and  C24_43 
REMARK   18  A    between atoms: C24_43  and  C25_44 
REMARK   19  A    between atoms: C25_44  and  C26_45 
REMARK   20  A    between atoms: C26_45  and  N8_46 
REMARK   21  A    between atoms: C28_52  and  O5_53 
ROOT
HETATM    1  C5  UNL     1      -3.745  18.641  -5.395  1.00  0.00     0.162 C 
HETATM    2  N1  UNL     1      -4.815  19.218  -4.596  1.00  0.00    -0.355 N 
ATOM      3  H1  UNL     1      -5.730  19.120  -5.036  1.00  0.00     0.162 HD
HETATM    4  C6  UNL     1      -4.881  19.871  -3.375  1.00  0.00     0.182 C 
HETATM    5  C7  UNL     1      -4.802  19.464  -1.985  1.00  0.00     0.163 C 
HETATM    6  N7  UNL     1      -3.596  18.972  -1.413  1.00  0.00    -0.318 N 
ATOM      7  H7  UNL     1      -3.720  18.770  -0.421  1.00  0.00     0.169 HD
HETATM    8  C21 UNL     1      -2.307  18.688  -1.816  1.00  0.00     0.165 C 
HETATM    9  C22 UNL     1      -1.744  17.699  -2.760  1.00  0.00     0.064 C 
HETATM   10  N9  UNL     1      -1.502  18.215  -4.098  1.00  0.00    -0.334 N 
HETATM   11  C27 UNL     1      -0.105  18.018  -4.601  1.00  0.00     0.158 C 
HETATM   12  C28 UNL     1      -2.403  18.880  -4.951  1.00  0.00     0.141 C 
ENDROOT
BRANCH   5  13
HETATM   13  N2  UNL     1      -5.965  18.661  -1.549  1.00  0.00    -0.305 N 
HETATM   14  C8  UNL     1      -6.636  17.719  -2.413  1.00  0.00     0.161 C 
HETATM   15  C9  UNL     1      -6.464  18.802  -0.228  1.00  0.00     0.225 C 
HETATM   16  O2  UNL     1      -5.914  19.611   0.561  1.00  0.00    -0.273 OA
BRANCH  15  17
HETATM   17  C10 UNL     1      -7.619  18.030   0.270  1.00  0.00     0.103 C 
BRANCH  17  18
HETATM   18  C11 UNL     1      -7.132  16.940   1.194  1.00  0.00     0.011 C 
BRANCH  18  19
HETATM   19  C12 UNL     1      -8.233  16.003   1.599  1.00  0.00     0.020 C 
BRANCH  19  20
HETATM   20  C13 UNL     1      -8.559  15.090   0.440  1.00  0.00     0.121 C 
BRANCH  20  21
HETATM   21  N3  UNL     1      -9.985  14.957   0.335  1.00  0.00    -0.380 N 
ATOM     22  H3  UNL     1     -10.454  14.126   0.693  1.00  0.00     0.160 HD
BRANCH  21  23
HETATM   23  C14 UNL     1     -10.748  16.019  -0.287  1.00  0.00     0.079 C 
HETATM   24  N6  UNL     1     -11.811  16.434   0.281  1.00  0.00    -0.324 N 
ATOM     25  H6  UNL     1     -12.356  17.181  -0.150  1.00  0.00     0.169 HD
BRANCH  23  26
HETATM   26  C15 UNL     1     -10.236  16.532  -1.553  1.00  0.00     0.082 C 
BRANCH  26  27
HETATM   27  C16 UNL     1      -9.934  15.532  -2.614  1.00  0.00     0.066 C 
BRANCH  27  28
HETATM   28  C17 UNL     1      -9.766  16.046  -3.972  1.00  0.00     0.025 A 
HETATM   29  C18 UNL     1     -10.804  16.592  -4.741  1.00  0.00     0.114 A 
HETATM   30  N4  UNL     1     -10.301  16.975  -5.914  1.00  0.00    -0.360 N 
HETATM   31  C19 UNL     1      -8.992  16.691  -5.908  1.00  0.00     0.180 A 
ATOM     32  H4  UNL     1     -10.819  17.407  -6.678  1.00  0.00     0.166 HD
HETATM   33  N5  UNL     1      -8.677  16.129  -4.731  1.00  0.00    -0.355 N 
ATOM     34  H5  UNL     1      -7.745  15.815  -4.460  1.00  0.00     0.166 HD
ENDBRANCH  27  28
ENDBRANCH  26  27
ENDBRANCH  23  26
BRANCH  24  35
HETATM   35  C20 UNL     1     -12.241  15.865   1.505  1.00  0.00     0.354 C 
HETATM   36  O3  UNL     1     -11.555  16.089   2.531  1.00  0.00    -0.283 OA
ENDBRANCH  24  35
ENDBRANCH  21  23
ENDBRANCH  20  21
ENDBRANCH  19  20
ENDBRANCH  18  19
ENDBRANCH  17  18
ENDBRANCH  15  17
ENDBRANCH   5  13
BRANCH   4  37
HETATM   37  O1  UNL     1      -5.063  21.165  -3.542  1.00  0.00    -0.344 OA
ATOM     38  H1  UNL     1      -5.964  21.354  -3.777  1.00  0.00     0.219 HD
ENDBRANCH   4  37
BRANCH   8  39
HETATM   39  O4  UNL     1      -1.398  19.455  -1.246  1.00  0.00    -0.345 OA
ATOM     40  H4  UNL     1      -0.512  19.270  -1.535  1.00  0.00     0.219 HD
ENDBRANCH   8  39
BRANCH   1  41
HETATM   41  C3  UNL     1      -4.178  17.262  -5.783  1.00  0.00     0.012 C 
HETATM   42  C4  UNL     1      -5.554  17.291  -6.454  1.00  0.00     0.012 C 
BRANCH  41  43
HETATM   43  C2  UNL     1      -3.274  16.523  -6.721  1.00  0.00     0.002 C 
HETATM   44  C1  UNL     1      -3.868  16.498  -8.133  1.00  0.00     0.005 C 
ENDBRANCH  41  43
ENDBRANCH   1  41
BRANCH   9  45
HETATM   45  C23 UNL     1      -2.203  16.303  -2.703  1.00  0.00     0.062 C 
BRANCH  45  46
HETATM   46  C24 UNL     1      -1.210  15.202  -2.883  1.00  0.00     0.008 C 
BRANCH  46  47
HETATM   47  C25 UNL     1       0.022  15.231  -2.067  1.00  0.00     0.027 C 
BRANCH  47  48
HETATM   48  C26 UNL     1      -0.055  14.029  -1.117  1.00  0.00     0.229 C 
BRANCH  48  49
HETATM   49  N8  UNL     1      -1.155  13.156  -1.451  1.00  0.00    -0.079 N 
ATOM     50  H83 UNL     1      -2.002  13.413  -0.942  1.00  0.00     0.274 HD
ATOM     51  H82 UNL     1      -1.485  13.320  -2.401  1.00  0.00     0.274 HD
ATOM     52  H81 UNL     1      -0.916  12.175  -1.303  1.00  0.00     0.274 HD
ENDBRANCH  48  49
ENDBRANCH  47  48
ENDBRANCH  46  47
ENDBRANCH  45  46
ENDBRANCH   9  45
BRANCH  12  53
HETATM   53  O5  UNL     1      -1.854  19.971  -5.433  1.00  0.00    -0.348 OA
ATOM     54  H5  UNL     1      -0.907  19.996  -5.374  1.00  0.00     0.219 HD
ENDBRANCH  12  53
TORSDOF 21
ENDMDL
MODEL 4
REMARK VINA RESULT: -7.082746298      2.616      9.167
REMARK  21 active torsions:
REMARK  status: ('A' for Active; 'I' for Inactive)
REMARK    1  A    between atoms: C2_2  and  C3_3 
REMARK    2  A    between atoms: C3_3  and  C5_5 
REMARK    3  A    between atoms: C6_8  and  O1_9 
REMARK    4  A    between atoms: C7_11  and  N2_12 
REMARK       I    between atoms: N2_12  and  C9_14 
REMARK    5  A    between atoms: C9_14  and  C10_16 
REMARK    6  A    between atoms: C10_16  and  C11_17 
REMARK    7  A    between atoms: C11_17  and  C12_18 
REMARK    8  A    between atoms: C12_18  and  C13_19 
REMARK    9  A    between atoms: C13_19  and  N3_20 
REMARK   10  A    between atoms: N3_20  and  C14_22 
REMARK   11  A    between atoms: C14_22  and  C15_23 
REMARK   12  A    between atoms: C15_23  and  C16_24 
REMARK   13  A    between atoms: C16_24  and  C17_25 
REMARK   14  A    between atoms: N6_32  and  C20_34 
REMARK   15  A    between atoms: C21_38  and  O4_39 
REMARK   16  A    between atoms: C22_41  and  C23_42 
REMARK   17  A    between atoms: C23_42  and  C24_43 
REMARK   18  A    between atoms: C24_43  and  C25_44 
REMARK   19  A    between atoms: C25_44  and  C26_45 
REMARK   20  A    between atoms: C26_45  and  N8_46 
REMARK   21  A    between atoms: C28_52  and  O5_53 
ROOT
HETATM    1  C5  UNL     1     -10.472  17.473  -0.600  1.00  0.00     0.162 C 
HETATM    2  N1  UNL     1     -11.525  16.759   0.106  1.00  0.00    -0.355 N 
ATOM      3  H1  UNL     1     -12.044  16.125  -0.502  1.00  0.00     0.162 HD
HETATM    4  C6  UNL     1     -11.988  16.740   1.412  1.00  0.00     0.182 C 
HETATM    5  C7  UNL     1     -11.518  16.174   2.662  1.00  0.00     0.163 C 
HETATM    6  N7  UNL     1     -10.347  16.652   3.312  1.00  0.00    -0.318 N 
ATOM      7  H7  UNL     1     -10.192  16.161   4.192  1.00  0.00     0.169 HD
HETATM    8  C21 UNL     1      -9.360  17.592   3.092  1.00  0.00     0.165 C 
HETATM    9  C22 UNL     1      -8.306  17.719   2.062  1.00  0.00     0.064 C 
HETATM   10  N9  UNL     1      -8.660  18.581   0.945  1.00  0.00    -0.334 N 
HETATM   11  C27 UNL     1      -7.680  19.680   0.668  1.00  0.00     0.158 C 
HETATM   12  C28 UNL     1      -9.799  18.514   0.120  1.00  0.00     0.141 C 
ENDROOT
BRANCH   5  13
HETATM   13  N2  UNL     1     -11.573  14.696   2.685  1.00  0.00    -0.305 N 
HETATM   14  C8  UNL     1     -10.412  13.863   2.482  1.00  0.00     0.161 C 
HETATM   15  C9  UNL     1     -12.812  14.040   2.915  1.00  0.00     0.225 C 
HETATM   16  O2  UNL     1     -13.851  14.723   3.097  1.00  0.00    -0.273 OA
BRANCH  15  17
HETATM   17  C10 UNL     1     -12.936  12.571   2.952  1.00  0.00     0.103 C 
BRANCH  17  18
HETATM   18  C11 UNL     1     -12.889  12.100   4.387  1.00  0.00     0.011 C 
BRANCH  18  19
HETATM   19  C12 UNL     1     -14.256  12.011   5.001  1.00  0.00     0.020 C 
BRANCH  19  20
HETATM   20  C13 UNL     1     -14.318  12.918   6.208  1.00  0.00     0.121 C 
BRANCH  20  21
HETATM   21  N3  UNL     1     -13.049  12.890   6.881  1.00  0.00    -0.380 N 
ATOM     22  H3  UNL     1     -12.434  12.082   6.788  1.00  0.00     0.160 HD
BRANCH  21  23
HETATM   23  C14 UNL     1     -12.656  14.023   7.691  1.00  0.00     0.079 C 
HETATM   24  N6  UNL     1     -12.568  13.882   8.955  1.00  0.00    -0.324 N 
ATOM     25  H6  UNL     1     -12.292  14.674   9.535  1.00  0.00     0.169 HD
BRANCH  23  26
HETATM   26  C15 UNL     1     -12.399  15.272   6.983  1.00  0.00     0.082 C 
BRANCH  26  27
HETATM   27  C16 UNL     1     -11.372  16.181   7.566  1.00  0.00     0.066 C 
BRANCH  27  28
HETATM   28  C17 UNL     1     -10.039  16.134   6.969  1.00  0.00     0.025 A 
HETATM   29  C18 UNL     1      -9.163  17.227   6.911  1.00  0.00     0.114 A 
HETATM   30  N4  UNL     1      -8.036  16.831   6.320  1.00  0.00    -0.360 N 
HETATM   31  C19 UNL     1      -8.174  15.536   6.008  1.00  0.00     0.180 A 
ATOM     32  H4  UNL     1      -7.217  17.410   6.138  1.00  0.00     0.166 HD
HETATM   33  N5  UNL     1      -9.386  15.122   6.403  1.00  0.00    -0.355 N 
ATOM     34  H5  UNL     1      -9.752  14.177   6.287  1.00  0.00     0.166 HD
ENDBRANCH  27  28
ENDBRANCH  26  27
ENDBRANCH  23  26
BRANCH  24  35
HETATM   35  C20 UNL     1     -12.851  12.633   9.560  1.00  0.00     0.354 C 
HETATM   36  O3  UNL     1     -11.960  11.750   9.531  1.00  0.00    -0.283 OA
ENDBRANCH  24  35
ENDBRANCH  21  23
ENDBRANCH  20  21
ENDBRANCH  19  20
ENDBRANCH  18  19
ENDBRANCH  17  18
ENDBRANCH  15  17
ENDBRANCH   5  13
BRANCH   4  37
HETATM   37  O1  UNL     1     -13.127  17.394   1.518  1.00  0.00    -0.344 OA
ATOM     38  H1  UNL     1     -12.985  18.332   1.483  1.00  0.00     0.219 HD
ENDBRANCH   4  37
BRANCH   8  39
HETATM   39  O4  UNL     1      -9.358  18.569   3.976  1.00  0.00    -0.345 OA
ATOM     40  H4  UNL     1      -8.768  19.280   3.754  1.00  0.00     0.219 HD
ENDBRANCH   8  39
BRANCH   1  41
HETATM   41  C3  UNL     1      -9.686  16.456  -1.366  1.00  0.00     0.012 C 
HETATM   42  C4  UNL     1      -9.649  15.120  -0.619  1.00  0.00     0.012 C 
BRANCH  41  43
HETATM   43  C2  UNL     1     -10.175  16.145  -2.748  1.00  0.00     0.002 C 
HETATM   44  C1  UNL     1      -9.120  15.353  -3.527  1.00  0.00     0.005 C 
ENDBRANCH  41  43
ENDBRANCH   1  41
BRANCH   9  45
HETATM   45  C23 UNL     1      -7.490  16.547   1.712  1.00  0.00     0.062 C 
BRANCH  45  46
HETATM   46  C24 UNL     1      -6.589  16.615   0.524  1.00  0.00     0.008 C 
BRANCH  46  47
HETATM   47  C25 UNL     1      -5.274  17.271   0.680  1.00  0.00     0.027 C 
BRANCH  47  48
HETATM   48  C26 UNL     1      -4.779  17.602  -0.734  1.00  0.00     0.229 C 
BRANCH  48  49
HETATM   49  N8  UNL     1      -5.806  17.376  -1.723  1.00  0.00    -0.079 N 
ATOM     50  H83 UNL     1      -6.633  17.946  -1.539  1.00  0.00     0.274 HD
ATOM     51  H82 UNL     1      -5.544  17.765  -2.628  1.00  0.00     0.274 HD
ATOM     52  H81 UNL     1      -6.045  16.387  -1.798  1.00  0.00     0.274 HD
ENDBRANCH  48  49
ENDBRANCH  47  48
ENDBRANCH  46  47
ENDBRANCH  45  46
ENDBRANCH   9  45
BRANCH  12  53
HETATM   53  O5  UNL     1     -10.351  19.700   0.009  1.00  0.00    -0.348 OA
ATOM     54  H5  UNL     1     -10.658  20.071   0.827  1.00  0.00     0.219 HD
ENDBRANCH  12  53
TORSDOF 21
ENDMDL
MODEL 5
REMARK VINA RESULT: -7.077749262      2.417      9.938
REMARK  21 active torsions:
REMARK  status: ('A' for Active; 'I' for Inactive)
REMARK    1  A    between atoms: C2_2  and  C3_3 
REMARK    2  A    between atoms: C3_3  and  C5_5 
REMARK    3  A    between atoms: C6_8  and  O1_9 
REMARK    4  A    between atoms: C7_11  and  N2_12 
REMARK       I    between atoms: N2_12  and  C9_14 
REMARK    5  A    between atoms: C9_14  and  C10_16 
REMARK    6  A    between atoms: C10_16  and  C11_17 
REMARK    7  A    between atoms: C11_17  and  C12_18 
REMARK    8  A    between atoms: C12_18  and  C13_19 
REMARK    9  A    between atoms: C13_19  and  N3_20 
REMARK   10  A    between atoms: N3_20  and  C14_22 
REMARK   11  A    between atoms: C14_22  and  C15_23 
REMARK   12  A    between atoms: C15_23  and  C16_24 
REMARK   13  A    between atoms: C16_24  and  C17_25 
REMARK   14  A    between atoms: N6_32  and  C20_34 
REMARK   15  A    between atoms: C21_38  and  O4_39 
REMARK   16  A    between atoms: C22_41  and  C23_42 
REMARK   17  A    between atoms: C23_42  and  C24_43 
REMARK   18  A    between atoms: C24_43  and  C25_44 
REMARK   19  A    between atoms: C25_44  and  C26_45 
REMARK   20  A    between atoms: C26_45  and  N8_46 
REMARK   21  A    between atoms: C28_52  and  O5_53 
ROOT
HETATM    1  C5  UNL     1      -8.780  17.122  -2.559  1.00  0.00     0.162 C 
HETATM    2  N1  UNL     1      -9.401  17.293  -1.254  1.00  0.00    -0.355 N 
ATOM      3  H1  UNL     1     -10.098  16.575  -1.054  1.00  0.00     0.162 HD
HETATM    4  C6  UNL     1      -9.267  18.205  -0.219  1.00  0.00     0.182 C 
HETATM    5  C7  UNL     1      -8.286  18.442   0.823  1.00  0.00     0.163 C 
HETATM    6  N7  UNL     1      -6.974  18.907   0.531  1.00  0.00    -0.318 N 
ATOM      7  H7  UNL     1      -6.439  19.049   1.387  1.00  0.00     0.169 HD
HETATM    8  C21 UNL     1      -6.218  19.221  -0.580  1.00  0.00     0.165 C 
HETATM    9  C22 UNL     1      -5.707  18.413  -1.708  1.00  0.00     0.064 C 
HETATM   10  N9  UNL     1      -6.540  18.449  -2.900  1.00  0.00    -0.334 N 
HETATM   11  C27 UNL     1      -5.822  18.850  -4.153  1.00  0.00     0.158 C 
HETATM   12  C28 UNL     1      -7.916  18.174  -3.009  1.00  0.00     0.141 C 
ENDROOT
BRANCH   5  13
HETATM   13  N2  UNL     1      -8.256  17.371   1.843  1.00  0.00    -0.305 N 
HETATM   14  C8  UNL     1      -7.262  16.325   1.856  1.00  0.00     0.161 C 
HETATM   15  C9  UNL     1      -9.238  17.347   2.869  1.00  0.00     0.225 C 
HETATM   16  O2  UNL     1     -10.126  18.236   2.900  1.00  0.00    -0.273 OA
BRANCH  15  17
HETATM   17  C10 UNL     1      -9.264  16.309   3.917  1.00  0.00     0.103 C 
BRANCH  17  18
HETATM   18  C11 UNL     1      -8.668  16.866   5.188  1.00  0.00     0.011 C 
BRANCH  18  19
HETATM   19  C12 UNL     1      -8.778  15.906   6.337  1.00  0.00     0.020 C 
BRANCH  19  20
HETATM   20  C13 UNL     1     -10.088  16.137   7.054  1.00  0.00     0.121 C 
BRANCH  20  21
HETATM   21  N3  UNL     1     -10.759  14.878   7.222  1.00  0.00    -0.380 N 
ATOM     22  H3  UNL     1     -10.273  14.088   7.646  1.00  0.00     0.160 HD
BRANCH  21  23
HETATM   23  C14 UNL     1     -12.132  14.746   6.783  1.00  0.00     0.079 C 
HETATM   24  N6  UNL     1     -12.971  14.157   7.539  1.00  0.00    -0.324 N 
ATOM     25  H6  UNL     1     -13.941  14.058   7.239  1.00  0.00     0.169 HD
BRANCH  23  26
HETATM   26  C15 UNL     1     -12.451  15.297   5.470  1.00  0.00     0.082 C 
BRANCH  26  27
HETATM   27  C16 UNL     1     -12.615  14.325   4.352  1.00  0.00     0.066 C 
BRANCH  27  28
HETATM   28  C17 UNL     1     -12.313  14.814   3.009  1.00  0.00     0.025 A 
HETATM   29  C18 UNL     1     -11.655  14.060   2.026  1.00  0.00     0.114 A 
HETATM   30  N4  UNL     1     -11.561  14.801   0.922  1.00  0.00    -0.360 N 
HETATM   31  C19 UNL     1     -12.132  15.985   1.176  1.00  0.00     0.180 A 
ATOM     32  H4  UNL     1     -11.130  14.517   0.043  1.00  0.00     0.166 HD
HETATM   33  N5  UNL     1     -12.585  15.985   2.439  1.00  0.00    -0.355 N 
ATOM     34  H5  UNL     1     -13.063  16.764   2.893  1.00  0.00     0.166 HD
ENDBRANCH  27  28
ENDBRANCH  26  27
ENDBRANCH  23  26
BRANCH  24  35
HETATM   35  C20 UNL     1     -12.568  13.639   8.794  1.00  0.00     0.354 C 
HETATM   36  O3  UNL     1     -11.943  12.551   8.809  1.00  0.00    -0.283 OA
ENDBRANCH  24  35
ENDBRANCH  21  23
ENDBRANCH  20  21
ENDBRANCH  19  20
ENDBRANCH  18  19
ENDBRANCH  17  18
ENDBRANCH  15  17
ENDBRANCH   5  13
BRANCH   4  37
HETATM   37  O1  UNL     1     -10.284  19.042  -0.194  1.00  0.00    -0.344 OA
ATOM     38  H1  UNL     1     -10.239  19.608   0.568  1.00  0.00     0.219 HD
ENDBRANCH   4  37
BRANCH   8  39
HETATM   39  O4  UNL     1      -5.890  20.495  -0.649  1.00  0.00    -0.345 OA
ATOM     40  H4  UNL     1      -5.092  20.655  -1.139  1.00  0.00     0.219 HD
ENDBRANCH   8  39
BRANCH   1  41
HETATM   41  C3  UNL     1      -8.345  15.693  -2.656  1.00  0.00     0.012 C 
HETATM   42  C4  UNL     1      -8.639  14.944  -1.354  1.00  0.00     0.012 C 
BRANCH  41  43
HETATM   43  C2  UNL     1      -8.969  14.884  -3.751  1.00  0.00     0.002 C 
HETATM   44  C1  UNL     1     -10.374  15.405  -4.072  1.00  0.00     0.005 C 
ENDBRANCH  41  43
ENDBRANCH   1  41
BRANCH   9  45
HETATM   45  C23 UNL     1      -5.060  17.120  -1.437  1.00  0.00     0.062 C 
BRANCH  45  46
HETATM   46  C24 UNL     1      -3.572  17.020  -1.513  1.00  0.00     0.008 C 
BRANCH  46  47
HETATM   47  C25 UNL     1      -2.932  17.102  -2.843  1.00  0.00     0.027 C 
BRANCH  47  48
HETATM   48  C26 UNL     1      -1.559  16.430  -2.710  1.00  0.00     0.229 C 
BRANCH  48  49
HETATM   49  N8  UNL     1      -1.668  15.106  -2.144  1.00  0.00    -0.079 N 
ATOM     50  H83 UNL     1      -2.043  15.136  -1.195  1.00  0.00     0.274 HD
ATOM     51  H82 UNL     1      -2.411  14.570  -2.591  1.00  0.00     0.274 HD
ATOM     52  H81 UNL     1      -0.778  14.609  -2.178  1.00  0.00     0.274 HD
ENDBRANCH  48  49
ENDBRANCH  47  48
ENDBRANCH  46  47
ENDBRANCH  45  46
ENDBRANCH   9  45
BRANCH  12  53
HETATM   53  O5  UNL     1      -8.519  19.125  -3.684  1.00  0.00    -0.348 OA
ATOM     54  H5  UNL     1      -8.131  19.316  -4.529  1.00  0.00     0.219 HD
ENDBRANCH  12  53
TORSDOF 21
ENDMDL
