MODEL 1
REMARK VINA RESULT: -8.601668347      0.000      0.000
REMARK  18 active torsions:
REMARK  status: ('A' for Active; 'I' for Inactive)
REMARK    1  A    between atoms: N2_7  and  C4_8 
REMARK    2  A    between atoms: C4_8  and  C5_9 
REMARK    3  A    between atoms: C5_9  and  C6_10 
REMARK    4  A    between atoms: C6_10  and  N3_11 
REMARK       I    between atoms: N3_11  and  C7_13 
REMARK    5  A    between atoms: N5_15  and  C8_17 
REMARK    6  A    between atoms: C8_17  and  C9_18 
REMARK    7  A    between atoms: C9_18  and  C10_19 
REMARK    8  A    between atoms: C10_19  and  C11_20 
REMARK    9  A    between atoms: C11_20  and  C12_21 
REMARK   10  A    between atoms: N7_25  and  C14_27 
REMARK   11  A    between atoms: C14_27  and  C15_28 
REMARK   12  A    between atoms: C15_28  and  C16_29 
REMARK   13  A    between atoms: C16_29  and  C17_30 
REMARK   14  A    between atoms: C17_30  and  N8_31 
REMARK       I    between atoms: N8_31  and  C18_33 
REMARK       I    between atoms: C18_33  and  N11_38 
REMARK   15  A    between atoms: N11_38  and  C20_40 
REMARK   16  A    between atoms: C20_40  and  C21_41 
REMARK   17  A    between atoms: C21_41  and  N12_42 
REMARK   18  A    between atoms: N12_42  and  C22_44 
ROOT
HETATM    1  N8  UNL     1      -4.436  17.894  -1.015  1.00  0.00    -0.226 N 
ATOM      2  H8  UNL     1      -4.028  18.096  -0.101  1.00  0.00     0.177 HD
HETATM    3  C18 UNL     1      -3.644  18.199  -2.141  1.00  0.00     0.682 C 
HETATM    4  N9  UNL     1      -3.445  19.383  -2.581  1.00  0.00    -0.126 N 
ATOM      5  H9  UNL     1      -2.858  19.521  -3.404  1.00  0.00     0.197 HD
HETATM    6  C19 UNL     1      -4.012  20.481  -1.962  1.00  0.00     0.196 C 
HETATM    7  N10 UNL     1      -4.504  21.412  -1.449  1.00  0.00    -0.171 NA
HETATM    8  N11 UNL     1      -3.027  17.105  -2.814  1.00  0.00    -0.224 N 
ATOM      9  H11 UNL     1      -3.560  16.455  -3.392  1.00  0.00     0.177 HD
ENDROOT
BRANCH   1  10
HETATM   10  C17 UNL     1      -5.749  17.332  -1.021  1.00  0.00     0.138 C 
BRANCH  10  11
HETATM   11  C16 UNL     1      -6.681  18.191  -0.192  1.00  0.00     0.022 C 
BRANCH  11  12
HETATM   12  C15 UNL     1      -6.897  17.553   1.191  1.00  0.00     0.021 C 
BRANCH  12  13
HETATM   13  C14 UNL     1      -7.992  18.330   1.848  1.00  0.00     0.121 C 
BRANCH  13  14
HETATM   14  N7  UNL     1      -9.219  17.631   2.039  1.00  0.00    -0.379 N 
HETATM   15  C13 UNL     1      -9.489  16.915   3.097  1.00  0.00     0.088 A 
HETATM   16  N2  UNL     1     -10.770  16.302   3.086  1.00  0.00    -0.289 N 
HETATM   17  C27 UNL     1      -8.565  16.747   4.201  1.00  0.00     0.128 A 
HETATM   18  C3  UNL     1     -11.156  15.457   4.198  1.00  0.00     0.327 A 
HETATM   19  N1  UNL     1     -10.205  15.325   5.210  1.00  0.00    -0.316 N 
HETATM   20  O1  UNL     1     -12.276  14.896   4.214  1.00  0.00    -0.246 OA
HETATM   21  C2  UNL     1      -9.059  15.867   5.247  1.00  0.00    -0.006 A 
ATOM     22  H1  UNL     1     -10.457  14.732   6.000  1.00  0.00     0.170 HD
HETATM   23  C1  UNL     1      -8.193  15.574   6.458  1.00  0.00     0.064 C 
ATOM     24  H7  UNL     1      -9.927  17.695   1.307  1.00  0.00     0.160 HD
BRANCH  16  25
HETATM   25  C4  UNL     1     -11.683  16.538   2.001  1.00  0.00     0.137 C 
BRANCH  25  26
HETATM   26  C5  UNL     1     -11.892  15.460   1.019  1.00  0.00     0.040 C 
BRANCH  26  27
HETATM   27  C6  UNL     1     -10.763  14.672   0.501  1.00  0.00     0.124 C 
BRANCH  27  28
HETATM   28  N3  UNL     1      -9.672  15.395  -0.083  1.00  0.00    -0.365 N 
HETATM   29  C7  UNL     1      -9.886  16.118  -1.313  1.00  0.00     0.183 C 
HETATM   30  N4  UNL     1      -9.980  17.524  -1.206  1.00  0.00    -0.064 NA
HETATM   31  N5  UNL     1      -9.975  15.457  -2.393  1.00  0.00    -0.365 N 
ATOM     32  H5  UNL     1      -9.897  14.440  -2.386  1.00  0.00     0.162 HD
ATOM     33  H3  UNL     1      -8.756  15.399   0.366  1.00  0.00     0.162 HD
BRANCH  31  34
HETATM   34  C8  UNL     1     -10.193  16.181  -3.655  1.00  0.00     0.122 C 
BRANCH  34  35
HETATM   35  C9  UNL     1      -9.210  15.597  -4.659  1.00  0.00     0.020 C 
BRANCH  35  36
HETATM   36  C10 UNL     1      -9.370  16.281  -5.976  1.00  0.00     0.010 C 
BRANCH  36  37
HETATM   37  C11 UNL     1      -9.093  17.751  -5.977  1.00  0.00     0.099 C 
BRANCH  37  38
HETATM   38  C12 UNL     1      -7.678  18.030  -5.698  1.00  0.00     0.231 C 
HETATM   39  N6  UNL     1      -7.381  18.904  -4.590  1.00  0.00    -0.062 NA
HETATM   40  O2  UNL     1      -6.739  17.560  -6.351  1.00  0.00    -0.277 OA
ENDBRANCH  37  38
ENDBRANCH  36  37
ENDBRANCH  35  36
ENDBRANCH  34  35
ENDBRANCH  31  34
ENDBRANCH  27  28
ENDBRANCH  26  27
ENDBRANCH  25  26
ENDBRANCH  16  25
ENDBRANCH  13  14
ENDBRANCH  12  13
ENDBRANCH  11  12
ENDBRANCH  10  11
ENDBRANCH   1  10
BRANCH   8  41
HETATM   41  C20 UNL     1      -1.582  16.972  -2.626  1.00  0.00     0.157 C 
BRANCH  41  42
HETATM   42  C21 UNL     1      -1.224  15.552  -3.090  1.00  0.00     0.141 C 
BRANCH  42  43
HETATM   43  N12 UNL     1      -1.450  14.653  -1.999  1.00  0.00    -0.375 N 
ATOM     44  H12 UNL     1      -2.402  14.570  -1.644  1.00  0.00     0.161 HD
BRANCH  43  45
HETATM   45  C22 UNL     1      -0.547  13.948  -1.442  1.00  0.00     0.100 A 
HETATM   46  C23 UNL     1       0.777  14.304  -1.355  1.00  0.00     0.048 A 
HETATM   47  C24 UNL     1       1.724  13.483  -0.751  1.00  0.00     0.005 A 
HETATM   48  C25 UNL     1       1.345  12.277  -0.215  1.00  0.00     0.017 A 
HETATM   49  C26 UNL     1       0.011  11.948  -0.316  1.00  0.00     0.089 A 
HETATM   50  N13 UNL     1      -0.890  12.741  -0.899  1.00  0.00    -0.353 N 
ATOM     51  H13 UNL     1      -1.862  12.438  -0.941  1.00  0.00     0.166 HD
ENDBRANCH  43  45
ENDBRANCH  42  43
ENDBRANCH  41  42
ENDBRANCH   8  41
TORSDOF 18
ENDMDL
MODEL 2
REMARK VINA RESULT: -8.582387879      4.102      9.458
REMARK  18 active torsions:
REMARK  status: ('A' for Active; 'I' for Inactive)
REMARK    1  A    between atoms: N2_7  and  C4_8 
REMARK    2  A    between atoms: C4_8  and  C5_9 
REMARK    3  A    between atoms: C5_9  and  C6_10 
REMARK    4  A    between atoms: C6_10  and  N3_11 
REMARK       I    between atoms: N3_11  and  C7_13 
REMARK    5  A    between atoms: N5_15  and  C8_17 
REMARK    6  A    between atoms: C8_17  and  C9_18 
REMARK    7  A    between atoms: C9_18  and  C10_19 
REMARK    8  A    between atoms: C10_19  and  C11_20 
REMARK    9  A    between atoms: C11_20  and  C12_21 
REMARK   10  A    between atoms: N7_25  and  C14_27 
REMARK   11  A    between atoms: C14_27  and  C15_28 
REMARK   12  A    between atoms: C15_28  and  C16_29 
REMARK   13  A    between atoms: C16_29  and  C17_30 
REMARK   14  A    between atoms: C17_30  and  N8_31 
REMARK       I    between atoms: N8_31  and  C18_33 
REMARK       I    between atoms: C18_33  and  N11_38 
REMARK   15  A    between atoms: N11_38  and  C20_40 
REMARK   16  A    between atoms: C20_40  and  C21_41 
REMARK   17  A    between atoms: C21_41  and  N12_42 
REMARK   18  A    between atoms: N12_42  and  C22_44 
ROOT
HETATM    1  N8  UNL     1     -12.695  13.155   4.642  1.00  0.00    -0.226 N 
ATOM      2  H8  UNL     1     -11.688  13.041   4.520  1.00  0.00     0.177 HD
HETATM    3  C18 UNL     1     -13.236  12.721   5.870  1.00  0.00     0.682 C 
HETATM    4  N9  UNL     1     -13.419  11.494   6.182  1.00  0.00    -0.126 N 
ATOM      5  H9  UNL     1     -13.817  11.262   7.092  1.00  0.00     0.197 HD
HETATM    6  C19 UNL     1     -13.088  10.477   5.307  1.00  0.00     0.196 C 
HETATM    7  N10 UNL     1     -12.823   9.613   4.561  1.00  0.00    -0.171 NA
HETATM    8  N11 UNL     1     -13.588  13.728   6.814  1.00  0.00    -0.224 N 
ATOM      9  H11 UNL     1     -14.405  14.326   6.690  1.00  0.00     0.177 HD
ENDROOT
BRANCH   1  10
HETATM   10  C17 UNL     1     -13.410  13.738   3.551  1.00  0.00     0.138 C 
BRANCH  10  11
HETATM   11  C16 UNL     1     -12.714  15.004   3.096  1.00  0.00     0.022 C 
BRANCH  11  12
HETATM   12  C15 UNL     1     -11.801  14.702   1.896  1.00  0.00     0.021 C 
BRANCH  12  13
HETATM   13  C14 UNL     1     -11.551  16.009   1.216  1.00  0.00     0.121 C 
BRANCH  13  14
HETATM   14  N7  UNL     1     -10.183  16.340   0.994  1.00  0.00    -0.379 N 
HETATM   15  C13 UNL     1      -9.599  16.267  -0.172  1.00  0.00     0.088 A 
HETATM   16  N2  UNL     1      -8.229  16.643  -0.173  1.00  0.00    -0.289 N 
HETATM   17  C27 UNL     1     -10.279  15.837  -1.377  1.00  0.00     0.128 A 
HETATM   18  C3  UNL     1      -7.478  16.565  -1.409  1.00  0.00     0.327 A 
HETATM   19  N1  UNL     1      -8.195  16.120  -2.519  1.00  0.00    -0.316 N 
HETATM   20  O1  UNL     1      -6.267  16.882  -1.441  1.00  0.00    -0.246 OA
HETATM   21  C2  UNL     1      -9.418  15.786  -2.547  1.00  0.00    -0.006 A 
ATOM     22  H1  UNL     1      -7.683  16.055  -3.399  1.00  0.00     0.170 HD
HETATM   23  C1  UNL     1      -9.983  15.330  -3.880  1.00  0.00     0.064 C 
ATOM     24  H7  UNL     1      -9.628  16.652   1.792  1.00  0.00     0.160 HD
BRANCH  16  25
HETATM   25  C4  UNL     1      -7.603  17.120   1.030  1.00  0.00     0.137 C 
BRANCH  25  26
HETATM   26  C5  UNL     1      -7.771  18.538   1.389  1.00  0.00     0.040 C 
BRANCH  26  27
HETATM   27  C6  UNL     1      -7.205  19.607   0.553  1.00  0.00     0.124 C 
BRANCH  27  28
HETATM   28  N3  UNL     1      -5.871  19.421   0.064  1.00  0.00    -0.365 N 
HETATM   29  C7  UNL     1      -5.473  20.077  -1.158  1.00  0.00     0.183 C 
HETATM   30  N4  UNL     1      -4.625  21.200  -1.019  1.00  0.00    -0.064 NA
HETATM   31  N5  UNL     1      -5.900  19.612  -2.260  1.00  0.00    -0.365 N 
ATOM     32  H5  UNL     1      -6.510  18.796  -2.276  1.00  0.00     0.162 HD
ATOM     33  H3  UNL     1      -5.212  18.831   0.573  1.00  0.00     0.162 HD
BRANCH  31  34
HETATM   34  C8  UNL     1      -5.501  20.271  -3.513  1.00  0.00     0.122 C 
BRANCH  34  35
HETATM   35  C9  UNL     1      -4.670  19.257  -4.284  1.00  0.00     0.020 C 
BRANCH  35  36
HETATM   36  C10 UNL     1      -5.484  18.033  -4.544  1.00  0.00     0.010 C 
BRANCH  36  37
HETATM   37  C11 UNL     1      -6.376  18.095  -5.745  1.00  0.00     0.099 C 
BRANCH  37  38
HETATM   38  C12 UNL     1      -7.781  18.282  -5.359  1.00  0.00     0.231 C 
HETATM   39  N6  UNL     1      -8.780  18.079  -6.380  1.00  0.00    -0.062 NA
HETATM   40  O2  UNL     1      -8.150  18.597  -4.222  1.00  0.00    -0.277 OA
ENDBRANCH  37  38
ENDBRANCH  36  37
ENDBRANCH  35  36
ENDBRANCH  34  35
ENDBRANCH  31  34
ENDBRANCH  27  28
ENDBRANCH  26  27
ENDBRANCH  25  26
ENDBRANCH  16  25
ENDBRANCH  13  14
ENDBRANCH  12  13
ENDBRANCH  11  12
ENDBRANCH  10  11
ENDBRANCH   1  10
BRANCH   8  41
HETATM   41  C20 UNL     1     -12.704  13.852   7.974  1.00  0.00     0.157 C 
BRANCH  41  42
HETATM   42  C21 UNL     1     -12.017  15.220   7.838  1.00  0.00     0.141 C 
BRANCH  42  43
HETATM   43  N12 UNL     1     -10.631  15.001   7.554  1.00  0.00    -0.375 N 
ATOM     44  H12 UNL     1     -10.154  14.261   8.069  1.00  0.00     0.161 HD
BRANCH  43  45
HETATM   45  C22 UNL     1      -9.951  15.664   6.705  1.00  0.00     0.100 A 
HETATM   46  C23 UNL     1      -9.226  16.793   6.998  1.00  0.00     0.048 A 
HETATM   47  C24 UNL     1      -8.517  17.488   6.023  1.00  0.00     0.005 A 
HETATM   48  C25 UNL     1      -8.527  17.049   4.723  1.00  0.00     0.017 A 
HETATM   49  C26 UNL     1      -9.262  15.914   4.460  1.00  0.00     0.089 A 
HETATM   50  N13 UNL     1      -9.940  15.254   5.401  1.00  0.00    -0.353 N 
ATOM     51  H13 UNL     1     -10.465  14.420   5.140  1.00  0.00     0.166 HD
ENDBRANCH  43  45
ENDBRANCH  42  43
ENDBRANCH  41  42
ENDBRANCH   8  41
TORSDOF 18
ENDMDL
MODEL 3
REMARK VINA RESULT: -8.520543608      4.654     11.343
REMARK  18 active torsions:
REMARK  status: ('A' for Active; 'I' for Inactive)
REMARK    1  A    between atoms: N2_7  and  C4_8 
REMARK    2  A    between atoms: C4_8  and  C5_9 
REMARK    3  A    between atoms: C5_9  and  C6_10 
REMARK    4  A    between atoms: C6_10  and  N3_11 
REMARK       I    between atoms: N3_11  and  C7_13 
REMARK    5  A    between atoms: N5_15  and  C8_17 
REMARK    6  A    between atoms: C8_17  and  C9_18 
REMARK    7  A    between atoms: C9_18  and  C10_19 
REMARK    8  A    between atoms: C10_19  and  C11_20 
REMARK    9  A    between atoms: C11_20  and  C12_21 
REMARK   10  A    between atoms: N7_25  and  C14_27 
REMARK   11  A    between atoms: C14_27  and  C15_28 
REMARK   12  A    between atoms: C15_28  and  C16_29 
REMARK   13  A    between atoms: C16_29  and  C17_30 
REMARK   14  A    between atoms: C17_30  and  N8_31 
REMARK       I    between atoms: N8_31  and  C18_33 
REMARK       I    between atoms: C18_33  and  N11_38 
REMARK   15  A    between atoms: N11_38  and  C20_40 
REMARK   16  A    between atoms: C20_40  and  C21_41 
REMARK   17  A    between atoms: C21_41  and  N12_42 
REMARK   18  A    between atoms: N12_42  and  C22_44 
ROOT
HETATM    1  N8  UNL     1     -13.505  12.818   3.858  1.00  0.00    -0.226 N 
ATOM      2  H8  UNL     1     -14.214  12.261   3.380  1.00  0.00     0.177 HD
HETATM    3  C18 UNL     1     -13.753  13.130   5.211  1.00  0.00     0.682 C 
HETATM    4  N9  UNL     1     -14.594  14.011   5.604  1.00  0.00    -0.126 N 
ATOM      5  H9  UNL     1     -14.716  14.178   6.602  1.00  0.00     0.197 HD
HETATM    6  C19 UNL     1     -15.342  14.739   4.698  1.00  0.00     0.196 C 
HETATM    7  N10 UNL     1     -15.966  15.371   3.933  1.00  0.00    -0.171 NA
HETATM    8  N11 UNL     1     -13.017  12.403   6.189  1.00  0.00    -0.224 N 
ATOM      9  H11 UNL     1     -12.024  12.570   6.356  1.00  0.00     0.177 HD
ENDROOT
BRANCH   1  10
HETATM   10  C17 UNL     1     -12.365  13.202   3.089  1.00  0.00     0.138 C 
BRANCH  10  11
HETATM   11  C16 UNL     1     -12.765  14.233   2.053  1.00  0.00     0.022 C 
BRANCH  11  12
HETATM   12  C15 UNL     1     -11.600  14.484   1.081  1.00  0.00     0.021 C 
BRANCH  12  13
HETATM   13  C14 UNL     1     -11.835  15.832   0.479  1.00  0.00     0.121 C 
BRANCH  13  14
HETATM   14  N7  UNL     1     -10.675  16.637   0.292  1.00  0.00    -0.379 N 
HETATM   15  C13 UNL     1      -9.924  16.591  -0.776  1.00  0.00     0.088 A 
HETATM   16  N2  UNL     1      -8.816  17.478  -0.760  1.00  0.00    -0.289 N 
HETATM   17  C27 UNL     1     -10.187  15.709  -1.895  1.00  0.00     0.128 A 
HETATM   18  C3  UNL     1      -7.899  17.482  -1.882  1.00  0.00     0.327 A 
HETATM   19  N1  UNL     1      -8.205  16.589  -2.909  1.00  0.00    -0.316 N 
HETATM   20  O1  UNL     1      -6.908  18.247  -1.894  1.00  0.00    -0.246 OA
HETATM   21  C2  UNL     1      -9.192  15.793  -2.951  1.00  0.00    -0.006 A 
ATOM     22  H1  UNL     1      -7.571  16.574  -3.707  1.00  0.00     0.170 HD
HETATM   23  C1  UNL     1      -9.318  14.911  -4.180  1.00  0.00     0.064 C 
ATOM     24  H7  UNL     1     -10.416  17.288   1.035  1.00  0.00     0.160 HD
BRANCH  16  25
HETATM   25  C4  UNL     1      -8.619  18.380   0.342  1.00  0.00     0.137 C 
BRANCH  25  26
HETATM   26  C5  UNL     1      -7.573  18.060   1.327  1.00  0.00     0.040 C 
BRANCH  26  27
HETATM   27  C6  UNL     1      -7.313  16.672   1.738  1.00  0.00     0.124 C 
BRANCH  27  28
HETATM   28  N3  UNL     1      -8.378  15.972   2.393  1.00  0.00    -0.365 N 
HETATM   29  C7  UNL     1      -8.937  16.518   3.606  1.00  0.00     0.183 C 
HETATM   30  N4  UNL     1     -10.207  17.128   3.493  1.00  0.00    -0.064 NA
HETATM   31  N5  UNL     1      -8.264  16.419   4.679  1.00  0.00    -0.365 N 
ATOM     32  H5  UNL     1      -7.352  15.963   4.678  1.00  0.00     0.162 HD
ATOM     33  H3  UNL     1      -8.737  15.099   2.007  1.00  0.00     0.162 HD
BRANCH  31  34
HETATM   34  C8  UNL     1      -8.822  16.971   5.923  1.00  0.00     0.122 C 
BRANCH  34  35
HETATM   35  C9  UNL     1      -8.757  15.854   6.954  1.00  0.00     0.020 C 
BRANCH  35  36
HETATM   36  C10 UNL     1      -9.433  16.289   8.211  1.00  0.00     0.010 C 
BRANCH  36  37
HETATM   37  C11 UNL     1     -10.866  16.696   8.065  1.00  0.00     0.099 C 
BRANCH  37  38
HETATM   38  C12 UNL     1     -11.685  15.595   7.541  1.00  0.00     0.231 C 
HETATM   39  N6  UNL     1     -12.222  15.745   6.211  1.00  0.00    -0.062 NA
HETATM   40  O2  UNL     1     -11.933  14.559   8.168  1.00  0.00    -0.277 OA
ENDBRANCH  37  38
ENDBRANCH  36  37
ENDBRANCH  35  36
ENDBRANCH  34  35
ENDBRANCH  31  34
ENDBRANCH  27  28
ENDBRANCH  26  27
ENDBRANCH  25  26
ENDBRANCH  16  25
ENDBRANCH  13  14
ENDBRANCH  12  13
ENDBRANCH  11  12
ENDBRANCH  10  11
ENDBRANCH   1  10
BRANCH   8  41
HETATM   41  C20 UNL     1     -13.771  11.399   6.941  1.00  0.00     0.157 C 
BRANCH  41  42
HETATM   42  C21 UNL     1     -14.193  10.333   5.918  1.00  0.00     0.141 C 
BRANCH  42  43
HETATM   43  N12 UNL     1     -13.021   9.629   5.495  1.00  0.00    -0.375 N 
ATOM     44  H12 UNL     1     -12.115  10.041   5.717  1.00  0.00     0.161 HD
BRANCH  43  45
HETATM   45  C22 UNL     1     -13.029   8.524   4.860  1.00  0.00     0.100 A 
HETATM   46  C23 UNL     1     -13.983   7.547   5.008  1.00  0.00     0.048 A 
HETATM   47  C24 UNL     1     -13.930   6.350   4.301  1.00  0.00     0.005 A 
HETATM   48  C25 UNL     1     -12.902   6.117   3.422  1.00  0.00     0.017 A 
HETATM   49  C26 UNL     1     -11.960   7.115   3.294  1.00  0.00     0.089 A 
HETATM   50  N13 UNL     1     -12.019   8.260   3.977  1.00  0.00    -0.353 N 
ATOM     51  H13 UNL     1     -11.290   8.958   3.837  1.00  0.00     0.166 HD
ENDBRANCH  43  45
ENDBRANCH  42  43
ENDBRANCH  41  42
ENDBRANCH   8  41
TORSDOF 18
ENDMDL
MODEL 4
REMARK VINA RESULT: -8.470741216      2.758      9.793
REMARK  18 active torsions:
REMARK  status: ('A' for Active; 'I' for Inactive)
REMARK    1  A    between atoms: N2_7  and  C4_8 
REMARK    2  A    between atoms: C4_8  and  C5_9 
REMARK    3  A    between atoms: C5_9  and  C6_10 
REMARK    4  A    between atoms: C6_10  and  N3_11 
REMARK       I    between atoms: N3_11  and  C7_13 
REMARK    5  A    between atoms: N5_15  and  C8_17 
REMARK    6  A    between atoms: C8_17  and  C9_18 
REMARK    7  A    between atoms: C9_18  and  C10_19 
REMARK    8  A    between atoms: C10_19  and  C11_20 
REMARK    9  A    between atoms: C11_20  and  C12_21 
REMARK   10  A    between atoms: N7_25  and  C14_27 
REMARK   11  A    between atoms: C14_27  and  C15_28 
REMARK   12  A    between atoms: C15_28  and  C16_29 
REMARK   13  A    between atoms: C16_29  and  C17_30 
REMARK   14  A    between atoms: C17_30  and  N8_31 
REMARK       I    between atoms: N8_31  and  C18_33 
REMARK       I    between atoms: C18_33  and  N11_38 
REMARK   15  A    between atoms: N11_38  and  C20_40 
REMARK   16  A    between atoms: C20_40  and  C21_41 
REMARK   17  A    between atoms: C21_41  and  N12_42 
REMARK   18  A    between atoms: N12_42  and  C22_44 
ROOT
HETATM    1  N8  UNL     1      -9.233  16.241   2.923  1.00  0.00    -0.226 N 
ATOM      2  H8  UNL     1      -9.415  17.229   3.101  1.00  0.00     0.177 HD
HETATM    3  C18 UNL     1     -10.004  15.314   3.656  1.00  0.00     0.682 C 
HETATM    4  N9  UNL     1      -9.818  15.043   4.892  1.00  0.00    -0.126 N 
ATOM      5  H9  UNL     1     -10.419  14.359   5.351  1.00  0.00     0.197 HD
HETATM    6  C19 UNL     1      -8.816  15.660   5.617  1.00  0.00     0.196 C 
HETATM    7  N10 UNL     1      -7.957  16.170   6.231  1.00  0.00    -0.171 NA
HETATM    8  N11 UNL     1     -11.057  14.654   2.960  1.00  0.00    -0.224 N 
ATOM      9  H11 UNL     1     -10.877  13.925   2.270  1.00  0.00     0.177 HD
ENDROOT
BRANCH   1  10
HETATM   10  C17 UNL     1      -8.225  15.939   1.958  1.00  0.00     0.138 C 
BRANCH  10  11
HETATM   11  C16 UNL     1      -7.461  17.197   1.599  1.00  0.00     0.022 C 
BRANCH  11  12
HETATM   12  C15 UNL     1      -6.645  16.971   0.315  1.00  0.00     0.021 C 
BRANCH  12  13
HETATM   13  C14 UNL     1      -5.395  17.778   0.461  1.00  0.00     0.121 C 
BRANCH  13  14
HETATM   14  N7  UNL     1      -5.012  18.538  -0.681  1.00  0.00    -0.379 N 
HETATM   15  C13 UNL     1      -4.120  18.142  -1.549  1.00  0.00     0.088 A 
HETATM   16  N2  UNL     1      -3.886  19.052  -2.615  1.00  0.00    -0.289 N 
HETATM   17  C27 UNL     1      -3.415  16.880  -1.447  1.00  0.00     0.128 A 
HETATM   18  C3  UNL     1      -2.890  18.724  -3.615  1.00  0.00     0.327 A 
HETATM   19  N1  UNL     1      -2.238  17.505  -3.435  1.00  0.00    -0.316 N 
HETATM   20  O1  UNL     1      -2.655  19.510  -4.562  1.00  0.00    -0.246 OA
HETATM   21  C2  UNL     1      -2.433  16.673  -2.498  1.00  0.00    -0.006 A 
ATOM     22  H1  UNL     1      -1.531  17.258  -4.127  1.00  0.00     0.170 HD
HETATM   23  C1  UNL     1      -1.597  15.406  -2.511  1.00  0.00     0.064 C 
ATOM     24  H7  UNL     1      -5.460  19.443  -0.829  1.00  0.00     0.160 HD
BRANCH  16  25
HETATM   25  C4  UNL     1      -4.646  20.268  -2.716  1.00  0.00     0.137 C 
BRANCH  25  26
HETATM   26  C5  UNL     1      -5.777  20.308  -3.658  1.00  0.00     0.040 C 
BRANCH  26  27
HETATM   27  C6  UNL     1      -6.676  19.155  -3.817  1.00  0.00     0.124 C 
BRANCH  27  28
HETATM   28  N3  UNL     1      -6.745  18.551  -5.115  1.00  0.00    -0.365 N 
HETATM   29  C7  UNL     1      -7.892  17.745  -5.455  1.00  0.00     0.183 C 
HETATM   30  N4  UNL     1      -8.832  18.330  -6.334  1.00  0.00    -0.064 NA
HETATM   31  N5  UNL     1      -7.983  16.583  -4.952  1.00  0.00    -0.365 N 
ATOM     32  H5  UNL     1      -7.261  16.232  -4.324  1.00  0.00     0.162 HD
ATOM     33  H3  UNL     1      -5.993  18.690  -5.790  1.00  0.00     0.162 HD
BRANCH  31  34
HETATM   34  C8  UNL     1      -9.148  15.749  -5.290  1.00  0.00     0.122 C 
BRANCH  34  35
HETATM   35  C9  UNL     1      -9.533  15.015  -4.015  1.00  0.00     0.020 C 
BRANCH  35  36
HETATM   36  C10 UNL     1     -10.145  15.974  -3.048  1.00  0.00     0.010 C 
BRANCH  36  37
HETATM   37  C11 UNL     1      -9.712  15.818  -1.624  1.00  0.00     0.099 C 
BRANCH  37  38
HETATM   38  C12 UNL     1     -10.351  16.816  -0.757  1.00  0.00     0.231 C 
HETATM   39  N6  UNL     1     -11.265  16.332   0.248  1.00  0.00    -0.062 NA
HETATM   40  O2  UNL     1     -10.150  18.033  -0.839  1.00  0.00    -0.277 OA
ENDBRANCH  37  38
ENDBRANCH  36  37
ENDBRANCH  35  36
ENDBRANCH  34  35
ENDBRANCH  31  34
ENDBRANCH  27  28
ENDBRANCH  26  27
ENDBRANCH  25  26
ENDBRANCH  16  25
ENDBRANCH  13  14
ENDBRANCH  12  13
ENDBRANCH  11  12
ENDBRANCH  10  11
ENDBRANCH   1  10
BRANCH   8  41
HETATM   41  C20 UNL     1     -12.414  15.086   3.297  1.00  0.00     0.157 C 
BRANCH  41  42
HETATM   42  C21 UNL     1     -13.358  14.202   2.468  1.00  0.00     0.141 C 
BRANCH  42  43
HETATM   43  N12 UNL     1     -13.136  12.837   2.840  1.00  0.00    -0.375 N 
ATOM     44  H12 UNL     1     -12.458  12.303   2.298  1.00  0.00     0.161 HD
BRANCH  43  45
HETATM   45  C22 UNL     1     -13.727  12.243   3.800  1.00  0.00     0.100 A 
HETATM   46  C23 UNL     1     -15.061  11.916   3.812  1.00  0.00     0.048 A 
HETATM   47  C24 UNL     1     -15.657  11.284   4.898  1.00  0.00     0.005 A 
HETATM   48  C25 UNL     1     -14.906  10.965   6.003  1.00  0.00     0.017 A 
HETATM   49  C26 UNL     1     -13.572  11.303   5.962  1.00  0.00     0.089 A 
HETATM   50  N13 UNL     1     -13.009  11.911   4.915  1.00  0.00    -0.353 N 
ATOM     51  H13 UNL     1     -12.015  12.135   4.948  1.00  0.00     0.166 HD
ENDBRANCH  43  45
ENDBRANCH  42  43
ENDBRANCH  41  42
ENDBRANCH   8  41
TORSDOF 18
ENDMDL
MODEL 5
REMARK VINA RESULT: -8.449240716      2.306      3.600
REMARK  18 active torsions:
REMARK  status: ('A' for Active; 'I' for Inactive)
REMARK    1  A    between atoms: N2_7  and  C4_8 
REMARK    2  A    between atoms: C4_8  and  C5_9 
REMARK    3  A    between atoms: C5_9  and  C6_10 
REMARK    4  A    between atoms: C6_10  and  N3_11 
REMARK       I    between atoms: N3_11  and  C7_13 
REMARK    5  A    between atoms: N5_15  and  C8_17 
REMARK    6  A    between atoms: C8_17  and  C9_18 
REMARK    7  A    between atoms: C9_18  and  C10_19 
REMARK    8  A    between atoms: C10_19  and  C11_20 
REMARK    9  A    between atoms: C11_20  and  C12_21 
REMARK   10  A    between atoms: N7_25  and  C14_27 
REMARK   11  A    between atoms: C14_27  and  C15_28 
REMARK   12  A    between atoms: C15_28  and  C16_29 
REMARK   13  A    between atoms: C16_29  and  C17_30 
REMARK   14  A    between atoms: C17_30  and  N8_31 
REMARK       I    between atoms: N8_31  and  C18_33 
REMARK       I    between atoms: C18_33  and  N11_38 
REMARK   15  A    between atoms: N11_38  and  C20_40 
REMARK   16  A    between atoms: C20_40  and  C21_41 
REMARK   17  A    between atoms: C21_41  and  N12_42 
REMARK   18  A    between atoms: N12_42  and  C22_44 
ROOT
HETATM    1  N8  UNL     1      -4.680  17.880  -1.279  1.00  0.00    -0.226 N 
ATOM      2  H8  UNL     1      -4.126  17.996  -0.430  1.00  0.00     0.177 HD
HETATM    3  C18 UNL     1      -4.056  18.233  -2.493  1.00  0.00     0.682 C 
HETATM    4  N9  UNL     1      -3.864  19.437  -2.880  1.00  0.00    -0.126 N 
ATOM      5  H9  UNL     1      -3.405  19.609  -3.774  1.00  0.00     0.197 HD
HETATM    6  C19 UNL     1      -4.268  20.509  -2.107  1.00  0.00     0.196 C 
HETATM    7  N10 UNL     1      -4.623  21.420  -1.462  1.00  0.00    -0.171 NA
HETATM    8  N11 UNL     1      -3.612  17.166  -3.327  1.00  0.00    -0.224 N 
ATOM      9  H11 UNL     1      -4.262  16.584  -3.855  1.00  0.00     0.177 HD
ENDROOT
BRANCH   1  10
HETATM   10  C17 UNL     1      -6.007  17.378  -1.114  1.00  0.00     0.138 C 
BRANCH  10  11
HETATM   11  C16 UNL     1      -6.809  18.317  -0.237  1.00  0.00     0.022 C 
BRANCH  11  12
HETATM   12  C15 UNL     1      -6.913  17.749   1.188  1.00  0.00     0.021 C 
BRANCH  12  13
HETATM   13  C14 UNL     1      -8.044  18.469   1.849  1.00  0.00     0.121 C 
BRANCH  13  14
HETATM   14  N7  UNL     1      -9.237  17.712   2.031  1.00  0.00    -0.379 N 
HETATM   15  C13 UNL     1      -9.474  16.975   3.083  1.00  0.00     0.088 A 
HETATM   16  N2  UNL     1     -10.726  16.303   3.066  1.00  0.00    -0.289 N 
HETATM   17  C27 UNL     1      -8.545  16.841   4.187  1.00  0.00     0.128 A 
HETATM   18  C3  UNL     1     -11.073  15.432   4.170  1.00  0.00     0.327 A 
HETATM   19  N1  UNL     1     -10.118  15.336   5.181  1.00  0.00    -0.316 N 
HETATM   20  O1  UNL     1     -12.165  14.819   4.180  1.00  0.00    -0.246 OA
HETATM   21  C2  UNL     1      -8.999  15.930   5.225  1.00  0.00    -0.006 A 
ATOM     22  H1  UNL     1     -10.343  14.725   5.967  1.00  0.00     0.170 HD
HETATM   23  C1  UNL     1      -8.121  15.668   6.435  1.00  0.00     0.064 C 
ATOM     24  H7  UNL     1      -9.947  17.749   1.299  1.00  0.00     0.160 HD
BRANCH  16  25
HETATM   25  C4  UNL     1     -11.647  16.505   1.981  1.00  0.00     0.137 C 
BRANCH  25  26
HETATM   26  C5  UNL     1     -11.791  15.435   0.980  1.00  0.00     0.040 C 
BRANCH  26  27
HETATM   27  C6  UNL     1     -10.628  14.663   0.518  1.00  0.00     0.124 C 
BRANCH  27  28
HETATM   28  N3  UNL     1      -9.577  15.388  -0.134  1.00  0.00    -0.365 N 
HETATM   29  C7  UNL     1      -9.868  16.103  -1.353  1.00  0.00     0.183 C 
HETATM   30  N4  UNL     1      -9.962  17.509  -1.249  1.00  0.00    -0.064 NA
HETATM   31  N5  UNL     1     -10.019  15.435  -2.423  1.00  0.00    -0.365 N 
ATOM     32  H5  UNL     1      -9.937  14.419  -2.416  1.00  0.00     0.162 HD
ATOM     33  H3  UNL     1      -8.636  15.398   0.258  1.00  0.00     0.162 HD
BRANCH  31  34
HETATM   34  C8  UNL     1     -10.316  16.151  -3.674  1.00  0.00     0.122 C 
BRANCH  34  35
HETATM   35  C9  UNL     1      -9.317  15.646  -4.703  1.00  0.00     0.020 C 
BRANCH  35  36
HETATM   36  C10 UNL     1      -8.437  16.768  -5.144  1.00  0.00     0.010 C 
BRANCH  36  37
HETATM   37  C11 UNL     1      -8.181  17.827  -4.118  1.00  0.00     0.099 C 
BRANCH  37  38
HETATM   38  C12 UNL     1      -7.032  18.664  -4.487  1.00  0.00     0.231 C 
HETATM   39  N6  UNL     1      -6.005  18.058  -5.299  1.00  0.00    -0.062 NA
HETATM   40  O2  UNL     1      -6.899  19.846  -4.147  1.00  0.00    -0.277 OA
ENDBRANCH  37  38
ENDBRANCH  36  37
ENDBRANCH  35  36
ENDBRANCH  34  35
ENDBRANCH  31  34
ENDBRANCH  27  28
ENDBRANCH  26  27
ENDBRANCH  25  26
ENDBRANCH  16  25
ENDBRANCH  13  14
ENDBRANCH  12  13
ENDBRANCH  11  12
ENDBRANCH  10  11
ENDBRANCH   1  10
BRANCH   8  41
HETATM   41  C20 UNL     1      -2.164  16.958  -3.378  1.00  0.00     0.157 C 
BRANCH  41  42
HETATM   42  C21 UNL     1      -1.857  16.475  -4.804  1.00  0.00     0.141 C 
BRANCH  42  43
HETATM   43  N12 UNL     1      -2.849  17.016  -5.684  1.00  0.00    -0.375 N 
ATOM     44  H12 UNL     1      -3.462  17.744  -5.317  1.00  0.00     0.161 HD
BRANCH  43  45
HETATM   45  C22 UNL     1      -3.019  16.654  -6.894  1.00  0.00     0.100 A 
HETATM   46  C23 UNL     1      -2.177  15.816  -7.583  1.00  0.00     0.048 A 
HETATM   47  C24 UNL     1      -2.403  15.470  -8.911  1.00  0.00     0.005 A 
HETATM   48  C25 UNL     1      -3.499  15.967  -9.573  1.00  0.00     0.017 A 
HETATM   49  C26 UNL     1      -4.326  16.803  -8.856  1.00  0.00     0.089 A 
HETATM   50  N13 UNL     1      -4.100  17.131  -7.582  1.00  0.00    -0.353 N 
ATOM     51  H13 UNL     1      -4.751  17.755  -7.108  1.00  0.00     0.166 HD
ENDBRANCH  43  45
ENDBRANCH  42  43
ENDBRANCH  41  42
ENDBRANCH   8  41
TORSDOF 18
ENDMDL
