MODEL 1
REMARK VINA RESULT: -6.012693229      0.000      0.000
REMARK  13 active torsions:
REMARK  status: ('A' for Active; 'I' for Inactive)
REMARK    1  A    between atoms: C4_4  and  C5_5 
REMARK    2  A    between atoms: C5_5  and  N1_6 
REMARK    3  A    between atoms: N1_6  and  C6_9 
REMARK    4  A    between atoms: C6_9  and  C7_10 
REMARK    5  A    between atoms: C7_10  and  C8_11 
REMARK    6  A    between atoms: C8_11  and  C9_12 
REMARK    7  A    between atoms: C9_12  and  C10_13 
REMARK    8  A    between atoms: C10_13  and  C11_14 
REMARK    9  A    between atoms: C11_14  and  C12_15 
REMARK   10  A    between atoms: C12_15  and  C13_16 
REMARK   11  A    between atoms: C13_16  and  C14_17 
REMARK   12  A    between atoms: C15_18  and  C16_19 
REMARK   13  A    between atoms: C16_19  and  C17_20 
ROOT
HETATM    1  C7  UNL     1     -48.353  68.626  -9.357  1.00  0.00     0.027 C 
ENDROOT
BRANCH   1   2
HETATM    2  C6  UNL     1     -47.339  68.390 -10.452  1.00  0.00     0.232 C 
BRANCH   2   3
HETATM    3  N1  UNL     1     -47.760  67.260 -11.239  1.00  0.00    -0.071 N 
ATOM      4  H12 UNL     1     -48.533  66.771 -10.786  1.00  0.00     0.277 HD
ATOM      5  H11 UNL     1     -47.057  66.522 -11.217  1.00  0.00     0.277 HD
BRANCH   3   6
HETATM    6  C5  UNL     1     -48.096  67.598 -12.582  1.00  0.00     0.270 C 
BRANCH   6   7
HETATM    7  C4  UNL     1     -49.486  68.093 -12.730  1.00  0.00    -0.033 A 
HETATM    8  C3  UNL     1     -49.749  69.344 -13.210  1.00  0.00     0.009 A 
HETATM    9  C2  UNL     1     -51.048  69.812 -13.346  1.00  0.00     0.001 A 
HETATM   10  C1  UNL     1     -52.085  68.976 -12.984  1.00  0.00     0.000 A 
HETATM   11  C21 UNL     1     -51.832  67.712 -12.498  1.00  0.00     0.001 A 
HETATM   12  C20 UNL     1     -50.527  67.263 -12.369  1.00  0.00     0.009 A 
ENDBRANCH   6   7
ENDBRANCH   3   6
ENDBRANCH   2   3
ENDBRANCH   1   2
BRANCH   1  13
HETATM   13  C8  UNL     1     -48.888  70.055  -9.416  1.00  0.00     0.002 C 
BRANCH  13  14
HETATM   14  C9  UNL     1     -50.374  69.967  -9.402  1.00  0.00     0.000 C 
BRANCH  14  15
HETATM   15  C10 UNL     1     -51.067  71.243  -9.854  1.00  0.00     0.000 C 
BRANCH  15  16
HETATM   16  C11 UNL     1     -50.388  72.390  -9.211  1.00  0.00     0.000 C 
BRANCH  16  17
HETATM   17  C12 UNL     1     -51.189  72.872  -7.995  1.00  0.00     0.004 C 
BRANCH  17  18
HETATM   18  C13 UNL     1     -50.253  73.329  -6.950  1.00  0.00     0.027 C 
BRANCH  18  19
HETATM   19  C14 UNL     1     -49.612  72.255  -6.170  1.00  0.00    -0.031 C 
HETATM   20  C15 UNL     1     -48.186  72.010  -6.226  1.00  0.00    -0.030 C 
BRANCH  20  21
HETATM   21  C16 UNL     1     -47.192  73.028  -5.851  1.00  0.00     0.031 C 
BRANCH  21  22
HETATM   22  C17 UNL     1     -46.236  73.199  -7.080  1.00  0.00    -0.011 A 
HETATM   23  C18 UNL     1     -46.256  72.127  -8.077  1.00  0.00     0.005 A 
HETATM   24  C19 UNL     1     -46.874  73.465  -8.401  1.00  0.00     0.005 A 
ENDBRANCH  21  22
ENDBRANCH  20  21
ENDBRANCH  18  19
ENDBRANCH  17  18
ENDBRANCH  16  17
ENDBRANCH  15  16
ENDBRANCH  14  15
ENDBRANCH  13  14
ENDBRANCH   1  13
TORSDOF 13
ENDMDL
MODEL 2
REMARK VINA RESULT: -5.965097715      1.369      2.460
REMARK  13 active torsions:
REMARK  status: ('A' for Active; 'I' for Inactive)
REMARK    1  A    between atoms: C4_4  and  C5_5 
REMARK    2  A    between atoms: C5_5  and  N1_6 
REMARK    3  A    between atoms: N1_6  and  C6_9 
REMARK    4  A    between atoms: C6_9  and  C7_10 
REMARK    5  A    between atoms: C7_10  and  C8_11 
REMARK    6  A    between atoms: C8_11  and  C9_12 
REMARK    7  A    between atoms: C9_12  and  C10_13 
REMARK    8  A    between atoms: C10_13  and  C11_14 
REMARK    9  A    between atoms: C11_14  and  C12_15 
REMARK   10  A    between atoms: C12_15  and  C13_16 
REMARK   11  A    between atoms: C13_16  and  C14_17 
REMARK   12  A    between atoms: C15_18  and  C16_19 
REMARK   13  A    between atoms: C16_19  and  C17_20 
ROOT
HETATM    1  C7  UNL     1     -49.540  66.196 -11.642  1.00  0.00     0.027 C 
ENDROOT
BRANCH   1   2
HETATM    2  C6  UNL     1     -48.449  67.082 -12.197  1.00  0.00     0.232 C 
BRANCH   2   3
HETATM    3  N1  UNL     1     -48.865  67.581 -13.483  1.00  0.00    -0.071 N 
ATOM      4  H12 UNL     1     -49.653  67.042 -13.842  1.00  0.00     0.277 HD
ATOM      5  H11 UNL     1     -48.171  67.363 -14.197  1.00  0.00     0.277 HD
BRANCH   3   6
HETATM    6  C5  UNL     1     -49.165  68.974 -13.479  1.00  0.00     0.270 C 
BRANCH   6   7
HETATM    7  C4  UNL     1     -50.607  69.261 -13.282  1.00  0.00    -0.033 A 
HETATM    8  C3  UNL     1     -51.565  68.337 -13.588  1.00  0.00     0.009 A 
HETATM    9  C2  UNL     1     -52.915  68.603 -13.409  1.00  0.00     0.001 A 
HETATM   10  C1  UNL     1     -53.277  69.837 -12.906  1.00  0.00     0.000 A 
HETATM   11  C21 UNL     1     -52.319  70.778 -12.595  1.00  0.00     0.001 A 
HETATM   12  C20 UNL     1     -50.975  70.493 -12.781  1.00  0.00     0.009 A 
ENDBRANCH   6   7
ENDBRANCH   3   6
ENDBRANCH   2   3
ENDBRANCH   1   2
BRANCH   1  13
HETATM   13  C8  UNL     1     -49.809  66.527 -10.177  1.00  0.00     0.002 C 
BRANCH  13  14
HETATM   14  C9  UNL     1     -49.250  67.882  -9.923  1.00  0.00     0.000 C 
BRANCH  14  15
HETATM   15  C10 UNL     1     -50.266  68.871  -9.372  1.00  0.00     0.000 C 
BRANCH  15  16
HETATM   16  C11 UNL     1     -49.620  70.199  -9.287  1.00  0.00     0.000 C 
BRANCH  16  17
HETATM   17  C12 UNL     1     -50.680  71.305  -9.207  1.00  0.00     0.004 C 
BRANCH  17  18
HETATM   18  C13 UNL     1     -50.083  72.503  -8.586  1.00  0.00     0.027 C 
BRANCH  18  19
HETATM   19  C14 UNL     1     -50.367  72.671  -7.149  1.00  0.00    -0.031 C 
HETATM   20  C15 UNL     1     -49.371  72.404  -6.132  1.00  0.00    -0.030 C 
BRANCH  20  21
HETATM   21  C16 UNL     1     -48.085  73.115  -6.076  1.00  0.00     0.031 C 
BRANCH  21  22
HETATM   22  C17 UNL     1     -46.963  72.023  -6.101  1.00  0.00    -0.011 A 
HETATM   23  C18 UNL     1     -46.997  71.028  -5.028  1.00  0.00     0.005 A 
HETATM   24  C19 UNL     1     -47.381  70.631  -6.432  1.00  0.00     0.005 A 
ENDBRANCH  21  22
ENDBRANCH  20  21
ENDBRANCH  18  19
ENDBRANCH  17  18
ENDBRANCH  16  17
ENDBRANCH  15  16
ENDBRANCH  14  15
ENDBRANCH  13  14
ENDBRANCH   1  13
TORSDOF 13
ENDMDL
MODEL 3
REMARK VINA RESULT: -5.932162901      1.873      5.936
REMARK  13 active torsions:
REMARK  status: ('A' for Active; 'I' for Inactive)
REMARK    1  A    between atoms: C4_4  and  C5_5 
REMARK    2  A    between atoms: C5_5  and  N1_6 
REMARK    3  A    between atoms: N1_6  and  C6_9 
REMARK    4  A    between atoms: C6_9  and  C7_10 
REMARK    5  A    between atoms: C7_10  and  C8_11 
REMARK    6  A    between atoms: C8_11  and  C9_12 
REMARK    7  A    between atoms: C9_12  and  C10_13 
REMARK    8  A    between atoms: C10_13  and  C11_14 
REMARK    9  A    between atoms: C11_14  and  C12_15 
REMARK   10  A    between atoms: C12_15  and  C13_16 
REMARK   11  A    between atoms: C13_16  and  C14_17 
REMARK   12  A    between atoms: C15_18  and  C16_19 
REMARK   13  A    between atoms: C16_19  and  C17_20 
ROOT
HETATM    1  C7  UNL     1     -49.974  72.667  -8.704  1.00  0.00     0.027 C 
ENDROOT
BRANCH   1   2
HETATM    2  C6  UNL     1     -49.062  72.548  -7.506  1.00  0.00     0.232 C 
BRANCH   2   3
HETATM    3  N1  UNL     1     -48.352  71.297  -7.585  1.00  0.00    -0.071 N 
ATOM      4  H12 UNL     1     -48.794  70.593  -6.995  1.00  0.00     0.277 HD
ATOM      5  H11 UNL     1     -47.447  71.365  -7.119  1.00  0.00     0.277 HD
BRANCH   3   6
HETATM    6  C5  UNL     1     -48.199  70.817  -8.918  1.00  0.00     0.270 C 
BRANCH   6   7
HETATM    7  C4  UNL     1     -48.565  69.387  -9.070  1.00  0.00    -0.033 A 
HETATM    8  C3  UNL     1     -47.612  68.414  -9.160  1.00  0.00     0.009 A 
HETATM    9  C2  UNL     1     -47.950  67.077  -9.306  1.00  0.00     0.001 A 
HETATM   10  C1  UNL     1     -49.289  66.743  -9.358  1.00  0.00     0.000 A 
HETATM   11  C21 UNL     1     -50.260  67.717  -9.269  1.00  0.00     0.001 A 
HETATM   12  C20 UNL     1     -49.901  69.048  -9.123  1.00  0.00     0.009 A 
ENDBRANCH   6   7
ENDBRANCH   3   6
ENDBRANCH   2   3
ENDBRANCH   1   2
BRANCH   1  13
HETATM   13  C8  UNL     1     -51.437  72.672  -8.270  1.00  0.00     0.002 C 
BRANCH  13  14
HETATM   14  C9  UNL     1     -52.239  72.189  -9.426  1.00  0.00     0.000 C 
BRANCH  14  15
HETATM   15  C10 UNL     1     -51.451  72.103 -10.724  1.00  0.00     0.000 C 
BRANCH  15  16
HETATM   16  C11 UNL     1     -52.039  71.028 -11.552  1.00  0.00     0.000 C 
BRANCH  16  17
HETATM   17  C12 UNL     1     -52.237  71.511 -12.995  1.00  0.00     0.004 C 
BRANCH  17  18
HETATM   18  C13 UNL     1     -52.191  70.350 -13.904  1.00  0.00     0.027 C 
BRANCH  18  19
HETATM   19  C14 UNL     1     -52.932  69.162 -13.440  1.00  0.00    -0.031 C 
HETATM   20  C15 UNL     1     -52.310  67.858 -13.343  1.00  0.00    -0.030 C 
BRANCH  20  21
HETATM   21  C16 UNL     1     -51.140  67.601 -12.490  1.00  0.00     0.031 C 
BRANCH  21  22
HETATM   22  C17 UNL     1     -49.874  67.967 -13.337  1.00  0.00    -0.011 A 
HETATM   23  C18 UNL     1     -48.936  68.914 -12.732  1.00  0.00     0.005 A 
HETATM   24  C19 UNL     1     -48.562  67.457 -12.847  1.00  0.00     0.005 A 
ENDBRANCH  21  22
ENDBRANCH  20  21
ENDBRANCH  18  19
ENDBRANCH  17  18
ENDBRANCH  16  17
ENDBRANCH  15  16
ENDBRANCH  14  15
ENDBRANCH  13  14
ENDBRANCH   1  13
TORSDOF 13
ENDMDL
MODEL 4
REMARK VINA RESULT: -5.925531040      1.674      3.738
REMARK  13 active torsions:
REMARK  status: ('A' for Active; 'I' for Inactive)
REMARK    1  A    between atoms: C4_4  and  C5_5 
REMARK    2  A    between atoms: C5_5  and  N1_6 
REMARK    3  A    between atoms: N1_6  and  C6_9 
REMARK    4  A    between atoms: C6_9  and  C7_10 
REMARK    5  A    between atoms: C7_10  and  C8_11 
REMARK    6  A    between atoms: C8_11  and  C9_12 
REMARK    7  A    between atoms: C9_12  and  C10_13 
REMARK    8  A    between atoms: C10_13  and  C11_14 
REMARK    9  A    between atoms: C11_14  and  C12_15 
REMARK   10  A    between atoms: C12_15  and  C13_16 
REMARK   11  A    between atoms: C13_16  and  C14_17 
REMARK   12  A    between atoms: C15_18  and  C16_19 
REMARK   13  A    between atoms: C16_19  and  C17_20 
ROOT
HETATM    1  C7  UNL     1     -51.417  71.100 -11.105  1.00  0.00     0.027 C 
ENDROOT
BRANCH   1   2
HETATM    2  C6  UNL     1     -52.058  71.365 -12.447  1.00  0.00     0.232 C 
BRANCH   2   3
HETATM    3  N1  UNL     1     -51.356  70.612 -13.455  1.00  0.00    -0.071 N 
ATOM      4  H12 UNL     1     -50.352  70.783 -13.399  1.00  0.00     0.277 HD
ATOM      5  H11 UNL     1     -51.541  70.990 -14.384  1.00  0.00     0.277 HD
BRANCH   3   6
HETATM    6  C5  UNL     1     -51.634  69.215 -13.413  1.00  0.00     0.270 C 
BRANCH   6   7
HETATM    7  C4  UNL     1     -50.462  68.397 -13.017  1.00  0.00    -0.033 A 
HETATM    8  C3  UNL     1     -50.610  67.233 -12.319  1.00  0.00     0.009 A 
HETATM    9  C2  UNL     1     -49.516  66.467 -11.943  1.00  0.00     0.001 A 
HETATM   10  C1  UNL     1     -48.256  66.910 -12.294  1.00  0.00     0.000 A 
HETATM   11  C21 UNL     1     -48.094  68.084 -12.998  1.00  0.00     0.001 A 
HETATM   12  C20 UNL     1     -49.200  68.835 -13.364  1.00  0.00     0.009 A 
ENDBRANCH   6   7
ENDBRANCH   3   6
ENDBRANCH   2   3
ENDBRANCH   1   2
BRANCH   1  13
HETATM   13  C8  UNL     1     -51.885  72.122 -10.073  1.00  0.00     0.002 C 
BRANCH  13  14
HETATM   14  C9  UNL     1     -50.709  72.459  -9.226  1.00  0.00     0.000 C 
BRANCH  14  15
HETATM   15  C10 UNL     1     -51.071  72.839  -7.798  1.00  0.00     0.000 C 
BRANCH  15  16
HETATM   16  C11 UNL     1     -49.841  73.294  -7.114  1.00  0.00     0.000 C 
BRANCH  16  17
HETATM   17  C12 UNL     1     -49.412  72.273  -6.051  1.00  0.00     0.004 C 
BRANCH  17  18
HETATM   18  C13 UNL     1     -47.942  72.303  -5.919  1.00  0.00     0.027 C 
BRANCH  18  19
HETATM   19  C14 UNL     1     -47.267  71.012  -6.149  1.00  0.00    -0.031 C 
HETATM   20  C15 UNL     1     -47.644  70.129  -7.233  1.00  0.00    -0.030 C 
BRANCH  20  21
HETATM   21  C16 UNL     1     -47.586  70.539  -8.644  1.00  0.00     0.031 C 
BRANCH  21  22
HETATM   22  C17 UNL     1     -48.229  69.379  -9.478  1.00  0.00    -0.011 A 
HETATM   23  C18 UNL     1     -48.339  68.080  -8.812  1.00  0.00     0.005 A 
HETATM   24  C19 UNL     1     -49.578  68.907  -9.051  1.00  0.00     0.005 A 
ENDBRANCH  21  22
ENDBRANCH  20  21
ENDBRANCH  18  19
ENDBRANCH  17  18
ENDBRANCH  16  17
ENDBRANCH  15  16
ENDBRANCH  14  15
ENDBRANCH  13  14
ENDBRANCH   1  13
TORSDOF 13
ENDMDL
MODEL 5
REMARK VINA RESULT: -5.901820653      1.141      2.916
REMARK  13 active torsions:
REMARK  status: ('A' for Active; 'I' for Inactive)
REMARK    1  A    between atoms: C4_4  and  C5_5 
REMARK    2  A    between atoms: C5_5  and  N1_6 
REMARK    3  A    between atoms: N1_6  and  C6_9 
REMARK    4  A    between atoms: C6_9  and  C7_10 
REMARK    5  A    between atoms: C7_10  and  C8_11 
REMARK    6  A    between atoms: C8_11  and  C9_12 
REMARK    7  A    between atoms: C9_12  and  C10_13 
REMARK    8  A    between atoms: C10_13  and  C11_14 
REMARK    9  A    between atoms: C11_14  and  C12_15 
REMARK   10  A    between atoms: C12_15  and  C13_16 
REMARK   11  A    between atoms: C13_16  and  C14_17 
REMARK   12  A    between atoms: C15_18  and  C16_19 
REMARK   13  A    between atoms: C16_19  and  C17_20 
ROOT
HETATM    1  C7  UNL     1     -50.798  69.645 -13.275  1.00  0.00     0.027 C 
ENDROOT
BRANCH   1   2
HETATM    2  C6  UNL     1     -50.572  68.174 -13.535  1.00  0.00     0.232 C 
BRANCH   2   3
HETATM    3  N1  UNL     1     -49.154  67.921 -13.572  1.00  0.00    -0.071 N 
ATOM      4  H12 UNL     1     -48.632  68.796 -13.602  1.00  0.00     0.277 HD
ATOM      5  H11 UNL     1     -48.881  67.529 -14.473  1.00  0.00     0.277 HD
BRANCH   3   6
HETATM    6  C5  UNL     1     -48.699  67.097 -12.502  1.00  0.00     0.270 C 
BRANCH   6   7
HETATM    7  C4  UNL     1     -48.680  67.795 -11.194  1.00  0.00    -0.033 A 
HETATM    8  C3  UNL     1     -49.462  67.381 -10.154  1.00  0.00     0.009 A 
HETATM    9  C2  UNL     1     -49.450  68.033  -8.931  1.00  0.00     0.001 A 
HETATM   10  C1  UNL     1     -48.618  69.125  -8.780  1.00  0.00     0.000 A 
HETATM   11  C21 UNL     1     -47.824  69.553  -9.822  1.00  0.00     0.001 A 
HETATM   12  C20 UNL     1     -47.851  68.887 -11.038  1.00  0.00     0.009 A 
ENDBRANCH   6   7
ENDBRANCH   3   6
ENDBRANCH   2   3
ENDBRANCH   1   2
BRANCH   1  13
HETATM   13  C8  UNL     1     -51.841  69.846 -12.180  1.00  0.00     0.002 C 
BRANCH  13  14
HETATM   14  C9  UNL     1     -51.182  70.599 -11.079  1.00  0.00     0.000 C 
BRANCH  14  15
HETATM   15  C10 UNL     1     -51.826  71.945 -10.787  1.00  0.00     0.000 C 
BRANCH  15  16
HETATM   16  C11 UNL     1     -51.765  72.181  -9.328  1.00  0.00     0.000 C 
BRANCH  16  17
HETATM   17  C12 UNL     1     -50.325  72.483  -8.895  1.00  0.00     0.004 C 
BRANCH  17  18
HETATM   18  C13 UNL     1     -50.330  72.957  -7.497  1.00  0.00     0.027 C 
BRANCH  18  19
HETATM   19  C14 UNL     1     -49.703  72.044  -6.524  1.00  0.00    -0.031 C 
HETATM   20  C15 UNL     1     -48.268  71.979  -6.344  1.00  0.00    -0.030 C 
BRANCH  20  21
HETATM   21  C16 UNL     1     -47.467  73.143  -5.937  1.00  0.00     0.031 C 
BRANCH  21  22
HETATM   22  C17 UNL     1     -46.336  73.310  -7.008  1.00  0.00    -0.011 A 
HETATM   23  C18 UNL     1     -46.067  72.150  -7.859  1.00  0.00     0.005 A 
HETATM   24  C19 UNL     1     -46.760  73.360  -8.437  1.00  0.00     0.005 A 
ENDBRANCH  21  22
ENDBRANCH  20  21
ENDBRANCH  18  19
ENDBRANCH  17  18
ENDBRANCH  16  17
ENDBRANCH  15  16
ENDBRANCH  14  15
ENDBRANCH  13  14
ENDBRANCH   1  13
TORSDOF 13
ENDMDL
