MODEL 1
REMARK VINA RESULT: -5.859395817      0.000      0.000
REMARK  15 active torsions:
REMARK  status: ('A' for Active; 'I' for Inactive)
REMARK    1  A    between atoms: N1_1  and  C1_5 
REMARK    2  A    between atoms: C1_5  and  C2_6 
REMARK    3  A    between atoms: C2_6  and  C3_7 
REMARK    4  A    between atoms: C3_7  and  C4_8 
REMARK    5  A    between atoms: C4_8  and  C5_9 
REMARK    6  A    between atoms: C5_9  and  C6_10 
REMARK    7  A    between atoms: C6_10  and  C7_11 
REMARK    8  A    between atoms: C7_11  and  C8_12 
REMARK    9  A    between atoms: C8_12  and  C9_13 
REMARK   10  A    between atoms: C9_13  and  C10_14 
REMARK   11  A    between atoms: C10_14  and  C11_15 
REMARK   12  A    between atoms: C11_15  and  C12_16 
REMARK   13  A    between atoms: C12_16  and  C13_17 
REMARK   14  A    between atoms: C13_17  and  C14_18 
REMARK   15  A    between atoms: C14_18  and  C15_19 
ROOT
HETATM    1  C9  UNL     1     -50.189  67.756 -12.252  1.00  0.00    -0.040 C 
HETATM    2  C18 UNL     1     -49.525  66.507 -11.895  1.00  0.00     0.009 C 
HETATM    3  C19 UNL     1     -50.080  66.134 -10.490  1.00  0.00     0.001 C 
HETATM    4  C20 UNL     1     -50.282  67.457  -9.833  1.00  0.00     0.001 C 
HETATM    5  C21 UNL     1     -50.633  68.395 -10.926  1.00  0.00     0.009 C 
ENDROOT
BRANCH   1   6
HETATM    6  C8  UNL     1     -49.110  68.782 -12.719  1.00  0.00     0.009 C 
BRANCH   6   7
HETATM    7  C7  UNL     1     -47.723  68.401 -12.489  1.00  0.00     0.001 C 
BRANCH   7   8
HETATM    8  C6  UNL     1     -46.813  69.151 -11.624  1.00  0.00     0.000 C 
BRANCH   8   9
HETATM    9  C5  UNL     1     -46.747  68.808 -10.181  1.00  0.00     0.000 C 
BRANCH   9  10
HETATM   10  C4  UNL     1     -47.448  69.892  -9.324  1.00  0.00     0.000 C 
BRANCH  10  11
HETATM   11  C3  UNL     1     -47.689  69.288  -7.972  1.00  0.00     0.002 C 
BRANCH  11  12
HETATM   12  C2  UNL     1     -47.324  67.865  -7.787  1.00  0.00     0.027 C 
BRANCH  12  13
HETATM   13  C1  UNL     1     -46.601  67.556  -6.524  1.00  0.00     0.229 C 
BRANCH  13  14
HETATM   14  N1  UNL     1     -45.795  66.370  -6.553  1.00  0.00    -0.079 N 
ATOM     15  H13 UNL     1     -45.087  66.410  -5.821  1.00  0.00     0.274 HD
ATOM     16  H12 UNL     1     -46.340  65.569  -6.231  1.00  0.00     0.274 HD
ATOM     17  H11 UNL     1     -45.359  66.159  -7.450  1.00  0.00     0.274 HD
ENDBRANCH  13  14
ENDBRANCH  12  13
ENDBRANCH  11  12
ENDBRANCH  10  11
ENDBRANCH   9  10
ENDBRANCH   8   9
ENDBRANCH   7   8
ENDBRANCH   6   7
ENDBRANCH   1   6
BRANCH   1  18
HETATM   18  C10 UNL     1     -51.300  67.773 -13.200  1.00  0.00     0.009 C 
BRANCH  18  19
HETATM   19  C11 UNL     1     -52.444  68.673 -13.195  1.00  0.00     0.001 C 
BRANCH  19  20
HETATM   20  C12 UNL     1     -52.369  70.011 -13.824  1.00  0.00     0.000 C 
BRANCH  20  21
HETATM   21  C13 UNL     1     -52.014  71.178 -12.984  1.00  0.00     0.000 C 
BRANCH  21  22
HETATM   22  C14 UNL     1     -52.364  71.237 -11.562  1.00  0.00     0.004 C 
BRANCH  22  23
HETATM   23  C15 UNL     1     -51.556  72.068 -10.638  1.00  0.00    -0.014 A 
HETATM   24  C16 UNL     1     -51.043  71.548  -9.351  1.00  0.00     0.005 A 
HETATM   25  C17 UNL     1     -52.244  72.399  -9.293  1.00  0.00     0.005 A 
ENDBRANCH  22  23
ENDBRANCH  21  22
ENDBRANCH  20  21
ENDBRANCH  19  20
ENDBRANCH  18  19
ENDBRANCH   1  18
TORSDOF 15
ENDMDL
MODEL 2
REMARK VINA RESULT: -5.767810794      3.873      6.422
REMARK  15 active torsions:
REMARK  status: ('A' for Active; 'I' for Inactive)
REMARK    1  A    between atoms: N1_1  and  C1_5 
REMARK    2  A    between atoms: C1_5  and  C2_6 
REMARK    3  A    between atoms: C2_6  and  C3_7 
REMARK    4  A    between atoms: C3_7  and  C4_8 
REMARK    5  A    between atoms: C4_8  and  C5_9 
REMARK    6  A    between atoms: C5_9  and  C6_10 
REMARK    7  A    between atoms: C6_10  and  C7_11 
REMARK    8  A    between atoms: C7_11  and  C8_12 
REMARK    9  A    between atoms: C8_12  and  C9_13 
REMARK   10  A    between atoms: C9_13  and  C10_14 
REMARK   11  A    between atoms: C10_14  and  C11_15 
REMARK   12  A    between atoms: C11_15  and  C12_16 
REMARK   13  A    between atoms: C12_16  and  C13_17 
REMARK   14  A    between atoms: C13_17  and  C14_18 
REMARK   15  A    between atoms: C14_18  and  C15_19 
ROOT
HETATM    1  C9  UNL     1     -46.138  69.646  -6.176  1.00  0.00    -0.040 C 
HETATM    2  C18 UNL     1     -44.726  69.733  -5.823  1.00  0.00     0.009 C 
HETATM    3  C19 UNL     1     -44.281  68.268  -5.548  1.00  0.00     0.001 C 
HETATM    4  C20 UNL     1     -45.492  67.643  -4.944  1.00  0.00     0.001 C 
HETATM    5  C21 UNL     1     -46.648  68.329  -5.571  1.00  0.00     0.009 C 
ENDROOT
BRANCH   1   6
HETATM    6  C8  UNL     1     -46.934  70.683  -5.323  1.00  0.00     0.009 C 
BRANCH   6   7
HETATM    7  C7  UNL     1     -46.216  71.897  -4.960  1.00  0.00     0.001 C 
BRANCH   7   8
HETATM    8  C6  UNL     1     -46.371  73.168  -5.668  1.00  0.00     0.000 C 
BRANCH   8   9
HETATM    9  C5  UNL     1     -45.611  73.388  -6.924  1.00  0.00     0.000 C 
BRANCH   9  10
HETATM   10  C4  UNL     1     -46.570  73.686  -8.104  1.00  0.00     0.000 C 
BRANCH  10  11
HETATM   11  C3  UNL     1     -46.127  72.826  -9.252  1.00  0.00     0.002 C 
BRANCH  11  12
HETATM   12  C2  UNL     1     -44.672  72.727  -9.506  1.00  0.00     0.027 C 
BRANCH  12  13
HETATM   13  C1  UNL     1     -44.256  72.983 -10.910  1.00  0.00     0.229 C 
BRANCH  13  14
HETATM   14  N1  UNL     1     -42.986  72.432 -11.285  1.00  0.00    -0.079 N 
ATOM     15  H13 UNL     1     -42.961  71.435 -11.073  1.00  0.00     0.274 HD
ATOM     16  H12 UNL     1     -42.903  72.402 -12.301  1.00  0.00     0.274 HD
ATOM     17  H11 UNL     1     -42.172  72.895 -10.880  1.00  0.00     0.274 HD
ENDBRANCH  13  14
ENDBRANCH  12  13
ENDBRANCH  11  12
ENDBRANCH  10  11
ENDBRANCH   9  10
ENDBRANCH   8   9
ENDBRANCH   7   8
ENDBRANCH   6   7
ENDBRANCH   1   6
BRANCH   1  18
HETATM   18  C10 UNL     1     -46.572  69.747  -7.567  1.00  0.00     0.009 C 
BRANCH  18  19
HETATM   19  C11 UNL     1     -47.826  69.267  -8.132  1.00  0.00     0.001 C 
BRANCH  19  20
HETATM   20  C12 UNL     1     -48.596  70.085  -9.096  1.00  0.00     0.000 C 
BRANCH  20  21
HETATM   21  C13 UNL     1     -50.030  70.343  -8.829  1.00  0.00     0.000 C 
BRANCH  21  22
HETATM   22  C14 UNL     1     -50.493  71.617  -8.271  1.00  0.00     0.004 C 
BRANCH  22  23
HETATM   23  C15 UNL     1     -49.629  72.364  -7.326  1.00  0.00    -0.014 A 
HETATM   24  C16 UNL     1     -49.929  72.448  -5.879  1.00  0.00     0.005 A 
HETATM   25  C17 UNL     1     -50.284  73.618  -6.701  1.00  0.00     0.005 A 
ENDBRANCH  22  23
ENDBRANCH  21  22
ENDBRANCH  20  21
ENDBRANCH  19  20
ENDBRANCH  18  19
ENDBRANCH   1  18
TORSDOF 15
ENDMDL
MODEL 3
REMARK VINA RESULT: -5.766823395      1.324      3.332
REMARK  15 active torsions:
REMARK  status: ('A' for Active; 'I' for Inactive)
REMARK    1  A    between atoms: N1_1  and  C1_5 
REMARK    2  A    between atoms: C1_5  and  C2_6 
REMARK    3  A    between atoms: C2_6  and  C3_7 
REMARK    4  A    between atoms: C3_7  and  C4_8 
REMARK    5  A    between atoms: C4_8  and  C5_9 
REMARK    6  A    between atoms: C5_9  and  C6_10 
REMARK    7  A    between atoms: C6_10  and  C7_11 
REMARK    8  A    between atoms: C7_11  and  C8_12 
REMARK    9  A    between atoms: C8_12  and  C9_13 
REMARK   10  A    between atoms: C9_13  and  C10_14 
REMARK   11  A    between atoms: C10_14  and  C11_15 
REMARK   12  A    between atoms: C11_15  and  C12_16 
REMARK   13  A    between atoms: C12_16  and  C13_17 
REMARK   14  A    between atoms: C13_17  and  C14_18 
REMARK   15  A    between atoms: C14_18  and  C15_19 
ROOT
HETATM    1  C9  UNL     1     -49.539  68.196 -10.240  1.00  0.00    -0.040 C 
HETATM    2  C18 UNL     1     -48.602  68.657 -11.258  1.00  0.00     0.009 C 
HETATM    3  C19 UNL     1     -49.331  68.443 -12.615  1.00  0.00     0.001 C 
HETATM    4  C20 UNL     1     -50.133  67.208 -12.389  1.00  0.00     0.001 C 
HETATM    5  C21 UNL     1     -50.495  67.225 -10.951  1.00  0.00     0.009 C 
ENDROOT
BRANCH   1   6
HETATM    6  C8  UNL     1     -48.795  67.217  -9.279  1.00  0.00     0.009 C 
BRANCH   6   7
HETATM    7  C7  UNL     1     -47.342  67.301  -9.281  1.00  0.00     0.001 C 
BRANCH   7   8
HETATM    8  C6  UNL     1     -46.570  67.980  -8.241  1.00  0.00     0.000 C 
BRANCH   8   9
HETATM    9  C5  UNL     1     -47.169  69.150  -7.551  1.00  0.00     0.000 C 
BRANCH   9  10
HETATM   10  C4  UNL     1     -46.636  69.270  -6.101  1.00  0.00     0.000 C 
BRANCH  10  11
HETATM   11  C3  UNL     1     -46.766  67.911  -5.477  1.00  0.00     0.002 C 
BRANCH  11  12
HETATM   12  C2  UNL     1     -45.610  67.402  -4.706  1.00  0.00     0.027 C 
BRANCH  12  13
HETATM   13  C1  UNL     1     -45.057  66.103  -5.176  1.00  0.00     0.229 C 
BRANCH  13  14
HETATM   14  N1  UNL     1     -43.985  66.199  -6.123  1.00  0.00    -0.079 N 
ATOM     15  H13 UNL     1     -44.221  65.685  -6.972  1.00  0.00     0.274 HD
ATOM     16  H12 UNL     1     -43.931  67.147  -6.496  1.00  0.00     0.274 HD
ATOM     17  H11 UNL     1     -43.071  65.904  -5.780  1.00  0.00     0.274 HD
ENDBRANCH  13  14
ENDBRANCH  12  13
ENDBRANCH  11  12
ENDBRANCH  10  11
ENDBRANCH   9  10
ENDBRANCH   8   9
ENDBRANCH   7   8
ENDBRANCH   6   7
ENDBRANCH   1   6
BRANCH   1  18
HETATM   18  C10 UNL     1     -50.310  69.147  -9.442  1.00  0.00     0.009 C 
BRANCH  18  19
HETATM   19  C11 UNL     1     -50.153  70.595  -9.411  1.00  0.00     0.001 C 
BRANCH  19  20
HETATM   20  C12 UNL     1     -51.328  71.494  -9.448  1.00  0.00     0.000 C 
BRANCH  20  21
HETATM   21  C13 UNL     1     -51.778  72.028 -10.754  1.00  0.00     0.000 C 
BRANCH  21  22
HETATM   22  C14 UNL     1     -51.748  71.211 -11.971  1.00  0.00     0.004 C 
BRANCH  22  23
HETATM   23  C15 UNL     1     -52.973  70.504 -12.415  1.00  0.00    -0.014 A 
HETATM   24  C16 UNL     1     -52.923  69.215 -13.138  1.00  0.00     0.005 A 
HETATM   25  C17 UNL     1     -53.156  70.423 -13.948  1.00  0.00     0.005 A 
ENDBRANCH  22  23
ENDBRANCH  21  22
ENDBRANCH  20  21
ENDBRANCH  19  20
ENDBRANCH  18  19
ENDBRANCH   1  18
TORSDOF 15
ENDMDL
MODEL 4
REMARK VINA RESULT: -5.751890790      2.874      5.759
REMARK  15 active torsions:
REMARK  status: ('A' for Active; 'I' for Inactive)
REMARK    1  A    between atoms: N1_1  and  C1_5 
REMARK    2  A    between atoms: C1_5  and  C2_6 
REMARK    3  A    between atoms: C2_6  and  C3_7 
REMARK    4  A    between atoms: C3_7  and  C4_8 
REMARK    5  A    between atoms: C4_8  and  C5_9 
REMARK    6  A    between atoms: C5_9  and  C6_10 
REMARK    7  A    between atoms: C6_10  and  C7_11 
REMARK    8  A    between atoms: C7_11  and  C8_12 
REMARK    9  A    between atoms: C8_12  and  C9_13 
REMARK   10  A    between atoms: C9_13  and  C10_14 
REMARK   11  A    between atoms: C10_14  and  C11_15 
REMARK   12  A    between atoms: C11_15  and  C12_16 
REMARK   13  A    between atoms: C12_16  and  C13_17 
REMARK   14  A    between atoms: C13_17  and  C14_18 
REMARK   15  A    between atoms: C14_18  and  C15_19 
ROOT
HETATM    1  C9  UNL     1     -46.595  69.259  -8.459  1.00  0.00    -0.040 C 
HETATM    2  C18 UNL     1     -47.236  68.527  -7.372  1.00  0.00     0.009 C 
HETATM    3  C19 UNL     1     -46.593  67.110  -7.395  1.00  0.00     0.001 C 
HETATM    4  C20 UNL     1     -46.346  66.863  -8.844  1.00  0.00     0.001 C 
HETATM    5  C21 UNL     1     -46.064  68.194  -9.433  1.00  0.00     0.009 C 
ENDROOT
BRANCH   1   6
HETATM    6  C8  UNL     1     -47.700  69.927  -9.335  1.00  0.00     0.009 C 
BRANCH   6   7
HETATM    7  C7  UNL     1     -49.076  69.667  -8.936  1.00  0.00     0.001 C 
BRANCH   7   8
HETATM    8  C6  UNL     1     -50.029  68.922  -9.758  1.00  0.00     0.000 C 
BRANCH   8   9
HETATM    9  C5  UNL     1     -50.313  67.505  -9.422  1.00  0.00     0.000 C 
BRANCH   9  10
HETATM   10  C4  UNL     1     -49.662  66.551 -10.455  1.00  0.00     0.000 C 
BRANCH  10  11
HETATM   11  C3  UNL     1     -49.465  67.343 -11.714  1.00  0.00     0.002 C 
BRANCH  11  12
HETATM   12  C2  UNL     1     -48.171  67.194 -12.417  1.00  0.00     0.027 C 
BRANCH  12  13
HETATM   13  C1  UNL     1     -47.545  68.465 -12.868  1.00  0.00     0.229 C 
BRANCH  13  14
HETATM   14  N1  UNL     1     -46.540  68.329 -13.882  1.00  0.00    -0.079 N 
ATOM     15  H13 UNL     1     -46.041  67.448 -13.765  1.00  0.00     0.274 HD
ATOM     16  H12 UNL     1     -46.979  68.168 -14.789  1.00  0.00     0.274 HD
ATOM     17  H11 UNL     1     -45.877  69.101 -13.946  1.00  0.00     0.274 HD
ENDBRANCH  13  14
ENDBRANCH  12  13
ENDBRANCH  11  12
ENDBRANCH  10  11
ENDBRANCH   9  10
ENDBRANCH   8   9
ENDBRANCH   7   8
ENDBRANCH   6   7
ENDBRANCH   1   6
BRANCH   1  18
HETATM   18  C10 UNL     1     -45.548  70.240  -8.188  1.00  0.00     0.009 C 
BRANCH  18  19
HETATM   19  C11 UNL     1     -45.325  71.500  -8.885  1.00  0.00     0.001 C 
BRANCH  19  20
HETATM   20  C12 UNL     1     -45.469  72.798  -8.188  1.00  0.00     0.000 C 
BRANCH  20  21
HETATM   21  C13 UNL     1     -46.685  73.608  -8.430  1.00  0.00     0.000 C 
BRANCH  21  22
HETATM   22  C14 UNL     1     -48.004  73.178  -7.956  1.00  0.00     0.004 C 
BRANCH  22  23
HETATM   23  C15 UNL     1     -48.255  73.040  -6.502  1.00  0.00    -0.014 A 
HETATM   24  C16 UNL     1     -48.141  71.742  -5.800  1.00  0.00     0.005 A 
HETATM   25  C17 UNL     1     -49.501  72.200  -6.136  1.00  0.00     0.005 A 
ENDBRANCH  22  23
ENDBRANCH  21  22
ENDBRANCH  20  21
ENDBRANCH  19  20
ENDBRANCH  18  19
ENDBRANCH   1  18
TORSDOF 15
ENDMDL
MODEL 5
REMARK VINA RESULT: -5.743633915      2.927      6.755
REMARK  15 active torsions:
REMARK  status: ('A' for Active; 'I' for Inactive)
REMARK    1  A    between atoms: N1_1  and  C1_5 
REMARK    2  A    between atoms: C1_5  and  C2_6 
REMARK    3  A    between atoms: C2_6  and  C3_7 
REMARK    4  A    between atoms: C3_7  and  C4_8 
REMARK    5  A    between atoms: C4_8  and  C5_9 
REMARK    6  A    between atoms: C5_9  and  C6_10 
REMARK    7  A    between atoms: C6_10  and  C7_11 
REMARK    8  A    between atoms: C7_11  and  C8_12 
REMARK    9  A    between atoms: C8_12  and  C9_13 
REMARK   10  A    between atoms: C9_13  and  C10_14 
REMARK   11  A    between atoms: C10_14  and  C11_15 
REMARK   12  A    between atoms: C11_15  and  C12_16 
REMARK   13  A    between atoms: C12_16  and  C13_17 
REMARK   14  A    between atoms: C13_17  and  C14_18 
REMARK   15  A    between atoms: C14_18  and  C15_19 
ROOT
HETATM    1  C9  UNL     1     -45.078  68.138  -6.906  1.00  0.00    -0.040 C 
HETATM    2  C18 UNL     1     -46.182  67.674  -6.073  1.00  0.00     0.009 C 
HETATM    3  C19 UNL     1     -45.517  66.850  -4.933  1.00  0.00     0.001 C 
HETATM    4  C20 UNL     1     -44.347  66.213  -5.600  1.00  0.00     0.001 C 
HETATM    5  C21 UNL     1     -43.911  67.173  -6.643  1.00  0.00     0.009 C 
ENDROOT
BRANCH   1   6
HETATM    6  C8  UNL     1     -45.399  67.805  -8.397  1.00  0.00     0.009 C 
BRANCH   6   7
HETATM    7  C7  UNL     1     -46.557  66.953  -8.626  1.00  0.00     0.001 C 
BRANCH   7   8
HETATM    8  C6  UNL     1     -47.463  67.110  -9.763  1.00  0.00     0.000 C 
BRANCH   8   9
HETATM    9  C5  UNL     1     -48.928  67.063  -9.526  1.00  0.00     0.000 C 
BRANCH   9  10
HETATM   10  C4  UNL     1     -49.708  67.384 -10.826  1.00  0.00     0.000 C 
BRANCH  10  11
HETATM   11  C3  UNL     1     -48.803  67.040 -11.972  1.00  0.00     0.002 C 
BRANCH  11  12
HETATM   12  C2  UNL     1     -48.710  68.015 -13.082  1.00  0.00     0.027 C 
BRANCH  12  13
HETATM   13  C1  UNL     1     -47.452  68.808 -13.125  1.00  0.00     0.229 C 
BRANCH  13  14
HETATM   14  N1  UNL     1     -46.427  68.288 -13.982  1.00  0.00    -0.079 N 
ATOM     15  H13 UNL     1     -46.719  68.352 -14.957  1.00  0.00     0.274 HD
ATOM     16  H12 UNL     1     -45.626  68.920 -13.993  1.00  0.00     0.274 HD
ATOM     17  H11 UNL     1     -46.121  67.338 -13.770  1.00  0.00     0.274 HD
ENDBRANCH  13  14
ENDBRANCH  12  13
ENDBRANCH  11  12
ENDBRANCH  10  11
ENDBRANCH   9  10
ENDBRANCH   8   9
ENDBRANCH   7   8
ENDBRANCH   6   7
ENDBRANCH   1   6
BRANCH   1  18
HETATM   18  C10 UNL     1     -44.602  69.517  -6.822  1.00  0.00     0.009 C 
BRANCH  18  19
HETATM   19  C11 UNL     1     -44.741  70.425  -5.693  1.00  0.00     0.001 C 
BRANCH  19  20
HETATM   20  C12 UNL     1     -45.723  71.533  -5.717  1.00  0.00     0.000 C 
BRANCH  20  21
HETATM   21  C13 UNL     1     -47.156  71.224  -5.504  1.00  0.00     0.000 C 
BRANCH  21  22
HETATM   22  C14 UNL     1     -48.135  71.327  -6.590  1.00  0.00     0.004 C 
BRANCH  22  23
HETATM   23  C15 UNL     1     -48.078  70.378  -7.727  1.00  0.00    -0.014 A 
HETATM   24  C16 UNL     1     -47.527  70.757  -9.047  1.00  0.00     0.005 A 
HETATM   25  C17 UNL     1     -48.995  70.737  -8.919  1.00  0.00     0.005 A 
ENDBRANCH  22  23
ENDBRANCH  21  22
ENDBRANCH  20  21
ENDBRANCH  19  20
ENDBRANCH  18  19
ENDBRANCH   1  18
TORSDOF 15
ENDMDL
