MODEL 1
REMARK VINA RESULT: -7.681046989      0.000      0.000
REMARK  13 active torsions:
REMARK  status: ('A' for Active; 'I' for Inactive)
REMARK    1  A    between atoms: N4_9  and  N5_11 
REMARK    2  A    between atoms: C7_17  and  C8_18 
REMARK    3  A    between atoms: C8_18  and  O1_19 
REMARK    4  A    between atoms: C8_18  and  N7_21 
REMARK    5  A    between atoms: N7_21  and  C9_23 
REMARK    6  A    between atoms: C13_27  and  N8_28 
REMARK    7  A    between atoms: N10_34  and  N11_35 
REMARK    8  A    between atoms: N11_35  and  C16_37 
REMARK    9  A    between atoms: C16_37  and  C17_38 
REMARK   10  A    between atoms: C17_38  and  O4_39 
REMARK   11  A    between atoms: C17_38  and  O5_41 
REMARK   12  A    between atoms: N12_43  and  N13_44 
REMARK   13  A    between atoms: N14_47  and  N15_48 
ROOT
HETATM    1  N1  UNL     1      35.893   4.112  25.365  1.00  0.00    -0.188 NA
HETATM    2  C1  UNL     1      36.322   3.110  25.004  1.00  0.00     0.141 C 
HETATM    3  C2  UNL     1      36.853   1.850  24.551  1.00  0.00     0.241 A 
HETATM    4  N2  UNL     1      36.179   0.846  23.961  1.00  0.00    -0.260 N 
ATOM      5  H2  UNL     1      35.181   0.850  23.754  1.00  0.00     0.190 HD
HETATM    6  N3  UNL     1      37.012  -0.144  23.692  1.00  0.00    -0.127 N 
ATOM      7  H3  UNL     1      36.758  -1.025  23.245  1.00  0.00     0.206 HD
HETATM    8  C3  UNL     1      38.247   0.194  24.103  1.00  0.00     0.736 A 
HETATM    9  N4  UNL     1      39.340  -0.524  24.009  1.00  0.00    -0.105 N 
ATOM     10  H4  UNL     1      40.223  -0.153  24.359  1.00  0.00     0.208 HD
HETATM   11  N14 UNL     1      38.138   1.419  24.627  1.00  0.00    -0.062 N 
ENDROOT
BRANCH  11  12
HETATM   12  N15 UNL     1      39.183   2.148  25.172  1.00  0.00    -0.322 N 
ATOM     13 2H15 UNL     1      39.100   3.083  25.571  1.00  0.00     0.178 HD
ATOM     14 1H15 UNL     1      40.148   1.823  25.232  1.00  0.00     0.178 HD
ENDBRANCH  11  12
BRANCH   9  15
HETATM   15  N5  UNL     1      39.299  -1.802  23.429  1.00  0.00    -0.156 N 
HETATM   16  C4  UNL     1      38.868  -2.960  24.131  1.00  0.00     0.231 A 
HETATM   17  N6  UNL     1      38.842  -4.120  23.568  1.00  0.00    -0.332 N 
HETATM   18  C5  UNL     1      39.243  -4.302  22.211  1.00  0.00     0.159 A 
ATOM     19  H6  UNL     1      38.527  -4.927  24.106  1.00  0.00     0.168 HD
HETATM   20  C6  UNL     1      39.666  -3.202  21.498  1.00  0.00     0.134 A 
HETATM   21  N10 UNL     1      39.299  -5.401  21.415  1.00  0.00    -0.252 N 
HETATM   22  C7  UNL     1      39.983  -3.645  20.256  1.00  0.00     0.042 A 
HETATM   23  N12 UNL     1      39.711  -1.899  22.085  1.00  0.00    -0.176 N 
HETATM   24  C15 UNL     1      39.749  -5.010  20.220  1.00  0.00     0.132 A 
BRANCH  22  25
HETATM   25  C8  UNL     1      40.493  -2.889  19.101  1.00  0.00     0.256 C 
BRANCH  25  26
HETATM   26  O1  UNL     1      41.875  -2.679  19.353  1.00  0.00    -0.372 OA
ATOM     27  H1  UNL     1      42.179  -2.099  18.666  1.00  0.00     0.212 HD
ENDBRANCH  25  26
BRANCH  25  28
HETATM   28  N7  UNL     1      40.420  -3.690  17.898  1.00  0.00    -0.358 N 
ATOM     29  H7  UNL     1      41.274  -4.137  17.564  1.00  0.00     0.162 HD
BRANCH  28  30
HETATM   30  C9  UNL     1      39.227  -3.889  17.156  1.00  0.00     0.057 A 
HETATM   31  C10 UNL     1      38.560  -5.066  17.299  1.00  0.00     0.031 A 
HETATM   32  C11 UNL     1      37.388  -5.266  16.572  1.00  0.00     0.005 A 
HETATM   33  C12 UNL     1      36.894  -4.307  15.720  1.00  0.00     0.038 A 
HETATM   34  C13 UNL     1      37.564  -3.116  15.572  1.00  0.00     0.129 A 
HETATM   35  C14 UNL     1      38.737  -2.929  16.306  1.00  0.00     0.105 A 
HETATM   36  N9  UNL     1      39.450  -1.719  16.178  1.00  0.00    -0.097 NA
BRANCH  34  37
HETATM   37  N8  UNL     1      37.080  -2.109  14.701  1.00  0.00    -0.114 N 
HETATM   38  O2  UNL     1      36.911  -2.263  13.480  1.00  0.00    -0.532 OA
HETATM   39  O3  UNL     1      36.778  -0.882  15.248  1.00  0.00    -0.532 OA
ENDBRANCH  34  37
ENDBRANCH  28  30
ENDBRANCH  25  28
ENDBRANCH  22  25
BRANCH  23  40
HETATM   40  N13 UNL     1      40.133  -0.774  21.380  1.00  0.00    -0.322 N 
ATOM     41 2H13 UNL     1      41.110  -0.615  21.135  1.00  0.00     0.179 HD
ATOM     42 1H13 UNL     1      39.467  -0.062  21.078  1.00  0.00     0.179 HD
ENDBRANCH  23  40
BRANCH  21  43
HETATM   43  N11 UNL     1      38.934  -6.686  21.836  1.00  0.00    -0.324 N 
ATOM     44  H11 UNL     1      39.655  -7.404  21.910  1.00  0.00     0.180 HD
BRANCH  43  45
HETATM   45  C16 UNL     1      37.585  -7.024  22.166  1.00  0.00     0.200 C 
BRANCH  45  46
HETATM   46  C17 UNL     1      37.149  -8.261  21.418  1.00  0.00     0.273 C 
BRANCH  46  47
HETATM   47  O4  UNL     1      37.015  -7.960  20.053  1.00  0.00    -0.370 OA
ATOM     48  H4  UNL     1      36.903  -8.765  19.560  1.00  0.00     0.212 HD
ENDBRANCH  46  47
BRANCH  46  49
HETATM   49  O5  UNL     1      35.944  -8.764  21.901  1.00  0.00    -0.370 OA
ATOM     50  H5  UNL     1      35.275  -8.794  21.227  1.00  0.00     0.212 HD
ENDBRANCH  46  49
ENDBRANCH  45  46
ENDBRANCH  43  45
ENDBRANCH  21  43
ENDBRANCH   9  15
TORSDOF 13
ENDMDL
MODEL 2
REMARK VINA RESULT: -7.571946511      4.504      9.768
REMARK  13 active torsions:
REMARK  status: ('A' for Active; 'I' for Inactive)
REMARK    1  A    between atoms: N4_9  and  N5_11 
REMARK    2  A    between atoms: C7_17  and  C8_18 
REMARK    3  A    between atoms: C8_18  and  O1_19 
REMARK    4  A    between atoms: C8_18  and  N7_21 
REMARK    5  A    between atoms: N7_21  and  C9_23 
REMARK    6  A    between atoms: C13_27  and  N8_28 
REMARK    7  A    between atoms: N10_34  and  N11_35 
REMARK    8  A    between atoms: N11_35  and  C16_37 
REMARK    9  A    between atoms: C16_37  and  C17_38 
REMARK   10  A    between atoms: C17_38  and  O4_39 
REMARK   11  A    between atoms: C17_38  and  O5_41 
REMARK   12  A    between atoms: N12_43  and  N13_44 
REMARK   13  A    between atoms: N14_47  and  N15_48 
ROOT
HETATM    1  N1  UNL     1      37.400 -10.224  17.658  1.00  0.00    -0.188 NA
HETATM    2  C1  UNL     1      37.424  -9.300  18.338  1.00  0.00     0.141 C 
HETATM    3  C2  UNL     1      37.454  -8.136  19.185  1.00  0.00     0.241 A 
HETATM    4  N2  UNL     1      37.147  -6.871  18.844  1.00  0.00    -0.260 N 
ATOM      5  H2  UNL     1      36.846  -6.568  17.919  1.00  0.00     0.190 HD
HETATM    6  N3  UNL     1      37.296  -6.083  19.895  1.00  0.00    -0.127 N 
ATOM      7  H3  UNL     1      37.128  -5.077  19.908  1.00  0.00     0.206 HD
HETATM    8  C3  UNL     1      37.705  -6.819  20.943  1.00  0.00     0.736 A 
HETATM    9  N4  UNL     1      37.960  -6.398  22.158  1.00  0.00    -0.105 N 
ATOM     10  H4  UNL     1      38.264  -7.060  22.872  1.00  0.00     0.208 HD
HETATM   11  N14 UNL     1      37.798  -8.076  20.497  1.00  0.00    -0.062 N 
ENDROOT
BRANCH  11  12
HETATM   12  N15 UNL     1      38.189  -9.165  21.259  1.00  0.00    -0.322 N 
ATOM     13 2H15 UNL     1      38.664  -9.993  20.900  1.00  0.00     0.178 HD
ATOM     14 1H15 UNL     1      38.041  -9.252  22.265  1.00  0.00     0.178 HD
ENDBRANCH  11  12
BRANCH   9  15
HETATM   15  N5  UNL     1      37.815  -5.039  22.480  1.00  0.00    -0.156 N 
HETATM   16  C4  UNL     1      36.556  -4.380  22.518  1.00  0.00     0.231 A 
HETATM   17  N6  UNL     1      36.458  -3.130  22.818  1.00  0.00    -0.332 N 
HETATM   18  C5  UNL     1      37.606  -2.342  23.129  1.00  0.00     0.159 A 
ATOM     19  H6  UNL     1      35.536  -2.693  22.833  1.00  0.00     0.168 HD
HETATM   20  C6  UNL     1      38.843  -2.946  23.104  1.00  0.00     0.134 A 
HETATM   21  N10 UNL     1      37.753  -1.036  23.471  1.00  0.00    -0.252 N 
HETATM   22  C7  UNL     1      39.747  -1.991  23.434  1.00  0.00     0.042 A 
HETATM   23  N12 UNL     1      38.996  -4.330  22.776  1.00  0.00    -0.176 N 
HETATM   24  C15 UNL     1      39.056  -0.812  23.659  1.00  0.00     0.132 A 
BRANCH  22  25
HETATM   25  C8  UNL     1      41.211  -2.095  23.548  1.00  0.00     0.256 C 
BRANCH  25  26
HETATM   26  O1  UNL     1      41.741  -1.097  22.689  1.00  0.00    -0.372 OA
ATOM     27  H1  UNL     1      41.848  -1.513  21.842  1.00  0.00     0.212 HD
ENDBRANCH  25  26
BRANCH  25  28
HETATM   28  N7  UNL     1      41.641  -1.747  24.886  1.00  0.00    -0.358 N 
ATOM     29  H7  UNL     1      41.737  -0.758  25.118  1.00  0.00     0.162 HD
BRANCH  28  30
HETATM   30  C9  UNL     1      41.936  -2.701  25.891  1.00  0.00     0.057 A 
HETATM   31  C10 UNL     1      41.113  -3.775  26.033  1.00  0.00     0.031 A 
HETATM   32  C11 UNL     1      41.399  -4.716  27.020  1.00  0.00     0.005 A 
HETATM   33  C12 UNL     1      42.489  -4.585  27.849  1.00  0.00     0.038 A 
HETATM   34  C13 UNL     1      43.324  -3.502  27.710  1.00  0.00     0.129 A 
HETATM   35  C14 UNL     1      43.025  -2.567  26.717  1.00  0.00     0.105 A 
HETATM   36  N9  UNL     1      43.861  -1.444  26.548  1.00  0.00    -0.097 NA
BRANCH  34  37
HETATM   37  N8  UNL     1      44.454  -3.340  28.550  1.00  0.00    -0.114 N 
HETATM   38  O2  UNL     1      45.580  -3.803  28.302  1.00  0.00    -0.532 OA
HETATM   39  O3  UNL     1      44.288  -2.622  29.712  1.00  0.00    -0.532 OA
ENDBRANCH  34  37
ENDBRANCH  28  30
ENDBRANCH  25  28
ENDBRANCH  22  25
BRANCH  23  40
HETATM   40  N13 UNL     1      40.239  -4.960  22.747  1.00  0.00    -0.322 N 
ATOM     41 2H13 UNL     1      40.842  -5.020  23.568  1.00  0.00     0.179 HD
ATOM     42 1H13 UNL     1      40.590  -5.393  21.892  1.00  0.00     0.179 HD
ENDBRANCH  23  40
BRANCH  21  43
HETATM   43  N11 UNL     1      36.684  -0.138  23.587  1.00  0.00    -0.324 N 
ATOM     44  H11 UNL     1      35.745  -0.452  23.339  1.00  0.00     0.180 HD
BRANCH  43  45
HETATM   45  C16 UNL     1      36.866   1.205  24.042  1.00  0.00     0.200 C 
BRANCH  45  46
HETATM   46  C17 UNL     1      36.623   1.301  25.529  1.00  0.00     0.273 C 
BRANCH  46  47
HETATM   47  O4  UNL     1      35.644   2.278  25.780  1.00  0.00    -0.370 OA
ATOM     48  H4  UNL     1      36.058   3.130  25.849  1.00  0.00     0.212 HD
ENDBRANCH  46  47
BRANCH  46  49
HETATM   49  O5  UNL     1      37.784   1.619  26.227  1.00  0.00    -0.370 OA
ATOM     50  H5  UNL     1      37.605   2.156  26.991  1.00  0.00     0.212 HD
ENDBRANCH  46  49
ENDBRANCH  45  46
ENDBRANCH  43  45
ENDBRANCH  21  43
ENDBRANCH   9  15
TORSDOF 13
ENDMDL
MODEL 3
REMARK VINA RESULT: -7.413881597      2.638      5.248
REMARK  13 active torsions:
REMARK  status: ('A' for Active; 'I' for Inactive)
REMARK    1  A    between atoms: N4_9  and  N5_11 
REMARK    2  A    between atoms: C7_17  and  C8_18 
REMARK    3  A    between atoms: C8_18  and  O1_19 
REMARK    4  A    between atoms: C8_18  and  N7_21 
REMARK    5  A    between atoms: N7_21  and  C9_23 
REMARK    6  A    between atoms: C13_27  and  N8_28 
REMARK    7  A    between atoms: N10_34  and  N11_35 
REMARK    8  A    between atoms: N11_35  and  C16_37 
REMARK    9  A    between atoms: C16_37  and  C17_38 
REMARK   10  A    between atoms: C17_38  and  O4_39 
REMARK   11  A    between atoms: C17_38  and  O5_41 
REMARK   12  A    between atoms: N12_43  and  N13_44 
REMARK   13  A    between atoms: N14_47  and  N15_48 
ROOT
HETATM    1  N1  UNL     1      35.364   2.539  25.797  1.00  0.00    -0.188 NA
HETATM    2  C1  UNL     1      36.112   2.083  25.056  1.00  0.00     0.141 C 
HETATM    3  C2  UNL     1      37.048   1.503  24.127  1.00  0.00     0.241 A 
HETATM    4  N2  UNL     1      36.912   0.351  23.445  1.00  0.00    -0.260 N 
ATOM      5  H2  UNL     1      36.108  -0.274  23.500  1.00  0.00     0.190 HD
HETATM    6  N3  UNL     1      37.980   0.156  22.692  1.00  0.00    -0.127 N 
ATOM      7  H3  UNL     1      38.132  -0.642  22.076  1.00  0.00     0.206 HD
HETATM    8  C3  UNL     1      38.837   1.178  22.870  1.00  0.00     0.736 A 
HETATM    9  N4  UNL     1      40.005   1.344  22.297  1.00  0.00    -0.105 N 
ATOM     10  H4  UNL     1      40.564   2.168  22.515  1.00  0.00     0.208 HD
HETATM   11  N14 UNL     1      38.255   1.998  23.750  1.00  0.00    -0.062 N 
ENDROOT
BRANCH  11  12
HETATM   12  N15 UNL     1      38.800   3.183  24.217  1.00  0.00    -0.322 N 
ATOM     13 2H15 UNL     1      39.038   3.988  23.637  1.00  0.00     0.178 HD
ATOM     14 1H15 UNL     1      39.021   3.374  25.194  1.00  0.00     0.178 HD
ENDBRANCH  11  12
BRANCH   9  15
HETATM   15  N5  UNL     1      40.487   0.392  21.386  1.00  0.00    -0.156 N 
HETATM   16  C4  UNL     1      40.421   0.563  19.977  1.00  0.00     0.231 A 
HETATM   17  N6  UNL     1      40.874  -0.333  19.167  1.00  0.00    -0.332 N 
HETATM   18  C5  UNL     1      41.467  -1.541  19.641  1.00  0.00     0.159 A 
ATOM     19  H6  UNL     1      40.807  -0.173  18.161  1.00  0.00     0.168 HD
HETATM   20  C6  UNL     1      41.549  -1.741  21.001  1.00  0.00     0.134 A 
HETATM   21  N10 UNL     1      42.006  -2.607  18.997  1.00  0.00    -0.252 N 
HETATM   22  C7  UNL     1      42.146  -2.946  21.178  1.00  0.00     0.042 A 
HETATM   23  N12 UNL     1      41.059  -0.775  21.933  1.00  0.00    -0.176 N 
HETATM   24  C15 UNL     1      42.423  -3.471  19.927  1.00  0.00     0.132 A 
BRANCH  22  25
HETATM   25  C8  UNL     1      42.470  -3.648  22.430  1.00  0.00     0.256 C 
BRANCH  25  26
HETATM   26  O1  UNL     1      43.302  -2.764  23.167  1.00  0.00    -0.372 OA
ATOM     27  H1  UNL     1      42.748  -2.035  23.420  1.00  0.00     0.212 HD
ENDBRANCH  25  26
BRANCH  25  28
HETATM   28  N7  UNL     1      41.278  -3.840  23.228  1.00  0.00    -0.358 N 
ATOM     29  H7  UNL     1      41.314  -3.586  24.216  1.00  0.00     0.162 HD
BRANCH  28  30
HETATM   30  C9  UNL     1      40.064  -4.362  22.715  1.00  0.00     0.057 A 
HETATM   31  C10 UNL     1      40.111  -5.468  21.925  1.00  0.00     0.031 A 
HETATM   32  C11 UNL     1      38.921  -5.984  21.418  1.00  0.00     0.005 A 
HETATM   33  C12 UNL     1      37.705  -5.404  21.697  1.00  0.00     0.038 A 
HETATM   34  C13 UNL     1      37.651  -4.286  22.495  1.00  0.00     0.129 A 
HETATM   35  C14 UNL     1      38.852  -3.780  22.996  1.00  0.00     0.105 A 
HETATM   36  N9  UNL     1      38.833  -2.634  23.818  1.00  0.00    -0.097 NA
BRANCH  34  37
HETATM   37  N8  UNL     1      36.414  -3.667  22.800  1.00  0.00    -0.114 N 
HETATM   38  O2  UNL     1      36.158  -2.471  22.580  1.00  0.00    -0.532 OA
HETATM   39  O3  UNL     1      35.436  -4.444  23.378  1.00  0.00    -0.532 OA
ENDBRANCH  34  37
ENDBRANCH  28  30
ENDBRANCH  25  28
ENDBRANCH  22  25
BRANCH  23  40
HETATM   40  N13 UNL     1      41.135  -0.958  23.313  1.00  0.00    -0.322 N 
ATOM     41 2H13 UNL     1      41.430  -0.217  23.949  1.00  0.00     0.179 HD
ATOM     42 1H13 UNL     1      40.893  -1.853  23.739  1.00  0.00     0.179 HD
ENDBRANCH  23  40
BRANCH  21  43
HETATM   43  N11 UNL     1      42.080  -2.719  17.602  1.00  0.00    -0.324 N 
ATOM     44  H11 UNL     1      42.729  -2.119  17.092  1.00  0.00     0.180 HD
BRANCH  43  45
HETATM   45  C16 UNL     1      41.274  -3.645  16.871  1.00  0.00     0.200 C 
BRANCH  45  46
HETATM   46  C17 UNL     1      39.970  -3.006  16.458  1.00  0.00     0.273 C 
BRANCH  46  47
HETATM   47  O4  UNL     1      40.151  -1.619  16.323  1.00  0.00    -0.370 OA
ATOM     48  H4  UNL     1      41.011  -1.446  15.958  1.00  0.00     0.212 HD
ENDBRANCH  46  47
BRANCH  46  49
HETATM   49  O5  UNL     1      38.954  -3.253  17.376  1.00  0.00    -0.370 OA
ATOM     50  H5  UNL     1      38.542  -2.452  17.676  1.00  0.00     0.212 HD
ENDBRANCH  46  49
ENDBRANCH  45  46
ENDBRANCH  43  45
ENDBRANCH  21  43
ENDBRANCH   9  15
TORSDOF 13
ENDMDL
MODEL 4
REMARK VINA RESULT: -7.231086724      2.922      5.944
REMARK  13 active torsions:
REMARK  status: ('A' for Active; 'I' for Inactive)
REMARK    1  A    between atoms: N4_9  and  N5_11 
REMARK    2  A    between atoms: C7_17  and  C8_18 
REMARK    3  A    between atoms: C8_18  and  O1_19 
REMARK    4  A    between atoms: C8_18  and  N7_21 
REMARK    5  A    between atoms: N7_21  and  C9_23 
REMARK    6  A    between atoms: C13_27  and  N8_28 
REMARK    7  A    between atoms: N10_34  and  N11_35 
REMARK    8  A    between atoms: N11_35  and  C16_37 
REMARK    9  A    between atoms: C16_37  and  C17_38 
REMARK   10  A    between atoms: C17_38  and  O4_39 
REMARK   11  A    between atoms: C17_38  and  O5_41 
REMARK   12  A    between atoms: N12_43  and  N13_44 
REMARK   13  A    between atoms: N14_47  and  N15_48 
ROOT
HETATM    1  N1  UNL     1      35.686   3.975  25.937  1.00  0.00    -0.188 NA
HETATM    2  C1  UNL     1      36.308   3.567  25.063  1.00  0.00     0.141 C 
HETATM    3  C2  UNL     1      37.088   3.047  23.969  1.00  0.00     0.241 A 
HETATM    4  N2  UNL     1      37.064   1.798  23.472  1.00  0.00    -0.260 N 
ATOM      5  H2  UNL     1      36.475   1.039  23.816  1.00  0.00     0.190 HD
HETATM    6  N3  UNL     1      37.920   1.705  22.470  1.00  0.00    -0.127 N 
ATOM      7  H3  UNL     1      38.097   0.866  21.919  1.00  0.00     0.206 HD
HETATM    8  C3  UNL     1      38.522   2.895  22.294  1.00  0.00     0.736 A 
HETATM    9  N4  UNL     1      39.431   3.201  21.399  1.00  0.00    -0.105 N 
ATOM     10  H4  UNL     1      39.812   4.146  21.366  1.00  0.00     0.208 HD
HETATM   11  N14 UNL     1      38.004   3.710  23.217  1.00  0.00    -0.062 N 
ENDROOT
BRANCH  11  12
HETATM   12  N15 UNL     1      38.348   5.042  23.389  1.00  0.00    -0.322 N 
ATOM     13 2H15 UNL     1      38.047   5.630  24.165  1.00  0.00     0.178 HD
ATOM     14 1H15 UNL     1      38.941   5.574  22.752  1.00  0.00     0.178 HD
ENDBRANCH  11  12
BRANCH   9  15
HETATM   15  N5  UNL     1      39.880   2.232  20.488  1.00  0.00    -0.156 N 
HETATM   16  C4  UNL     1      39.433   2.168  19.140  1.00  0.00     0.231 A 
HETATM   17  N6  UNL     1      39.867   1.265  18.328  1.00  0.00    -0.332 N 
HETATM   18  C5  UNL     1      40.817   0.283  18.738  1.00  0.00     0.159 A 
ATOM     19  H6  UNL     1      39.521   1.252  17.368  1.00  0.00     0.168 HD
HETATM   20  C6  UNL     1      41.274   0.314  20.037  1.00  0.00     0.134 A 
HETATM   21  N10 UNL     1      41.412  -0.744  18.079  1.00  0.00    -0.252 N 
HETATM   22  C7  UNL     1      42.154  -0.710  20.162  1.00  0.00     0.042 A 
HETATM   23  N12 UNL     1      40.819   1.298  20.970  1.00  0.00    -0.176 N 
HETATM   24  C15 UNL     1      42.229  -1.356  18.939  1.00  0.00     0.132 A 
BRANCH  22  25
HETATM   25  C8  UNL     1      42.927  -1.134  21.340  1.00  0.00     0.256 C 
BRANCH  25  26
HETATM   26  O1  UNL     1      43.721  -0.015  21.708  1.00  0.00    -0.372 OA
ATOM     27  H1  UNL     1      43.386   0.277  22.548  1.00  0.00     0.212 HD
ENDBRANCH  25  26
BRANCH  25  28
HETATM   28  N7  UNL     1      42.046  -1.390  22.460  1.00  0.00    -0.358 N 
ATOM     29  H7  UNL     1      42.208  -0.877  23.327  1.00  0.00     0.162 HD
BRANCH  28  30
HETATM   30  C9  UNL     1      40.971  -2.313  22.420  1.00  0.00     0.057 A 
HETATM   31  C10 UNL     1      41.187  -3.543  21.879  1.00  0.00     0.031 A 
HETATM   32  C11 UNL     1      40.134  -4.453  21.837  1.00  0.00     0.005 A 
HETATM   33  C12 UNL     1      38.888  -4.140  22.328  1.00  0.00     0.038 A 
HETATM   34  C13 UNL     1      38.664  -2.900  22.875  1.00  0.00     0.129 A 
HETATM   35  C14 UNL     1      39.729  -1.997  22.911  1.00  0.00     0.105 A 
HETATM   36  N9  UNL     1      39.533  -0.715  23.466  1.00  0.00    -0.097 NA
BRANCH  34  37
HETATM   37  N8  UNL     1      37.391  -2.548  23.389  1.00  0.00    -0.114 N 
HETATM   38  O2  UNL     1      36.466  -2.081  22.703  1.00  0.00    -0.532 OA
HETATM   39  O3  UNL     1      37.171  -2.737  24.734  1.00  0.00    -0.532 OA
ENDBRANCH  34  37
ENDBRANCH  28  30
ENDBRANCH  25  28
ENDBRANCH  22  25
BRANCH  23  40
HETATM   40  N13 UNL     1      41.271   1.348  22.287  1.00  0.00    -0.322 N 
ATOM     41 2H13 UNL     1      42.145   0.913  22.583  1.00  0.00     0.179 HD
ATOM     42 1H13 UNL     1      40.735   1.830  23.009  1.00  0.00     0.179 HD
ENDBRANCH  23  40
BRANCH  21  43
HETATM   43  N11 UNL     1      41.165  -1.052  16.734  1.00  0.00    -0.324 N 
ATOM     44  H11 UNL     1      41.492  -0.410  16.012  1.00  0.00     0.180 HD
BRANCH  43  45
HETATM   45  C16 UNL     1      40.469  -2.237  16.342  1.00  0.00     0.200 C 
BRANCH  45  46
HETATM   46  C17 UNL     1      38.978  -1.998  16.325  1.00  0.00     0.273 C 
BRANCH  46  47
HETATM   47  O4  UNL     1      38.382  -2.832  15.364  1.00  0.00    -0.370 OA
ATOM     48  H4  UNL     1      37.778  -3.427  15.793  1.00  0.00     0.212 HD
ENDBRANCH  46  47
BRANCH  46  49
HETATM   49  O5  UNL     1      38.666  -0.670  16.043  1.00  0.00    -0.370 OA
ATOM     50  H5  UNL     1      39.005  -0.397  15.198  1.00  0.00     0.212 HD
ENDBRANCH  46  49
ENDBRANCH  45  46
ENDBRANCH  43  45
ENDBRANCH  21  43
ENDBRANCH   9  15
TORSDOF 13
ENDMDL
MODEL 5
REMARK VINA RESULT: -7.152592960      2.847      6.067
REMARK  13 active torsions:
REMARK  status: ('A' for Active; 'I' for Inactive)
REMARK    1  A    between atoms: N4_9  and  N5_11 
REMARK    2  A    between atoms: C7_17  and  C8_18 
REMARK    3  A    between atoms: C8_18  and  O1_19 
REMARK    4  A    between atoms: C8_18  and  N7_21 
REMARK    5  A    between atoms: N7_21  and  C9_23 
REMARK    6  A    between atoms: C13_27  and  N8_28 
REMARK    7  A    between atoms: N10_34  and  N11_35 
REMARK    8  A    between atoms: N11_35  and  C16_37 
REMARK    9  A    between atoms: C16_37  and  C17_38 
REMARK   10  A    between atoms: C17_38  and  O4_39 
REMARK   11  A    between atoms: C17_38  and  O5_41 
REMARK   12  A    between atoms: N12_43  and  N13_44 
REMARK   13  A    between atoms: N14_47  and  N15_48 
ROOT
HETATM    1  N1  UNL     1      41.598   3.379  24.101  1.00  0.00    -0.188 NA
HETATM    2  C1  UNL     1      41.420   2.656  23.227  1.00  0.00     0.141 C 
HETATM    3  C2  UNL     1      41.191   1.744  22.135  1.00  0.00     0.241 A 
HETATM    4  N2  UNL     1      40.094   0.999  21.912  1.00  0.00    -0.260 N 
ATOM      5  H2  UNL     1      39.263   0.984  22.502  1.00  0.00     0.190 HD
HETATM    6  N3  UNL     1      40.260   0.290  20.809  1.00  0.00    -0.127 N 
ATOM      7  H3  UNL     1      39.579  -0.358  20.414  1.00  0.00     0.206 HD
HETATM    8  C3  UNL     1      41.472   0.558  20.291  1.00  0.00     0.736 A 
HETATM    9  N4  UNL     1      42.000   0.053  19.202  1.00  0.00    -0.105 N 
ATOM     10  H4  UNL     1      42.934   0.340  18.911  1.00  0.00     0.208 HD
HETATM   11  N14 UNL     1      42.034   1.451  21.111  1.00  0.00    -0.062 N 
ENDROOT
BRANCH  11  12
HETATM   12  N15 UNL     1      43.294   2.002  20.947  1.00  0.00    -0.322 N 
ATOM     13 2H15 UNL     1      43.896   1.861  20.135  1.00  0.00     0.178 HD
ATOM     14 1H15 UNL     1      43.755   2.609  21.625  1.00  0.00     0.178 HD
ENDBRANCH  11  12
BRANCH   9  15
HETATM   15  N5  UNL     1      41.284  -0.881  18.437  1.00  0.00    -0.156 N 
HETATM   16  C4  UNL     1      40.540  -0.528  17.278  1.00  0.00     0.231 A 
HETATM   17  N6  UNL     1      39.894  -1.411  16.597  1.00  0.00    -0.332 N 
HETATM   18  C5  UNL     1      39.891  -2.789  16.969  1.00  0.00     0.159 A 
ATOM     19  H6  UNL     1      39.371  -1.117  15.772  1.00  0.00     0.168 HD
HETATM   20  C6  UNL     1      40.601  -3.169  18.085  1.00  0.00     0.134 A 
HETATM   21  N10 UNL     1      39.300  -3.881  16.420  1.00  0.00    -0.252 N 
HETATM   22  C7  UNL     1      40.435  -4.509  18.212  1.00  0.00     0.042 A 
HETATM   23  N12 UNL     1      41.331  -2.221  18.869  1.00  0.00    -0.176 N 
HETATM   24  C15 UNL     1      39.626  -4.936  17.171  1.00  0.00     0.132 A 
BRANCH  22  25
HETATM   25  C8  UNL     1      40.970  -5.420  19.236  1.00  0.00     0.256 C 
BRANCH  25  26
HETATM   26  O1  UNL     1      42.380  -5.404  19.072  1.00  0.00    -0.372 OA
ATOM     27  H1  UNL     1      42.646  -6.314  19.015  1.00  0.00     0.212 HD
ENDBRANCH  25  26
BRANCH  25  28
HETATM   28  N7  UNL     1      40.711  -4.901  20.562  1.00  0.00    -0.358 N 
ATOM     29  H7  UNL     1      41.462  -4.398  21.037  1.00  0.00     0.162 HD
BRANCH  28  30
HETATM   30  C9  UNL     1      39.475  -5.051  21.239  1.00  0.00     0.057 A 
HETATM   31  C10 UNL     1      38.907  -6.286  21.292  1.00  0.00     0.031 A 
HETATM   32  C11 UNL     1      37.691  -6.439  21.955  1.00  0.00     0.005 A 
HETATM   33  C12 UNL     1      37.057  -5.376  22.555  1.00  0.00     0.038 A 
HETATM   34  C13 UNL     1      37.626  -4.127  22.504  1.00  0.00     0.129 A 
HETATM   35  C14 UNL     1      38.844  -3.988  21.836  1.00  0.00     0.105 A 
HETATM   36  N9  UNL     1      39.456  -2.719  21.765  1.00  0.00    -0.097 NA
BRANCH  34  37
HETATM   37  N8  UNL     1      36.996  -3.013  23.112  1.00  0.00    -0.114 N 
HETATM   38  O2  UNL     1      36.202  -2.255  22.530  1.00  0.00    -0.532 OA
HETATM   39  O3  UNL     1      37.284  -2.759  24.434  1.00  0.00    -0.532 OA
ENDBRANCH  34  37
ENDBRANCH  28  30
ENDBRANCH  25  28
ENDBRANCH  22  25
BRANCH  23  40
HETATM   40  N13 UNL     1      42.058  -2.586  20.001  1.00  0.00    -0.322 N 
ATOM     41 2H13 UNL     1      42.520  -3.491  20.087  1.00  0.00     0.179 HD
ATOM     42 1H13 UNL     1      42.156  -1.948  20.791  1.00  0.00     0.179 HD
ENDBRANCH  23  40
BRANCH  21  43
HETATM   43  N11 UNL     1      38.503  -3.839  15.269  1.00  0.00    -0.324 N 
ATOM     44  H11 UNL     1      38.941  -3.981  14.358  1.00  0.00     0.180 HD
BRANCH  43  45
HETATM   45  C16 UNL     1      37.094  -3.604  15.328  1.00  0.00     0.200 C 
BRANCH  45  46
HETATM   46  C17 UNL     1      36.723  -2.387  14.514  1.00  0.00     0.273 C 
BRANCH  46  47
HETATM   47  O4  UNL     1      36.990  -2.634  13.157  1.00  0.00    -0.370 OA
ATOM     48  H4  UNL     1      36.873  -1.832  12.661  1.00  0.00     0.212 HD
ENDBRANCH  46  47
BRANCH  46  49
HETATM   49  O5  UNL     1      37.418  -1.253  14.924  1.00  0.00    -0.370 OA
ATOM     50  H5  UNL     1      37.244  -0.506  14.363  1.00  0.00     0.212 HD
ENDBRANCH  46  49
ENDBRANCH  45  46
ENDBRANCH  43  45
ENDBRANCH  21  43
ENDBRANCH   9  15
TORSDOF 13
ENDMDL
