MODEL 1
REMARK VINA RESULT: -5.128840572      0.000      0.000
REMARK  4 active torsions:
REMARK  status: ('A' for Active; 'I' for Inactive)
REMARK    1  A    between atoms: O1_2  and  N1_3 
REMARK    2  A    between atoms: N1_3  and  C2_5 
REMARK    3  A    between atoms: C2_5  and  N2_7 
REMARK    4  A    between atoms: N2_7  and  N3_9 
ROOT
HETATM    1  N2  UNL     1      12.261  36.808  34.036  1.00  0.00    -0.275 N 
ATOM      2  H2  UNL     1      12.341  37.500  33.290  1.00  0.00     0.189 HD
ENDROOT
BRANCH   1   3
HETATM    3  C2  UNL     1      13.250  36.755  35.028  1.00  0.00     0.210 C 
HETATM    4  S1  UNL     1      13.305  35.470  36.022  1.00  0.00    -0.037 SA
BRANCH   3   5
HETATM    5  N1  UNL     1      14.187  37.803  35.161  1.00  0.00    -0.240 N 
ATOM      6  H1  UNL     1      15.049  37.789  34.617  1.00  0.00     0.197 HD
BRANCH   5   7
HETATM    7  O1  UNL     1      13.936  38.833  36.019  1.00  0.00    -0.283 OA
HETATM    8  C1  UNL     1      14.906  38.870  36.997  1.00  0.00     0.237 C 
ENDBRANCH   5   7
ENDBRANCH   3   5
ENDBRANCH   1   3
BRANCH   1   9
HETATM    9  N3  UNL     1      11.178  35.942  34.046  1.00  0.00    -0.307 N 
HETATM   10  C3  UNL     1      10.391  35.825  33.043  1.00  0.00    -0.004 C 
HETATM   11  C4  UNL     1       9.234  34.896  33.060  1.00  0.00     0.064 C 
HETATM   12  C5  UNL     1      10.627  36.636  31.814  1.00  0.00     0.064 C 
ATOM     13  H3  UNL     1      11.002  35.381  34.878  1.00  0.00     0.186 HD
ENDBRANCH   1   9
TORSDOF 4
ENDMDL
MODEL 2
REMARK VINA RESULT: -4.835494684      1.739      2.461
REMARK  4 active torsions:
REMARK  status: ('A' for Active; 'I' for Inactive)
REMARK    1  A    between atoms: O1_2  and  N1_3 
REMARK    2  A    between atoms: N1_3  and  C2_5 
REMARK    3  A    between atoms: C2_5  and  N2_7 
REMARK    4  A    between atoms: N2_7  and  N3_9 
ROOT
HETATM    1  N2  UNL     1      14.109  36.969  35.093  1.00  0.00    -0.275 N 
ATOM      2  H2  UNL     1      14.844  36.289  34.893  1.00  0.00     0.189 HD
ENDROOT
BRANCH   1   3
HETATM    3  C2  UNL     1      14.337  37.958  36.059  1.00  0.00     0.210 C 
HETATM    4  S1  UNL     1      14.142  37.588  37.630  1.00  0.00    -0.037 SA
BRANCH   3   5
HETATM    5  N1  UNL     1      14.731  39.257  35.674  1.00  0.00    -0.240 N 
ATOM      6  H1  UNL     1      14.825  39.490  34.686  1.00  0.00     0.197 HD
BRANCH   5   7
HETATM    7  O1  UNL     1      14.985  40.201  36.626  1.00  0.00    -0.283 OA
HETATM    8  C1  UNL     1      16.324  40.528  36.610  1.00  0.00     0.237 C 
ENDBRANCH   5   7
ENDBRANCH   3   5
ENDBRANCH   1   3
BRANCH   1   9
HETATM    9  N3  UNL     1      12.909  36.893  34.401  1.00  0.00    -0.307 N 
HETATM   10  C3  UNL     1      12.072  35.944  34.593  1.00  0.00    -0.004 C 
HETATM   11  C4  UNL     1      10.789  35.870  33.849  1.00  0.00     0.064 C 
HETATM   12  C5  UNL     1      12.375  34.875  35.586  1.00  0.00     0.064 C 
ATOM     13  H3  UNL     1      12.687  37.617  33.718  1.00  0.00     0.186 HD
ENDBRANCH   1   9
TORSDOF 4
ENDMDL
MODEL 3
REMARK VINA RESULT: -4.816237939      0.730      1.256
REMARK  4 active torsions:
REMARK  status: ('A' for Active; 'I' for Inactive)
REMARK    1  A    between atoms: O1_2  and  N1_3 
REMARK    2  A    between atoms: N1_3  and  C2_5 
REMARK    3  A    between atoms: C2_5  and  N2_7 
REMARK    4  A    between atoms: N2_7  and  N3_9 
ROOT
HETATM    1  N2  UNL     1      11.839  37.085  34.352  1.00  0.00    -0.275 N 
ATOM      2  H2  UNL     1      11.122  37.559  34.902  1.00  0.00     0.189 HD
ENDROOT
BRANCH   1   3
HETATM    3  C2  UNL     1      12.995  36.617  34.993  1.00  0.00     0.210 C 
HETATM    4  S1  UNL     1      12.975  35.148  35.686  1.00  0.00    -0.037 SA
BRANCH   3   5
HETATM    5  N1  UNL     1      14.160  37.412  35.034  1.00  0.00    -0.240 N 
ATOM      6  H1  UNL     1      15.014  37.091  34.577  1.00  0.00     0.197 HD
BRANCH   5   7
HETATM    7  O1  UNL     1      14.143  38.610  35.687  1.00  0.00    -0.283 OA
HETATM    8  C1  UNL     1      14.533  38.432  36.996  1.00  0.00     0.237 C 
ENDBRANCH   5   7
ENDBRANCH   3   5
ENDBRANCH   1   3
BRANCH   1   9
HETATM    9  N3  UNL     1      11.647  36.916  32.989  1.00  0.00    -0.307 N 
HETATM   10  C3  UNL     1      10.672  36.235  32.518  1.00  0.00    -0.004 C 
HETATM   11  C4  UNL     1      10.473  36.058  31.058  1.00  0.00     0.064 C 
HETATM   12  C5  UNL     1       9.697  35.593  33.445  1.00  0.00     0.064 C 
ATOM     13  H3  UNL     1      12.305  37.348  32.341  1.00  0.00     0.186 HD
ENDBRANCH   1   9
TORSDOF 4
ENDMDL
MODEL 4
REMARK VINA RESULT: -4.625285653      1.817      5.199
REMARK  4 active torsions:
REMARK  status: ('A' for Active; 'I' for Inactive)
REMARK    1  A    between atoms: O1_2  and  N1_3 
REMARK    2  A    between atoms: N1_3  and  C2_5 
REMARK    3  A    between atoms: C2_5  and  N2_7 
REMARK    4  A    between atoms: N2_7  and  N3_9 
ROOT
HETATM    1  N2  UNL     1      14.059  37.076  34.915  1.00  0.00    -0.275 N 
ATOM      2  H2  UNL     1      14.848  36.765  34.349  1.00  0.00     0.189 HD
ENDROOT
BRANCH   1   3
HETATM    3  C2  UNL     1      12.806  36.473  34.734  1.00  0.00     0.210 C 
HETATM    4  S1  UNL     1      12.432  35.153  35.605  1.00  0.00    -0.037 SA
BRANCH   3   5
HETATM    5  N1  UNL     1      11.883  37.006  33.810  1.00  0.00    -0.240 N 
ATOM      6  H1  UNL     1      12.113  37.853  33.289  1.00  0.00     0.197 HD
BRANCH   5   7
HETATM    7  O1  UNL     1      10.683  36.387  33.614  1.00  0.00    -0.283 OA
HETATM    8  C1  UNL     1      10.418  36.304  32.264  1.00  0.00     0.237 C 
ENDBRANCH   5   7
ENDBRANCH   3   5
ENDBRANCH   1   3
BRANCH   1   9
HETATM    9  N3  UNL     1      14.249  38.086  35.847  1.00  0.00    -0.307 N 
HETATM   10  C3  UNL     1      14.941  37.911  36.909  1.00  0.00    -0.004 C 
HETATM   11  C4  UNL     1      15.141  38.997  37.901  1.00  0.00     0.064 C 
HETATM   12  C5  UNL     1      15.572  36.587  37.175  1.00  0.00     0.064 C 
ATOM     13  H3  UNL     1      13.824  38.998  35.680  1.00  0.00     0.186 HD
ENDBRANCH   1   9
TORSDOF 4
ENDMDL
MODEL 5
REMARK VINA RESULT: -4.603729577      1.715      5.547
REMARK  4 active torsions:
REMARK  status: ('A' for Active; 'I' for Inactive)
REMARK    1  A    between atoms: O1_2  and  N1_3 
REMARK    2  A    between atoms: N1_3  and  C2_5 
REMARK    3  A    between atoms: C2_5  and  N2_7 
REMARK    4  A    between atoms: N2_7  and  N3_9 
ROOT
HETATM    1  N2  UNL     1      13.653  38.343  35.929  1.00  0.00    -0.275 N 
ATOM      2  H2  UNL     1      12.830  38.688  36.423  1.00  0.00     0.189 HD
ENDROOT
BRANCH   1   3
HETATM    3  C2  UNL     1      13.600  37.090  35.302  1.00  0.00     0.210 C 
HETATM    4  S1  UNL     1      14.330  35.822  36.009  1.00  0.00    -0.037 SA
BRANCH   3   5
HETATM    5  N1  UNL     1      12.921  36.932  34.075  1.00  0.00    -0.240 N 
ATOM      6  H1  UNL     1      13.436  36.660  33.238  1.00  0.00     0.197 HD
BRANCH   5   7
HETATM    7  O1  UNL     1      11.575  37.146  34.011  1.00  0.00    -0.283 OA
HETATM    8  C1  UNL     1      11.089  36.693  32.803  1.00  0.00     0.237 C 
ENDBRANCH   5   7
ENDBRANCH   3   5
ENDBRANCH   1   3
BRANCH   1   9
HETATM    9  N3  UNL     1      14.798  39.124  35.891  1.00  0.00    -0.307 N 
HETATM   10  C3  UNL     1      15.455  39.421  36.948  1.00  0.00    -0.004 C 
HETATM   11  C4  UNL     1      16.680  40.258  36.900  1.00  0.00     0.064 C 
HETATM   12  C5  UNL     1      14.993  38.922  38.275  1.00  0.00     0.064 C 
ATOM     13  H3  UNL     1      15.128  39.474  34.991  1.00  0.00     0.186 HD
ENDBRANCH   1   9
TORSDOF 4
ENDMDL
