MODEL 1
REMARK VINA RESULT: -5.037116240      0.000      0.000
REMARK  4 active torsions:
REMARK  status: ('A' for Active; 'I' for Inactive)
REMARK    1  A    between atoms: C2_2  and  N1_4 
REMARK    2  A    between atoms: C2_2  and  C4_8 
REMARK    3  A    between atoms: C4_8  and  O1_9 
REMARK    4  A    between atoms: C4_8  and  C5_11 
ROOT
HETATM    1  C4  UNL     1      14.967  38.978  36.880  1.00  0.00     0.157 C 
ENDROOT
BRANCH   1   2
HETATM    2  C2  UNL     1      16.262  39.560  37.336  1.00  0.00     0.142 C 
HETATM    3  C1  UNL     1      16.139  40.345  38.626  1.00  0.00     0.048 C 
HETATM    4  C3  UNL     1      17.354  38.540  37.544  1.00  0.00     0.048 C 
BRANCH   2   5
HETATM    5  N1  UNL     1      16.756  40.518  36.335  1.00  0.00    -0.069 N 
ATOM      6  H13 UNL     1      17.395  41.215  36.716  1.00  0.00     0.275 HD
ATOM      7  H12 UNL     1      17.407  40.110  35.664  1.00  0.00     0.275 HD
ATOM      8  H11 UNL     1      15.922  40.918  35.904  1.00  0.00     0.275 HD
ENDBRANCH   2   5
ENDBRANCH   1   2
BRANCH   1   9
HETATM    9  O1  UNL     1      14.591  39.591  35.692  1.00  0.00    -0.393 OA
ATOM     10  H1  UNL     1      13.762  40.036  35.823  1.00  0.00     0.210 HD
ENDBRANCH   1   9
BRANCH   1  11
HETATM   11  C5  UNL     1      14.900  37.500  36.773  1.00  0.00     0.017 C 
HETATM   12  C6  UNL     1      14.109  36.984  37.986  1.00  0.00     0.007 C 
HETATM   13  C7  UNL     1      13.369  35.770  37.526  1.00  0.00     0.000 C 
HETATM   14  C8  UNL     1      13.835  35.525  36.108  1.00  0.00     0.000 C 
HETATM   15  C9  UNL     1      14.077  36.968  35.639  1.00  0.00     0.007 C 
ENDBRANCH   1  11
TORSDOF 4
ENDMDL
MODEL 2
REMARK VINA RESULT: -5.032024182      0.952      1.174
REMARK  4 active torsions:
REMARK  status: ('A' for Active; 'I' for Inactive)
REMARK    1  A    between atoms: C2_2  and  N1_4 
REMARK    2  A    between atoms: C2_2  and  C4_8 
REMARK    3  A    between atoms: C4_8  and  O1_9 
REMARK    4  A    between atoms: C4_8  and  C5_11 
ROOT
HETATM    1  C4  UNL     1      14.718  38.728  36.833  1.00  0.00     0.157 C 
ENDROOT
BRANCH   1   2
HETATM    2  C2  UNL     1      16.007  39.257  37.365  1.00  0.00     0.142 C 
HETATM    3  C1  UNL     1      16.437  40.550  36.701  1.00  0.00     0.048 C 
HETATM    4  C3  UNL     1      16.001  39.507  38.852  1.00  0.00     0.048 C 
BRANCH   2   5
HETATM    5  N1  UNL     1      17.087  38.295  37.097  1.00  0.00    -0.069 N 
ATOM      6  H13 UNL     1      16.991  37.419  37.610  1.00  0.00     0.275 HD
ATOM      7  H12 UNL     1      17.053  37.893  36.160  1.00  0.00     0.275 HD
ATOM      8  H11 UNL     1      17.954  38.794  37.297  1.00  0.00     0.275 HD
ENDBRANCH   2   5
ENDBRANCH   1   2
BRANCH   1   9
HETATM    9  O1  UNL     1      14.382  39.431  35.683  1.00  0.00    -0.393 OA
ATOM     10  H1  UNL     1      13.849  38.876  35.127  1.00  0.00     0.210 HD
ENDBRANCH   1   9
BRANCH   1  11
HETATM   11  C5  UNL     1      14.637  37.263  36.616  1.00  0.00     0.017 C 
HETATM   12  C6  UNL     1      13.894  36.658  37.818  1.00  0.00     0.007 C 
HETATM   13  C7  UNL     1      13.128  35.485  37.298  1.00  0.00     0.000 C 
HETATM   14  C8  UNL     1      13.533  35.348  35.847  1.00  0.00     0.000 C 
HETATM   15  C9  UNL     1      13.764  36.822  35.480  1.00  0.00     0.007 C 
ENDBRANCH   1  11
TORSDOF 4
ENDMDL
MODEL 3
REMARK VINA RESULT: -5.018016863      2.267      2.918
REMARK  4 active torsions:
REMARK  status: ('A' for Active; 'I' for Inactive)
REMARK    1  A    between atoms: C2_2  and  N1_4 
REMARK    2  A    between atoms: C2_2  and  C4_8 
REMARK    3  A    between atoms: C4_8  and  O1_9 
REMARK    4  A    between atoms: C4_8  and  C5_11 
ROOT
HETATM    1  C4  UNL     1      13.988  37.040  36.236  1.00  0.00     0.157 C 
ENDROOT
BRANCH   1   2
HETATM    2  C2  UNL     1      15.308  36.677  36.826  1.00  0.00     0.142 C 
HETATM    3  C1  UNL     1      15.203  36.171  38.250  1.00  0.00     0.048 C 
HETATM    4  C3  UNL     1      16.066  35.634  36.043  1.00  0.00     0.048 C 
BRANCH   2   5
HETATM    5  N1  UNL     1      16.167  37.869  36.892  1.00  0.00    -0.069 N 
ATOM      6  H13 UNL     1      16.402  38.152  37.843  1.00  0.00     0.275 HD
ATOM      7  H12 UNL     1      17.122  37.704  36.574  1.00  0.00     0.275 HD
ATOM      8  H11 UNL     1      15.677  38.590  36.360  1.00  0.00     0.275 HD
ENDBRANCH   2   5
ENDBRANCH   1   2
BRANCH   1   9
HETATM    9  O1  UNL     1      14.122  38.226  35.525  1.00  0.00    -0.393 OA
ATOM     10  H1  UNL     1      15.045  38.413  35.407  1.00  0.00     0.210 HD
ENDBRANCH   1   9
BRANCH   1  11
HETATM   11  C5  UNL     1      13.309  35.998  35.428  1.00  0.00     0.017 C 
HETATM   12  C6  UNL     1      12.485  35.129  36.393  1.00  0.00     0.007 C 
HETATM   13  C7  UNL     1      11.273  34.687  35.638  1.00  0.00     0.000 C 
HETATM   14  C8  UNL     1      11.471  35.190  34.225  1.00  0.00     0.000 C 
HETATM   15  C9  UNL     1      12.244  36.490  34.496  1.00  0.00     0.007 C 
ENDBRANCH   1  11
TORSDOF 4
ENDMDL
MODEL 4
REMARK VINA RESULT: -4.813811117      1.033      1.370
REMARK  4 active torsions:
REMARK  status: ('A' for Active; 'I' for Inactive)
REMARK    1  A    between atoms: C2_2  and  N1_4 
REMARK    2  A    between atoms: C2_2  and  C4_8 
REMARK    3  A    between atoms: C4_8  and  O1_9 
REMARK    4  A    between atoms: C4_8  and  C5_11 
ROOT
HETATM    1  C4  UNL     1      14.728  38.755  36.872  1.00  0.00     0.157 C 
ENDROOT
BRANCH   1   2
HETATM    2  C2  UNL     1      15.969  39.308  37.487  1.00  0.00     0.142 C 
HETATM    3  C1  UNL     1      17.092  38.295  37.569  1.00  0.00     0.048 C 
HETATM    4  C3  UNL     1      16.520  40.520  36.776  1.00  0.00     0.048 C 
BRANCH   2   5
HETATM    5  N1  UNL     1      15.697  39.713  38.875  1.00  0.00    -0.069 N 
ATOM      6  H13 UNL     1      15.083  40.523  38.952  1.00  0.00     0.275 HD
ATOM      7  H12 UNL     1      15.101  39.059  39.382  1.00  0.00     0.275 HD
ATOM      8  H11 UNL     1      16.612  39.850  39.304  1.00  0.00     0.275 HD
ENDBRANCH   2   5
ENDBRANCH   1   2
BRANCH   1   9
HETATM    9  O1  UNL     1      14.467  39.437  35.690  1.00  0.00    -0.393 OA
ATOM     10  H1  UNL     1      14.778  38.918  34.959  1.00  0.00     0.210 HD
ENDBRANCH   1   9
BRANCH   1  11
HETATM   11  C5  UNL     1      14.679  37.287  36.672  1.00  0.00     0.017 C 
HETATM   12  C6  UNL     1      13.865  36.689  37.832  1.00  0.00     0.007 C 
HETATM   13  C7  UNL     1      13.149  35.499  37.280  1.00  0.00     0.000 C 
HETATM   14  C8  UNL     1      13.652  35.346  35.861  1.00  0.00     0.000 C 
HETATM   15  C9  UNL     1      13.889  36.818  35.488  1.00  0.00     0.007 C 
ENDBRANCH   1  11
TORSDOF 4
ENDMDL
MODEL 5
REMARK VINA RESULT: -4.800371817      2.449      3.467
REMARK  4 active torsions:
REMARK  status: ('A' for Active; 'I' for Inactive)
REMARK    1  A    between atoms: C2_2  and  N1_4 
REMARK    2  A    between atoms: C2_2  and  C4_8 
REMARK    3  A    between atoms: C4_8  and  O1_9 
REMARK    4  A    between atoms: C4_8  and  C5_11 
ROOT
HETATM    1  C4  UNL     1      13.618  37.077  35.396  1.00  0.00     0.157 C 
ENDROOT
BRANCH   1   2
HETATM    2  C2  UNL     1      14.636  36.919  36.474  1.00  0.00     0.142 C 
HETATM    3  C1  UNL     1      14.026  36.594  37.823  1.00  0.00     0.048 C 
HETATM    4  C3  UNL     1      15.671  35.858  36.192  1.00  0.00     0.048 C 
BRANCH   2   5
HETATM    5  N1  UNL     1      15.360  38.185  36.662  1.00  0.00    -0.069 N 
ATOM      6  H13 UNL     1      14.893  38.989  36.244  1.00  0.00     0.275 HD
ATOM      7  H12 UNL     1      15.348  38.525  37.624  1.00  0.00     0.275 HD
ATOM      8  H11 UNL     1      16.299  38.021  36.297  1.00  0.00     0.275 HD
ENDBRANCH   2   5
ENDBRANCH   1   2
BRANCH   1   9
HETATM    9  O1  UNL     1      14.249  36.977  34.162  1.00  0.00    -0.393 OA
ATOM     10  H1  UNL     1      14.285  37.838  33.764  1.00  0.00     0.210 HD
ENDBRANCH   1   9
BRANCH   1  11
HETATM   11  C5  UNL     1      12.427  36.196  35.468  1.00  0.00     0.017 C 
HETATM   12  C6  UNL     1      11.630  36.389  34.167  1.00  0.00     0.007 C 
HETATM   13  C7  UNL     1      10.996  35.072  33.858  1.00  0.00     0.000 C 
HETATM   14  C8  UNL     1      11.322  34.178  35.035  1.00  0.00     0.000 C 
HETATM   15  C9  UNL     1      12.705  34.724  35.425  1.00  0.00     0.007 C 
ENDBRANCH   1  11
TORSDOF 4
ENDMDL
