MODEL 1
REMARK VINA RESULT: -5.127756263      0.000      0.000
REMARK  1 active torsions:
REMARK  status: ('A' for Active; 'I' for Inactive)
REMARK    1  A    between atoms: N1_1  and  C1_5 
ROOT
HETATM    1  C1  UNL     1       9.910  34.751  31.943  1.00  0.00     0.192 A 
HETATM    2  C2  UNL     1      10.299  36.012  32.422  1.00  0.00     0.022 A 
HETATM    3  C3  UNL     1      11.580  36.719  32.602  1.00  0.00     0.007 C 
HETATM    4  C4  UNL     1      11.912  36.341  34.058  1.00  0.00     0.001 C 
HETATM    5  C5  UNL     1      10.951  35.169  34.362  1.00  0.00     0.007 C 
HETATM    6  C6  UNL     1      10.840  34.633  32.983  1.00  0.00     0.022 A 
ENDROOT
BRANCH   1   7
HETATM    7  N1  UNL     1       8.547  34.254  32.190  1.00  0.00    -0.074 N 
ATOM      8  H13 UNL     1       8.477  33.981  33.171  1.00  0.00     0.274 HD
ATOM      9  H12 UNL     1       7.904  35.045  32.152  1.00  0.00     0.274 HD
ATOM     10  H11 UNL     1       8.164  33.500  31.618  1.00  0.00     0.274 HD
ENDBRANCH   1   7
TORSDOF 1
ENDMDL
MODEL 2
REMARK VINA RESULT: -4.915508068      1.862      2.545
REMARK  1 active torsions:
REMARK  status: ('A' for Active; 'I' for Inactive)
REMARK    1  A    between atoms: N1_1  and  C1_5 
ROOT
HETATM    1  C1  UNL     1      11.404  36.702  32.054  1.00  0.00     0.192 A 
HETATM    2  C2  UNL     1      11.264  36.481  33.433  1.00  0.00     0.022 A 
HETATM    3  C3  UNL     1      11.392  35.318  34.329  1.00  0.00     0.007 C 
HETATM    4  C4  UNL     1       9.936  34.815  34.353  1.00  0.00     0.001 C 
HETATM    5  C5  UNL     1       9.273  35.550  33.167  1.00  0.00     0.007 C 
HETATM    6  C6  UNL     1      10.477  35.685  32.311  1.00  0.00     0.022 A 
ENDROOT
BRANCH   1   7
HETATM    7  N1  UNL     1      10.900  37.946  31.449  1.00  0.00    -0.074 N 
ATOM      8  H13 UNL     1      10.592  38.566  32.198  1.00  0.00     0.274 HD
ATOM      9  H12 UNL     1      11.692  38.463  31.068  1.00  0.00     0.274 HD
ATOM     10  H11 UNL     1      10.168  37.910  30.739  1.00  0.00     0.274 HD
ENDBRANCH   1   7
TORSDOF 1
ENDMDL
MODEL 3
REMARK VINA RESULT: -4.868824295      0.760      1.659
REMARK  1 active torsions:
REMARK  status: ('A' for Active; 'I' for Inactive)
REMARK    1  A    between atoms: N1_1  and  C1_5 
ROOT
HETATM    1  C1  UNL     1       9.193  34.739  33.047  1.00  0.00     0.192 A 
HETATM    2  C2  UNL     1      10.554  34.718  33.388  1.00  0.00     0.022 A 
HETATM    3  C3  UNL     1      11.415  35.461  34.325  1.00  0.00     0.007 C 
HETATM    4  C4  UNL     1      11.916  36.597  33.413  1.00  0.00     0.001 C 
HETATM    5  C5  UNL     1      10.967  36.537  32.196  1.00  0.00     0.007 C 
HETATM    6  C6  UNL     1       9.772  36.004  32.894  1.00  0.00     0.022 A 
ENDROOT
BRANCH   1   7
HETATM    7  N1  UNL     1       8.723  34.054  31.832  1.00  0.00    -0.074 N 
ATOM      8  H13 UNL     1       9.495  33.505  31.454  1.00  0.00     0.274 HD
ATOM      9  H12 UNL     1       8.067  33.323  32.108  1.00  0.00     0.274 HD
ATOM     10  H11 UNL     1       8.306  34.590  31.070  1.00  0.00     0.274 HD
ENDBRANCH   1   7
TORSDOF 1
ENDMDL
MODEL 4
REMARK VINA RESULT: -4.601342263      2.265      3.033
REMARK  1 active torsions:
REMARK  status: ('A' for Active; 'I' for Inactive)
REMARK    1  A    between atoms: N1_1  and  C1_5 
ROOT
HETATM    1  C1  UNL     1      11.988  36.868  33.945  1.00  0.00     0.192 A 
HETATM    2  C2  UNL     1      11.295  36.491  32.785  1.00  0.00     0.022 A 
HETATM    3  C3  UNL     1       9.897  36.160  32.456  1.00  0.00     0.007 C 
HETATM    4  C4  UNL     1       9.915  34.630  32.642  1.00  0.00     0.001 C 
HETATM    5  C5  UNL     1      11.228  34.369  33.411  1.00  0.00     0.007 C 
HETATM    6  C6  UNL     1      11.303  35.662  34.135  1.00  0.00     0.022 A 
ENDROOT
BRANCH   1   7
HETATM    7  N1  UNL     1      13.459  36.826  33.975  1.00  0.00    -0.074 N 
ATOM      8  H13 UNL     1      13.751  35.854  34.079  1.00  0.00     0.274 HD
ATOM      9  H12 UNL     1      13.807  37.045  33.042  1.00  0.00     0.274 HD
ATOM     10  H11 UNL     1      13.975  37.390  34.651  1.00  0.00     0.274 HD
ENDBRANCH   1   7
TORSDOF 1
ENDMDL
MODEL 5
REMARK VINA RESULT: -4.569871478      1.541      2.444
REMARK  1 active torsions:
REMARK  status: ('A' for Active; 'I' for Inactive)
REMARK    1  A    between atoms: N1_1  and  C1_5 
ROOT
HETATM    1  C1  UNL     1      10.639  34.492  33.763  1.00  0.00     0.192 A 
HETATM    2  C2  UNL     1       9.927  34.798  32.593  1.00  0.00     0.022 A 
HETATM    3  C3  UNL     1      10.252  34.885  31.158  1.00  0.00     0.007 C 
HETATM    4  C4  UNL     1      10.605  36.380  31.036  1.00  0.00     0.001 C 
HETATM    5  C5  UNL     1      10.788  36.835  32.501  1.00  0.00     0.007 C 
HETATM    6  C6  UNL     1      11.246  35.541  33.062  1.00  0.00     0.022 A 
ENDROOT
BRANCH   1   7
HETATM    7  N1  UNL     1      10.062  34.800  35.082  1.00  0.00    -0.074 N 
ATOM      8  H13 UNL     1      10.804  35.166  35.680  1.00  0.00     0.274 HD
ATOM      9  H12 UNL     1       9.456  35.614  34.986  1.00  0.00     0.274 HD
ATOM     10  H11 UNL     1       9.557  34.081  35.601  1.00  0.00     0.274 HD
ENDBRANCH   1   7
TORSDOF 1
ENDMDL
