MODEL 1
REMARK VINA RESULT: -3.940311650      0.000      0.000
REMARK  0 active torsions:
REMARK  status: ('A' for Active; 'I' for Inactive)
ROOT
HETATM    1  C1  UNL     1      11.711  35.851  34.374  1.00  0.00     0.038 C 
HETATM    2  C2  UNL     1      12.196  36.598  33.177  1.00  0.00     0.234 C 
HETATM    3  N1  UNL     1      11.199  37.212  32.384  1.00  0.00    -0.067 N 
ATOM      4  H11 UNL     1      11.607  37.909  31.761  1.00  0.00     0.278 HD
ATOM      5  H12 UNL     1      10.607  37.820  32.951  1.00  0.00     0.278 HD
HETATM    6  C3  UNL     1      10.403  36.264  31.645  1.00  0.00     0.305 C 
HETATM    7  S1  UNL     1       9.402  35.405  32.923  1.00  0.00    -0.142 SA
HETATM    8  C4  UNL     1      10.646  34.849  34.120  1.00  0.00     0.077 C 
ENDROOT
TORSDOF 0
ENDMDL
MODEL 2
REMARK VINA RESULT: -3.738481146      1.287      2.244
REMARK  0 active torsions:
REMARK  status: ('A' for Active; 'I' for Inactive)
ROOT
HETATM    1  C1  UNL     1      10.262  35.958  31.401  1.00  0.00     0.038 C 
HETATM    2  C2  UNL     1      11.045  37.126  31.900  1.00  0.00     0.234 C 
HETATM    3  N1  UNL     1      12.135  36.823  32.749  1.00  0.00    -0.067 N 
ATOM      4  H11 UNL     1      12.767  37.620  32.827  1.00  0.00     0.278 HD
ATOM      5  H12 UNL     1      12.764  36.153  32.308  1.00  0.00     0.278 HD
HETATM    6  C3  UNL     1      11.724  36.363  34.052  1.00  0.00     0.305 C 
HETATM    7  S1  UNL     1      11.003  34.702  33.749  1.00  0.00    -0.142 SA
HETATM    8  C4  UNL     1       9.786  35.011  32.439  1.00  0.00     0.077 C 
ENDROOT
TORSDOF 0
ENDMDL
MODEL 3
REMARK VINA RESULT: -3.690865415      1.726      2.249
REMARK  0 active torsions:
REMARK  status: ('A' for Active; 'I' for Inactive)
ROOT
HETATM    1  C1  UNL     1      11.715  35.639  34.223  1.00  0.00     0.038 C 
HETATM    2  C2  UNL     1      10.403  35.005  34.547  1.00  0.00     0.234 C 
HETATM    3  N1  UNL     1       9.650  34.542  33.443  1.00  0.00    -0.067 N 
ATOM      4  H11 UNL     1       8.920  33.899  33.746  1.00  0.00     0.278 HD
ATOM      5  H12 UNL     1      10.204  33.909  32.867  1.00  0.00     0.278 HD
HETATM    6  C3  UNL     1       9.098  35.611  32.649  1.00  0.00     0.305 C 
HETATM    7  S1  UNL     1      10.552  36.375  31.827  1.00  0.00    -0.142 SA
HETATM    8  C4  UNL     1      11.675  36.721  33.209  1.00  0.00     0.077 C 
ENDROOT
TORSDOF 0
ENDMDL
MODEL 4
REMARK VINA RESULT: -3.615160758      1.415      1.876
REMARK  0 active torsions:
REMARK  status: ('A' for Active; 'I' for Inactive)
ROOT
HETATM    1  C1  UNL     1      11.625  36.732  33.171  1.00  0.00     0.038 C 
HETATM    2  C2  UNL     1      10.723  36.426  32.021  1.00  0.00     0.234 C 
HETATM    3  N1  UNL     1       9.420  35.992  32.355  1.00  0.00    -0.067 N 
ATOM      4  H11 UNL     1       8.796  36.063  31.552  1.00  0.00     0.278 HD
ATOM      5  H12 UNL     1       8.964  36.657  32.980  1.00  0.00     0.278 HD
HETATM    6  C3  UNL     1       9.393  34.663  32.912  1.00  0.00     0.305 C 
HETATM    7  S1  UNL     1      10.174  34.838  34.565  1.00  0.00    -0.142 SA
HETATM    8  C4  UNL     1      11.745  35.667  34.196  1.00  0.00     0.077 C 
ENDROOT
TORSDOF 0
ENDMDL
MODEL 5
REMARK VINA RESULT: -3.537113973      1.321      2.250
REMARK  0 active torsions:
REMARK  status: ('A' for Active; 'I' for Inactive)
ROOT
HETATM    1  C1  UNL     1      11.568  36.712  32.335  1.00  0.00     0.038 C 
HETATM    2  C2  UNL     1      11.715  36.530  33.810  1.00  0.00     0.234 C 
HETATM    3  N1  UNL     1      11.393  35.247  34.309  1.00  0.00    -0.067 N 
ATOM      4  H11 UNL     1      11.766  35.119  35.250  1.00  0.00     0.278 HD
ATOM      5  H12 UNL     1      11.920  34.523  33.820  1.00  0.00     0.278 HD
HETATM    6  C3  UNL     1       9.980  34.965  34.273  1.00  0.00     0.305 C 
HETATM    7  S1  UNL     1       9.588  34.790  32.488  1.00  0.00    -0.142 SA
HETATM    8  C4  UNL     1      10.258  36.313  31.765  1.00  0.00     0.077 C 
ENDROOT
TORSDOF 0
ENDMDL
