MODEL 1
REMARK VINA RESULT: -8.245325613      0.000      0.000
REMARK  6 active torsions:
REMARK  status: ('A' for Active; 'I' for Inactive)
REMARK       I    between atoms: C1_2  and  N1_3 
REMARK    1  A    between atoms: C1_2  and  C8_13 
REMARK    2  A    between atoms: N1_3  and  C2_5 
REMARK    3  A    between atoms: C11_16  and  C12_17 
REMARK    4  A    between atoms: C12_17  and  N2_18 
REMARK       I    between atoms: N2_18  and  C13_19 
REMARK    5  A    between atoms: N2_18  and  C20_27 
REMARK    6  A    between atoms: C13_19  and  C14_21 
ROOT
HETATM    1  C8  UNL     1      62.702  43.850   4.691  1.00  0.00     0.078 C 
HETATM    2  C9  UNL     1      63.573  42.633   4.859  1.00  0.00     0.014 C 
HETATM    3  C10 UNL     1      62.867  41.698   5.837  1.00  0.00     0.007 C 
HETATM    4  C11 UNL     1      61.732  41.003   5.212  1.00  0.00     0.004 C 
HETATM    5  C25 UNL     1      60.959  42.047   4.391  1.00  0.00     0.007 C 
HETATM    6  C26 UNL     1      61.262  43.432   4.863  1.00  0.00     0.014 C 
ENDROOT
BRANCH   4   7
HETATM    7  C12 UNL     1      61.958  39.825   4.337  1.00  0.00     0.130 C 
BRANCH   7   8
HETATM    8  N2  UNL     1      62.795  38.762   4.748  1.00  0.00    -0.347 N 
HETATM    9  C13 UNL     1      64.103  38.694   4.111  1.00  0.00     0.224 C 
HETATM   10  O2  UNL     1      64.908  37.757   4.438  1.00  0.00    -0.273 OA
BRANCH   9  11
HETATM   11  C14 UNL     1      64.621  39.619   3.097  1.00  0.00     0.078 C 
HETATM   12  C15 UNL     1      65.936  40.149   3.634  1.00  0.00     0.014 C 
HETATM   13  C16 UNL     1      67.043  40.056   2.619  1.00  0.00     0.001 C 
HETATM   14  C17 UNL     1      66.561  40.517   1.263  1.00  0.00     0.000 C 
HETATM   15  C18 UNL     1      65.555  39.538   0.766  1.00  0.00     0.001 C 
HETATM   16  C19 UNL     1      64.837  38.788   1.846  1.00  0.00     0.014 C 
ENDBRANCH   9  11
BRANCH   8  17
HETATM   17  C20 UNL     1      62.583  37.809   5.770  1.00  0.00     0.087 C 
HETATM   18  C21 UNL     1      61.257  37.307   6.127  1.00  0.00     0.025 C 
HETATM   19  C22 UNL     1      61.532  36.493   7.419  1.00  0.00     0.002 C 
HETATM   20  C23 UNL     1      62.589  37.309   8.132  1.00  0.00     0.002 C 
HETATM   21  C24 UNL     1      63.183  38.266   7.115  1.00  0.00     0.025 C 
ENDBRANCH   8  17
ENDBRANCH   7   8
ENDBRANCH   4   7
BRANCH   1  22
HETATM   22  C1  UNL     1      62.897  44.507   3.386  1.00  0.00     0.222 C 
HETATM   23  O1  UNL     1      62.635  45.719   3.265  1.00  0.00    -0.273 OA
HETATM   24  N1  UNL     1      63.373  43.775   2.287  1.00  0.00    -0.356 N 
ATOM     25  H1  UNL     1      63.582  42.784   2.408  1.00  0.00     0.162 HD
BRANCH  24  26
HETATM   26  C2  UNL     1      63.581  44.391   0.967  1.00  0.00     0.084 C 
HETATM   27  C3  UNL     1      62.340  44.171   0.167  1.00  0.00     0.031 C 
HETATM   28  C4  UNL     1      62.570  44.024  -1.300  1.00  0.00     0.081 C 
HETATM   29  C5  UNL     1      63.858  44.600  -1.789  1.00  0.00     0.243 C 
HETATM   30  F1  UNL     1      64.012  44.189  -3.120  1.00  0.00    -0.206 F 
HETATM   31  F2  UNL     1      63.843  45.979  -1.791  1.00  0.00    -0.206 F 
HETATM   32  C6  UNL     1      65.060  44.124  -1.041  1.00  0.00     0.081 C 
HETATM   33  C7  UNL     1      64.797  43.747   0.380  1.00  0.00     0.031 C 
ENDBRANCH  24  26
ENDBRANCH   1  22
TORSDOF 6
ENDMDL
MODEL 2
REMARK VINA RESULT: -8.003321235      1.088      1.327
REMARK  6 active torsions:
REMARK  status: ('A' for Active; 'I' for Inactive)
REMARK       I    between atoms: C1_2  and  N1_3 
REMARK    1  A    between atoms: C1_2  and  C8_13 
REMARK    2  A    between atoms: N1_3  and  C2_5 
REMARK    3  A    between atoms: C11_16  and  C12_17 
REMARK    4  A    between atoms: C12_17  and  N2_18 
REMARK       I    between atoms: N2_18  and  C13_19 
REMARK    5  A    between atoms: N2_18  and  C20_27 
REMARK    6  A    between atoms: C13_19  and  C14_21 
ROOT
HETATM    1  C8  UNL     1      63.184  43.689   4.606  1.00  0.00     0.078 C 
HETATM    2  C9  UNL     1      63.667  42.263   4.545  1.00  0.00     0.014 C 
HETATM    3  C10 UNL     1      63.010  41.509   5.698  1.00  0.00     0.007 C 
HETATM    4  C11 UNL     1      61.595  41.214   5.427  1.00  0.00     0.004 C 
HETATM    5  C25 UNL     1      60.973  42.490   4.837  1.00  0.00     0.007 C 
HETATM    6  C26 UNL     1      61.788  43.694   5.181  1.00  0.00     0.014 C 
ENDROOT
BRANCH   4   7
HETATM    7  C12 UNL     1      61.216  40.082   4.545  1.00  0.00     0.130 C 
BRANCH   7   8
HETATM    8  N2  UNL     1      61.982  38.894   4.514  1.00  0.00    -0.347 N 
HETATM    9  C13 UNL     1      62.859  38.728   3.364  1.00  0.00     0.224 C 
HETATM   10  O2  UNL     1      63.578  37.675   3.276  1.00  0.00    -0.273 OA
BRANCH   9  11
HETATM   11  C14 UNL     1      63.018  39.672   2.252  1.00  0.00     0.078 C 
HETATM   12  C15 UNL     1      64.502  39.727   1.946  1.00  0.00     0.014 C 
HETATM   13  C16 UNL     1      64.786  39.557   0.478  1.00  0.00     0.001 C 
HETATM   14  C17 UNL     1      63.832  40.389  -0.347  1.00  0.00     0.000 C 
HETATM   15  C18 UNL     1      62.464  39.823  -0.194  1.00  0.00     0.001 C 
HETATM   16  C19 UNL     1      62.242  39.082   1.090  1.00  0.00     0.014 C 
ENDBRANCH   9  11
BRANCH   8  17
HETATM   17  C20 UNL     1      62.094  37.885   5.497  1.00  0.00     0.087 C 
HETATM   18  C21 UNL     1      60.941  37.337   6.210  1.00  0.00     0.025 C 
HETATM   19  C22 UNL     1      61.600  36.462   7.310  1.00  0.00     0.002 C 
HETATM   20  C23 UNL     1      62.819  37.262   7.714  1.00  0.00     0.002 C 
HETATM   21  C24 UNL     1      63.072  38.284   6.620  1.00  0.00     0.025 C 
ENDBRANCH   8  17
ENDBRANCH   7   8
ENDBRANCH   4   7
BRANCH   1  22
HETATM   22  C1  UNL     1      63.202  44.347   3.287  1.00  0.00     0.222 C 
HETATM   23  O1  UNL     1      62.801  45.522   3.184  1.00  0.00    -0.273 OA
HETATM   24  N1  UNL     1      63.666  43.657   2.156  1.00  0.00    -0.356 N 
ATOM     25  H1  UNL     1      63.990  42.696   2.264  1.00  0.00     0.162 HD
BRANCH  24  26
HETATM   26  C2  UNL     1      63.700  44.276   0.822  1.00  0.00     0.084 C 
HETATM   27  C3  UNL     1      62.448  43.881   0.110  1.00  0.00     0.031 C 
HETATM   28  C4  UNL     1      62.596  43.744  -1.369  1.00  0.00     0.081 C 
HETATM   29  C5  UNL     1      63.759  44.479  -1.948  1.00  0.00     0.243 C 
HETATM   30  F1  UNL     1      63.877  44.073  -3.284  1.00  0.00    -0.206 F 
HETATM   31  F2  UNL     1      63.559  45.844  -1.956  1.00  0.00    -0.206 F 
HETATM   32  C6  UNL     1      65.062  44.179  -1.282  1.00  0.00     0.081 C 
HETATM   33  C7  UNL     1      64.948  43.791   0.156  1.00  0.00     0.031 C 
ENDBRANCH  24  26
ENDBRANCH   1  22
TORSDOF 6
ENDMDL
MODEL 3
REMARK VINA RESULT: -7.771672466      1.347      1.852
REMARK  6 active torsions:
REMARK  status: ('A' for Active; 'I' for Inactive)
REMARK       I    between atoms: C1_2  and  N1_3 
REMARK    1  A    between atoms: C1_2  and  C8_13 
REMARK    2  A    between atoms: N1_3  and  C2_5 
REMARK    3  A    between atoms: C11_16  and  C12_17 
REMARK    4  A    between atoms: C12_17  and  N2_18 
REMARK       I    between atoms: N2_18  and  C13_19 
REMARK    5  A    between atoms: N2_18  and  C20_27 
REMARK    6  A    between atoms: C13_19  and  C14_21 
ROOT
HETATM    1  C8  UNL     1      63.639  43.223   3.999  1.00  0.00     0.078 C 
HETATM    2  C9  UNL     1      64.926  42.533   4.369  1.00  0.00     0.014 C 
HETATM    3  C10 UNL     1      64.820  42.129   5.837  1.00  0.00     0.007 C 
HETATM    4  C11 UNL     1      63.948  40.960   6.024  1.00  0.00     0.004 C 
HETATM    5  C25 UNL     1      62.700  41.185   5.157  1.00  0.00     0.007 C 
HETATM    6  C26 UNL     1      62.526  42.633   4.829  1.00  0.00     0.014 C 
ENDROOT
BRANCH   4   7
HETATM    7  C12 UNL     1      64.448  39.592   5.742  1.00  0.00     0.130 C 
BRANCH   7   8
HETATM    8  N2  UNL     1      63.662  38.662   5.023  1.00  0.00    -0.347 N 
HETATM    9  C13 UNL     1      63.987  38.504   3.613  1.00  0.00     0.224 C 
HETATM   10  O2  UNL     1      63.313  37.680   2.906  1.00  0.00    -0.273 OA
BRANCH   9  11
HETATM   11  C14 UNL     1      65.044  39.213   2.883  1.00  0.00     0.078 C 
HETATM   12  C15 UNL     1      66.149  38.203   2.643  1.00  0.00     0.014 C 
HETATM   13  C16 UNL     1      66.604  38.188   1.209  1.00  0.00     0.001 C 
HETATM   14  C17 UNL     1      66.768  39.598   0.689  1.00  0.00     0.000 C 
HETATM   15  C18 UNL     1      65.422  40.230   0.616  1.00  0.00     0.001 C 
HETATM   16  C19 UNL     1      64.419  39.661   1.575  1.00  0.00     0.014 C 
ENDBRANCH   9  11
BRANCH   8  17
HETATM   17  C20 UNL     1      62.665  37.783   5.505  1.00  0.00     0.087 C 
HETATM   18  C21 UNL     1      61.261  38.168   5.635  1.00  0.00     0.025 C 
HETATM   19  C22 UNL     1      60.645  36.969   6.404  1.00  0.00     0.002 C 
HETATM   20  C23 UNL     1      61.735  36.576   7.377  1.00  0.00     0.002 C 
HETATM   21  C24 UNL     1      63.025  37.211   6.891  1.00  0.00     0.025 C 
ENDBRANCH   8  17
ENDBRANCH   7   8
ENDBRANCH   4   7
BRANCH   1  22
HETATM   22  C1  UNL     1      63.330  43.106   2.562  1.00  0.00     0.222 C 
HETATM   23  O1  UNL     1      62.354  42.422   2.200  1.00  0.00    -0.273 OA
HETATM   24  N1  UNL     1      64.128  43.758   1.609  1.00  0.00    -0.356 N 
ATOM     25  H1  UNL     1      64.922  44.313   1.927  1.00  0.00     0.162 HD
BRANCH  24  26
HETATM   26  C2  UNL     1      63.855  43.666   0.166  1.00  0.00     0.084 C 
HETATM   27  C3  UNL     1      65.169  43.679  -0.543  1.00  0.00     0.031 C 
HETATM   28  C4  UNL     1      65.138  44.320  -1.890  1.00  0.00     0.081 C 
HETATM   29  C5  UNL     1      63.785  44.385  -2.517  1.00  0.00     0.243 C 
HETATM   30  F1  UNL     1      63.897  45.196  -3.654  1.00  0.00    -0.206 F 
HETATM   31  F2  UNL     1      63.351  43.147  -2.944  1.00  0.00    -0.206 F 
HETATM   32  C6  UNL     1      62.737  44.995  -1.644  1.00  0.00     0.081 C 
HETATM   33  C7  UNL     1      62.975  44.825  -0.179  1.00  0.00     0.031 C 
ENDBRANCH  24  26
ENDBRANCH   1  22
TORSDOF 6
ENDMDL
MODEL 4
REMARK VINA RESULT: -7.653537702      4.085      6.760
REMARK  6 active torsions:
REMARK  status: ('A' for Active; 'I' for Inactive)
REMARK       I    between atoms: C1_2  and  N1_3 
REMARK    1  A    between atoms: C1_2  and  C8_13 
REMARK    2  A    between atoms: N1_3  and  C2_5 
REMARK    3  A    between atoms: C11_16  and  C12_17 
REMARK    4  A    between atoms: C12_17  and  N2_18 
REMARK       I    between atoms: N2_18  and  C13_19 
REMARK    5  A    between atoms: N2_18  and  C20_27 
REMARK    6  A    between atoms: C13_19  and  C14_21 
ROOT
HETATM    1  C8  UNL     1      67.803  40.408   0.739  1.00  0.00     0.078 C 
HETATM    2  C9  UNL     1      67.267  39.813   2.015  1.00  0.00     0.014 C 
HETATM    3  C10 UNL     1      66.858  40.970   2.922  1.00  0.00     0.007 C 
HETATM    4  C11 UNL     1      65.596  41.589   2.487  1.00  0.00     0.004 C 
HETATM    5  C25 UNL     1      65.674  41.748   0.961  1.00  0.00     0.007 C 
HETATM    6  C26 UNL     1      67.090  41.714   0.488  1.00  0.00     0.014 C 
ENDROOT
BRANCH   4   7
HETATM    7  C12 UNL     1      64.294  40.953   2.806  1.00  0.00     0.130 C 
BRANCH   7   8
HETATM    8  N2  UNL     1      64.063  40.358   4.068  1.00  0.00    -0.347 N 
HETATM    9  C13 UNL     1      63.341  41.170   5.037  1.00  0.00     0.224 C 
HETATM   10  O2  UNL     1      63.101  40.689   6.197  1.00  0.00    -0.273 OA
BRANCH   9  11
HETATM   11  C14 UNL     1      62.838  42.531   4.822  1.00  0.00     0.078 C 
HETATM   12  C15 UNL     1      61.491  42.603   5.514  1.00  0.00     0.014 C 
HETATM   13  C16 UNL     1      61.371  43.813   6.401  1.00  0.00     0.001 C 
HETATM   14  C17 UNL     1      61.906  45.040   5.700  1.00  0.00     0.000 C 
HETATM   15  C18 UNL     1      63.377  44.880   5.533  1.00  0.00     0.001 C 
HETATM   16  C19 UNL     1      63.842  43.456   5.484  1.00  0.00     0.014 C 
ENDBRANCH   9  11
BRANCH   8  17
HETATM   17  C20 UNL     1      64.346  39.039   4.492  1.00  0.00     0.087 C 
HETATM   18  C21 UNL     1      65.557  38.683   5.229  1.00  0.00     0.025 C 
HETATM   19  C22 UNL     1      65.506  37.132   5.246  1.00  0.00     0.002 C 
HETATM   20  C23 UNL     1      64.948  36.782   3.884  1.00  0.00     0.002 C 
HETATM   21  C24 UNL     1      64.316  38.040   3.317  1.00  0.00     0.025 C 
ENDBRANCH   8  17
ENDBRANCH   7   8
ENDBRANCH   4   7
BRANCH   1  22
HETATM   22  C1  UNL     1      67.646  39.504  -0.415  1.00  0.00     0.222 C 
HETATM   23  O1  UNL     1      66.700  38.695  -0.434  1.00  0.00    -0.273 OA
HETATM   24  N1  UNL     1      68.556  39.553  -1.483  1.00  0.00    -0.356 N 
ATOM     25  H1  UNL     1      69.323  40.224  -1.447  1.00  0.00     0.162 HD
BRANCH  24  26
HETATM   26  C2  UNL     1      68.437  38.668  -2.653  1.00  0.00     0.084 C 
HETATM   27  C3  UNL     1      69.791  38.104  -2.930  1.00  0.00     0.031 C 
HETATM   28  C4  UNL     1      70.063  37.833  -4.372  1.00  0.00     0.081 C 
HETATM   29  C5  UNL     1      68.842  37.683  -5.218  1.00  0.00     0.243 C 
HETATM   30  F1  UNL     1      69.268  37.654  -6.553  1.00  0.00    -0.206 F 
HETATM   31  F2  UNL     1      68.186  36.493  -4.977  1.00  0.00    -0.206 F 
HETATM   32  C6  UNL     1      67.871  38.811  -5.092  1.00  0.00     0.081 C 
HETATM   33  C7  UNL     1      67.893  39.503  -3.769  1.00  0.00     0.031 C 
ENDBRANCH  24  26
ENDBRANCH   1  22
TORSDOF 6
ENDMDL
MODEL 5
REMARK VINA RESULT: -7.653306486      1.782      2.517
REMARK  6 active torsions:
REMARK  status: ('A' for Active; 'I' for Inactive)
REMARK       I    between atoms: C1_2  and  N1_3 
REMARK    1  A    between atoms: C1_2  and  C8_13 
REMARK    2  A    between atoms: N1_3  and  C2_5 
REMARK    3  A    between atoms: C11_16  and  C12_17 
REMARK    4  A    between atoms: C12_17  and  N2_18 
REMARK       I    between atoms: N2_18  and  C13_19 
REMARK    5  A    between atoms: N2_18  and  C20_27 
REMARK    6  A    between atoms: C13_19  and  C14_21 
ROOT
HETATM    1  C8  UNL     1      61.498  45.049   4.152  1.00  0.00     0.078 C 
HETATM    2  C9  UNL     1      62.773  45.006   4.953  1.00  0.00     0.014 C 
HETATM    3  C10 UNL     1      62.498  44.177   6.204  1.00  0.00     0.007 C 
HETATM    4  C11 UNL     1      62.442  42.737   5.908  1.00  0.00     0.004 C 
HETATM    5  C25 UNL     1      61.606  42.572   4.629  1.00  0.00     0.007 C 
HETATM    6  C26 UNL     1      60.741  43.767   4.394  1.00  0.00     0.014 C 
ENDROOT
BRANCH   4   7
HETATM    7  C12 UNL     1      63.689  41.953   5.732  1.00  0.00     0.130 C 
BRANCH   7   8
HETATM    8  N2  UNL     1      63.692  40.742   5.003  1.00  0.00    -0.347 N 
HETATM    9  C13 UNL     1      64.376  40.769   3.718  1.00  0.00     0.224 C 
HETATM   10  O2  UNL     1      64.414  39.706   3.009  1.00  0.00    -0.273 OA
BRANCH   9  11
HETATM   11  C14 UNL     1      65.055  41.926   3.123  1.00  0.00     0.078 C 
HETATM   12  C15 UNL     1      66.340  41.401   2.515  1.00  0.00     0.014 C 
HETATM   13  C16 UNL     1      66.532  41.871   1.098  1.00  0.00     0.001 C 
HETATM   14  C17 UNL     1      66.206  43.342   0.978  1.00  0.00     0.000 C 
HETATM   15  C18 UNL     1      64.745  43.518   1.203  1.00  0.00     0.001 C 
HETATM   16  C19 UNL     1      64.119  42.452   2.051  1.00  0.00     0.014 C 
ENDBRANCH   9  11
BRANCH   8  17
HETATM   17  C20 UNL     1      63.210  39.471   5.392  1.00  0.00     0.087 C 
HETATM   18  C21 UNL     1      61.798  39.100   5.320  1.00  0.00     0.025 C 
HETATM   19  C22 UNL     1      61.762  37.735   6.059  1.00  0.00     0.002 C 
HETATM   20  C23 UNL     1      62.759  37.916   7.182  1.00  0.00     0.002 C 
HETATM   21  C24 UNL     1      63.615  39.121   6.838  1.00  0.00     0.025 C 
ENDBRANCH   8  17
ENDBRANCH   7   8
ENDBRANCH   4   7
BRANCH   1  22
HETATM   22  C1  UNL     1      61.745  45.240   2.711  1.00  0.00     0.222 C 
HETATM   23  O1  UNL     1      62.555  46.109   2.338  1.00  0.00    -0.273 OA
HETATM   24  N1  UNL     1      61.072  44.449   1.766  1.00  0.00    -0.356 N 
ATOM     25  H1  UNL     1      60.413  43.743   2.093  1.00  0.00     0.162 HD
BRANCH  24  26
HETATM   26  C2  UNL     1      61.287  44.607   0.318  1.00  0.00     0.084 C 
HETATM   27  C3  UNL     1      60.230  45.526  -0.197  1.00  0.00     0.031 C 
HETATM   28  C4  UNL     1      59.802  45.250  -1.599  1.00  0.00     0.081 C 
HETATM   29  C5  UNL     1      60.791  44.482  -2.412  1.00  0.00     0.243 C 
HETATM   30  F1  UNL     1      60.153  44.126  -3.607  1.00  0.00    -0.206 F 
HETATM   31  F2  UNL     1      61.889  45.246  -2.752  1.00  0.00    -0.206 F 
HETATM   32  C6  UNL     1      61.256  43.217  -1.769  1.00  0.00     0.081 C 
HETATM   33  C7  UNL     1      61.233  43.236  -0.276  1.00  0.00     0.031 C 
ENDBRANCH  24  26
ENDBRANCH   1  22
TORSDOF 6
ENDMDL
