MODEL 1
REMARK VINA RESULT: -6.159798707      0.000      0.000
REMARK  10 active torsions:
REMARK  status: ('A' for Active; 'I' for Inactive)
REMARK    1  A    between atoms: C5_7  and  C6_8 
REMARK    2  A    between atoms: C6_8  and  N2_9 
REMARK    3  A    between atoms: N2_9  and  C7_11 
REMARK    4  A    between atoms: C7_11  and  O1_12 
REMARK    5  A    between atoms: C7_11  and  C8_14 
REMARK    6  A    between atoms: C8_14  and  S1_15 
REMARK    7  A    between atoms: S1_15  and  C9_16 
REMARK    8  A    between atoms: C9_16  and  C10_17 
REMARK    9  A    between atoms: C10_17  and  N3_18 
REMARK   10  A    between atoms: C10_17  and  C11_22 
ROOT
HETATM    1  C7  UNL     1      17.836   8.592  36.618  1.00  0.00     0.223 C 
ENDROOT
BRANCH   1   2
HETATM    2  N2  UNL     1      18.364   8.735  37.929  1.00  0.00    -0.392 N 
ATOM      3  H2  UNL     1      19.121   9.388  38.129  1.00  0.00     0.156 HD
BRANCH   2   4
HETATM    4  C6  UNL     1      17.785   7.921  38.960  1.00  0.00     0.165 C 
BRANCH   4   5
HETATM    5  C5  UNL     1      16.879   8.844  39.755  1.00  0.00     0.024 A 
HETATM    6  C3  UNL     1      16.887   9.281  41.033  1.00  0.00     0.020 A 
HETATM    7  N1  UNL     1      15.871   9.966  41.452  1.00  0.00    -0.357 N 
HETATM    8  C4  UNL     1      18.090   8.991  41.938  1.00  0.00     0.069 C 
HETATM    9  C2  UNL     1      14.861  10.233  40.646  1.00  0.00     0.047 A 
ATOM     10  H1  UNL     1      15.851  10.303  42.415  1.00  0.00     0.166 HD
HETATM   11  C1  UNL     1      13.568  10.977  40.872  1.00  0.00     0.076 C 
HETATM   12  S2  UNL     1      15.355   9.474  39.199  1.00  0.00    -0.078 SA
ENDBRANCH   4   5
ENDBRANCH   2   4
ENDBRANCH   1   2
BRANCH   1  13
HETATM   13  O1  UNL     1      18.797   8.775  35.626  1.00  0.00    -0.376 OA
ATOM     14  H1  UNL     1      19.610   9.133  35.963  1.00  0.00     0.212 HD
ENDBRANCH   1  13
BRANCH   1  15
HETATM   15  C8  UNL     1      17.270   7.198  36.470  1.00  0.00     0.127 C 
BRANCH  15  16
HETATM   16  S1  UNL     1      16.545   7.088  34.773  1.00  0.00    -0.163 SA
BRANCH  16  17
HETATM   17  C9  UNL     1      17.466   5.605  34.076  1.00  0.00     0.107 C 
BRANCH  17  18
HETATM   18  C10 UNL     1      18.437   6.243  33.088  1.00  0.00     0.196 C 
BRANCH  18  19
HETATM   19  N3  UNL     1      17.997   7.622  32.821  1.00  0.00    -0.074 N 
ATOM     20  H33 UNL     1      16.984   7.698  32.731  1.00  0.00     0.274 HD
ATOM     21  H32 UNL     1      18.113   8.233  33.629  1.00  0.00     0.274 HD
ATOM     22  H31 UNL     1      18.490   7.966  31.996  1.00  0.00     0.274 HD
ENDBRANCH  18  19
BRANCH  18  23
HETATM   23  C11 UNL     1      18.284   5.494  31.731  1.00  0.00     0.008 C 
HETATM   24  C12 UNL     1      18.226   4.028  32.036  1.00  0.00     0.011 C 
HETATM   25  C13 UNL     1      19.533   5.790  30.901  1.00  0.00     0.011 C 
ENDBRANCH  18  23
ENDBRANCH  17  18
ENDBRANCH  16  17
ENDBRANCH  15  16
ENDBRANCH   1  15
TORSDOF 10
ENDMDL
MODEL 2
REMARK VINA RESULT: -6.107720635      1.261      1.480
REMARK  10 active torsions:
REMARK  status: ('A' for Active; 'I' for Inactive)
REMARK    1  A    between atoms: C5_7  and  C6_8 
REMARK    2  A    between atoms: C6_8  and  N2_9 
REMARK    3  A    between atoms: N2_9  and  C7_11 
REMARK    4  A    between atoms: C7_11  and  O1_12 
REMARK    5  A    between atoms: C7_11  and  C8_14 
REMARK    6  A    between atoms: C8_14  and  S1_15 
REMARK    7  A    between atoms: S1_15  and  C9_16 
REMARK    8  A    between atoms: C9_16  and  C10_17 
REMARK    9  A    between atoms: C10_17  and  N3_18 
REMARK   10  A    between atoms: C10_17  and  C11_22 
ROOT
HETATM    1  C7  UNL     1      17.411   8.049  36.571  1.00  0.00     0.223 C 
ENDROOT
BRANCH   1   2
HETATM    2  N2  UNL     1      17.820   8.862  37.662  1.00  0.00    -0.392 N 
ATOM      3  H2  UNL     1      18.062   9.845  37.531  1.00  0.00     0.156 HD
BRANCH   2   4
HETATM    4  C6  UNL     1      17.876   8.243  38.955  1.00  0.00     0.165 C 
BRANCH   4   5
HETATM    5  C5  UNL     1      16.915   9.027  39.831  1.00  0.00     0.024 A 
HETATM    6  C3  UNL     1      16.902   9.347  41.144  1.00  0.00     0.020 A 
HETATM    7  N1  UNL     1      15.845   9.921  41.623  1.00  0.00    -0.357 N 
HETATM    8  C4  UNL     1      18.128   9.059  42.018  1.00  0.00     0.069 C 
HETATM    9  C2  UNL     1      14.814  10.190  40.845  1.00  0.00     0.047 A 
ATOM     10  H1  UNL     1      15.809  10.168  42.612  1.00  0.00     0.166 HD
HETATM   11  C1  UNL     1      13.475  10.821  41.138  1.00  0.00     0.076 C 
HETATM   12  S2  UNL     1      15.348   9.599  39.336  1.00  0.00    -0.078 SA
ENDBRANCH   4   5
ENDBRANCH   2   4
ENDBRANCH   1   2
BRANCH   1  13
HETATM   13  O1  UNL     1      17.276   6.707  36.920  1.00  0.00    -0.376 OA
ATOM     14  H1  UNL     1      17.562   6.117  36.233  1.00  0.00     0.212 HD
ENDBRANCH   1  13
BRANCH   1  15
HETATM   15  C8  UNL     1      16.071   8.540  36.072  1.00  0.00     0.127 C 
BRANCH  15  16
HETATM   16  S1  UNL     1      15.967   8.094  34.281  1.00  0.00    -0.163 SA
BRANCH  16  17
HETATM   17  C9  UNL     1      17.758   7.667  33.905  1.00  0.00     0.107 C 
BRANCH  17  18
HETATM   18  C10 UNL     1      17.645   6.317  33.204  1.00  0.00     0.196 C 
BRANCH  18  19
HETATM   19  N3  UNL     1      17.754   5.253  34.216  1.00  0.00    -0.074 N 
ATOM     20  H33 UNL     1      18.715   5.104  34.524  1.00  0.00     0.274 HD
ATOM     21  H32 UNL     1      17.360   5.527  35.116  1.00  0.00     0.274 HD
ATOM     22  H31 UNL     1      17.326   4.406  33.844  1.00  0.00     0.274 HD
ENDBRANCH  18  19
BRANCH  18  23
HETATM   23  C11 UNL     1      18.902   6.152  32.299  1.00  0.00     0.008 C 
HETATM   24  C12 UNL     1      18.853   7.237  31.268  1.00  0.00     0.011 C 
HETATM   25  C13 UNL     1      18.794   4.792  31.610  1.00  0.00     0.011 C 
ENDBRANCH  18  23
ENDBRANCH  17  18
ENDBRANCH  16  17
ENDBRANCH  15  16
ENDBRANCH   1  15
TORSDOF 10
ENDMDL
MODEL 3
REMARK VINA RESULT: -6.088001358      1.011      2.031
REMARK  10 active torsions:
REMARK  status: ('A' for Active; 'I' for Inactive)
REMARK    1  A    between atoms: C5_7  and  C6_8 
REMARK    2  A    between atoms: C6_8  and  N2_9 
REMARK    3  A    between atoms: N2_9  and  C7_11 
REMARK    4  A    between atoms: C7_11  and  O1_12 
REMARK    5  A    between atoms: C7_11  and  C8_14 
REMARK    6  A    between atoms: C8_14  and  S1_15 
REMARK    7  A    between atoms: S1_15  and  C9_16 
REMARK    8  A    between atoms: C9_16  and  C10_17 
REMARK    9  A    between atoms: C10_17  and  N3_18 
REMARK   10  A    between atoms: C10_17  and  C11_22 
ROOT
HETATM    1  C7  UNL     1      17.266   8.483  36.091  1.00  0.00     0.223 C 
ENDROOT
BRANCH   1   2
HETATM    2  N2  UNL     1      17.171   9.030  37.398  1.00  0.00    -0.392 N 
ATOM      3  H2  UNL     1      17.953   9.527  37.825  1.00  0.00     0.156 HD
BRANCH   2   4
HETATM    4  C6  UNL     1      15.927   8.854  38.093  1.00  0.00     0.165 C 
BRANCH   4   5
HETATM    5  C5  UNL     1      16.244   9.056  39.563  1.00  0.00     0.024 A 
HETATM    6  C3  UNL     1      15.669   9.782  40.548  1.00  0.00     0.020 A 
HETATM    7  N1  UNL     1      16.277   9.855  41.689  1.00  0.00    -0.357 N 
HETATM    8  C4  UNL     1      14.318  10.466  40.310  1.00  0.00     0.069 C 
HETATM    9  C2  UNL     1      17.423   9.231  41.882  1.00  0.00     0.047 A 
ATOM     10  H1  UNL     1      15.865  10.401  42.446  1.00  0.00     0.166 HD
HETATM   11  C1  UNL     1      18.338   9.163  43.080  1.00  0.00     0.076 C 
HETATM   12  S2  UNL     1      17.680   8.489  40.367  1.00  0.00    -0.078 SA
ENDBRANCH   4   5
ENDBRANCH   2   4
ENDBRANCH   1   2
BRANCH   1  13
HETATM   13  O1  UNL     1      18.542   8.608  35.545  1.00  0.00    -0.376 OA
ATOM     14  H1  UNL     1      19.230   8.415  36.171  1.00  0.00     0.212 HD
ENDBRANCH   1  13
BRANCH   1  15
HETATM   15  C8  UNL     1      16.925   7.011  36.152  1.00  0.00     0.127 C 
BRANCH  15  16
HETATM   16  S1  UNL     1      16.413   6.505  34.450  1.00  0.00    -0.163 SA
BRANCH  16  17
HETATM   17  C9  UNL     1      17.879   5.454  33.923  1.00  0.00     0.107 C 
BRANCH  17  18
HETATM   18  C10 UNL     1      18.548   6.316  32.857  1.00  0.00     0.196 C 
BRANCH  18  19
HETATM   19  N3  UNL     1      17.755   7.543  32.679  1.00  0.00    -0.074 N 
ATOM     20  H33 UNL     1      17.618   8.050  33.553  1.00  0.00     0.274 HD
ATOM     21  H32 UNL     1      18.264   8.269  32.174  1.00  0.00     0.274 HD
ATOM     22  H31 UNL     1      16.874   7.297  32.228  1.00  0.00     0.274 HD
ENDBRANCH  18  19
BRANCH  18  23
HETATM   23  C11 UNL     1      18.438   5.556  31.503  1.00  0.00     0.008 C 
HETATM   24  C12 UNL     1      18.250   4.104  31.821  1.00  0.00     0.011 C 
HETATM   25  C13 UNL     1      19.762   5.745  30.762  1.00  0.00     0.011 C 
ENDBRANCH  18  23
ENDBRANCH  17  18
ENDBRANCH  16  17
ENDBRANCH  15  16
ENDBRANCH   1  15
TORSDOF 10
ENDMDL
MODEL 4
REMARK VINA RESULT: -5.956030005      1.153      2.206
REMARK  10 active torsions:
REMARK  status: ('A' for Active; 'I' for Inactive)
REMARK    1  A    between atoms: C5_7  and  C6_8 
REMARK    2  A    between atoms: C6_8  and  N2_9 
REMARK    3  A    between atoms: N2_9  and  C7_11 
REMARK    4  A    between atoms: C7_11  and  O1_12 
REMARK    5  A    between atoms: C7_11  and  C8_14 
REMARK    6  A    between atoms: C8_14  and  S1_15 
REMARK    7  A    between atoms: S1_15  and  C9_16 
REMARK    8  A    between atoms: C9_16  and  C10_17 
REMARK    9  A    between atoms: C10_17  and  N3_18 
REMARK   10  A    between atoms: C10_17  and  C11_22 
ROOT
HETATM    1  C7  UNL     1      17.707   8.643  36.733  1.00  0.00     0.223 C 
ENDROOT
BRANCH   1   2
HETATM    2  N2  UNL     1      16.704   9.196  37.573  1.00  0.00    -0.392 N 
ATOM      3  H2  UNL     1      16.496  10.195  37.567  1.00  0.00     0.156 HD
BRANCH   2   4
HETATM    4  C6  UNL     1      15.996   8.289  38.431  1.00  0.00     0.165 C 
BRANCH   4   5
HETATM    5  C5  UNL     1      16.254   8.774  39.846  1.00  0.00     0.024 A 
HETATM    6  C3  UNL     1      15.619   9.644  40.663  1.00  0.00     0.020 A 
HETATM    7  N1  UNL     1      16.184   9.953  41.786  1.00  0.00    -0.357 N 
HETATM    8  C4  UNL     1      14.252  10.213  40.266  1.00  0.00     0.069 C 
HETATM    9  C2  UNL     1      17.346   9.425  42.123  1.00  0.00     0.047 A 
ATOM     10  H1  UNL     1      15.726  10.611  42.417  1.00  0.00     0.166 HD
HETATM   11  C1  UNL     1      18.220   9.620  43.336  1.00  0.00     0.076 C 
HETATM   12  S2  UNL     1      17.682   8.427  40.779  1.00  0.00    -0.078 SA
ENDBRANCH   4   5
ENDBRANCH   2   4
ENDBRANCH   1   2
BRANCH   1  13
HETATM   13  O1  UNL     1      18.964   8.625  37.333  1.00  0.00    -0.376 OA
ATOM     14  H1  UNL     1      19.614   8.169  36.811  1.00  0.00     0.212 HD
ENDBRANCH   1  13
BRANCH   1  15
HETATM   15  C8  UNL     1      17.329   7.218  36.395  1.00  0.00     0.127 C 
BRANCH  15  16
HETATM   16  S1  UNL     1      16.564   7.247  34.713  1.00  0.00    -0.163 SA
BRANCH  16  17
HETATM   17  C9  UNL     1      17.309   5.702  33.945  1.00  0.00     0.107 C 
BRANCH  17  18
HETATM   18  C10 UNL     1      18.478   6.254  33.136  1.00  0.00     0.196 C 
BRANCH  18  19
HETATM   19  N3  UNL     1      17.988   7.361  32.299  1.00  0.00    -0.074 N 
ATOM     20  H33 UNL     1      16.997   7.271  32.072  1.00  0.00     0.274 HD
ATOM     21  H32 UNL     1      17.935   8.244  32.808  1.00  0.00     0.274 HD
ATOM     22  H31 UNL     1      18.575   7.424  31.468  1.00  0.00     0.274 HD
ENDBRANCH  18  19
BRANCH  18  23
HETATM   23  C11 UNL     1      18.920   5.147  32.135  1.00  0.00     0.008 C 
HETATM   24  C12 UNL     1      18.808   5.723  30.756  1.00  0.00     0.011 C 
HETATM   25  C13 UNL     1      17.941   3.982  32.279  1.00  0.00     0.011 C 
ENDBRANCH  18  23
ENDBRANCH  17  18
ENDBRANCH  16  17
ENDBRANCH  15  16
ENDBRANCH   1  15
TORSDOF 10
ENDMDL
MODEL 5
REMARK VINA RESULT: -5.930876420      1.662      2.528
REMARK  10 active torsions:
REMARK  status: ('A' for Active; 'I' for Inactive)
REMARK    1  A    between atoms: C5_7  and  C6_8 
REMARK    2  A    between atoms: C6_8  and  N2_9 
REMARK    3  A    between atoms: N2_9  and  C7_11 
REMARK    4  A    between atoms: C7_11  and  O1_12 
REMARK    5  A    between atoms: C7_11  and  C8_14 
REMARK    6  A    between atoms: C8_14  and  S1_15 
REMARK    7  A    between atoms: S1_15  and  C9_16 
REMARK    8  A    between atoms: C9_16  and  C10_17 
REMARK    9  A    between atoms: C10_17  and  N3_18 
REMARK   10  A    between atoms: C10_17  and  C11_22 
ROOT
HETATM    1  C7  UNL     1      17.255   8.070  36.509  1.00  0.00     0.223 C 
ENDROOT
BRANCH   1   2
HETATM    2  N2  UNL     1      17.635   8.920  37.581  1.00  0.00    -0.392 N 
ATOM      3  H2  UNL     1      18.602   8.972  37.901  1.00  0.00     0.156 HD
BRANCH   2   4
HETATM    4  C6  UNL     1      16.600   9.704  38.194  1.00  0.00     0.165 C 
BRANCH   4   5
HETATM    5  C5  UNL     1      16.473   9.181  39.613  1.00  0.00     0.024 A 
HETATM    6  C3  UNL     1      15.536   9.322  40.577  1.00  0.00     0.020 A 
HETATM    7  N1  UNL     1      15.796   8.854  41.756  1.00  0.00    -0.357 N 
HETATM    8  C4  UNL     1      14.196   9.992  40.254  1.00  0.00     0.069 C 
HETATM    9  C2  UNL     1      16.943   8.251  42.004  1.00  0.00     0.047 A 
ATOM     10  H1  UNL     1      15.106   8.953  42.502  1.00  0.00     0.166 HD
HETATM   11  C1  UNL     1      17.503   7.642  43.265  1.00  0.00     0.076 C 
HETATM   12  S2  UNL     1      17.722   8.342  40.488  1.00  0.00    -0.078 SA
ENDBRANCH   4   5
ENDBRANCH   2   4
ENDBRANCH   1   2
BRANCH   1  13
HETATM   13  O1  UNL     1      17.111   6.740  36.900  1.00  0.00    -0.376 OA
ATOM     14  H1  UNL     1      16.593   6.230  36.288  1.00  0.00     0.212 HD
ENDBRANCH   1  13
BRANCH   1  15
HETATM   15  C8  UNL     1      15.927   8.542  35.960  1.00  0.00     0.127 C 
BRANCH  15  16
HETATM   16  S1  UNL     1      15.886   8.071  34.173  1.00  0.00    -0.163 SA
BRANCH  16  17
HETATM   17  C9  UNL     1      17.693   7.662  33.859  1.00  0.00     0.107 C 
BRANCH  17  18
HETATM   18  C10 UNL     1      17.620   6.292  33.193  1.00  0.00     0.196 C 
BRANCH  18  19
HETATM   19  N3  UNL     1      17.751   5.258  34.232  1.00  0.00    -0.074 N 
ATOM     20  H33 UNL     1      18.479   5.478  34.912  1.00  0.00     0.274 HD
ATOM     21  H32 UNL     1      16.959   5.245  34.874  1.00  0.00     0.274 HD
ATOM     22  H31 UNL     1      17.900   4.357  33.777  1.00  0.00     0.274 HD
ENDBRANCH  18  19
BRANCH  18  23
HETATM   23  C11 UNL     1      18.885   6.138  32.298  1.00  0.00     0.008 C 
HETATM   24  C12 UNL     1      18.848   7.238  31.281  1.00  0.00     0.011 C 
HETATM   25  C13 UNL     1      18.783   4.788  31.589  1.00  0.00     0.011 C 
ENDBRANCH  18  23
ENDBRANCH  17  18
ENDBRANCH  16  17
ENDBRANCH  15  16
ENDBRANCH   1  15
TORSDOF 10
ENDMDL
