MODEL 1
REMARK VINA RESULT: -4.710797513      0.000      0.000
REMARK  4 active torsions:
REMARK  status: ('A' for Active; 'I' for Inactive)
REMARK    1  A    between atoms: C3_4  and  C4_5 
REMARK    2  A    between atoms: C4_5  and  C5_6 
REMARK    3  A    between atoms: C5_6  and  C6_7 
REMARK    4  A    between atoms: C6_7  and  N1_8 
ROOT
HETATM    1  C1  UNL     1      15.205  35.950  36.255  1.00  0.00     0.071 C 
HETATM    2  C2  UNL     1      14.183  35.875  35.127  1.00  0.00     0.257 C 
HETATM    3  O1  UNL     1      13.272  36.924  35.198  1.00  0.00    -0.353 OA
HETATM    4  C3  UNL     1      12.037  36.357  34.769  1.00  0.00     0.158 C 
HETATM    5  C7  UNL     1      12.168  35.063  35.475  1.00  0.00     0.083 C 
HETATM    6  C8  UNL     1      11.136  34.048  35.250  1.00  0.00     0.048 C 
HETATM    7  C9  UNL     1      12.182  35.379  36.983  1.00  0.00     0.048 C 
HETATM    8  O2  UNL     1      13.464  34.694  35.162  1.00  0.00    -0.349 OA
ENDROOT
BRANCH   4   9
HETATM    9  C4  UNL     1      12.100  36.391  33.310  1.00  0.00     0.036 C 
BRANCH   9  10
HETATM   10  C5  UNL     1      10.969  36.983  32.548  1.00  0.00     0.030 C 
BRANCH  10  11
HETATM   11  C6  UNL     1      10.624  36.114  31.330  1.00  0.00     0.230 C 
BRANCH  11  12
HETATM   12  N1  UNL     1      10.246  34.787  31.807  1.00  0.00    -0.079 N 
ATOM     13  H13 UNL     1      11.053  34.208  32.039  1.00  0.00     0.274 HD
ATOM     14  H12 UNL     1       9.820  34.809  32.734  1.00  0.00     0.274 HD
ATOM     15  H11 UNL     1       9.641  34.356  31.108  1.00  0.00     0.274 HD
ENDBRANCH  11  12
ENDBRANCH  10  11
ENDBRANCH   9  10
ENDBRANCH   4   9
TORSDOF 4
ENDMDL
MODEL 2
REMARK VINA RESULT: -4.599848886      2.255      3.863
REMARK  4 active torsions:
REMARK  status: ('A' for Active; 'I' for Inactive)
REMARK    1  A    between atoms: C3_4  and  C4_5 
REMARK    2  A    between atoms: C4_5  and  C5_6 
REMARK    3  A    between atoms: C5_6  and  C6_7 
REMARK    4  A    between atoms: C6_7  and  N1_8 
ROOT
HETATM    1  C1  UNL     1      14.614  39.058  38.267  1.00  0.00     0.071 C 
HETATM    2  C2  UNL     1      14.500  38.026  37.150  1.00  0.00     0.257 C 
HETATM    3  O1  UNL     1      13.831  36.886  37.581  1.00  0.00    -0.353 OA
HETATM    4  C3  UNL     1      14.480  35.812  36.904  1.00  0.00     0.158 C 
HETATM    5  C7  UNL     1      15.867  36.306  37.054  1.00  0.00     0.083 C 
HETATM    6  C8  UNL     1      16.941  35.553  36.399  1.00  0.00     0.048 C 
HETATM    7  C9  UNL     1      16.172  36.323  38.564  1.00  0.00     0.048 C 
HETATM    8  O2  UNL     1      15.742  37.633  36.685  1.00  0.00    -0.349 OA
ENDROOT
BRANCH   4   9
HETATM    9  C4  UNL     1      13.864  35.782  35.579  1.00  0.00     0.036 C 
BRANCH   9  10
HETATM   10  C5  UNL     1      12.731  34.856  35.326  1.00  0.00     0.030 C 
BRANCH  10  11
HETATM   11  C6  UNL     1      11.607  35.571  34.564  1.00  0.00     0.230 C 
BRANCH  11  12
HETATM   12  N1  UNL     1      12.101  36.878  34.140  1.00  0.00    -0.079 N 
ATOM     13  H13 UNL     1      12.754  37.286  34.808  1.00  0.00     0.274 HD
ATOM     14  H12 UNL     1      12.736  36.818  33.344  1.00  0.00     0.274 HD
ATOM     15  H11 UNL     1      11.298  37.479  33.957  1.00  0.00     0.274 HD
ENDBRANCH  11  12
ENDBRANCH  10  11
ENDBRANCH   9  10
ENDBRANCH   4   9
TORSDOF 4
ENDMDL
MODEL 3
REMARK VINA RESULT: -4.591618200      2.522      4.313
REMARK  4 active torsions:
REMARK  status: ('A' for Active; 'I' for Inactive)
REMARK    1  A    between atoms: C3_4  and  C4_5 
REMARK    2  A    between atoms: C4_5  and  C5_6 
REMARK    3  A    between atoms: C5_6  and  C6_7 
REMARK    4  A    between atoms: C6_7  and  N1_8 
ROOT
HETATM    1  C1  UNL     1      11.111  37.545  31.512  1.00  0.00     0.071 C 
HETATM    2  C2  UNL     1      11.013  36.809  32.843  1.00  0.00     0.257 C 
HETATM    3  O1  UNL     1      11.924  35.760  32.910  1.00  0.00    -0.353 OA
HETATM    4  C3  UNL     1      11.246  34.742  33.642  1.00  0.00     0.158 C 
HETATM    5  C7  UNL     1       9.919  34.908  33.009  1.00  0.00     0.083 C 
HETATM    6  C8  UNL     1       8.804  34.108  33.525  1.00  0.00     0.048 C 
HETATM    7  C9  UNL     1      10.088  34.554  31.519  1.00  0.00     0.048 C 
HETATM    8  O2  UNL     1       9.751  36.280  33.047  1.00  0.00    -0.349 OA
ENDROOT
BRANCH   4   9
HETATM    9  C4  UNL     1      11.427  35.108  35.044  1.00  0.00     0.036 C 
BRANCH   9  10
HETATM   10  C5  UNL     1      12.785  35.035  35.644  1.00  0.00     0.030 C 
BRANCH  10  11
HETATM   11  C6  UNL     1      13.357  36.443  35.862  1.00  0.00     0.230 C 
BRANCH  11  12
HETATM   12  N1  UNL     1      14.111  36.820  34.669  1.00  0.00    -0.079 N 
ATOM     13  H13 UNL     1      15.047  36.416  34.653  1.00  0.00     0.274 HD
ATOM     14  H12 UNL     1      13.754  36.377  33.822  1.00  0.00     0.274 HD
ATOM     15  H11 UNL     1      14.121  37.837  34.605  1.00  0.00     0.274 HD
ENDBRANCH  11  12
ENDBRANCH  10  11
ENDBRANCH   9  10
ENDBRANCH   4   9
TORSDOF 4
ENDMDL
MODEL 4
REMARK VINA RESULT: -4.568564042      2.623      4.287
REMARK  4 active torsions:
REMARK  status: ('A' for Active; 'I' for Inactive)
REMARK    1  A    between atoms: C3_4  and  C4_5 
REMARK    2  A    between atoms: C4_5  and  C5_6 
REMARK    3  A    between atoms: C5_6  and  C6_7 
REMARK    4  A    between atoms: C6_7  and  N1_8 
ROOT
HETATM    1  C1  UNL     1      10.851  36.730  31.868  1.00  0.00     0.071 C 
HETATM    2  C2  UNL     1      11.395  36.905  33.281  1.00  0.00     0.257 C 
HETATM    3  O1  UNL     1      12.681  36.389  33.396  1.00  0.00    -0.353 OA
HETATM    4  C3  UNL     1      12.732  35.841  34.711  1.00  0.00     0.158 C 
HETATM    5  C7  UNL     1      11.381  35.237  34.715  1.00  0.00     0.083 C 
HETATM    6  C8  UNL     1      10.909  34.612  35.955  1.00  0.00     0.048 C 
HETATM    7  C9  UNL     1      11.374  34.152  33.621  1.00  0.00     0.048 C 
HETATM    8  O2  UNL     1      10.603  36.268  34.220  1.00  0.00    -0.349 OA
ENDROOT
BRANCH   4   9
HETATM    9  C4  UNL     1      13.015  36.981  35.579  1.00  0.00     0.036 C 
BRANCH   9  10
HETATM   10  C5  UNL     1      14.134  36.892  36.553  1.00  0.00     0.030 C 
BRANCH  10  11
HETATM   11  C6  UNL     1      14.550  38.291  37.027  1.00  0.00     0.230 C 
BRANCH  11  12
HETATM   12  N1  UNL     1      13.730  39.275  36.326  1.00  0.00    -0.079 N 
ATOM     13  H13 UNL     1      14.196  39.661  35.505  1.00  0.00     0.274 HD
ATOM     14  H12 UNL     1      12.933  38.854  35.849  1.00  0.00     0.274 HD
ATOM     15  H11 UNL     1      13.453  39.994  36.994  1.00  0.00     0.274 HD
ENDBRANCH  11  12
ENDBRANCH  10  11
ENDBRANCH   9  10
ENDBRANCH   4   9
TORSDOF 4
ENDMDL
MODEL 5
REMARK VINA RESULT: -4.556709723      3.698      5.371
REMARK  4 active torsions:
REMARK  status: ('A' for Active; 'I' for Inactive)
REMARK    1  A    between atoms: C3_4  and  C4_5 
REMARK    2  A    between atoms: C4_5  and  C5_6 
REMARK    3  A    between atoms: C5_6  and  C6_7 
REMARK    4  A    between atoms: C6_7  and  N1_8 
ROOT
HETATM    1  C1  UNL     1      12.675  34.798  35.263  1.00  0.00     0.071 C 
HETATM    2  C2  UNL     1      13.075  35.892  36.246  1.00  0.00     0.257 C 
HETATM    3  O1  UNL     1      13.705  36.949  35.598  1.00  0.00    -0.353 OA
HETATM    4  C3  UNL     1      14.697  37.394  36.520  1.00  0.00     0.158 C 
HETATM    5  C7  UNL     1      15.143  36.059  36.976  1.00  0.00     0.083 C 
HETATM    6  C8  UNL     1      16.135  35.995  38.053  1.00  0.00     0.048 C 
HETATM    7  C9  UNL     1      15.750  35.350  35.750  1.00  0.00     0.048 C 
HETATM    8  O2  UNL     1      13.941  35.421  37.217  1.00  0.00    -0.349 OA
ENDROOT
BRANCH   4   9
HETATM    9  C4  UNL     1      13.981  38.270  37.444  1.00  0.00     0.036 C 
BRANCH   9  10
HETATM   10  C5  UNL     1      14.711  39.384  38.103  1.00  0.00     0.030 C 
BRANCH  10  11
HETATM   11  C6  UNL     1      15.850  39.889  37.207  1.00  0.00     0.230 C 
BRANCH  11  12
HETATM   12  N1  UNL     1      15.873  41.348  37.276  1.00  0.00    -0.079 N 
ATOM     13  H13 UNL     1      14.983  41.741  37.582  1.00  0.00     0.274 HD
ATOM     14  H12 UNL     1      16.450  41.696  38.042  1.00  0.00     0.274 HD
ATOM     15  H11 UNL     1      16.169  41.706  36.368  1.00  0.00     0.274 HD
ENDBRANCH  11  12
ENDBRANCH  10  11
ENDBRANCH   9  10
ENDBRANCH   4   9
TORSDOF 4
ENDMDL
