MODEL 1
REMARK VINA RESULT: -5.551381594      0.000      0.000
REMARK  3 active torsions:
REMARK  status: ('A' for Active; 'I' for Inactive)
REMARK    1  A    between atoms: C2_2  and  C3_3 
REMARK    2  A    between atoms: C3_3  and  N1_5 
REMARK    3  A    between atoms: N1_5  and  C5_7 
ROOT
HETATM    1  C5  UNL     1      13.875  36.102  35.961  1.00  0.00     0.120 C 
HETATM    2  C6  UNL     1      13.969  37.543  35.962  1.00  0.00     0.090 C 
HETATM    3  N2  UNL     1      14.034  38.697  35.987  1.00  0.00    -0.195 NA
HETATM    4  C7  UNL     1      13.322  35.596  37.315  1.00  0.00     0.072 C 
HETATM    5  C8  UNL     1      14.166  36.126  38.452  1.00  0.00     0.171 C 
HETATM    6  O1  UNL     1      15.500  35.716  38.321  1.00  0.00    -0.391 OA
HETATM    7  C9  UNL     1      15.996  36.262  37.145  1.00  0.00     0.171 C 
HETATM    8  C10 UNL     1      15.334  35.599  35.953  1.00  0.00     0.072 C 
ENDROOT
BRANCH   1   9
HETATM    9  N1  UNL     1      13.089  35.487  34.980  1.00  0.00    -0.397 N 
ATOM     10  H1  UNL     1      13.509  34.756  34.407  1.00  0.00     0.155 HD
BRANCH   9  11
HETATM   11  C3  UNL     1      11.757  35.830  34.753  1.00  0.00     0.074 C 
HETATM   12  C4  UNL     1      11.665  36.475  33.358  1.00  0.00     0.032 C 
BRANCH  11  13
HETATM   13  C2  UNL     1      10.734  34.719  34.754  1.00  0.00     0.020 C 
HETATM   14  C1  UNL     1       9.569  35.041  33.855  1.00  0.00     0.007 C 
ENDBRANCH  11  13
ENDBRANCH   9  11
ENDBRANCH   1   9
TORSDOF 3
ENDMDL
MODEL 2
REMARK VINA RESULT: -5.417719690      0.834      1.254
REMARK  3 active torsions:
REMARK  status: ('A' for Active; 'I' for Inactive)
REMARK    1  A    between atoms: C2_2  and  C3_3 
REMARK    2  A    between atoms: C3_3  and  N1_5 
REMARK    3  A    between atoms: N1_5  and  C5_7 
ROOT
HETATM    1  C5  UNL     1      13.880  36.197  36.565  1.00  0.00     0.120 C 
HETATM    2  C6  UNL     1      14.088  37.605  36.321  1.00  0.00     0.090 C 
HETATM    3  N2  UNL     1      14.258  38.737  36.152  1.00  0.00    -0.195 NA
HETATM    4  C7  UNL     1      13.975  35.891  38.079  1.00  0.00     0.072 C 
HETATM    5  C8  UNL     1      15.293  36.392  38.628  1.00  0.00     0.171 C 
HETATM    6  O1  UNL     1      16.373  35.786  37.971  1.00  0.00    -0.391 OA
HETATM    7  C9  UNL     1      16.313  36.155  36.633  1.00  0.00     0.171 C 
HETATM    8  C10 UNL     1      15.120  35.494  35.973  1.00  0.00     0.072 C 
ENDROOT
BRANCH   1   9
HETATM    9  N1  UNL     1      12.679  35.619  36.139  1.00  0.00    -0.397 N 
ATOM     10  H1  UNL     1      11.958  35.426  36.834  1.00  0.00     0.155 HD
BRANCH   9  11
HETATM   11  C3  UNL     1      12.425  35.297  34.808  1.00  0.00     0.074 C 
HETATM   12  C4  UNL     1      11.558  34.025  34.785  1.00  0.00     0.032 C 
BRANCH  11  13
HETATM   13  C2  UNL     1      11.681  36.309  33.968  1.00  0.00     0.020 C 
HETATM   14  C1  UNL     1      10.521  35.679  33.243  1.00  0.00     0.007 C 
ENDBRANCH  11  13
ENDBRANCH   9  11
ENDBRANCH   1   9
TORSDOF 3
ENDMDL
MODEL 3
REMARK VINA RESULT: -5.265729941      3.160      4.740
REMARK  3 active torsions:
REMARK  status: ('A' for Active; 'I' for Inactive)
REMARK    1  A    between atoms: C2_2  and  C3_3 
REMARK    2  A    between atoms: C3_3  and  N1_5 
REMARK    3  A    between atoms: N1_5  and  C5_7 
ROOT
HETATM    1  C5  UNL     1      15.165  38.744  37.949  1.00  0.00     0.120 C 
HETATM    2  C6  UNL     1      16.495  38.247  38.209  1.00  0.00     0.090 C 
HETATM    3  N2  UNL     1      17.569  37.859  38.394  1.00  0.00    -0.195 NA
HETATM    4  C7  UNL     1      15.112  39.453  36.575  1.00  0.00     0.072 C 
HETATM    5  C8  UNL     1      16.164  40.537  36.508  1.00  0.00     0.171 C 
HETATM    6  O1  UNL     1      15.971  41.487  37.520  1.00  0.00    -0.391 OA
HETATM    7  C9  UNL     1      16.117  40.840  38.740  1.00  0.00     0.171 C 
HETATM    8  C10 UNL     1      14.955  39.892  38.959  1.00  0.00     0.072 C 
ENDROOT
BRANCH   1   9
HETATM    9  N1  UNL     1      14.104  37.832  37.944  1.00  0.00    -0.397 N 
ATOM     10  H1  UNL     1      13.152  38.192  38.012  1.00  0.00     0.155 HD
BRANCH   9  11
HETATM   11  C3  UNL     1      14.291  36.454  37.849  1.00  0.00     0.074 C 
HETATM   12  C4  UNL     1      13.306  35.775  38.817  1.00  0.00     0.032 C 
BRANCH  11  13
HETATM   13  C2  UNL     1      14.054  35.802  36.507  1.00  0.00     0.020 C 
HETATM   14  C1  UNL     1      15.350  35.531  35.789  1.00  0.00     0.007 C 
ENDBRANCH  11  13
ENDBRANCH   9  11
ENDBRANCH   1   9
TORSDOF 3
ENDMDL
MODEL 4
REMARK VINA RESULT: -5.171064081      1.358      2.087
REMARK  3 active torsions:
REMARK  status: ('A' for Active; 'I' for Inactive)
REMARK    1  A    between atoms: C2_2  and  C3_3 
REMARK    2  A    between atoms: C3_3  and  N1_5 
REMARK    3  A    between atoms: N1_5  and  C5_7 
ROOT
HETATM    1  C5  UNL     1      14.103  36.244  36.161  1.00  0.00     0.120 C 
HETATM    2  C6  UNL     1      13.499  35.834  37.407  1.00  0.00     0.090 C 
HETATM    3  N2  UNL     1      13.039  35.492  38.411  1.00  0.00    -0.195 NA
HETATM    4  C7  UNL     1      15.541  35.686  36.048  1.00  0.00     0.072 C 
HETATM    5  C8  UNL     1      16.355  36.098  37.255  1.00  0.00     0.171 C 
HETATM    6  O1  UNL     1      16.413  37.494  37.368  1.00  0.00    -0.391 OA
HETATM    7  C9  UNL     1      15.118  37.956  37.561  1.00  0.00     0.171 C 
HETATM    8  C10 UNL     1      14.312  37.767  36.292  1.00  0.00     0.072 C 
ENDROOT
BRANCH   1   9
HETATM    9  N1  UNL     1      13.467  35.889  34.966  1.00  0.00    -0.397 N 
ATOM     10  H1  UNL     1      14.042  35.699  34.145  1.00  0.00     0.155 HD
BRANCH   9  11
HETATM   11  C3  UNL     1      12.082  35.783  34.848  1.00  0.00     0.074 C 
HETATM   12  C4  UNL     1      11.665  36.467  33.533  1.00  0.00     0.032 C 
BRANCH  11  13
HETATM   13  C2  UNL     1      11.484  34.397  34.792  1.00  0.00     0.020 C 
HETATM   14  C1  UNL     1      10.475  34.186  35.891  1.00  0.00     0.007 C 
ENDBRANCH  11  13
ENDBRANCH   9  11
ENDBRANCH   1   9
TORSDOF 3
ENDMDL
MODEL 5
REMARK VINA RESULT: -5.055731195      1.293      1.994
REMARK  3 active torsions:
REMARK  status: ('A' for Active; 'I' for Inactive)
REMARK    1  A    between atoms: C2_2  and  C3_3 
REMARK    2  A    between atoms: C3_3  and  N1_5 
REMARK    3  A    between atoms: N1_5  and  C5_7 
ROOT
HETATM    1  C5  UNL     1      14.046  36.016  35.983  1.00  0.00     0.120 C 
HETATM    2  C6  UNL     1      15.442  35.646  36.000  1.00  0.00     0.090 C 
HETATM    3  N2  UNL     1      16.566  35.375  36.012  1.00  0.00    -0.195 NA
HETATM    4  C7  UNL     1      13.896  37.553  35.891  1.00  0.00     0.072 C 
HETATM    5  C8  UNL     1      14.664  38.219  37.011  1.00  0.00     0.171 C 
HETATM    6  O1  UNL     1      14.201  37.789  38.262  1.00  0.00    -0.391 OA
HETATM    7  C9  UNL     1      14.434  36.422  38.351  1.00  0.00     0.171 C 
HETATM    8  C10 UNL     1      13.520  35.683  37.396  1.00  0.00     0.072 C 
ENDROOT
BRANCH   1   9
HETATM    9  N1  UNL     1      13.233  35.497  34.970  1.00  0.00    -0.397 N 
ATOM     10  H1  UNL     1      13.648  34.861  34.289  1.00  0.00     0.155 HD
BRANCH   9  11
HETATM   11  C3  UNL     1      11.880  35.810  34.850  1.00  0.00     0.074 C 
HETATM   12  C4  UNL     1      11.655  36.411  33.451  1.00  0.00     0.032 C 
BRANCH  11  13
HETATM   13  C2  UNL     1      10.882  34.683  34.972  1.00  0.00     0.020 C 
HETATM   14  C1  UNL     1       9.780  34.808  33.953  1.00  0.00     0.007 C 
ENDBRANCH  11  13
ENDBRANCH   9  11
ENDBRANCH   1   9
TORSDOF 3
ENDMDL
