MODEL 1
REMARK VINA RESULT: -5.912946823      0.000      0.000
REMARK  3 active torsions:
REMARK  status: ('A' for Active; 'I' for Inactive)
REMARK    1  A    between atoms: C2_2  and  C4_4 
REMARK    2  A    between atoms: C5_8  and  N3_9 
REMARK    3  A    between atoms: N3_9  and  C6_11 
ROOT
HETATM    1  C4  UNL     1      11.069  35.735  34.027  1.00  0.00     0.202 C 
HETATM    2  N1  UNL     1      11.818  34.732  34.752  1.00  0.00    -0.113 NA
HETATM    3  N2  UNL     1      12.929  35.374  35.294  1.00  0.00    -0.273 N 
ATOM      4  H2  UNL     1      13.529  34.958  36.007  1.00  0.00     0.185 HD
HETATM    5  C5  UNL     1      13.116  36.546  34.800  1.00  0.00     0.188 C 
HETATM    6  N4  UNL     1      12.082  36.756  33.849  1.00  0.00    -0.341 N 
ATOM      7  H4  UNL     1      12.057  37.502  33.154  1.00  0.00     0.164 HD
ENDROOT
BRANCH   5   8
HETATM    8  N3  UNL     1      14.174  37.472  35.141  1.00  0.00    -0.357 N 
ATOM      9  H3  UNL     1      15.053  37.476  34.624  1.00  0.00     0.163 HD
BRANCH   8  10
HETATM   10  C6  UNL     1      13.954  38.382  36.224  1.00  0.00     0.084 A 
HETATM   11  C7  UNL     1      14.986  39.345  36.665  1.00  0.00     0.027 A 
HETATM   12  C8  UNL     1      14.778  38.065  37.468  1.00  0.00     0.027 A 
ENDBRANCH   8  10
ENDBRANCH   5   8
BRANCH   1  13
HETATM   13  C2  UNL     1      10.546  35.194  32.729  1.00  0.00     0.018 C 
HETATM   14  C1  UNL     1      10.592  36.303  31.701  1.00  0.00     0.013 C 
HETATM   15  C3  UNL     1       9.163  34.643  32.908  1.00  0.00     0.013 C 
ENDBRANCH   1  13
TORSDOF 3
ENDMDL
MODEL 2
REMARK VINA RESULT: -5.713890524      1.243      5.223
REMARK  3 active torsions:
REMARK  status: ('A' for Active; 'I' for Inactive)
REMARK    1  A    between atoms: C2_2  and  C4_4 
REMARK    2  A    between atoms: C5_8  and  N3_9 
REMARK    3  A    between atoms: N3_9  and  C6_11 
ROOT
HETATM    1  C4  UNL     1      13.884  35.836  35.767  1.00  0.00     0.202 C 
HETATM    2  N1  UNL     1      12.669  35.080  35.979  1.00  0.00    -0.113 NA
HETATM    3  N2  UNL     1      11.821  35.374  34.914  1.00  0.00    -0.273 N 
ATOM      4  H2  UNL     1      10.976  34.843  34.702  1.00  0.00     0.185 HD
HETATM    5  C5  UNL     1      12.219  36.386  34.227  1.00  0.00     0.188 C 
HETATM    6  N4  UNL     1      13.418  36.843  34.834  1.00  0.00    -0.341 N 
ATOM      7  H4  UNL     1      13.876  37.735  34.646  1.00  0.00     0.164 HD
ENDROOT
BRANCH   5   8
HETATM    8  N3  UNL     1      11.571  36.951  33.063  1.00  0.00    -0.357 N 
ATOM      9  H3  UNL     1      11.946  37.783  32.608  1.00  0.00     0.163 HD
BRANCH   8  10
HETATM   10  C6  UNL     1      10.390  36.311  32.568  1.00  0.00     0.084 A 
HETATM   11  C7  UNL     1      10.419  34.961  31.966  1.00  0.00     0.027 A 
HETATM   12  C8  UNL     1      10.357  36.177  31.049  1.00  0.00     0.027 A 
ENDBRANCH   8  10
ENDBRANCH   5   8
BRANCH   1  13
HETATM   13  C2  UNL     1      14.396  36.418  37.051  1.00  0.00     0.018 C 
HETATM   14  C1  UNL     1      13.591  35.832  38.191  1.00  0.00     0.013 C 
HETATM   15  C3  UNL     1      14.322  37.914  37.016  1.00  0.00     0.013 C 
ENDBRANCH   1  13
TORSDOF 3
ENDMDL
MODEL 3
REMARK VINA RESULT: -5.694731409      1.527      5.234
REMARK  3 active torsions:
REMARK  status: ('A' for Active; 'I' for Inactive)
REMARK    1  A    between atoms: C2_2  and  C4_4 
REMARK    2  A    between atoms: C5_8  and  N3_9 
REMARK    3  A    between atoms: N3_9  and  C6_11 
ROOT
HETATM    1  C4  UNL     1      13.935  35.750  35.558  1.00  0.00     0.202 C 
HETATM    2  N1  UNL     1      12.684  35.112  35.907  1.00  0.00    -0.113 NA
HETATM    3  N2  UNL     1      11.771  35.447  34.909  1.00  0.00    -0.273 N 
ATOM      4  H2  UNL     1      10.867  34.988  34.795  1.00  0.00     0.185 HD
HETATM    5  C5  UNL     1      12.189  36.397  34.150  1.00  0.00     0.188 C 
HETATM    6  N4  UNL     1      13.474  36.765  34.631  1.00  0.00    -0.341 N 
ATOM      7  H4  UNL     1      13.988  37.605  34.367  1.00  0.00     0.164 HD
ENDROOT
BRANCH   5   8
HETATM    8  N3  UNL     1      11.489  36.980  33.027  1.00  0.00    -0.357 N 
ATOM      9  H3  UNL     1      11.806  37.855  32.609  1.00  0.00     0.163 HD
BRANCH   8  10
HETATM   10  C6  UNL     1      10.339  36.298  32.517  1.00  0.00     0.084 A 
HETATM   11  C7  UNL     1      10.418  34.931  31.959  1.00  0.00     0.027 A 
HETATM   12  C8  UNL     1      10.355  36.117  31.003  1.00  0.00     0.027 A 
ENDBRANCH   8  10
ENDBRANCH   5   8
BRANCH   1  13
HETATM   13  C2  UNL     1      14.611  36.324  36.767  1.00  0.00     0.018 C 
HETATM   14  C1  UNL     1      16.062  35.895  36.747  1.00  0.00     0.013 C 
HETATM   15  C3  UNL     1      13.909  35.889  38.018  1.00  0.00     0.013 C 
ENDBRANCH   1  13
TORSDOF 3
ENDMDL
MODEL 4
REMARK VINA RESULT: -5.589873656      1.522      1.952
REMARK  3 active torsions:
REMARK  status: ('A' for Active; 'I' for Inactive)
REMARK    1  A    between atoms: C2_2  and  C4_4 
REMARK    2  A    between atoms: C5_8  and  N3_9 
REMARK    3  A    between atoms: N3_9  and  C6_11 
ROOT
HETATM    1  C4  UNL     1      10.880  36.047  33.992  1.00  0.00     0.202 C 
HETATM    2  N1  UNL     1      11.332  34.732  34.390  1.00  0.00    -0.113 NA
HETATM    3  N2  UNL     1      12.571  34.901  35.005  1.00  0.00    -0.273 N 
ATOM      4  H2  UNL     1      13.035  34.174  35.550  1.00  0.00     0.185 HD
HETATM    5  C5  UNL     1      13.065  36.073  34.812  1.00  0.00     0.188 C 
HETATM    6  N4  UNL     1      12.130  36.782  34.013  1.00  0.00    -0.341 N 
ATOM      7  H4  UNL     1      12.308  37.664  33.533  1.00  0.00     0.164 HD
ENDROOT
BRANCH   5   8
HETATM    8  N3  UNL     1      14.328  36.572  35.309  1.00  0.00    -0.357 N 
ATOM      9  H3  UNL     1      14.725  37.441  34.951  1.00  0.00     0.163 HD
BRANCH   8  10
HETATM   10  C6  UNL     1      15.007  35.815  36.316  1.00  0.00     0.084 A 
HETATM   11  C7  UNL     1      16.102  36.388  37.128  1.00  0.00     0.027 A 
HETATM   12  C8  UNL     1      16.450  35.474  35.959  1.00  0.00     0.027 A 
ENDBRANCH   8  10
ENDBRANCH   5   8
BRANCH   1  13
HETATM   13  C2  UNL     1      10.241  36.016  32.635  1.00  0.00     0.018 C 
HETATM   14  C1  UNL     1      10.268  34.590  32.130  1.00  0.00     0.013 C 
HETATM   15  C3  UNL     1      10.940  36.960  31.704  1.00  0.00     0.013 C 
ENDBRANCH   1  13
TORSDOF 3
ENDMDL
MODEL 5
REMARK VINA RESULT: -5.567522531      1.050      5.394
REMARK  3 active torsions:
REMARK  status: ('A' for Active; 'I' for Inactive)
REMARK    1  A    between atoms: C2_2  and  C4_4 
REMARK    2  A    between atoms: C5_8  and  N3_9 
REMARK    3  A    between atoms: N3_9  and  C6_11 
ROOT
HETATM    1  C4  UNL     1      14.145  36.528  35.576  1.00  0.00     0.202 C 
HETATM    2  N1  UNL     1      13.563  35.297  36.064  1.00  0.00    -0.113 NA
HETATM    3  N2  UNL     1      12.484  35.004  35.232  1.00  0.00    -0.273 N 
ATOM      4  H2  UNL     1      12.007  34.103  35.223  1.00  0.00     0.185 HD
HETATM    5  C5  UNL     1      12.156  35.993  34.479  1.00  0.00     0.188 C 
HETATM    6  N4  UNL     1      13.047  37.054  34.788  1.00  0.00    -0.341 N 
ATOM      7  H4  UNL     1      12.934  38.027  34.504  1.00  0.00     0.164 HD
ENDROOT
BRANCH   5   8
HETATM    8  N3  UNL     1      11.085  36.022  33.507  1.00  0.00    -0.357 N 
ATOM      9  H3  UNL     1      10.653  36.904  33.230  1.00  0.00     0.163 HD
BRANCH   8  10
HETATM   10  C6  UNL     1      10.648  34.782  32.942  1.00  0.00     0.084 A 
HETATM   11  C7  UNL     1      10.048  34.698  31.594  1.00  0.00     0.027 A 
HETATM   12  C8  UNL     1       9.133  34.667  32.813  1.00  0.00     0.027 A 
ENDBRANCH   8  10
ENDBRANCH   5   8
BRANCH   1  13
HETATM   13  C2  UNL     1      14.541  37.430  36.707  1.00  0.00     0.018 C 
HETATM   14  C1  UNL     1      14.048  36.816  37.998  1.00  0.00     0.013 C 
HETATM   15  C3  UNL     1      13.997  38.811  36.492  1.00  0.00     0.013 C 
ENDBRANCH   1  13
TORSDOF 3
ENDMDL
