MODEL 1
REMARK VINA RESULT: -4.685837342      0.000      0.000
REMARK  2 active torsions:
REMARK  status: ('A' for Active; 'I' for Inactive)
REMARK    1  A    between atoms: C2_2  and  N1_3 
REMARK    2  A    between atoms: N1_3  and  C3_5 
ROOT
HETATM    1  C3  UNL     1      11.108  35.628  34.772  1.00  0.00     0.103 C 
HETATM    2  C4  UNL     1      11.898  36.131  33.593  1.00  0.00     0.054 C 
HETATM    3  C5  UNL     1      13.113  36.931  34.032  1.00  0.00     0.237 C 
HETATM    4  N2  UNL     1      13.305  36.911  35.448  1.00  0.00    -0.041 N 
ATOM      5  H21 UNL     1      12.443  37.174  35.926  1.00  0.00     0.280 HD
ATOM      6  H22 UNL     1      13.907  37.684  35.734  1.00  0.00     0.280 HD
HETATM    7  C6  UNL     1      13.805  35.671  35.965  1.00  0.00     0.279 C 
HETATM    8  C7  UNL     1      13.582  35.672  37.459  1.00  0.00     0.078 C 
HETATM    9  C8  UNL     1      15.303  35.575  35.733  1.00  0.00     0.078 C 
HETATM   10  N3  UNL     1      13.232  34.509  35.326  1.00  0.00    -0.039 N 
ATOM     11  H31 UNL     1      13.664  33.657  35.680  1.00  0.00     0.280 HD
ATOM     12  H32 UNL     1      13.523  34.459  34.349  1.00  0.00     0.280 HD
HETATM   13  C9  UNL     1      11.809  34.426  35.427  1.00  0.00     0.260 C 
ENDROOT
BRANCH   1  14
HETATM   14  N1  UNL     1       9.847  35.141  34.314  1.00  0.00    -0.416 N 
ATOM     15  H1  UNL     1       9.259  34.551  34.903  1.00  0.00     0.153 HD
BRANCH  14  16
HETATM   16  C2  UNL     1       9.445  35.515  33.002  1.00  0.00     0.110 C 
HETATM   17  C1  UNL     1       8.835  34.258  32.361  1.00  0.00     0.026 C 
ENDBRANCH  14  16
ENDBRANCH   1  14
TORSDOF 2
ENDMDL
MODEL 2
REMARK VINA RESULT: -4.588417254      3.516      6.202
REMARK  2 active torsions:
REMARK  status: ('A' for Active; 'I' for Inactive)
REMARK    1  A    between atoms: C2_2  and  N1_3 
REMARK    2  A    between atoms: N1_3  and  C3_5 
ROOT
HETATM    1  C3  UNL     1      15.359  38.515  38.192  1.00  0.00     0.103 C 
HETATM    2  C4  UNL     1      14.008  38.898  37.651  1.00  0.00     0.054 C 
HETATM    3  C5  UNL     1      13.790  38.354  36.249  1.00  0.00     0.237 C 
HETATM    4  N2  UNL     1      14.849  37.499  35.817  1.00  0.00    -0.041 N 
ATOM      5  H21 UNL     1      15.751  37.959  35.947  1.00  0.00     0.280 HD
ATOM      6  H22 UNL     1      14.842  37.411  34.801  1.00  0.00     0.280 HD
HETATM    7  C6  UNL     1      14.858  36.203  36.430  1.00  0.00     0.279 C 
HETATM    8  C7  UNL     1      16.214  35.586  36.184  1.00  0.00     0.078 C 
HETATM    9  C8  UNL     1      13.827  35.306  35.768  1.00  0.00     0.078 C 
HETATM   10  N3  UNL     1      14.514  36.229  37.834  1.00  0.00    -0.039 N 
ATOM     11  H31 UNL     1      14.470  35.282  38.208  1.00  0.00     0.280 HD
ATOM     12  H32 UNL     1      13.541  36.510  37.957  1.00  0.00     0.280 HD
HETATM   13  C9  UNL     1      15.375  37.042  38.633  1.00  0.00     0.260 C 
ENDROOT
BRANCH   1  14
HETATM   14  N1  UNL     1      15.623  39.278  39.369  1.00  0.00    -0.416 N 
ATOM     15  H1  UNL     1      16.074  38.861  40.183  1.00  0.00     0.153 HD
BRANCH  14  16
HETATM   16  C2  UNL     1      15.229  40.644  39.358  1.00  0.00     0.110 C 
HETATM   17  C1  UNL     1      14.977  41.034  40.824  1.00  0.00     0.026 C 
ENDBRANCH  14  16
ENDBRANCH   1  14
TORSDOF 2
ENDMDL
MODEL 3
REMARK VINA RESULT: -4.565083223      2.581      3.883
REMARK  2 active torsions:
REMARK  status: ('A' for Active; 'I' for Inactive)
REMARK    1  A    between atoms: C2_2  and  N1_3 
REMARK    2  A    between atoms: N1_3  and  C3_5 
ROOT
HETATM    1  C3  UNL     1      14.086  37.176  35.401  1.00  0.00     0.103 C 
HETATM    2  C4  UNL     1      14.289  35.960  36.264  1.00  0.00     0.054 C 
HETATM    3  C5  UNL     1      15.605  36.021  37.020  1.00  0.00     0.237 C 
HETATM    4  N2  UNL     1      16.284  37.266  36.849  1.00  0.00    -0.041 N 
ATOM      5  H21 UNL     1      16.366  37.491  35.857  1.00  0.00     0.280 HD
ATOM      6  H22 UNL     1      17.270  37.169  37.089  1.00  0.00     0.280 HD
HETATM    7  C6  UNL     1      15.703  38.366  37.563  1.00  0.00     0.279 C 
HETATM    8  C7  UNL     1      16.269  39.641  36.985  1.00  0.00     0.078 C 
HETATM    9  C8  UNL     1      16.112  38.313  39.024  1.00  0.00     0.078 C 
HETATM   10  N3  UNL     1      14.258  38.355  37.557  1.00  0.00    -0.039 N 
ATOM     11  H31 UNL     1      13.893  39.116  38.130  1.00  0.00     0.280 HD
ATOM     12  H32 UNL     1      13.905  37.556  38.085  1.00  0.00     0.280 HD
HETATM   13  C9  UNL     1      13.676  38.389  36.253  1.00  0.00     0.260 C 
ENDROOT
BRANCH   1  14
HETATM   14  N1  UNL     1      12.997  36.940  34.510  1.00  0.00    -0.416 N 
ATOM     15  H1  UNL     1      12.788  37.579  33.744  1.00  0.00     0.153 HD
BRANCH  14  16
HETATM   16  C2  UNL     1      12.216  35.773  34.736  1.00  0.00     0.110 C 
HETATM   17  C1  UNL     1      11.090  35.795  33.689  1.00  0.00     0.026 C 
ENDBRANCH  14  16
ENDBRANCH   1  14
TORSDOF 2
ENDMDL
MODEL 4
REMARK VINA RESULT: -4.476943907      4.155      6.580
REMARK  2 active torsions:
REMARK  status: ('A' for Active; 'I' for Inactive)
REMARK    1  A    between atoms: C2_2  and  N1_3 
REMARK    2  A    between atoms: N1_3  and  C3_5 
ROOT
HETATM    1  C3  UNL     1      17.131  35.673  36.848  1.00  0.00     0.103 C 
HETATM    2  C4  UNL     1      16.011  35.536  35.852  1.00  0.00     0.054 C 
HETATM    3  C5  UNL     1      14.665  35.878  36.470  1.00  0.00     0.237 C 
HETATM    4  N2  UNL     1      14.781  36.378  37.803  1.00  0.00    -0.041 N 
ATOM      5  H21 UNL     1      15.347  35.746  38.370  1.00  0.00     0.280 HD
ATOM      6  H22 UNL     1      13.888  36.298  38.291  1.00  0.00     0.280 HD
HETATM    7  C6  UNL     1      15.282  37.718  37.897  1.00  0.00     0.279 C 
HETATM    8  C7  UNL     1      15.711  37.950  39.327  1.00  0.00     0.078 C 
HETATM    9  C8  UNL     1      14.175  38.711  37.592  1.00  0.00     0.078 C 
HETATM   10  N3  UNL     1      16.338  38.003  36.954  1.00  0.00    -0.039 N 
ATOM     11  H31 UNL     1      16.615  38.983  37.014  1.00  0.00     0.280 HD
ATOM     12  H32 UNL     1      15.979  37.983  35.999  1.00  0.00     0.280 HD
HETATM   13  C9  UNL     1      17.480  37.153  37.077  1.00  0.00     0.260 C 
ENDROOT
BRANCH   1  14
HETATM   14  N1  UNL     1      18.309  35.074  36.309  1.00  0.00    -0.416 N 
ATOM     15  H1  UNL     1      18.364  34.795  35.330  1.00  0.00     0.153 HD
BRANCH  14  16
HETATM   16  C2  UNL     1      19.403  34.882  37.198  1.00  0.00     0.110 C 
HETATM   17  C1  UNL     1      19.635  33.364  37.278  1.00  0.00     0.026 C 
ENDBRANCH  14  16
ENDBRANCH   1  14
TORSDOF 2
ENDMDL
MODEL 5
REMARK VINA RESULT: -4.473922078      3.018      4.763
REMARK  2 active torsions:
REMARK  status: ('A' for Active; 'I' for Inactive)
REMARK    1  A    between atoms: C2_2  and  N1_3 
REMARK    2  A    between atoms: N1_3  and  C3_5 
ROOT
HETATM    1  C3  UNL     1      14.851  36.575  36.673  1.00  0.00     0.103 C 
HETATM    2  C4  UNL     1      14.703  36.227  38.130  1.00  0.00     0.054 C 
HETATM    3  C5  UNL     1      15.548  37.131  39.012  1.00  0.00     0.237 C 
HETATM    4  N2  UNL     1      16.181  38.182  38.280  1.00  0.00    -0.041 N 
ATOM      5  H21 UNL     1      16.682  37.802  37.477  1.00  0.00     0.280 HD
ATOM      6  H22 UNL     1      16.964  38.562  38.812  1.00  0.00     0.280 HD
HETATM    7  C6  UNL     1      15.301  39.235  37.867  1.00  0.00     0.279 C 
HETATM    8  C7  UNL     1      16.010  40.037  36.802  1.00  0.00     0.078 C 
HETATM    9  C8  UNL     1      15.026  40.173  39.030  1.00  0.00     0.078 C 
HETATM   10  N3  UNL     1      14.007  38.763  37.428  1.00  0.00    -0.039 N 
ATOM     11  H31 UNL     1      13.397  39.550  37.207  1.00  0.00     0.280 HD
ATOM     12  H32 UNL     1      13.492  38.357  38.209  1.00  0.00     0.280 HD
HETATM   13  C9  UNL     1      14.059  37.848  36.332  1.00  0.00     0.260 C 
ENDROOT
BRANCH   1  14
HETATM   14  N1  UNL     1      14.276  35.534  35.885  1.00  0.00    -0.416 N 
ATOM     15  H1  UNL     1      14.707  34.612  35.826  1.00  0.00     0.153 HD
BRANCH  14  16
HETATM   16  C2  UNL     1      13.076  35.838  35.185  1.00  0.00     0.110 C 
HETATM   17  C1  UNL     1      12.245  34.545  35.168  1.00  0.00     0.026 C 
ENDBRANCH  14  16
ENDBRANCH   1  14
TORSDOF 2
ENDMDL
