MODEL 1
REMARK VINA RESULT: -5.679969284      0.000      0.000
REMARK  2 active torsions:
REMARK  status: ('A' for Active; 'I' for Inactive)
REMARK    1  A    between atoms: C4_4  and  N1_5 
REMARK    2  A    between atoms: N1_5  and  C5_7 
ROOT
HETATM    1  C1  UNL     1      10.061  34.816  32.169  1.00  0.00     0.000 C 
HETATM    2  C2  UNL     1      11.086  34.372  33.208  1.00  0.00     0.002 C 
HETATM    3  C3  UNL     1      10.948  35.449  34.307  1.00  0.00     0.025 C 
HETATM    4  C4  UNL     1      11.519  36.700  33.812  1.00  0.00     0.079 C 
HETATM    5  C7  UNL     1      11.274  37.028  32.368  1.00  0.00     0.025 C 
HETATM    6  C8  UNL     1      10.667  36.017  31.504  1.00  0.00     0.002 C 
ENDROOT
BRANCH   4   7
HETATM    7  N1  UNL     1      12.866  36.909  34.216  1.00  0.00    -0.391 N 
ATOM      8  H1  UNL     1      13.618  36.678  33.567  1.00  0.00     0.156 HD
BRANCH   7   9
HETATM    9  C5  UNL     1      13.191  37.421  35.472  1.00  0.00     0.240 A 
HETATM   10  C6  UNL     1      14.234  38.280  35.936  1.00  0.00     0.223 A 
HETATM   11  O1  UNL     1      12.919  38.767  35.813  1.00  0.00    -0.361 OA
ENDBRANCH   7   9
ENDBRANCH   4   7
TORSDOF 2
ENDMDL
MODEL 2
REMARK VINA RESULT: -5.351916834      0.886      1.786
REMARK  2 active torsions:
REMARK  status: ('A' for Active; 'I' for Inactive)
REMARK    1  A    between atoms: C4_4  and  N1_5 
REMARK    2  A    between atoms: N1_5  and  C5_7 
ROOT
HETATM    1  C1  UNL     1      10.376  35.103  32.540  1.00  0.00     0.000 C 
HETATM    2  C2  UNL     1      10.617  36.602  32.391  1.00  0.00     0.002 C 
HETATM    3  C3  UNL     1      12.134  36.731  32.653  1.00  0.00     0.025 C 
HETATM    4  C4  UNL     1      12.385  36.509  34.076  1.00  0.00     0.079 C 
HETATM    5  C7  UNL     1      11.571  35.441  34.745  1.00  0.00     0.025 C 
HETATM    6  C8  UNL     1      10.460  34.833  34.013  1.00  0.00     0.002 C 
ENDROOT
BRANCH   4   7
HETATM    7  N1  UNL     1      12.470  37.709  34.833  1.00  0.00    -0.391 N 
ATOM      8  H1  UNL     1      11.879  38.499  34.575  1.00  0.00     0.156 HD
BRANCH   7   9
HETATM    9  C5  UNL     1      13.338  37.840  35.917  1.00  0.00     0.240 A 
HETATM   10  C6  UNL     1      14.404  38.745  36.210  1.00  0.00     0.223 A 
HETATM   11  O1  UNL     1      13.170  38.869  36.875  1.00  0.00    -0.361 OA
ENDBRANCH   7   9
ENDBRANCH   4   7
TORSDOF 2
ENDMDL
MODEL 3
REMARK VINA RESULT: -4.760988696      2.651      6.149
REMARK  2 active torsions:
REMARK  status: ('A' for Active; 'I' for Inactive)
REMARK    1  A    between atoms: C4_4  and  N1_5 
REMARK    2  A    between atoms: N1_5  and  C5_7 
ROOT
HETATM    1  C1  UNL     1      16.554  38.928  38.519  1.00  0.00     0.000 C 
HETATM    2  C2  UNL     1      16.560  39.272  37.032  1.00  0.00     0.002 C 
HETATM    3  C3  UNL     1      15.265  40.098  36.868  1.00  0.00     0.025 C 
HETATM    4  C4  UNL     1      14.118  39.200  36.981  1.00  0.00     0.079 C 
HETATM    5  C7  UNL     1      14.216  38.108  38.005  1.00  0.00     0.025 C 
HETATM    6  C8  UNL     1      15.493  37.878  38.677  1.00  0.00     0.002 C 
ENDROOT
BRANCH   4   7
HETATM    7  N1  UNL     1      13.619  38.753  35.726  1.00  0.00    -0.391 N 
ATOM      8  H1  UNL     1      13.234  39.438  35.076  1.00  0.00     0.156 HD
BRANCH   7   9
HETATM    9  C5  UNL     1      13.641  37.408  35.358  1.00  0.00     0.240 A 
HETATM   10  C6  UNL     1      12.685  36.554  34.728  1.00  0.00     0.223 A 
HETATM   11  O1  UNL     1      13.802  37.016  34.007  1.00  0.00    -0.361 OA
ENDBRANCH   7   9
ENDBRANCH   4   7
TORSDOF 2
ENDMDL
MODEL 4
REMARK VINA RESULT: -4.566974904      4.439      7.981
REMARK  2 active torsions:
REMARK  status: ('A' for Active; 'I' for Inactive)
REMARK    1  A    between atoms: C4_4  and  N1_5 
REMARK    2  A    between atoms: N1_5  and  C5_7 
ROOT
HETATM    1  C1  UNL     1      16.084  40.326  41.536  1.00  0.00     0.000 C 
HETATM    2  C2  UNL     1      15.922  39.121  40.614  1.00  0.00     0.002 C 
HETATM    3  C3  UNL     1      16.184  39.725  39.216  1.00  0.00     0.025 C 
HETATM    4  C4  UNL     1      15.046  40.563  38.846  1.00  0.00     0.079 C 
HETATM    5  C7  UNL     1      14.428  41.382  39.940  1.00  0.00     0.025 C 
HETATM    6  C8  UNL     1      14.852  41.157  41.321  1.00  0.00     0.002 C 
ENDROOT
BRANCH   4   7
HETATM    7  N1  UNL     1      14.089  39.895  38.033  1.00  0.00    -0.391 N 
ATOM      8  H1  UNL     1      13.137  39.783  38.381  1.00  0.00     0.156 HD
BRANCH   7   9
HETATM    9  C5  UNL     1      14.412  39.389  36.774  1.00  0.00     0.240 A 
HETATM   10  C6  UNL     1      14.081  38.175  36.097  1.00  0.00     0.223 A 
HETATM   11  O1  UNL     1      13.471  39.386  35.717  1.00  0.00    -0.361 OA
ENDBRANCH   7   9
ENDBRANCH   4   7
TORSDOF 2
ENDMDL
MODEL 5
REMARK VINA RESULT: -4.554160876      2.297      5.879
REMARK  2 active torsions:
REMARK  status: ('A' for Active; 'I' for Inactive)
REMARK    1  A    between atoms: C4_4  and  N1_5 
REMARK    2  A    between atoms: N1_5  and  C5_7 
ROOT
HETATM    1  C1  UNL     1      15.536  39.909  38.339  1.00  0.00     0.000 C 
HETATM    2  C2  UNL     1      16.159  39.701  36.962  1.00  0.00     0.002 C 
HETATM    3  C3  UNL     1      14.940  39.797  36.018  1.00  0.00     0.025 C 
HETATM    4  C4  UNL     1      14.123  38.596  36.182  1.00  0.00     0.079 C 
HETATM    5  C7  UNL     1      13.983  38.061  37.577  1.00  0.00     0.025 C 
HETATM    6  C8  UNL     1      14.808  38.632  38.641  1.00  0.00     0.002 C 
ENDROOT
BRANCH   4   7
HETATM    7  N1  UNL     1      14.395  37.588  35.216  1.00  0.00    -0.391 N 
ATOM      8  H1  UNL     1      15.348  37.238  35.122  1.00  0.00     0.156 HD
BRANCH   7   9
HETATM    9  C5  UNL     1      13.398  37.062  34.395  1.00  0.00     0.240 A 
HETATM   10  C6  UNL     1      12.364  36.100  34.610  1.00  0.00     0.223 A 
HETATM   11  O1  UNL     1      12.048  37.469  34.521  1.00  0.00    -0.361 OA
ENDBRANCH   7   9
ENDBRANCH   4   7
TORSDOF 2
ENDMDL
