MODEL 1
REMARK VINA RESULT: -8.461275873      0.000      0.000
REMARK  12 active torsions:
REMARK  status: ('A' for Active; 'I' for Inactive)
REMARK    1  A    between atoms: C2_2  and  C3_3 
REMARK    2  A    between atoms: C3_3  and  C4_4 
REMARK    3  A    between atoms: C3_3  and  C26_37 
REMARK    4  A    between atoms: C4_4  and  N1_5 
REMARK    5  A    between atoms: N1_5  and  C5_6 
REMARK    6  A    between atoms: N1_5  and  C23_34 
REMARK    7  A    between atoms: C5_6  and  O1_7 
REMARK       I    between atoms: N2_16  and  C13_17 
REMARK    8  A    between atoms: C13_17  and  C14_19 
REMARK    9  A    between atoms: C14_19  and  N3_20 
REMARK   10  A    between atoms: C14_19  and  C19_30 
REMARK       I    between atoms: N3_20  and  C15_22 
REMARK   11  A    between atoms: C15_22  and  C16_24 
REMARK   12  A    between atoms: C16_24  and  N4_26 
ROOT
HETATM    1  C5  UNL     1       8.005  26.677   4.806  1.00  0.00     0.162 C 
HETATM    2  C6  UNL     1       7.158  27.348   5.702  1.00  0.00     0.070 C 
HETATM    3  C7  UNL     1       7.799  27.910   6.972  1.00  0.00     0.046 C 
HETATM    4  C8  UNL     1       9.162  27.525   7.295  1.00  0.00     0.011 C 
HETATM    5  C9  UNL     1       9.179  26.495   8.410  1.00  0.00     0.001 C 
HETATM    6  C10 UNL     1       7.801  26.481   8.954  1.00  0.00     0.007 C 
HETATM    7  C11 UNL     1       6.977  27.391   8.121  1.00  0.00     0.014 C 
HETATM    8  C12 UNL     1       5.845  26.599   7.523  1.00  0.00     0.137 C 
HETATM    9  N2  UNL     1       5.831  26.989   6.101  1.00  0.00    -0.315 N 
HETATM   10  C13 UNL     1       4.598  27.043   5.394  1.00  0.00     0.247 C 
HETATM   11  O2  UNL     1       4.669  27.431   4.162  1.00  0.00    -0.271 OA
ENDROOT
BRANCH   1  12
HETATM   12  N1  UNL     1       8.345  25.485   4.183  1.00  0.00    -0.356 N 
BRANCH  12  13
HETATM   13  C4  UNL     1       9.754  25.086   4.105  1.00  0.00     0.136 C 
BRANCH  13  14
HETATM   14  C3  UNL     1      10.370  24.549   5.328  1.00  0.00     0.061 C 
BRANCH  14  15
HETATM   15  C2  UNL     1       9.529  23.766   6.268  1.00  0.00     0.008 C 
HETATM   16  C1  UNL     1      10.461  23.388   7.444  1.00  0.00     0.006 C 
ENDBRANCH  14  15
BRANCH  14  17
HETATM   17  C26 UNL     1      11.640  23.795   5.004  1.00  0.00     0.059 A 
HETATM   18  C27 UNL     1      11.810  22.949   3.909  1.00  0.00     0.043 A 
HETATM   19  C28 UNL     1      13.091  22.454   3.953  1.00  0.00    -0.021 A 
HETATM   20  C29 UNL     1      13.652  23.020   5.080  1.00  0.00     0.083 A 
HETATM   21  C33 UNL     1      13.948  21.538   3.165  1.00  0.00     0.073 C 
HETATM   22  O4  UNL     1      12.761  23.790   5.649  1.00  0.00    -0.316 OA
HETATM   23  C30 UNL     1      15.037  22.692   5.422  1.00  0.00     0.233 C 
HETATM   24  O5  UNL     1      15.559  21.568   4.865  1.00  0.00    -0.380 OA
HETATM   25  C31 UNL     1      14.711  20.718   4.217  1.00  0.00     0.122 C 
HETATM   26  C32 UNL     1      15.445  19.569   3.612  1.00  0.00     0.040 C 
ENDBRANCH  14  17
ENDBRANCH  13  14
ENDBRANCH  12  13
BRANCH  12  27
HETATM   27  C23 UNL     1       7.465  24.563   3.527  1.00  0.00     0.078 C 
HETATM   28  C24 UNL     1       6.342  25.082   2.740  1.00  0.00     0.032 C 
HETATM   29  C25 UNL     1       8.278  23.480   2.779  1.00  0.00     0.032 C 
ENDBRANCH  12  27
ENDBRANCH   1  12
BRANCH   1  30
HETATM   30  O1  UNL     1       8.925  27.582   4.307  1.00  0.00    -0.345 OA
ATOM     31  H1  UNL     1       9.381  27.890   5.082  1.00  0.00     0.219 HD
ENDBRANCH   1  30
BRANCH  10  32
HETATM   32  C14 UNL     1       3.254  26.739   5.846  1.00  0.00     0.184 C 
BRANCH  32  33
HETATM   33  N3  UNL     1       2.461  27.975   5.744  1.00  0.00    -0.345 N 
HETATM   34  C15 UNL     1       2.292  28.768   6.883  1.00  0.00     0.248 C 
HETATM   35  O3  UNL     1       2.811  28.446   8.000  1.00  0.00    -0.271 OA
ATOM     36  H3  UNL     1       2.041  28.249   4.856  1.00  0.00     0.163 HD
BRANCH  34  37
HETATM   37  C16 UNL     1       1.496  30.012   6.798  1.00  0.00     0.272 C 
HETATM   38  C17 UNL     1       1.003  30.252   5.380  1.00  0.00     0.050 C 
BRANCH  37  39
HETATM   39  N4  UNL     1       2.326  31.114   7.247  1.00  0.00    -0.067 N 
HETATM   40  C18 UNL     1       3.307  31.499   6.281  1.00  0.00     0.267 C 
ATOM     41  H42 UNL     1       1.754  31.911   7.526  1.00  0.00     0.277 HD
ATOM     42  H41 UNL     1       2.761  30.900   8.145  1.00  0.00     0.277 HD
ENDBRANCH  37  39
ENDBRANCH  34  37
ENDBRANCH  32  33
BRANCH  32  43
HETATM   43  C19 UNL     1       2.490  25.663   5.142  1.00  0.00    -0.022 C 
HETATM   44  C20 UNL     1       3.191  24.376   4.922  1.00  0.00     0.017 C 
HETATM   45  C21 UNL     1       1.916  26.191   3.812  1.00  0.00     0.017 C 
HETATM   46  C22 UNL     1       1.227  25.330   5.965  1.00  0.00     0.017 C 
ENDBRANCH  32  43
ENDBRANCH  10  32
TORSDOF 12
ENDMDL
MODEL 2
REMARK VINA RESULT: -8.432894664      1.433      1.764
REMARK  12 active torsions:
REMARK  status: ('A' for Active; 'I' for Inactive)
REMARK    1  A    between atoms: C2_2  and  C3_3 
REMARK    2  A    between atoms: C3_3  and  C4_4 
REMARK    3  A    between atoms: C3_3  and  C26_37 
REMARK    4  A    between atoms: C4_4  and  N1_5 
REMARK    5  A    between atoms: N1_5  and  C5_6 
REMARK    6  A    between atoms: N1_5  and  C23_34 
REMARK    7  A    between atoms: C5_6  and  O1_7 
REMARK       I    between atoms: N2_16  and  C13_17 
REMARK    8  A    between atoms: C13_17  and  C14_19 
REMARK    9  A    between atoms: C14_19  and  N3_20 
REMARK   10  A    between atoms: C14_19  and  C19_30 
REMARK       I    between atoms: N3_20  and  C15_22 
REMARK   11  A    between atoms: C15_22  and  C16_24 
REMARK   12  A    between atoms: C16_24  and  N4_26 
ROOT
HETATM    1  C5  UNL     1       9.428  25.539   5.125  1.00  0.00     0.162 C 
HETATM    2  C6  UNL     1       8.510  26.404   5.742  1.00  0.00     0.070 C 
HETATM    3  C7  UNL     1       8.942  27.047   7.060  1.00  0.00     0.046 C 
HETATM    4  C8  UNL     1      10.145  26.560   7.713  1.00  0.00     0.011 C 
HETATM    5  C9  UNL     1       9.795  25.680   8.899  1.00  0.00     0.001 C 
HETATM    6  C10 UNL     1       8.344  25.884   9.124  1.00  0.00     0.007 C 
HETATM    7  C11 UNL     1       7.839  26.767   8.045  1.00  0.00     0.014 C 
HETATM    8  C12 UNL     1       6.761  26.035   7.292  1.00  0.00     0.137 C 
HETATM    9  N2  UNL     1       7.094  26.244   5.871  1.00  0.00    -0.315 N 
HETATM   10  C13 UNL     1       6.052  26.343   4.908  1.00  0.00     0.247 C 
HETATM   11  O2  UNL     1       6.427  26.564   3.690  1.00  0.00    -0.271 OA
ENDROOT
BRANCH   1  12
HETATM   12  N1  UNL     1       9.727  24.249   4.713  1.00  0.00    -0.356 N 
BRANCH  12  13
HETATM   13  C4  UNL     1      10.567  23.395   5.561  1.00  0.00     0.136 C 
BRANCH  13  14
HETATM   14  C3  UNL     1      11.959  23.819   5.772  1.00  0.00     0.061 C 
BRANCH  14  15
HETATM   15  C2  UNL     1      12.395  24.185   7.143  1.00  0.00     0.008 C 
HETATM   16  C1  UNL     1      12.093  22.946   8.021  1.00  0.00     0.006 C 
ENDBRANCH  14  15
BRANCH  14  17
HETATM   17  C26 UNL     1      12.922  22.826   5.160  1.00  0.00     0.059 A 
HETATM   18  C27 UNL     1      12.811  22.293   3.876  1.00  0.00     0.043 A 
HETATM   19  C28 UNL     1      13.867  21.435   3.684  1.00  0.00    -0.021 A 
HETATM   20  C29 UNL     1      14.581  21.479   4.865  1.00  0.00     0.083 A 
HETATM   21  C33 UNL     1      14.386  20.544   2.620  1.00  0.00     0.073 C 
HETATM   22  O4  UNL     1      13.982  22.304   5.684  1.00  0.00    -0.316 OA
HETATM   23  C30 UNL     1      15.789  20.662   4.992  1.00  0.00     0.233 C 
HETATM   24  O5  UNL     1      15.923  19.623   4.127  1.00  0.00    -0.380 OA
HETATM   25  C31 UNL     1      14.848  19.280   3.361  1.00  0.00     0.122 C 
HETATM   26  C32 UNL     1      15.175  18.166   2.425  1.00  0.00     0.040 C 
ENDBRANCH  14  17
ENDBRANCH  13  14
ENDBRANCH  12  13
BRANCH  12  27
HETATM   27  C23 UNL     1       9.349  23.617   3.483  1.00  0.00     0.078 C 
HETATM   28  C24 UNL     1       7.927  23.505   3.145  1.00  0.00     0.032 C 
HETATM   29  C25 UNL     1      10.209  24.151   2.314  1.00  0.00     0.032 C 
ENDBRANCH  12  27
ENDBRANCH   1  12
BRANCH   1  30
HETATM   30  O1  UNL     1      10.543  26.269   4.756  1.00  0.00    -0.345 OA
ATOM     31  H1  UNL     1      10.183  27.099   4.467  1.00  0.00     0.219 HD
ENDBRANCH   1  30
BRANCH  10  32
HETATM   32  C14 UNL     1       4.615  26.246   5.079  1.00  0.00     0.184 C 
BRANCH  32  33
HETATM   33  N3  UNL     1       4.061  27.604   4.959  1.00  0.00    -0.345 N 
HETATM   34  C15 UNL     1       3.640  28.269   6.115  1.00  0.00     0.248 C 
HETATM   35  O3  UNL     1       3.731  27.726   7.264  1.00  0.00    -0.271 OA
ATOM     36  H3  UNL     1       3.984  28.053   4.047  1.00  0.00     0.163 HD
BRANCH  34  37
HETATM   37  C16 UNL     1       3.078  29.633   6.013  1.00  0.00     0.272 C 
HETATM   38  C17 UNL     1       2.535  29.898   4.618  1.00  0.00     0.050 C 
BRANCH  37  39
HETATM   39  N4  UNL     1       4.123  30.581   6.346  1.00  0.00    -0.067 N 
HETATM   40  C18 UNL     1       3.625  31.906   6.556  1.00  0.00     0.267 C 
ATOM     41  H42 UNL     1       4.663  30.262   7.151  1.00  0.00     0.277 HD
ATOM     42  H41 UNL     1       4.860  30.576   5.640  1.00  0.00     0.277 HD
ENDBRANCH  37  39
ENDBRANCH  34  37
ENDBRANCH  32  33
BRANCH  32  43
HETATM   43  C19 UNL     1       3.842  25.368   4.146  1.00  0.00    -0.022 C 
HETATM   44  C20 UNL     1       4.517  24.139   3.668  1.00  0.00     0.017 C 
HETATM   45  C21 UNL     1       3.314  26.185   2.950  1.00  0.00     0.017 C 
HETATM   46  C22 UNL     1       2.552  24.903   4.855  1.00  0.00     0.017 C 
ENDBRANCH  32  43
ENDBRANCH  10  32
TORSDOF 12
ENDMDL
MODEL 3
REMARK VINA RESULT: -8.407898743      2.650      4.140
REMARK  12 active torsions:
REMARK  status: ('A' for Active; 'I' for Inactive)
REMARK    1  A    between atoms: C2_2  and  C3_3 
REMARK    2  A    between atoms: C3_3  and  C4_4 
REMARK    3  A    between atoms: C3_3  and  C26_37 
REMARK    4  A    between atoms: C4_4  and  N1_5 
REMARK    5  A    between atoms: N1_5  and  C5_6 
REMARK    6  A    between atoms: N1_5  and  C23_34 
REMARK    7  A    between atoms: C5_6  and  O1_7 
REMARK       I    between atoms: N2_16  and  C13_17 
REMARK    8  A    between atoms: C13_17  and  C14_19 
REMARK    9  A    between atoms: C14_19  and  N3_20 
REMARK   10  A    between atoms: C14_19  and  C19_30 
REMARK       I    between atoms: N3_20  and  C15_22 
REMARK   11  A    between atoms: C15_22  and  C16_24 
REMARK   12  A    between atoms: C16_24  and  N4_26 
ROOT
HETATM    1  C5  UNL     1       7.960  26.339   4.479  1.00  0.00     0.162 C 
HETATM    2  C6  UNL     1       6.671  26.894   4.481  1.00  0.00     0.070 C 
HETATM    3  C7  UNL     1       6.326  27.842   5.630  1.00  0.00     0.046 C 
HETATM    4  C8  UNL     1       7.236  27.930   6.759  1.00  0.00     0.011 C 
HETATM    5  C9  UNL     1       6.685  27.175   7.955  1.00  0.00     0.001 C 
HETATM    6  C10 UNL     1       5.277  26.868   7.611  1.00  0.00     0.007 C 
HETATM    7  C11 UNL     1       5.039  27.333   6.223  1.00  0.00     0.014 C 
HETATM    8  C12 UNL     1       4.614  26.154   5.389  1.00  0.00     0.137 C 
HETATM    9  N2  UNL     1       5.431  26.252   4.165  1.00  0.00    -0.315 N 
HETATM   10  C13 UNL     1       4.896  25.818   2.921  1.00  0.00     0.247 C 
HETATM   11  O2  UNL     1       5.662  25.973   1.891  1.00  0.00    -0.271 OA
ENDROOT
BRANCH   1  12
HETATM   12  N1  UNL     1       8.746  25.200   4.573  1.00  0.00    -0.356 N 
BRANCH  12  13
HETATM   13  C4  UNL     1       8.921  24.547   5.875  1.00  0.00     0.136 C 
BRANCH  13  14
HETATM   14  C3  UNL     1       9.944  25.103   6.773  1.00  0.00     0.061 C 
BRANCH  14  15
HETATM   15  C2  UNL     1       9.576  25.399   8.181  1.00  0.00     0.008 C 
HETATM   16  C1  UNL     1      10.362  26.679   8.555  1.00  0.00     0.006 C 
ENDBRANCH  14  15
BRANCH  14  17
HETATM   17  C26 UNL     1      11.210  24.275   6.723  1.00  0.00     0.059 A 
HETATM   18  C27 UNL     1      11.650  23.426   7.737  1.00  0.00     0.043 A 
HETATM   19  C28 UNL     1      12.829  22.853   7.324  1.00  0.00    -0.021 A 
HETATM   20  C29 UNL     1      13.060  23.380   6.069  1.00  0.00     0.083 A 
HETATM   21  C33 UNL     1      13.833  21.896   7.844  1.00  0.00     0.073 C 
HETATM   22  O4  UNL     1      12.085  24.200   5.774  1.00  0.00    -0.316 OA
HETATM   23  C30 UNL     1      14.259  22.967   5.338  1.00  0.00     0.233 C 
HETATM   24  O5  UNL     1      15.266  22.417   6.067  1.00  0.00    -0.380 OA
HETATM   25  C31 UNL     1      15.188  22.489   7.427  1.00  0.00     0.122 C 
HETATM   26  C32 UNL     1      16.334  21.789   8.078  1.00  0.00     0.040 C 
ENDBRANCH  14  17
ENDBRANCH  13  14
ENDBRANCH  12  13
BRANCH  12  27
HETATM   27  C23 UNL     1       9.489  24.565   3.525  1.00  0.00     0.078 C 
HETATM   28  C24 UNL     1       9.667  23.110   3.554  1.00  0.00     0.032 C 
HETATM   29  C25 UNL     1       9.031  25.090   2.143  1.00  0.00     0.032 C 
ENDBRANCH  12  27
ENDBRANCH   1  12
BRANCH   1  30
HETATM   30  O1  UNL     1       8.879  27.359   4.318  1.00  0.00    -0.345 OA
ATOM     31  H1  UNL     1       9.581  27.128   4.915  1.00  0.00     0.219 HD
ENDBRANCH   1  30
BRANCH  10  32
HETATM   32  C14 UNL     1       3.604  25.232   2.619  1.00  0.00     0.184 C 
BRANCH  32  33
HETATM   33  N3  UNL     1       3.370  25.393   1.175  1.00  0.00    -0.345 N 
HETATM   34  C15 UNL     1       2.572  26.451   0.731  1.00  0.00     0.248 C 
HETATM   35  O3  UNL     1       2.049  27.277   1.547  1.00  0.00    -0.271 OA
ATOM     36  H3  UNL     1       3.784  24.742   0.508  1.00  0.00     0.163 HD
BRANCH  34  37
HETATM   37  C16 UNL     1       2.325  26.626  -0.717  1.00  0.00     0.272 C 
HETATM   38  C17 UNL     1       0.878  26.317  -1.066  1.00  0.00     0.050 C 
BRANCH  37  39
HETATM   39  N4  UNL     1       3.226  25.750  -1.441  1.00  0.00    -0.067 N 
HETATM   40  C18 UNL     1       2.546  24.886  -2.355  1.00  0.00     0.267 C 
ATOM     41  H42 UNL     1       3.953  26.286  -1.916  1.00  0.00     0.277 HD
ATOM     42  H41 UNL     1       3.810  25.215  -0.798  1.00  0.00     0.277 HD
ENDBRANCH  37  39
ENDBRANCH  34  37
ENDBRANCH  32  33
BRANCH  32  43
HETATM   43  C19 UNL     1       3.380  23.789   2.947  1.00  0.00    -0.022 C 
HETATM   44  C20 UNL     1       4.498  23.067   3.597  1.00  0.00     0.017 C 
HETATM   45  C21 UNL     1       2.904  23.020   1.698  1.00  0.00     0.017 C 
HETATM   46  C22 UNL     1       2.178  23.679   3.909  1.00  0.00     0.017 C 
ENDBRANCH  32  43
ENDBRANCH  10  32
TORSDOF 12
ENDMDL
MODEL 4
REMARK VINA RESULT: -8.387053906      2.263      3.684
REMARK  12 active torsions:
REMARK  status: ('A' for Active; 'I' for Inactive)
REMARK    1  A    between atoms: C2_2  and  C3_3 
REMARK    2  A    between atoms: C3_3  and  C4_4 
REMARK    3  A    between atoms: C3_3  and  C26_37 
REMARK    4  A    between atoms: C4_4  and  N1_5 
REMARK    5  A    between atoms: N1_5  and  C5_6 
REMARK    6  A    between atoms: N1_5  and  C23_34 
REMARK    7  A    between atoms: C5_6  and  O1_7 
REMARK       I    between atoms: N2_16  and  C13_17 
REMARK    8  A    between atoms: C13_17  and  C14_19 
REMARK    9  A    between atoms: C14_19  and  N3_20 
REMARK   10  A    between atoms: C14_19  and  C19_30 
REMARK       I    between atoms: N3_20  and  C15_22 
REMARK   11  A    between atoms: C15_22  and  C16_24 
REMARK   12  A    between atoms: C16_24  and  N4_26 
ROOT
HETATM    1  C5  UNL     1       9.529  25.578   4.984  1.00  0.00     0.162 C 
HETATM    2  C6  UNL     1       8.570  26.456   5.514  1.00  0.00     0.070 C 
HETATM    3  C7  UNL     1       8.796  26.946   6.945  1.00  0.00     0.046 C 
HETATM    4  C8  UNL     1       9.827  26.310   7.746  1.00  0.00     0.011 C 
HETATM    5  C9  UNL     1       9.213  25.362   8.760  1.00  0.00     0.001 C 
HETATM    6  C10 UNL     1       7.761  25.660   8.747  1.00  0.00     0.007 C 
HETATM    7  C11 UNL     1       7.517  26.670   7.689  1.00  0.00     0.014 C 
HETATM    8  C12 UNL     1       6.549  26.094   6.690  1.00  0.00     0.137 C 
HETATM    9  N2  UNL     1       7.147  26.398   5.377  1.00  0.00    -0.315 N 
HETATM   10  C13 UNL     1       6.305  26.663   4.261  1.00  0.00     0.247 C 
HETATM   11  O2  UNL     1       6.909  26.958   3.156  1.00  0.00    -0.271 OA
ENDROOT
BRANCH   1  12
HETATM   12  N1  UNL     1       9.817  24.309   4.504  1.00  0.00    -0.356 N 
BRANCH  12  13
HETATM   13  C4  UNL     1      10.602  23.384   5.330  1.00  0.00     0.136 C 
BRANCH  13  14
HETATM   14  C3  UNL     1      11.984  23.773   5.647  1.00  0.00     0.061 C 
BRANCH  14  15
HETATM   15  C2  UNL     1      12.332  24.099   7.053  1.00  0.00     0.008 C 
HETATM   16  C1  UNL     1      11.848  22.892   7.892  1.00  0.00     0.006 C 
ENDBRANCH  14  15
BRANCH  14  17
HETATM   17  C26 UNL     1      12.967  22.773   5.079  1.00  0.00     0.059 A 
HETATM   18  C27 UNL     1      12.886  22.206   3.808  1.00  0.00     0.043 A 
HETATM   19  C28 UNL     1      13.952  21.354   3.658  1.00  0.00    -0.021 A 
HETATM   20  C29 UNL     1      14.642  21.434   4.851  1.00  0.00     0.083 A 
HETATM   21  C33 UNL     1      14.499  20.440   2.627  1.00  0.00     0.073 C 
HETATM   22  O4  UNL     1      14.022  22.275   5.637  1.00  0.00    -0.316 OA
HETATM   23  C30 UNL     1      15.855  20.632   5.023  1.00  0.00     0.233 C 
HETATM   24  O5  UNL     1      16.015  19.572   4.187  1.00  0.00    -0.380 OA
HETATM   25  C31 UNL     1      14.957  19.200   3.410  1.00  0.00     0.122 C 
HETATM   26  C32 UNL     1      15.313  18.065   2.509  1.00  0.00     0.040 C 
ENDBRANCH  14  17
ENDBRANCH  13  14
ENDBRANCH  12  13
BRANCH  12  27
HETATM   27  C23 UNL     1       9.476  23.763   3.224  1.00  0.00     0.078 C 
HETATM   28  C24 UNL     1       8.065  23.682   2.833  1.00  0.00     0.032 C 
HETATM   29  C25 UNL     1      10.376  24.370   2.121  1.00  0.00     0.032 C 
ENDBRANCH  12  27
ENDBRANCH   1  12
BRANCH   1  30
HETATM   30  O1  UNL     1      10.736  26.246   4.890  1.00  0.00    -0.345 OA
ATOM     31  H1  UNL     1      10.952  26.191   3.966  1.00  0.00     0.219 HD
ENDBRANCH   1  30
BRANCH  10  32
HETATM   32  C14 UNL     1       4.858  26.665   4.169  1.00  0.00     0.184 C 
BRANCH  32  33
HETATM   33  N3  UNL     1       4.405  25.268   4.260  1.00  0.00    -0.345 N 
HETATM   34  C15 UNL     1       3.992  24.612   3.096  1.00  0.00     0.248 C 
HETATM   35  O3  UNL     1       4.002  25.197   1.964  1.00  0.00    -0.271 OA
ATOM     36  H3  UNL     1       4.393  24.784   5.157  1.00  0.00     0.163 HD
BRANCH  34  37
HETATM   37  C16 UNL     1       3.530  23.208   3.169  1.00  0.00     0.272 C 
HETATM   38  C17 UNL     1       2.084  23.131   3.632  1.00  0.00     0.050 C 
BRANCH  37  39
HETATM   39  N4  UNL     1       4.401  22.492   4.080  1.00  0.00    -0.067 N 
HETATM   40  C18 UNL     1       3.895  21.200   4.432  1.00  0.00     0.267 C 
ATOM     41  H42 UNL     1       5.347  22.423   3.704  1.00  0.00     0.277 HD
ATOM     42  H41 UNL     1       4.594  23.047   4.914  1.00  0.00     0.277 HD
ENDBRANCH  37  39
ENDBRANCH  34  37
ENDBRANCH  32  33
BRANCH  32  43
HETATM   43  C19 UNL     1       4.079  27.450   5.178  1.00  0.00    -0.022 C 
HETATM   44  C20 UNL     1       4.792  28.550   5.867  1.00  0.00     0.017 C 
HETATM   45  C21 UNL     1       3.430  26.506   6.210  1.00  0.00     0.017 C 
HETATM   46  C22 UNL     1       2.866  28.095   4.475  1.00  0.00     0.017 C 
ENDBRANCH  32  43
ENDBRANCH  10  32
TORSDOF 12
ENDMDL
MODEL 5
REMARK VINA RESULT: -8.381646989      2.172      9.547
REMARK  12 active torsions:
REMARK  status: ('A' for Active; 'I' for Inactive)
REMARK    1  A    between atoms: C2_2  and  C3_3 
REMARK    2  A    between atoms: C3_3  and  C4_4 
REMARK    3  A    between atoms: C3_3  and  C26_37 
REMARK    4  A    between atoms: C4_4  and  N1_5 
REMARK    5  A    between atoms: N1_5  and  C5_6 
REMARK    6  A    between atoms: N1_5  and  C23_34 
REMARK    7  A    between atoms: C5_6  and  O1_7 
REMARK       I    between atoms: N2_16  and  C13_17 
REMARK    8  A    between atoms: C13_17  and  C14_19 
REMARK    9  A    between atoms: C14_19  and  N3_20 
REMARK   10  A    between atoms: C14_19  and  C19_30 
REMARK       I    between atoms: N3_20  and  C15_22 
REMARK   11  A    between atoms: C15_22  and  C16_24 
REMARK   12  A    between atoms: C16_24  and  N4_26 
ROOT
HETATM    1  C5  UNL     1       8.107  27.074   4.660  1.00  0.00     0.162 C 
HETATM    2  C6  UNL     1       8.863  26.136   3.940  1.00  0.00     0.070 C 
HETATM    3  C7  UNL     1       8.404  25.825   2.514  1.00  0.00     0.046 C 
HETATM    4  C8  UNL     1       7.111  26.318   2.074  1.00  0.00     0.011 C 
HETATM    5  C9  UNL     1       6.087  25.197   2.053  1.00  0.00     0.001 C 
HETATM    6  C10 UNL     1       6.868  23.948   2.214  1.00  0.00     0.007 C 
HETATM    7  C11 UNL     1       8.286  24.327   2.429  1.00  0.00     0.014 C 
HETATM    8  C12 UNL     1       8.732  23.780   3.758  1.00  0.00     0.137 C 
HETATM    9  N2  UNL     1       9.426  24.907   4.409  1.00  0.00    -0.315 N 
HETATM   10  C13 UNL     1      10.529  24.656   5.271  1.00  0.00     0.247 C 
HETATM   11  O2  UNL     1      11.106  25.700   5.771  1.00  0.00    -0.271 OA
ENDROOT
BRANCH   1  12
HETATM   12  N1  UNL     1       7.279  27.328   5.744  1.00  0.00    -0.356 N 
BRANCH  12  13
HETATM   13  C4  UNL     1       5.938  27.879   5.515  1.00  0.00     0.136 C 
BRANCH  13  14
HETATM   14  C3  UNL     1       4.813  27.208   6.183  1.00  0.00     0.061 C 
BRANCH  14  15
HETATM   15  C2  UNL     1       3.888  28.018   7.016  1.00  0.00     0.008 C 
HETATM   16  C1  UNL     1       3.017  26.997   7.785  1.00  0.00     0.006 C 
ENDBRANCH  14  15
BRANCH  14  17
HETATM   17  C26 UNL     1       4.033  26.360   5.202  1.00  0.00     0.059 A 
HETATM   18  C27 UNL     1       4.053  24.967   5.158  1.00  0.00     0.043 A 
HETATM   19  C28 UNL     1       3.223  24.566   4.140  1.00  0.00    -0.021 A 
HETATM   20  C29 UNL     1       2.729  25.738   3.601  1.00  0.00     0.083 A 
HETATM   21  C33 UNL     1       2.765  23.299   3.522  1.00  0.00     0.073 C 
HETATM   22  O4  UNL     1       3.237  26.747   4.260  1.00  0.00    -0.316 OA
HETATM   23  C30 UNL     1       1.797  25.661   2.475  1.00  0.00     0.233 C 
HETATM   24  O5  UNL     1       1.777  24.499   1.770  1.00  0.00    -0.380 OA
HETATM   25  C31 UNL     1       2.759  23.583   2.012  1.00  0.00     0.122 C 
HETATM   26  C32 UNL     1       2.561  22.343   1.206  1.00  0.00     0.040 C 
ENDBRANCH  14  17
ENDBRANCH  13  14
ENDBRANCH  12  13
BRANCH  12  27
HETATM   27  C23 UNL     1       7.586  27.163   7.134  1.00  0.00     0.078 C 
HETATM   28  C24 UNL     1       7.413  25.846   7.753  1.00  0.00     0.032 C 
HETATM   29  C25 UNL     1       8.950  27.814   7.466  1.00  0.00     0.032 C 
ENDBRANCH  12  27
ENDBRANCH   1  12
BRANCH   1  30
HETATM   30  O1  UNL     1       8.212  28.302   4.033  1.00  0.00    -0.345 OA
ATOM     31  H1  UNL     1       9.047  28.253   3.581  1.00  0.00     0.219 HD
ENDBRANCH   1  30
BRANCH  10  32
HETATM   32  C14 UNL     1      11.124  23.397   5.675  1.00  0.00     0.184 C 
BRANCH  32  33
HETATM   33  N3  UNL     1      12.585  23.538   5.559  1.00  0.00    -0.345 N 
HETATM   34  C15 UNL     1      13.298  22.606   4.799  1.00  0.00     0.248 C 
HETATM   35  O3  UNL     1      12.711  21.644   4.205  1.00  0.00    -0.271 OA
ATOM     36  H3  UNL     1      13.069  24.305   6.025  1.00  0.00     0.163 HD
BRANCH  34  37
HETATM   37  C16 UNL     1      14.767  22.732   4.673  1.00  0.00     0.272 C 
HETATM   38  C17 UNL     1      15.413  21.377   4.432  1.00  0.00     0.050 C 
BRANCH  37  39
HETATM   39  N4  UNL     1      15.276  23.335   5.890  1.00  0.00    -0.067 N 
HETATM   40  C18 UNL     1      15.623  22.369   6.885  1.00  0.00     0.267 C 
ATOM     41  H42 UNL     1      16.063  23.952   5.690  1.00  0.00     0.277 HD
ATOM     42  H41 UNL     1      14.618  24.021   6.260  1.00  0.00     0.277 HD
ENDBRANCH  37  39
ENDBRANCH  34  37
ENDBRANCH  32  33
BRANCH  32  43
HETATM   43  C19 UNL     1      10.838  22.879   7.050  1.00  0.00    -0.022 C 
HETATM   44  C20 UNL     1       9.608  23.375   7.710  1.00  0.00     0.017 C 
HETATM   45  C21 UNL     1      12.057  23.087   7.970  1.00  0.00     0.017 C 
HETATM   46  C22 UNL     1      10.702  21.343   6.984  1.00  0.00     0.017 C 
ENDBRANCH  32  43
ENDBRANCH  10  32
TORSDOF 12
ENDMDL
