MODEL 1
REMARK VINA RESULT: -8.001908899      0.000      0.000
REMARK  11 active torsions:
REMARK  status: ('A' for Active; 'I' for Inactive)
REMARK    1  A    between atoms: C2_2  and  N1_3 
REMARK    2  A    between atoms: N1_3  and  C3_4 
REMARK       I    between atoms: N1_3  and  C28_36 
REMARK    3  A    between atoms: C3_4  and  C4_5 
REMARK    4  A    between atoms: C4_5  and  O1_6 
REMARK    5  A    between atoms: C4_5  and  C5_8 
REMARK    6  A    between atoms: C5_8  and  N2_9 
REMARK       I    between atoms: N2_9  and  C6_11 
REMARK    7  A    between atoms: C6_11  and  C7_13 
REMARK    8  A    between atoms: C7_13  and  C8_14 
REMARK    9  A    between atoms: C8_14  and  C9_15 
REMARK   10  A    between atoms: C15_21  and  C16_22 
REMARK   11  A    between atoms: C28_36  and  C29_38 
ROOT
HETATM    1  C9  UNL     1      13.139  23.484   4.131  1.00  0.00     0.006 C 
HETATM    2  C10 UNL     1      13.025  22.014   4.568  1.00  0.00    -0.006 C 
HETATM    3  C11 UNL     1      13.650  21.068   3.551  1.00  0.00     0.011 C 
HETATM    4  C12 UNL     1      11.517  21.785   4.422  1.00  0.00     0.026 C 
HETATM    5  C13 UNL     1      11.085  21.454   5.850  1.00  0.00     0.012 C 
HETATM    6  C14 UNL     1      11.239  22.575   6.792  1.00  0.00     0.039 C 
HETATM    7  C15 UNL     1      11.941  23.808   6.189  1.00  0.00    -0.022 C 
HETATM    8  C18 UNL     1      11.822  24.014   4.772  1.00  0.00     0.029 C 
HETATM    9  C19 UNL     1      11.273  25.235   4.144  1.00  0.00     0.036 C 
HETATM   10  C20 UNL     1       9.884  25.592   4.584  1.00  0.00     0.009 C 
HETATM   11  C21 UNL     1       8.924  24.447   4.733  1.00  0.00     0.008 C 
HETATM   12  C22 UNL     1       9.458  23.133   4.326  1.00  0.00     0.018 C 
HETATM   13  C23 UNL     1       8.638  22.356   3.302  1.00  0.00     0.013 C 
HETATM   14  C24 UNL     1      10.892  23.063   3.996  1.00  0.00     0.082 C 
HETATM   15  O4  UNL     1      11.184  23.512   2.710  1.00  0.00    -0.368 OA
HETATM   16  C25 UNL     1      11.139  24.884   2.661  1.00  0.00     0.059 C 
HETATM   17  C26 UNL     1      12.255  25.534   1.832  1.00  0.00     0.046 C 
HETATM   18  C27 UNL     1       9.960  25.445   1.953  1.00  0.00     0.046 C 
ENDROOT
BRANCH   1  19
HETATM   19  C8  UNL     1      14.356  24.154   4.545  1.00  0.00     0.015 C 
BRANCH  19  20
HETATM   20  C7  UNL     1      15.622  23.491   4.834  1.00  0.00     0.103 C 
BRANCH  20  21
HETATM   21  C6  UNL     1      15.785  22.724   6.065  1.00  0.00     0.217 C 
HETATM   22  N2  UNL     1      16.522  21.497   6.014  1.00  0.00    -0.359 N 
ATOM     23  H2  UNL     1      16.894  21.209   5.110  1.00  0.00     0.162 HD
HETATM   24  O2  UNL     1      15.319  23.078   7.150  1.00  0.00    -0.274 OA
BRANCH  22  25
HETATM   25  C5  UNL     1      16.775  20.643   7.138  1.00  0.00     0.155 C 
BRANCH  25  26
HETATM   26  C4  UNL     1      18.214  20.204   7.219  1.00  0.00     0.153 C 
BRANCH  26  27
HETATM   27  C3  UNL     1      18.719  19.687   5.921  1.00  0.00     0.159 C 
BRANCH  27  28
HETATM   28  N1  UNL     1      18.520  18.299   5.654  1.00  0.00    -0.350 N 
HETATM   29  C28 UNL     1      18.181  17.659   4.451  1.00  0.00     0.224 C 
HETATM   30  O5  UNL     1      18.022  16.379   4.544  1.00  0.00    -0.273 OA
BRANCH  28  31
HETATM   31  C2  UNL     1      18.683  17.399   6.841  1.00  0.00     0.121 C 
HETATM   32  C1  UNL     1      20.048  16.748   6.707  1.00  0.00     0.026 C 
ENDBRANCH  28  31
BRANCH  29  33
HETATM   33  C29 UNL     1      17.985  18.224   3.120  1.00  0.00     0.078 C 
HETATM   34  C30 UNL     1      16.814  19.229   3.129  1.00  0.00     0.014 C 
HETATM   35  C31 UNL     1      15.928  18.131   2.640  1.00  0.00     0.002 C 
HETATM   36  C32 UNL     1      17.174  17.418   2.134  1.00  0.00     0.014 C 
ENDBRANCH  29  33
ENDBRANCH  27  28
ENDBRANCH  26  27
BRANCH  26  37
HETATM   37  O1  UNL     1      18.926  21.379   7.581  1.00  0.00    -0.392 OA
ATOM     38  H1  UNL     1      19.158  21.346   8.502  1.00  0.00     0.210 HD
ENDBRANCH  26  37
ENDBRANCH  25  26
ENDBRANCH  22  25
ENDBRANCH  20  21
ENDBRANCH  19  20
ENDBRANCH   1  19
BRANCH   7  39
HETATM   39  C16 UNL     1      11.768  24.894   7.173  1.00  0.00     0.148 C 
HETATM   40  C17 UNL     1      10.624  25.102   8.100  1.00  0.00     0.096 C 
HETATM   41  O3  UNL     1      12.627  25.793   7.323  1.00  0.00    -0.293 OA
ENDBRANCH   7  39
TORSDOF 11
ENDMDL
MODEL 2
REMARK VINA RESULT: -7.886966144      4.260     10.901
REMARK  11 active torsions:
REMARK  status: ('A' for Active; 'I' for Inactive)
REMARK    1  A    between atoms: C2_2  and  N1_3 
REMARK    2  A    between atoms: N1_3  and  C3_4 
REMARK       I    between atoms: N1_3  and  C28_36 
REMARK    3  A    between atoms: C3_4  and  C4_5 
REMARK    4  A    between atoms: C4_5  and  O1_6 
REMARK    5  A    between atoms: C4_5  and  C5_8 
REMARK    6  A    between atoms: C5_8  and  N2_9 
REMARK       I    between atoms: N2_9  and  C6_11 
REMARK    7  A    between atoms: C6_11  and  C7_13 
REMARK    8  A    between atoms: C7_13  and  C8_14 
REMARK    9  A    between atoms: C8_14  and  C9_15 
REMARK   10  A    between atoms: C15_21  and  C16_22 
REMARK   11  A    between atoms: C28_36  and  C29_38 
ROOT
HETATM    1  C9  UNL     1      17.974  17.083  11.427  1.00  0.00     0.006 C 
HETATM    2  C10 UNL     1      17.460  15.688  11.822  1.00  0.00    -0.006 C 
HETATM    3  C11 UNL     1      16.408  15.759  12.921  1.00  0.00     0.011 C 
HETATM    4  C12 UNL     1      18.698  15.112  12.520  1.00  0.00     0.026 C 
HETATM    5  C13 UNL     1      19.046  13.905  11.649  1.00  0.00     0.012 C 
HETATM    6  C14 UNL     1      19.474  14.260  10.285  1.00  0.00     0.039 C 
HETATM    7  C15 UNL     1      19.343  15.762   9.959  1.00  0.00    -0.022 C 
HETATM    8  C18 UNL     1      19.433  16.690  11.053  1.00  0.00     0.029 C 
HETATM    9  C19 UNL     1      20.415  17.792  11.139  1.00  0.00     0.036 C 
HETATM   10  C20 UNL     1      21.848  17.361  11.036  1.00  0.00     0.009 C 
HETATM   11  C21 UNL     1      22.214  16.103  11.770  1.00  0.00     0.008 C 
HETATM   12  C22 UNL     1      21.126  15.518  12.577  1.00  0.00     0.018 C 
HETATM   13  C23 UNL     1      21.440  15.254  14.046  1.00  0.00     0.013 C 
HETATM   14  C24 UNL     1      19.788  16.117  12.437  1.00  0.00     0.082 C 
HETATM   15  O4  UNL     1      19.627  17.286  13.178  1.00  0.00    -0.368 OA
HETATM   16  C25 UNL     1      20.268  18.333  12.563  1.00  0.00     0.059 C 
HETATM   17  C26 UNL     1      19.494  19.659  12.578  1.00  0.00     0.046 C 
HETATM   18  C27 UNL     1      21.516  18.780  13.232  1.00  0.00     0.046 C 
ENDROOT
BRANCH   1  19
HETATM   19  C8  UNL     1      17.211  17.744  10.386  1.00  0.00     0.015 C 
BRANCH  19  20
HETATM   20  C7  UNL     1      17.190  19.182  10.145  1.00  0.00     0.103 C 
BRANCH  20  21
HETATM   21  C6  UNL     1      17.930  19.749   9.023  1.00  0.00     0.217 C 
HETATM   22  N2  UNL     1      17.670  19.245   7.707  1.00  0.00    -0.359 N 
ATOM     23  H2  UNL     1      16.980  18.500   7.617  1.00  0.00     0.162 HD
HETATM   24  O2  UNL     1      18.770  20.642   9.148  1.00  0.00    -0.274 OA
BRANCH  22  25
HETATM   25  C5  UNL     1      18.307  19.709   6.509  1.00  0.00     0.155 C 
BRANCH  25  26
HETATM   26  C4  UNL     1      17.532  19.355   5.267  1.00  0.00     0.153 C 
BRANCH  26  27
HETATM   27  C3  UNL     1      16.643  20.460   4.825  1.00  0.00     0.159 C 
BRANCH  27  28
HETATM   28  N1  UNL     1      15.237  20.261   4.972  1.00  0.00    -0.350 N 
HETATM   29  C28 UNL     1      14.292  21.033   5.666  1.00  0.00     0.224 C 
HETATM   30  O5  UNL     1      13.090  20.557   5.655  1.00  0.00    -0.273 OA
BRANCH  28  31
HETATM   31  C2  UNL     1      14.699  19.035   4.298  1.00  0.00     0.121 C 
HETATM   32  C1  UNL     1      14.772  19.296   2.804  1.00  0.00     0.026 C 
ENDBRANCH  28  31
BRANCH  29  33
HETATM   33  C29 UNL     1      14.468  22.287   6.392  1.00  0.00     0.078 C 
HETATM   34  C30 UNL     1      15.706  22.208   7.310  1.00  0.00     0.014 C 
HETATM   35  C31 UNL     1      14.794  21.847   8.434  1.00  0.00     0.002 C 
HETATM   36  C32 UNL     1      13.655  22.483   7.649  1.00  0.00     0.014 C 
ENDBRANCH  29  33
ENDBRANCH  27  28
ENDBRANCH  26  27
BRANCH  26  37
HETATM   37  O1  UNL     1      18.527  19.111   4.283  1.00  0.00    -0.392 OA
ATOM     38  H1  UNL     1      19.169  19.811   4.292  1.00  0.00     0.210 HD
ENDBRANCH  26  37
ENDBRANCH  25  26
ENDBRANCH  22  25
ENDBRANCH  20  21
ENDBRANCH  19  20
ENDBRANCH   1  19
BRANCH   7  39
HETATM   39  C16 UNL     1      20.051  15.961   8.680  1.00  0.00     0.148 C 
HETATM   40  C17 UNL     1      21.167  15.149   8.126  1.00  0.00     0.096 C 
HETATM   41  O3  UNL     1      19.753  16.892   7.898  1.00  0.00    -0.293 OA
ENDBRANCH   7  39
TORSDOF 11
ENDMDL
MODEL 3
REMARK VINA RESULT: -7.880447240      4.327     10.770
REMARK  11 active torsions:
REMARK  status: ('A' for Active; 'I' for Inactive)
REMARK    1  A    between atoms: C2_2  and  N1_3 
REMARK    2  A    between atoms: N1_3  and  C3_4 
REMARK       I    between atoms: N1_3  and  C28_36 
REMARK    3  A    between atoms: C3_4  and  C4_5 
REMARK    4  A    between atoms: C4_5  and  O1_6 
REMARK    5  A    between atoms: C4_5  and  C5_8 
REMARK    6  A    between atoms: C5_8  and  N2_9 
REMARK       I    between atoms: N2_9  and  C6_11 
REMARK    7  A    between atoms: C6_11  and  C7_13 
REMARK    8  A    between atoms: C7_13  and  C8_14 
REMARK    9  A    between atoms: C8_14  and  C9_15 
REMARK   10  A    between atoms: C15_21  and  C16_22 
REMARK   11  A    between atoms: C28_36  and  C29_38 
ROOT
HETATM    1  C9  UNL     1      18.073  16.986  11.548  1.00  0.00     0.006 C 
HETATM    2  C10 UNL     1      17.608  15.575  11.946  1.00  0.00    -0.006 C 
HETATM    3  C11 UNL     1      16.546  15.613  13.037  1.00  0.00     0.011 C 
HETATM    4  C12 UNL     1      18.860  15.047  12.654  1.00  0.00     0.026 C 
HETATM    5  C13 UNL     1      19.258  13.850  11.790  1.00  0.00     0.012 C 
HETATM    6  C14 UNL     1      19.681  14.215  10.428  1.00  0.00     0.039 C 
HETATM    7  C15 UNL     1      19.499  15.710  10.095  1.00  0.00    -0.022 C 
HETATM    8  C18 UNL     1      19.548  16.644  11.185  1.00  0.00     0.029 C 
HETATM    9  C19 UNL     1      20.489  17.782  11.273  1.00  0.00     0.036 C 
HETATM   10  C20 UNL     1      21.938  17.402  11.181  1.00  0.00     0.009 C 
HETATM   11  C21 UNL     1      22.343  16.161  11.922  1.00  0.00     0.008 C 
HETATM   12  C22 UNL     1      21.272  15.540  12.725  1.00  0.00     0.018 C 
HETATM   13  C23 UNL     1      21.585  15.293  14.197  1.00  0.00     0.013 C 
HETATM   14  C24 UNL     1      19.914  16.090  12.574  1.00  0.00     0.082 C 
HETATM   15  O4  UNL     1      19.706  17.255  13.309  1.00  0.00    -0.368 OA
HETATM   16  C25 UNL     1      20.313  18.323  12.694  1.00  0.00     0.059 C 
HETATM   17  C26 UNL     1      19.492  19.619  12.698  1.00  0.00     0.046 C 
HETATM   18  C27 UNL     1      21.540  18.817  13.368  1.00  0.00     0.046 C 
ENDROOT
BRANCH   1  19
HETATM   19  C8  UNL     1      17.294  17.615  10.499  1.00  0.00     0.015 C 
BRANCH  19  20
HETATM   20  C7  UNL     1      17.085  19.050  10.355  1.00  0.00     0.103 C 
BRANCH  20  21
HETATM   21  C6  UNL     1      17.765  19.788   9.294  1.00  0.00     0.217 C 
HETATM   22  N2  UNL     1      17.119  19.906   8.021  1.00  0.00    -0.359 N 
ATOM     23  H2  UNL     1      16.210  19.457   7.911  1.00  0.00     0.162 HD
HETATM   24  O2  UNL     1      18.869  20.316   9.438  1.00  0.00    -0.274 OA
BRANCH  22  25
HETATM   25  C5  UNL     1      17.654  20.607   6.891  1.00  0.00     0.155 C 
BRANCH  25  26
HETATM   26  C4  UNL     1      18.354  19.692   5.920  1.00  0.00     0.153 C 
BRANCH  26  27
HETATM   27  C3  UNL     1      17.743  19.736   4.566  1.00  0.00     0.159 C 
BRANCH  27  28
HETATM   28  N1  UNL     1      16.548  18.981   4.368  1.00  0.00    -0.350 N 
HETATM   29  C28 UNL     1      15.209  19.364   4.544  1.00  0.00     0.224 C 
HETATM   30  O5  UNL     1      14.345  18.426   4.329  1.00  0.00    -0.273 OA
BRANCH  28  31
HETATM   31  C2  UNL     1      16.762  17.567   3.921  1.00  0.00     0.121 C 
HETATM   32  C1  UNL     1      17.236  17.635   2.480  1.00  0.00     0.026 C 
ENDBRANCH  28  31
BRANCH  29  33
HETATM   33  C29 UNL     1      14.655  20.657   4.931  1.00  0.00     0.078 C 
HETATM   34  C30 UNL     1      13.378  20.960   4.120  1.00  0.00     0.014 C 
HETATM   35  C31 UNL     1      14.219  21.759   3.181  1.00  0.00     0.002 C 
HETATM   36  C32 UNL     1      15.251  21.888   4.292  1.00  0.00     0.014 C 
ENDBRANCH  29  33
ENDBRANCH  27  28
ENDBRANCH  26  27
BRANCH  26  37
HETATM   37  O1  UNL     1      19.686  20.182   5.866  1.00  0.00    -0.392 OA
ATOM     38  H1  UNL     1      19.684  21.131   5.904  1.00  0.00     0.210 HD
ENDBRANCH  26  37
ENDBRANCH  25  26
ENDBRANCH  22  25
ENDBRANCH  20  21
ENDBRANCH  19  20
ENDBRANCH   1  19
BRANCH   7  39
HETATM   39  C16 UNL     1      20.208  15.929   8.819  1.00  0.00     0.148 C 
HETATM   40  C17 UNL     1      21.334  15.135   8.261  1.00  0.00     0.096 C 
HETATM   41  O3  UNL     1      19.900  16.864   8.045  1.00  0.00    -0.293 OA
ENDBRANCH   7  39
TORSDOF 11
ENDMDL
MODEL 4
REMARK VINA RESULT: -7.877248132      5.058      9.048
REMARK  11 active torsions:
REMARK  status: ('A' for Active; 'I' for Inactive)
REMARK    1  A    between atoms: C2_2  and  N1_3 
REMARK    2  A    between atoms: N1_3  and  C3_4 
REMARK       I    between atoms: N1_3  and  C28_36 
REMARK    3  A    between atoms: C3_4  and  C4_5 
REMARK    4  A    between atoms: C4_5  and  O1_6 
REMARK    5  A    between atoms: C4_5  and  C5_8 
REMARK    6  A    between atoms: C5_8  and  N2_9 
REMARK       I    between atoms: N2_9  and  C6_11 
REMARK    7  A    between atoms: C6_11  and  C7_13 
REMARK    8  A    between atoms: C7_13  and  C8_14 
REMARK    9  A    between atoms: C8_14  and  C9_15 
REMARK   10  A    between atoms: C15_21  and  C16_22 
REMARK   11  A    between atoms: C28_36  and  C29_38 
ROOT
HETATM    1  C9  UNL     1       6.043  24.852   3.108  1.00  0.00     0.006 C 
HETATM    2  C10 UNL     1       5.915  24.927   1.577  1.00  0.00    -0.006 C 
HETATM    3  C11 UNL     1       6.999  25.799   0.958  1.00  0.00     0.011 C 
HETATM    4  C12 UNL     1       4.634  25.757   1.434  1.00  0.00     0.026 C 
HETATM    5  C13 UNL     1       3.689  24.799   0.709  1.00  0.00     0.012 C 
HETATM    6  C14 UNL     1       3.323  23.613   1.500  1.00  0.00     0.039 C 
HETATM    7  C15 UNL     1       4.077  23.496   2.840  1.00  0.00    -0.022 C 
HETATM    8  C18 UNL     1       4.531  24.713   3.455  1.00  0.00     0.029 C 
HETATM    9  C19 UNL     1       4.164  25.152   4.819  1.00  0.00     0.036 C 
HETATM   10  C20 UNL     1       2.687  25.264   5.061  1.00  0.00     0.009 C 
HETATM   11  C21 UNL     1       1.878  25.858   3.945  1.00  0.00     0.008 C 
HETATM   12  C22 UNL     1       2.668  26.343   2.797  1.00  0.00     0.018 C 
HETATM   13  C23 UNL     1       2.429  27.788   2.373  1.00  0.00     0.013 C 
HETATM   14  C24 UNL     1       4.109  26.038   2.795  1.00  0.00     0.082 C 
HETATM   15  O4  UNL     1       4.856  26.900   3.595  1.00  0.00    -0.368 OA
HETATM   16  C25 UNL     1       4.690  26.585   4.921  1.00  0.00     0.059 C 
HETATM   17  C26 UNL     1       5.973  26.648   5.761  1.00  0.00     0.046 C 
HETATM   18  C27 UNL     1       3.855  27.542   5.691  1.00  0.00     0.046 C 
ENDROOT
BRANCH   1  19
HETATM   19  C8  UNL     1       6.904  23.794   3.600  1.00  0.00     0.015 C 
BRANCH  19  20
HETATM   20  C7  UNL     1       7.976  23.164   2.839  1.00  0.00     0.103 C 
BRANCH  20  21
HETATM   21  C6  UNL     1       9.369  23.366   3.227  1.00  0.00     0.217 C 
HETATM   22  N2  UNL     1      10.029  22.334   3.968  1.00  0.00    -0.359 N 
ATOM     23  H2  UNL     1       9.488  21.501   4.200  1.00  0.00     0.162 HD
HETATM   24  O2  UNL     1      10.007  24.383   2.949  1.00  0.00    -0.274 OA
BRANCH  22  25
HETATM   25  C5  UNL     1      11.393  22.383   4.407  1.00  0.00     0.155 C 
BRANCH  25  26
HETATM   26  C4  UNL     1      11.517  22.422   5.908  1.00  0.00     0.153 C 
BRANCH  26  27
HETATM   27  C3  UNL     1      10.652  23.467   6.516  1.00  0.00     0.159 C 
BRANCH  27  28
HETATM   28  N1  UNL     1      11.305  24.509   7.240  1.00  0.00    -0.350 N 
HETATM   29  C28 UNL     1      10.845  25.265   8.331  1.00  0.00     0.224 C 
HETATM   30  O5  UNL     1      11.662  26.181   8.738  1.00  0.00    -0.273 OA
BRANCH  28  31
HETATM   31  C2  UNL     1      12.678  24.855   6.749  1.00  0.00     0.121 C 
HETATM   32  C1  UNL     1      12.492  25.661   5.476  1.00  0.00     0.026 C 
ENDBRANCH  28  31
BRANCH  29  33
HETATM   33  C29 UNL     1       9.589  25.165   9.067  1.00  0.00     0.078 C 
HETATM   34  C30 UNL     1       8.409  25.616   8.181  1.00  0.00     0.014 C 
HETATM   35  C31 UNL     1       8.510  26.965   8.811  1.00  0.00     0.002 C 
HETATM   36  C32 UNL     1       9.228  26.310   9.983  1.00  0.00     0.014 C 
ENDBRANCH  29  33
ENDBRANCH  27  28
ENDBRANCH  26  27
BRANCH  26  37
HETATM   37  O1  UNL     1      11.095  21.135   6.336  1.00  0.00    -0.392 OA
ATOM     38  H1  UNL     1      11.816  20.681   6.755  1.00  0.00     0.210 HD
ENDBRANCH  26  37
ENDBRANCH  25  26
ENDBRANCH  22  25
ENDBRANCH  20  21
ENDBRANCH  19  20
ENDBRANCH   1  19
BRANCH   7  39
HETATM   39  C16 UNL     1       3.400  22.422   3.593  1.00  0.00     0.148 C 
HETATM   40  C17 UNL     1       1.993  21.964   3.449  1.00  0.00     0.096 C 
HETATM   41  O3  UNL     1       3.992  21.760   4.476  1.00  0.00    -0.293 OA
ENDBRANCH   7  39
TORSDOF 11
ENDMDL
MODEL 5
REMARK VINA RESULT: -7.847294825      4.127     10.920
REMARK  11 active torsions:
REMARK  status: ('A' for Active; 'I' for Inactive)
REMARK    1  A    between atoms: C2_2  and  N1_3 
REMARK    2  A    between atoms: N1_3  and  C3_4 
REMARK       I    between atoms: N1_3  and  C28_36 
REMARK    3  A    between atoms: C3_4  and  C4_5 
REMARK    4  A    between atoms: C4_5  and  O1_6 
REMARK    5  A    between atoms: C4_5  and  C5_8 
REMARK    6  A    between atoms: C5_8  and  N2_9 
REMARK       I    between atoms: N2_9  and  C6_11 
REMARK    7  A    between atoms: C6_11  and  C7_13 
REMARK    8  A    between atoms: C7_13  and  C8_14 
REMARK    9  A    between atoms: C8_14  and  C9_15 
REMARK   10  A    between atoms: C15_21  and  C16_22 
REMARK   11  A    between atoms: C28_36  and  C29_38 
ROOT
HETATM    1  C9  UNL     1      17.968  17.227  11.390  1.00  0.00     0.006 C 
HETATM    2  C10 UNL     1      17.413  15.829  11.714  1.00  0.00    -0.006 C 
HETATM    3  C11 UNL     1      16.367  15.875  12.820  1.00  0.00     0.011 C 
HETATM    4  C12 UNL     1      18.634  15.180  12.374  1.00  0.00     0.026 C 
HETATM    5  C13 UNL     1      18.943  14.011  11.439  1.00  0.00     0.012 C 
HETATM    6  C14 UNL     1      19.376  14.424  10.095  1.00  0.00     0.039 C 
HETATM    7  C15 UNL     1      19.292  15.944   9.848  1.00  0.00    -0.022 C 
HETATM    8  C18 UNL     1      19.414  16.809  10.989  1.00  0.00     0.029 C 
HETATM    9  C19 UNL     1      20.430  17.875  11.128  1.00  0.00     0.036 C 
HETATM   10  C20 UNL     1      21.849  17.405  10.996  1.00  0.00     0.009 C 
HETATM   11  C21 UNL     1      22.177  16.100  11.660  1.00  0.00     0.008 C 
HETATM   12  C22 UNL     1      21.074  15.507  12.441  1.00  0.00     0.018 C 
HETATM   13  C23 UNL     1      21.384  15.156  13.892  1.00  0.00     0.013 C 
HETATM   14  C24 UNL     1      19.755  16.154  12.339  1.00  0.00     0.082 C 
HETATM   15  O4  UNL     1      19.633  17.286  13.141  1.00  0.00    -0.368 OA
HETATM   16  C25 UNL     1      20.304  18.344  12.580  1.00  0.00     0.059 C 
HETATM   17  C26 UNL     1      19.571  19.690  12.668  1.00  0.00     0.046 C 
HETATM   18  C27 UNL     1      21.568  18.717  13.265  1.00  0.00     0.046 C 
ENDROOT
BRANCH   1  19
HETATM   19  C8  UNL     1      17.223  17.965  10.389  1.00  0.00     0.015 C 
BRANCH  19  20
HETATM   20  C7  UNL     1      17.319  19.402  10.162  1.00  0.00     0.103 C 
BRANCH  20  21
HETATM   21  C6  UNL     1      17.846  19.912   8.899  1.00  0.00     0.217 C 
HETATM   22  N2  UNL     1      17.355  19.350   7.677  1.00  0.00    -0.359 N 
ATOM     23  H2  UNL     1      16.660  18.607   7.746  1.00  0.00     0.162 HD
HETATM   24  O2  UNL     1      18.694  20.803   8.831  1.00  0.00    -0.274 OA
BRANCH  22  25
HETATM   25  C5  UNL     1      17.766  19.754   6.364  1.00  0.00     0.155 C 
BRANCH  25  26
HETATM   26  C4  UNL     1      16.763  20.658   5.695  1.00  0.00     0.153 C 
BRANCH  26  27
HETATM   27  C3  UNL     1      15.398  20.070   5.680  1.00  0.00     0.159 C 
BRANCH  27  28
HETATM   28  N1  UNL     1      14.436  20.684   4.823  1.00  0.00    -0.350 N 
HETATM   29  C28 UNL     1      13.199  21.267   5.139  1.00  0.00     0.224 C 
HETATM   30  O5  UNL     1      12.527  21.697   4.122  1.00  0.00    -0.273 OA
BRANCH  28  31
HETATM   31  C2  UNL     1      14.800  20.689   3.369  1.00  0.00     0.121 C 
HETATM   32  C1  UNL     1      14.810  19.239   2.920  1.00  0.00     0.026 C 
ENDBRANCH  28  31
BRANCH  29  33
HETATM   33  C29 UNL     1      12.566  21.457   6.440  1.00  0.00     0.078 C 
HETATM   34  C30 UNL     1      11.440  22.507   6.343  1.00  0.00     0.014 C 
HETATM   35  C31 UNL     1      12.414  23.530   6.823  1.00  0.00     0.002 C 
HETATM   36  C32 UNL     1      13.241  22.395   7.411  1.00  0.00     0.014 C 
ENDBRANCH  29  33
ENDBRANCH  27  28
ENDBRANCH  26  27
BRANCH  26  37
HETATM   37  O1  UNL     1      16.771  21.842   6.480  1.00  0.00    -0.392 OA
ATOM     38  H1  UNL     1      17.225  21.684   7.299  1.00  0.00     0.210 HD
ENDBRANCH  26  37
ENDBRANCH  25  26
ENDBRANCH  22  25
ENDBRANCH  20  21
ENDBRANCH  19  20
ENDBRANCH   1  19
BRANCH   7  39
HETATM   39  C16 UNL     1      20.001  16.188   8.578  1.00  0.00     0.148 C 
HETATM   40  C17 UNL     1      21.169  15.444   8.035  1.00  0.00     0.096 C 
HETATM   41  O3  UNL     1      19.658  17.103   7.795  1.00  0.00    -0.293 OA
ENDBRANCH   7  39
TORSDOF 11
ENDMDL
