MODEL 1
REMARK VINA RESULT: -9.477119662      0.000      0.000
REMARK  11 active torsions:
REMARK  status: ('A' for Active; 'I' for Inactive)
REMARK    1  A    between atoms: C2_2  and  C25_34 
REMARK    2  A    between atoms: C3_3  and  C4_4 
REMARK    3  A    between atoms: C4_4  and  C5_5 
REMARK       I    between atoms: C5_5  and  N1_7 
REMARK    4  A    between atoms: N1_7  and  C6_9 
REMARK    5  A    between atoms: C6_9  and  C7_10 
REMARK    6  A    between atoms: C6_9  and  C13_20 
REMARK    7  A    between atoms: C7_10  and  N2_11 
REMARK    8  A    between atoms: N2_11  and  S1_13 
REMARK    9  A    between atoms: S1_13  and  C9_16 
REMARK   10  A    between atoms: C13_20  and  N3_22 
REMARK   11  A    between atoms: N3_22  and  C15_24 
ROOT
HETATM    1  C6  UNL     1      13.337  21.311   5.251  1.00  0.00     0.124 C 
ENDROOT
BRANCH   1   2
HETATM    2  N1  UNL     1      13.783  20.050   4.779  1.00  0.00    -0.353 N 
HETATM    3  C5  UNL     1      14.496  19.824   3.565  1.00  0.00     0.221 C 
HETATM    4  O1  UNL     1      14.778  20.790   2.834  1.00  0.00    -0.273 OA
ATOM      5  H1  UNL     1      13.576  19.236   5.357  1.00  0.00     0.163 HD
BRANCH   3   6
HETATM    6  C4  UNL     1      14.931  18.476   3.123  1.00  0.00     0.130 C 
BRANCH   6   7
HETATM    7  C3  UNL     1      15.787  17.819   4.135  1.00  0.00    -0.009 C 
HETATM    8  C2  UNL     1      17.081  17.646   3.812  1.00  0.00    -0.039 C 
HETATM    9  C1  UNL     1      17.572  18.124   2.481  1.00  0.00     0.050 C 
BRANCH   8  10
HETATM   10  C25 UNL     1      18.035  16.983   4.680  1.00  0.00     0.038 A 
HETATM   11  C26 UNL     1      19.028  16.180   4.199  1.00  0.00     0.030 A 
HETATM   12  C27 UNL     1      19.945  15.555   5.065  1.00  0.00     0.004 A 
HETATM   13  C28 UNL     1      19.824  15.770   6.429  1.00  0.00     0.024 A 
HETATM   14  C29 UNL     1      18.793  16.597   6.874  1.00  0.00     0.005 A 
HETATM   15  C30 UNL     1      18.663  16.826   8.330  1.00  0.00     0.068 C 
HETATM   16  N4  UNL     1      17.943  17.169   6.007  1.00  0.00    -0.360 N 
ATOM     17  H4  UNL     1      17.200  17.767   6.369  1.00  0.00     0.166 HD
ENDBRANCH   8  10
ENDBRANCH   6   7
ENDBRANCH   3   6
ENDBRANCH   1   2
BRANCH   1  18
HETATM   18  C7  UNL     1      13.880  21.675   6.656  1.00  0.00     0.161 C 
BRANCH  18  19
HETATM   19  N2  UNL     1      15.163  22.226   6.662  1.00  0.00    -0.312 N 
HETATM   20  C8  UNL     1      15.415  23.234   5.661  1.00  0.00     0.162 C 
BRANCH  19  21
HETATM   21  S1  UNL     1      16.095  22.323   8.037  1.00  0.00     0.235 S 
HETATM   22  O2  UNL     1      16.806  23.642   8.130  1.00  0.00    -0.205 OA
HETATM   23  O3  UNL     1      15.226  22.235   9.270  1.00  0.00    -0.205 OA
BRANCH  21  24
HETATM   24  C9  UNL     1      17.348  21.079   8.241  1.00  0.00     0.072 C 
HETATM   25  C10 UNL     1      17.016  20.048   9.267  1.00  0.00     0.033 C 
HETATM   26  C11 UNL     1      17.454  20.373   6.886  1.00  0.00     0.033 C 
HETATM   27  C12 UNL     1      18.693  21.675   8.543  1.00  0.00     0.033 C 
ENDBRANCH  21  24
ENDBRANCH  19  21
ENDBRANCH  18  19
ENDBRANCH   1  18
BRANCH   1  28
HETATM   28  C13 UNL     1      11.875  21.541   5.317  1.00  0.00     0.097 C 
HETATM   29  C14 UNL     1      11.426  22.035   3.928  1.00  0.00     0.034 C 
BRANCH  28  30
HETATM   30  N3  UNL     1      11.365  22.464   6.225  1.00  0.00    -0.411 N 
ATOM     31  H3  UNL     1      11.389  22.225   7.216  1.00  0.00     0.154 HD
BRANCH  30  32
HETATM   32  C15 UNL     1      10.823  23.696   5.861  1.00  0.00     0.081 C 
HETATM   33  C16 UNL     1       9.582  23.894   6.692  1.00  0.00     0.029 C 
HETATM   34  C17 UNL     1       9.242  25.297   7.031  1.00  0.00    -0.013 C 
HETATM   35  C18 UNL     1       9.563  25.685   8.458  1.00  0.00     0.005 C 
HETATM   36  C24 UNL     1       9.700  26.324   6.037  1.00  0.00     0.005 C 
HETATM   37  C19 UNL     1      10.913  25.258   8.910  1.00  0.00     0.000 C 
HETATM   38  C20 UNL     1      12.060  25.901   8.204  1.00  0.00     0.000 C 
HETATM   39  C21 UNL     1      12.579  24.992   7.140  1.00  0.00     0.007 C 
HETATM   40  C22 UNL     1      11.769  24.870   5.906  1.00  0.00     0.008 C 
HETATM   41  C23 UNL     1      11.041  26.080   5.449  1.00  0.00     0.007 C 
ENDBRANCH  30  32
ENDBRANCH  28  30
ENDBRANCH   1  28
TORSDOF 11
ENDMDL
MODEL 2
REMARK VINA RESULT: -9.448856279      3.204      8.584
REMARK  11 active torsions:
REMARK  status: ('A' for Active; 'I' for Inactive)
REMARK    1  A    between atoms: C2_2  and  C25_34 
REMARK    2  A    between atoms: C3_3  and  C4_4 
REMARK    3  A    between atoms: C4_4  and  C5_5 
REMARK       I    between atoms: C5_5  and  N1_7 
REMARK    4  A    between atoms: N1_7  and  C6_9 
REMARK    5  A    between atoms: C6_9  and  C7_10 
REMARK    6  A    between atoms: C6_9  and  C13_20 
REMARK    7  A    between atoms: C7_10  and  N2_11 
REMARK    8  A    between atoms: N2_11  and  S1_13 
REMARK    9  A    between atoms: S1_13  and  C9_16 
REMARK   10  A    between atoms: C13_20  and  N3_22 
REMARK   11  A    between atoms: N3_22  and  C15_24 
ROOT
HETATM    1  C6  UNL     1      12.649  23.467   5.005  1.00  0.00     0.124 C 
ENDROOT
BRANCH   1   2
HETATM    2  N1  UNL     1      11.451  23.196   4.296  1.00  0.00    -0.353 N 
HETATM    3  C5  UNL     1      10.938  23.966   3.211  1.00  0.00     0.221 C 
HETATM    4  O1  UNL     1      11.569  24.962   2.818  1.00  0.00    -0.273 OA
ATOM      5  H1  UNL     1      10.911  22.381   4.586  1.00  0.00     0.163 HD
BRANCH   3   6
HETATM    6  C4  UNL     1       9.672  23.632   2.511  1.00  0.00     0.130 C 
BRANCH   6   7
HETATM    7  C3  UNL     1       8.489  23.951   3.339  1.00  0.00    -0.009 C 
HETATM    8  C2  UNL     1       7.785  25.043   2.994  1.00  0.00    -0.039 C 
HETATM    9  C1  UNL     1       8.224  25.852   1.812  1.00  0.00     0.050 C 
BRANCH   8  10
HETATM   10  C25 UNL     1       6.626  25.508   3.731  1.00  0.00     0.038 A 
HETATM   11  C26 UNL     1       6.561  26.755   4.283  1.00  0.00     0.030 A 
HETATM   12  C27 UNL     1       5.419  27.183   4.986  1.00  0.00     0.004 A 
HETATM   13  C28 UNL     1       4.351  26.309   5.112  1.00  0.00     0.024 A 
HETATM   14  C29 UNL     1       4.463  25.046   4.534  1.00  0.00     0.005 A 
HETATM   15  C30 UNL     1       3.322  24.113   4.669  1.00  0.00     0.068 C 
HETATM   16  N4  UNL     1       5.574  24.685   3.873  1.00  0.00    -0.360 N 
ATOM     17  H4  UNL     1       5.622  23.752   3.464  1.00  0.00     0.166 HD
ENDBRANCH   8  10
ENDBRANCH   6   7
ENDBRANCH   3   6
ENDBRANCH   1   2
BRANCH   1  18
HETATM   18  C7  UNL     1      13.428  22.192   5.417  1.00  0.00     0.161 C 
BRANCH  18  19
HETATM   19  N2  UNL     1      14.602  21.965   4.695  1.00  0.00    -0.312 N 
HETATM   20  C8  UNL     1      15.352  23.146   4.335  1.00  0.00     0.162 C 
BRANCH  19  21
HETATM   21  S1  UNL     1      15.484  20.561   4.827  1.00  0.00     0.235 S 
HETATM   22  O2  UNL     1      16.938  20.843   5.074  1.00  0.00    -0.205 OA
HETATM   23  O3  UNL     1      15.013  19.753   6.014  1.00  0.00    -0.205 OA
BRANCH  21  24
HETATM   24  C9  UNL     1      15.431  19.453   3.439  1.00  0.00     0.072 C 
HETATM   25  C10 UNL     1      16.776  19.015   2.962  1.00  0.00     0.033 C 
HETATM   26  C11 UNL     1      14.683  18.211   3.930  1.00  0.00     0.033 C 
HETATM   27  C12 UNL     1      14.650  20.022   2.290  1.00  0.00     0.033 C 
ENDBRANCH  21  24
ENDBRANCH  19  21
ENDBRANCH  18  19
ENDBRANCH   1  18
BRANCH   1  28
HETATM   28  C13 UNL     1      12.547  24.286   6.235  1.00  0.00     0.097 C 
HETATM   29  C14 UNL     1      13.203  23.484   7.375  1.00  0.00     0.034 C 
BRANCH  28  30
HETATM   30  N3  UNL     1      11.293  24.657   6.712  1.00  0.00    -0.411 N 
ATOM     31  H3  UNL     1      10.585  23.930   6.813  1.00  0.00     0.154 HD
BRANCH  30  32
HETATM   32  C15 UNL     1      10.947  25.962   7.059  1.00  0.00     0.081 C 
HETATM   33  C16 UNL     1       9.605  26.242   6.436  1.00  0.00     0.029 C 
HETATM   34  C17 UNL     1       8.729  27.185   7.172  1.00  0.00    -0.013 C 
HETATM   35  C18 UNL     1       7.597  26.519   7.925  1.00  0.00     0.005 C 
HETATM   36  C24 UNL     1       9.446  28.212   7.999  1.00  0.00     0.005 C 
HETATM   37  C19 UNL     1       8.013  25.331   8.713  1.00  0.00     0.000 C 
HETATM   38  C20 UNL     1       8.948  25.606   9.844  1.00  0.00     0.000 C 
HETATM   39  C21 UNL     1      10.351  25.311   9.430  1.00  0.00     0.007 C 
HETATM   40  C22 UNL     1      11.006  26.289   8.530  1.00  0.00     0.008 C 
HETATM   41  C23 UNL     1      10.653  27.719   8.710  1.00  0.00     0.007 C 
ENDBRANCH  30  32
ENDBRANCH  28  30
ENDBRANCH   1  28
TORSDOF 11
ENDMDL
MODEL 3
REMARK VINA RESULT: -9.302998583      3.457      8.553
REMARK  11 active torsions:
REMARK  status: ('A' for Active; 'I' for Inactive)
REMARK    1  A    between atoms: C2_2  and  C25_34 
REMARK    2  A    between atoms: C3_3  and  C4_4 
REMARK    3  A    between atoms: C4_4  and  C5_5 
REMARK       I    between atoms: C5_5  and  N1_7 
REMARK    4  A    between atoms: N1_7  and  C6_9 
REMARK    5  A    between atoms: C6_9  and  C7_10 
REMARK    6  A    between atoms: C6_9  and  C13_20 
REMARK    7  A    between atoms: C7_10  and  N2_11 
REMARK    8  A    between atoms: N2_11  and  S1_13 
REMARK    9  A    between atoms: S1_13  and  C9_16 
REMARK   10  A    between atoms: C13_20  and  N3_22 
REMARK   11  A    between atoms: N3_22  and  C15_24 
ROOT
HETATM    1  C6  UNL     1      11.519  23.597   4.790  1.00  0.00     0.124 C 
ENDROOT
BRANCH   1   2
HETATM    2  N1  UNL     1      10.345  23.164   4.121  1.00  0.00    -0.353 N 
HETATM    3  C5  UNL     1       9.977  23.508   2.786  1.00  0.00     0.221 C 
HETATM    4  O1  UNL     1      10.727  24.239   2.116  1.00  0.00    -0.273 OA
ATOM      5  H1  UNL     1       9.710  22.556   4.638  1.00  0.00     0.163 HD
BRANCH   3   6
HETATM    6  C4  UNL     1       8.730  23.026   2.144  1.00  0.00     0.130 C 
BRANCH   6   7
HETATM    7  C3  UNL     1       7.570  23.127   3.056  1.00  0.00    -0.009 C 
HETATM    8  C2  UNL     1       6.661  24.078   2.777  1.00  0.00    -0.039 C 
HETATM    9  C1  UNL     1       6.866  24.956   1.581  1.00  0.00     0.050 C 
BRANCH   8  10
HETATM   10  C25 UNL     1       5.493  24.328   3.599  1.00  0.00     0.038 A 
HETATM   11  C26 UNL     1       4.426  23.476   3.633  1.00  0.00     0.030 A 
HETATM   12  C27 UNL     1       3.308  23.740   4.447  1.00  0.00     0.004 A 
HETATM   13  C28 UNL     1       3.306  24.890   5.220  1.00  0.00     0.024 A 
HETATM   14  C29 UNL     1       4.416  25.730   5.151  1.00  0.00     0.005 A 
HETATM   15  C30 UNL     1       4.413  26.958   5.977  1.00  0.00     0.068 C 
HETATM   16  N4  UNL     1       5.458  25.434   4.358  1.00  0.00    -0.360 N 
ATOM     17  H4  UNL     1       6.252  26.073   4.332  1.00  0.00     0.166 HD
ENDBRANCH   8  10
ENDBRANCH   6   7
ENDBRANCH   3   6
ENDBRANCH   1   2
BRANCH   1  18
HETATM   18  C7  UNL     1      11.867  22.750   6.040  1.00  0.00     0.161 C 
BRANCH  18  19
HETATM   19  N2  UNL     1      13.110  22.116   5.989  1.00  0.00    -0.312 N 
HETATM   20  C8  UNL     1      13.287  21.173   4.910  1.00  0.00     0.162 C 
BRANCH  19  21
HETATM   21  S1  UNL     1      14.502  22.812   6.577  1.00  0.00     0.235 S 
HETATM   22  O2  UNL     1      15.360  23.352   5.469  1.00  0.00    -0.205 OA
HETATM   23  O3  UNL     1      14.168  23.997   7.454  1.00  0.00    -0.205 OA
BRANCH  21  24
HETATM   24  C9  UNL     1      15.563  21.774   7.553  1.00  0.00     0.072 C 
HETATM   25  C10 UNL     1      16.415  20.850   6.747  1.00  0.00     0.033 C 
HETATM   26  C11 UNL     1      16.493  22.727   8.308  1.00  0.00     0.033 C 
HETATM   27  C12 UNL     1      14.798  20.988   8.578  1.00  0.00     0.033 C 
ENDBRANCH  21  24
ENDBRANCH  19  21
ENDBRANCH  18  19
ENDBRANCH   1  18
BRANCH   1  28
HETATM   28  C13 UNL     1      11.573  25.008   5.236  1.00  0.00     0.097 C 
HETATM   29  C14 UNL     1      12.907  25.595   4.735  1.00  0.00     0.034 C 
BRANCH  28  30
HETATM   30  N3  UNL     1      11.523  25.302   6.595  1.00  0.00    -0.411 N 
ATOM     31  H3  UNL     1      11.912  24.621   7.247  1.00  0.00     0.154 HD
BRANCH  30  32
HETATM   32  C15 UNL     1      10.973  26.470   7.119  1.00  0.00     0.081 C 
HETATM   33  C16 UNL     1       9.594  26.611   6.529  1.00  0.00     0.029 C 
HETATM   34  C17 UNL     1       8.585  27.284   7.384  1.00  0.00    -0.013 C 
HETATM   35  C18 UNL     1       7.589  26.342   8.025  1.00  0.00     0.005 C 
HETATM   36  C24 UNL     1       9.137  28.288   8.353  1.00  0.00     0.005 C 
HETATM   37  C19 UNL     1       8.206  25.140   8.642  1.00  0.00     0.000 C 
HETATM   38  C20 UNL     1       9.099  25.404   9.809  1.00  0.00     0.000 C 
HETATM   39  C21 UNL     1      10.525  25.404   9.370  1.00  0.00     0.007 C 
HETATM   40  C22 UNL     1      10.998  26.593   8.623  1.00  0.00     0.008 C 
HETATM   41  C23 UNL     1      10.418  27.906   8.998  1.00  0.00     0.007 C 
ENDBRANCH  30  32
ENDBRANCH  28  30
ENDBRANCH   1  28
TORSDOF 11
ENDMDL
MODEL 4
REMARK VINA RESULT: -9.252559099      3.331      8.587
REMARK  11 active torsions:
REMARK  status: ('A' for Active; 'I' for Inactive)
REMARK    1  A    between atoms: C2_2  and  C25_34 
REMARK    2  A    between atoms: C3_3  and  C4_4 
REMARK    3  A    between atoms: C4_4  and  C5_5 
REMARK       I    between atoms: C5_5  and  N1_7 
REMARK    4  A    between atoms: N1_7  and  C6_9 
REMARK    5  A    between atoms: C6_9  and  C7_10 
REMARK    6  A    between atoms: C6_9  and  C13_20 
REMARK    7  A    between atoms: C7_10  and  N2_11 
REMARK    8  A    between atoms: N2_11  and  S1_13 
REMARK    9  A    between atoms: S1_13  and  C9_16 
REMARK   10  A    between atoms: C13_20  and  N3_22 
REMARK   11  A    between atoms: N3_22  and  C15_24 
ROOT
HETATM    1  C6  UNL     1      12.968  24.086   4.948  1.00  0.00     0.124 C 
ENDROOT
BRANCH   1   2
HETATM    2  N1  UNL     1      12.017  24.278   3.913  1.00  0.00    -0.353 N 
HETATM    3  C5  UNL     1      10.749  23.630   3.823  1.00  0.00     0.221 C 
HETATM    4  O1  UNL     1      10.409  22.830   4.711  1.00  0.00    -0.273 OA
ATOM      5  H1  UNL     1      12.260  24.934   3.172  1.00  0.00     0.163 HD
BRANCH   3   6
HETATM    6  C4  UNL     1       9.798  23.870   2.710  1.00  0.00     0.130 C 
BRANCH   6   7
HETATM    7  C3  UNL     1       8.395  23.691   3.141  1.00  0.00    -0.009 C 
HETATM    8  C2  UNL     1       7.592  24.766   3.049  1.00  0.00    -0.039 C 
HETATM    9  C1  UNL     1       8.149  26.051   2.519  1.00  0.00     0.050 C 
BRANCH   8  10
HETATM   10  C25 UNL     1       6.204  24.760   3.471  1.00  0.00     0.038 A 
HETATM   11  C26 UNL     1       5.517  25.908   3.744  1.00  0.00     0.030 A 
HETATM   12  C27 UNL     1       4.168  25.873   4.144  1.00  0.00     0.004 A 
HETATM   13  C28 UNL     1       3.540  24.642   4.257  1.00  0.00     0.024 A 
HETATM   14  C29 UNL     1       4.282  23.498   3.970  1.00  0.00     0.005 A 
HETATM   15  C30 UNL     1       3.612  22.184   4.091  1.00  0.00     0.068 C 
HETATM   16  N4  UNL     1       5.568  23.584   3.593  1.00  0.00    -0.360 N 
ATOM     17  H4  UNL     1       6.080  22.726   3.392  1.00  0.00     0.166 HD
ENDBRANCH   8  10
ENDBRANCH   6   7
ENDBRANCH   3   6
ENDBRANCH   1   2
BRANCH   1  18
HETATM   18  C7  UNL     1      13.355  22.602   5.168  1.00  0.00     0.161 C 
BRANCH  18  19
HETATM   19  N2  UNL     1      14.626  22.254   4.707  1.00  0.00    -0.312 N 
HETATM   20  C8  UNL     1      15.549  23.350   4.530  1.00  0.00     0.162 C 
BRANCH  19  21
HETATM   21  S1  UNL     1      15.317  20.770   5.002  1.00  0.00     0.235 S 
HETATM   22  O2  UNL     1      16.769  20.897   5.361  1.00  0.00    -0.205 OA
HETATM   23  O3  UNL     1      14.655  20.107   6.189  1.00  0.00    -0.205 OA
BRANCH  21  24
HETATM   24  C9  UNL     1      15.243  19.580   3.685  1.00  0.00     0.072 C 
HETATM   25  C10 UNL     1      14.571  20.083   2.450  1.00  0.00     0.033 C 
HETATM   26  C11 UNL     1      16.699  19.266   3.329  1.00  0.00     0.033 C 
HETATM   27  C12 UNL     1      14.600  18.294   4.119  1.00  0.00     0.033 C 
ENDBRANCH  21  24
ENDBRANCH  19  21
ENDBRANCH  18  19
ENDBRANCH   1  18
BRANCH   1  28
HETATM   28  C13 UNL     1      12.637  24.616   6.291  1.00  0.00     0.097 C 
HETATM   29  C14 UNL     1      12.549  23.412   7.248  1.00  0.00     0.034 C 
BRANCH  28  30
HETATM   30  N3  UNL     1      11.456  25.328   6.477  1.00  0.00    -0.411 N 
ATOM     31  H3  UNL     1      11.138  25.935   5.721  1.00  0.00     0.154 HD
BRANCH  30  32
HETATM   32  C15 UNL     1      10.681  25.262   7.633  1.00  0.00     0.081 C 
HETATM   33  C16 UNL     1      11.004  26.486   8.450  1.00  0.00     0.029 C 
HETATM   34  C17 UNL     1       9.903  27.018   9.290  1.00  0.00    -0.013 C 
HETATM   35  C18 UNL     1       9.249  28.266   8.736  1.00  0.00     0.005 C 
HETATM   36  C24 UNL     1       8.903  25.999   9.753  1.00  0.00     0.005 C 
HETATM   37  C19 UNL     1       8.928  28.186   7.288  1.00  0.00     0.000 C 
HETATM   38  C20 UNL     1       7.902  27.169   6.912  1.00  0.00     0.000 C 
HETATM   39  C21 UNL     1       8.569  25.932   6.412  1.00  0.00     0.007 C 
HETATM   40  C22 UNL     1       9.202  25.053   7.423  1.00  0.00     0.008 C 
HETATM   41  C23 UNL     1       8.545  24.964   8.751  1.00  0.00     0.007 C 
ENDBRANCH  30  32
ENDBRANCH  28  30
ENDBRANCH   1  28
TORSDOF 11
ENDMDL
MODEL 5
REMARK VINA RESULT: -9.152070190      3.208      8.675
REMARK  11 active torsions:
REMARK  status: ('A' for Active; 'I' for Inactive)
REMARK    1  A    between atoms: C2_2  and  C25_34 
REMARK    2  A    between atoms: C3_3  and  C4_4 
REMARK    3  A    between atoms: C4_4  and  C5_5 
REMARK       I    between atoms: C5_5  and  N1_7 
REMARK    4  A    between atoms: N1_7  and  C6_9 
REMARK    5  A    between atoms: C6_9  and  C7_10 
REMARK    6  A    between atoms: C6_9  and  C13_20 
REMARK    7  A    between atoms: C7_10  and  N2_11 
REMARK    8  A    between atoms: N2_11  and  S1_13 
REMARK    9  A    between atoms: S1_13  and  C9_16 
REMARK   10  A    between atoms: C13_20  and  N3_22 
REMARK   11  A    between atoms: N3_22  and  C15_24 
ROOT
HETATM    1  C6  UNL     1      13.070  24.120   5.112  1.00  0.00     0.124 C 
ENDROOT
BRANCH   1   2
HETATM    2  N1  UNL     1      12.038  24.566   4.246  1.00  0.00    -0.353 N 
HETATM    3  C5  UNL     1      10.857  23.837   3.919  1.00  0.00     0.221 C 
HETATM    4  O1  UNL     1      10.674  22.715   4.424  1.00  0.00    -0.273 OA
ATOM      5  H1  UNL     1      12.152  25.485   3.820  1.00  0.00     0.163 HD
BRANCH   3   6
HETATM    6  C4  UNL     1       9.816  24.357   2.999  1.00  0.00     0.130 C 
BRANCH   6   7
HETATM    7  C3  UNL     1       8.472  24.316   3.616  1.00  0.00    -0.009 C 
HETATM    8  C2  UNL     1       7.673  25.375   3.395  1.00  0.00    -0.039 C 
HETATM    9  C1  UNL     1       8.174  26.506   2.551  1.00  0.00     0.050 C 
BRANCH   8  10
HETATM   10  C25 UNL     1       6.345  25.501   3.964  1.00  0.00     0.038 A 
HETATM   11  C26 UNL     1       5.232  25.015   3.340  1.00  0.00     0.030 A 
HETATM   12  C27 UNL     1       3.956  25.144   3.920  1.00  0.00     0.004 A 
HETATM   13  C28 UNL     1       3.844  25.781   5.146  1.00  0.00     0.024 A 
HETATM   14  C29 UNL     1       5.007  26.263   5.743  1.00  0.00     0.005 A 
HETATM   15  C30 UNL     1       4.888  26.943   7.052  1.00  0.00     0.068 C 
HETATM   16  N4  UNL     1       6.202  26.114   5.150  1.00  0.00    -0.360 N 
ATOM     17  H4  UNL     1       7.031  26.481   5.616  1.00  0.00     0.166 HD
ENDBRANCH   8  10
ENDBRANCH   6   7
ENDBRANCH   3   6
ENDBRANCH   1   2
BRANCH   1  18
HETATM   18  C7  UNL     1      13.340  22.597   5.023  1.00  0.00     0.161 C 
BRANCH  18  19
HETATM   19  N2  UNL     1      14.637  22.256   4.634  1.00  0.00    -0.312 N 
HETATM   20  C8  UNL     1      15.566  23.355   4.522  1.00  0.00     0.162 C 
BRANCH  19  21
HETATM   21  S1  UNL     1      15.312  20.769   4.952  1.00  0.00     0.235 S 
HETATM   22  O2  UNL     1      16.760  20.888   5.328  1.00  0.00    -0.205 OA
HETATM   23  O3  UNL     1      14.630  20.124   6.137  1.00  0.00    -0.205 OA
BRANCH  21  24
HETATM   24  C9  UNL     1      15.245  19.567   3.646  1.00  0.00     0.072 C 
HETATM   25  C10 UNL     1      14.587  20.060   2.400  1.00  0.00     0.033 C 
HETATM   26  C11 UNL     1      16.703  19.243   3.307  1.00  0.00     0.033 C 
HETATM   27  C12 UNL     1      14.593  18.288   4.086  1.00  0.00     0.033 C 
ENDBRANCH  21  24
ENDBRANCH  19  21
ENDBRANCH  18  19
ENDBRANCH   1  18
BRANCH   1  28
HETATM   28  C13 UNL     1      12.926  24.415   6.557  1.00  0.00     0.097 C 
HETATM   29  C14 UNL     1      12.512  23.105   7.253  1.00  0.00     0.034 C 
BRANCH  28  30
HETATM   30  N3  UNL     1      12.002  25.369   6.975  1.00  0.00    -0.411 N 
ATOM     31  H3  UNL     1      12.201  26.349   6.775  1.00  0.00     0.154 HD
BRANCH  30  32
HETATM   32  C15 UNL     1      10.822  25.064   7.652  1.00  0.00     0.081 C 
HETATM   33  C16 UNL     1      10.911  25.715   9.007  1.00  0.00     0.029 C 
HETATM   34  C17 UNL     1       9.626  26.151   9.607  1.00  0.00    -0.013 C 
HETATM   35  C18 UNL     1       9.387  27.644   9.542  1.00  0.00     0.005 C 
HETATM   36  C24 UNL     1       8.424  25.355   9.189  1.00  0.00     0.005 C 
HETATM   37  C19 UNL     1       9.676  28.244   8.214  1.00  0.00     0.000 C 
HETATM   38  C20 UNL     1       8.790  27.794   7.100  1.00  0.00     0.000 C 
HETATM   39  C21 UNL     1       9.470  26.728   6.307  1.00  0.00     0.007 C 
HETATM   40  C22 UNL     1       9.543  25.379   6.917  1.00  0.00     0.008 C 
HETATM   41  C23 UNL     1       8.398  24.953   7.760  1.00  0.00     0.007 C 
ENDBRANCH  30  32
ENDBRANCH  28  30
ENDBRANCH   1  28
TORSDOF 11
ENDMDL
