MODEL 1
REMARK VINA RESULT: -5.905645106      0.000      0.000
REMARK  15 active torsions:
REMARK  status: ('A' for Active; 'I' for Inactive)
REMARK    1  A    between atoms: C2_2  and  C3_3 
REMARK    2  A    between atoms: C2_2  and  C10_20 
REMARK    3  A    between atoms: C3_3  and  O1_4 
REMARK    4  A    between atoms: O1_4  and  C4_5 
REMARK    5  A    between atoms: C5_7  and  C6_8 
REMARK    6  A    between atoms: C6_8  and  O3_9 
REMARK    7  A    between atoms: C7_11  and  O4_12 
REMARK    8  A    between atoms: C8_14  and  O5_15 
REMARK    9  A    between atoms: C9_17  and  O6_18 
REMARK   10  A    between atoms: C11_22  and  C12_23 
REMARK   11  A    between atoms: C12_23  and  O8_24 
REMARK   12  A    between atoms: C14_27  and  N1_28 
REMARK   13  A    between atoms: C19_36  and  N2_37 
REMARK   14  A    between atoms: N2_37  and  N3_39 
REMARK   15  A    between atoms: N3_39  and  N4_40 
ROOT
HETATM    1  C10 UNL     1      56.277  13.614  21.431  1.00  0.00     0.296 C 
HETATM    2  O7  UNL     1      54.925  13.762  21.246  1.00  0.00    -0.339 OA
HETATM    3  C11 UNL     1      54.475  14.771  22.052  1.00  0.00     0.140 C 
HETATM    4  C13 UNL     1      53.502  14.292  23.132  1.00  0.00     0.084 C 
HETATM    5  C14 UNL     1      54.346  14.177  24.316  1.00  0.00     0.135 C 
HETATM    6  C15 UNL     1      53.789  14.476  25.650  1.00  0.00     0.039 C 
HETATM    7  C16 UNL     1      55.069  14.863  26.411  1.00  0.00     0.003 C 
HETATM    8  C17 UNL     1      56.067  15.312  25.328  1.00  0.00     0.012 C 
HETATM    9  C18 UNL     1      55.206  15.450  24.157  1.00  0.00     0.083 C 
HETATM   10  C19 UNL     1      55.711  15.286  22.807  1.00  0.00     0.202 C 
HETATM   11  O9  UNL     1      56.623  14.299  22.584  1.00  0.00    -0.321 OA
ENDROOT
BRANCH   1  12
HETATM   12  C2  UNL     1      57.095  13.997  20.253  1.00  0.00    -0.011 C 
HETATM   13  C1  UNL     1      56.632  14.738  19.261  1.00  0.00     0.021 C 
BRANCH  12  14
HETATM   14  C3  UNL     1      58.501  13.517  20.201  1.00  0.00     0.209 C 
BRANCH  14  15
HETATM   15  O1  UNL     1      59.384  14.359  20.825  1.00  0.00    -0.354 OA
BRANCH  15  16
HETATM   16  C4  UNL     1      60.629  13.762  20.965  1.00  0.00     0.291 C 
HETATM   17  O2  UNL     1      60.932  13.439  22.268  1.00  0.00    -0.348 OA
HETATM   18  C5  UNL     1      61.363  14.459  23.059  1.00  0.00     0.179 C 
HETATM   19  C7  UNL     1      62.465  15.298  22.498  1.00  0.00     0.180 C 
HETATM   20  C8  UNL     1      62.107  15.786  21.128  1.00  0.00     0.183 C 
HETATM   21  C9  UNL     1      61.674  14.623  20.301  1.00  0.00     0.204 C 
BRANCH  18  22
HETATM   22  C6  UNL     1      60.252  15.351  23.566  1.00  0.00     0.198 C 
BRANCH  22  23
HETATM   23  O3  UNL     1      59.088  14.568  23.706  1.00  0.00    -0.398 OA
ATOM     24  H3  UNL     1      58.335  15.126  23.552  1.00  0.00     0.209 HD
ENDBRANCH  22  23
ENDBRANCH  18  22
BRANCH  19  25
HETATM   25  O4  UNL     1      62.706  16.347  23.396  1.00  0.00    -0.390 OA
ATOM     26  H4  UNL     1      63.613  16.612  23.298  1.00  0.00     0.210 HD
ENDBRANCH  19  25
BRANCH  20  27
HETATM   27  O5  UNL     1      61.185  16.831  21.135  1.00  0.00    -0.390 OA
ATOM     28  H5  UNL     1      61.147  17.308  20.314  1.00  0.00     0.210 HD
ENDBRANCH  20  27
BRANCH  21  29
HETATM   29  O6  UNL     1      62.782  13.875  19.924  1.00  0.00    -0.388 OA
ATOM     30  H6  UNL     1      63.033  14.055  19.025  1.00  0.00     0.210 HD
ENDBRANCH  21  29
ENDBRANCH  15  16
ENDBRANCH  14  15
ENDBRANCH  12  14
ENDBRANCH   1  12
BRANCH   3  31
HETATM   31  C12 UNL     1      53.802  15.888  21.301  1.00  0.00     0.207 C 
BRANCH  31  32
HETATM   32  O8  UNL     1      52.928  15.298  20.390  1.00  0.00    -0.398 OA
ATOM     33  H8  UNL     1      52.144  15.062  20.870  1.00  0.00     0.209 HD
ENDBRANCH  31  32
ENDBRANCH   3  31
BRANCH  10  34
HETATM   34  N2  UNL     1      56.058  16.556  22.221  1.00  0.00    -0.213 N 
ATOM     35  H2  UNL     1      55.314  17.149  21.855  1.00  0.00     0.200 HD
BRANCH  34  36
HETATM   36  N3  UNL     1      57.210  16.946  22.147  1.00  0.00    -0.245 NA
BRANCH  36  37
HETATM   37  N4  UNL     1      58.428  17.017  21.952  1.00  0.00    -0.261 N 
ATOM     38  H42 UNL     1      58.349  16.883  20.944  1.00  0.00     0.193 HD
ATOM     39  H41 UNL     1      59.436  17.111  22.076  1.00  0.00     0.193 HD
ENDBRANCH  36  37
ENDBRANCH  34  36
ENDBRANCH  10  34
BRANCH   5  40
HETATM   40  N1  UNL     1      55.166  12.999  24.397  1.00  0.00    -0.070 N 
ATOM     41  H13 UNL     1      54.702  12.294  24.971  1.00  0.00     0.275 HD
ATOM     42  H12 UNL     1      55.177  12.523  23.495  1.00  0.00     0.275 HD
ATOM     43  H11 UNL     1      56.121  13.138  24.726  1.00  0.00     0.275 HD
ENDBRANCH   5  40
TORSDOF 15
ENDMDL
MODEL 2
REMARK VINA RESULT: -5.823085610      1.826      2.715
REMARK  15 active torsions:
REMARK  status: ('A' for Active; 'I' for Inactive)
REMARK    1  A    between atoms: C2_2  and  C3_3 
REMARK    2  A    between atoms: C2_2  and  C10_20 
REMARK    3  A    between atoms: C3_3  and  O1_4 
REMARK    4  A    between atoms: O1_4  and  C4_5 
REMARK    5  A    between atoms: C5_7  and  C6_8 
REMARK    6  A    between atoms: C6_8  and  O3_9 
REMARK    7  A    between atoms: C7_11  and  O4_12 
REMARK    8  A    between atoms: C8_14  and  O5_15 
REMARK    9  A    between atoms: C9_17  and  O6_18 
REMARK   10  A    between atoms: C11_22  and  C12_23 
REMARK   11  A    between atoms: C12_23  and  O8_24 
REMARK   12  A    between atoms: C14_27  and  N1_28 
REMARK   13  A    between atoms: C19_36  and  N2_37 
REMARK   14  A    between atoms: N2_37  and  N3_39 
REMARK   15  A    between atoms: N3_39  and  N4_40 
ROOT
HETATM    1  C10 UNL     1      56.289  13.669  21.283  1.00  0.00     0.296 C 
HETATM    2  O7  UNL     1      54.939  13.833  21.102  1.00  0.00    -0.339 OA
HETATM    3  C11 UNL     1      54.499  14.830  21.929  1.00  0.00     0.140 C 
HETATM    4  C13 UNL     1      53.523  14.339  23.000  1.00  0.00     0.084 C 
HETATM    5  C14 UNL     1      54.366  14.193  24.180  1.00  0.00     0.135 C 
HETATM    6  C15 UNL     1      53.814  14.471  25.520  1.00  0.00     0.039 C 
HETATM    7  C16 UNL     1      55.098  14.831  26.287  1.00  0.00     0.003 C 
HETATM    8  C17 UNL     1      56.099  15.291  25.213  1.00  0.00     0.012 C 
HETATM    9  C18 UNL     1      55.238  15.461  24.045  1.00  0.00     0.083 C 
HETATM   10  C19 UNL     1      55.740  15.319  22.692  1.00  0.00     0.202 C 
HETATM   11  O9  UNL     1      56.643  14.328  22.448  1.00  0.00    -0.321 OA
ENDROOT
BRANCH   1  12
HETATM   12  C2  UNL     1      57.109  14.067  20.111  1.00  0.00    -0.011 C 
HETATM   13  C1  UNL     1      56.615  14.709  19.066  1.00  0.00     0.021 C 
BRANCH  12  14
HETATM   14  C3  UNL     1      58.555  13.723  20.129  1.00  0.00     0.209 C 
BRANCH  14  15
HETATM   15  O1  UNL     1      58.824  12.553  20.789  1.00  0.00    -0.354 OA
BRANCH  15  16
HETATM   16  C4  UNL     1      60.118  12.550  21.293  1.00  0.00     0.291 C 
HETATM   17  O2  UNL     1      60.640  11.285  21.438  1.00  0.00    -0.348 OA
HETATM   18  C5  UNL     1      60.241  10.588  22.536  1.00  0.00     0.179 C 
HETATM   19  C7  UNL     1      60.347  11.309  23.840  1.00  0.00     0.180 C 
HETATM   20  C8  UNL     1      59.662  12.639  23.762  1.00  0.00     0.183 C 
HETATM   21  C9  UNL     1      60.162  13.367  22.560  1.00  0.00     0.204 C 
BRANCH  18  22
HETATM   22  C6  UNL     1      58.865   9.975  22.404  1.00  0.00     0.198 C 
BRANCH  22  23
HETATM   23  O3  UNL     1      58.732   9.472  21.094  1.00  0.00    -0.398 OA
ATOM     24  H3  UNL     1      57.912   9.790  20.735  1.00  0.00     0.209 HD
ENDBRANCH  22  23
ENDBRANCH  18  22
BRANCH  19  25
HETATM   25  O4  UNL     1      59.803  10.483  24.834  1.00  0.00    -0.390 OA
ATOM     26  H4  UNL     1      59.087   9.993  24.446  1.00  0.00     0.210 HD
ENDBRANCH  19  25
BRANCH  20  27
HETATM   27  O5  UNL     1      58.271  12.550  23.813  1.00  0.00    -0.390 OA
ATOM     28  H5  UNL     1      57.955  11.979  24.504  1.00  0.00     0.210 HD
ENDBRANCH  20  27
BRANCH  21  29
HETATM   29  O6  UNL     1      61.440  13.856  22.804  1.00  0.00    -0.388 OA
ATOM     30  H6  UNL     1      62.105  13.224  22.557  1.00  0.00     0.210 HD
ENDBRANCH  21  29
ENDBRANCH  15  16
ENDBRANCH  14  15
ENDBRANCH  12  14
ENDBRANCH   1  12
BRANCH   3  31
HETATM   31  C12 UNL     1      53.836  15.968  21.200  1.00  0.00     0.207 C 
BRANCH  31  32
HETATM   32  O8  UNL     1      52.881  15.408  20.352  1.00  0.00    -0.398 OA
ATOM     33  H8  UNL     1      52.761  16.014  19.631  1.00  0.00     0.209 HD
ENDBRANCH  31  32
ENDBRANCH   3  31
BRANCH  10  34
HETATM   34  N2  UNL     1      56.099  16.597  22.130  1.00  0.00    -0.213 N 
ATOM     35  H2  UNL     1      55.366  17.180  21.725  1.00  0.00     0.200 HD
BRANCH  34  36
HETATM   36  N3  UNL     1      57.246  17.006  22.123  1.00  0.00    -0.245 NA
BRANCH  36  37
HETATM   37  N4  UNL     1      58.474  17.096  22.227  1.00  0.00    -0.261 N 
ATOM     38  H42 UNL     1      58.648  16.873  21.247  1.00  0.00     0.193 HD
ATOM     39  H41 UNL     1      59.419  17.231  22.586  1.00  0.00     0.193 HD
ENDBRANCH  36  37
ENDBRANCH  34  36
ENDBRANCH  10  34
BRANCH   5  40
HETATM   40  N1  UNL     1      55.175  13.006  24.237  1.00  0.00    -0.070 N 
ATOM     41  H13 UNL     1      54.721  12.253  23.719  1.00  0.00     0.275 HD
ATOM     42  H12 UNL     1      56.017  13.134  23.676  1.00  0.00     0.275 HD
ATOM     43  H11 UNL     1      55.429  12.680  25.170  1.00  0.00     0.275 HD
ENDBRANCH   5  40
TORSDOF 15
ENDMDL
MODEL 3
REMARK VINA RESULT: -5.658758909      1.068      2.128
REMARK  15 active torsions:
REMARK  status: ('A' for Active; 'I' for Inactive)
REMARK    1  A    between atoms: C2_2  and  C3_3 
REMARK    2  A    between atoms: C2_2  and  C10_20 
REMARK    3  A    between atoms: C3_3  and  O1_4 
REMARK    4  A    between atoms: O1_4  and  C4_5 
REMARK    5  A    between atoms: C5_7  and  C6_8 
REMARK    6  A    between atoms: C6_8  and  O3_9 
REMARK    7  A    between atoms: C7_11  and  O4_12 
REMARK    8  A    between atoms: C8_14  and  O5_15 
REMARK    9  A    between atoms: C9_17  and  O6_18 
REMARK   10  A    between atoms: C11_22  and  C12_23 
REMARK   11  A    between atoms: C12_23  and  O8_24 
REMARK   12  A    between atoms: C14_27  and  N1_28 
REMARK   13  A    between atoms: C19_36  and  N2_37 
REMARK   14  A    between atoms: N2_37  and  N3_39 
REMARK   15  A    between atoms: N3_39  and  N4_40 
ROOT
HETATM    1  C10 UNL     1      56.078  13.604  21.389  1.00  0.00     0.296 C 
HETATM    2  O7  UNL     1      54.723  13.786  21.261  1.00  0.00    -0.339 OA
HETATM    3  C11 UNL     1      54.334  14.813  22.076  1.00  0.00     0.140 C 
HETATM    4  C13 UNL     1      53.397  14.368  23.201  1.00  0.00     0.084 C 
HETATM    5  C14 UNL     1      54.287  14.241  24.348  1.00  0.00     0.135 C 
HETATM    6  C15 UNL     1      53.796  14.565  25.702  1.00  0.00     0.039 C 
HETATM    7  C16 UNL     1      55.117  14.924  26.404  1.00  0.00     0.003 C 
HETATM    8  C17 UNL     1      56.078  15.339  25.276  1.00  0.00     0.012 C 
HETATM    9  C18 UNL     1      55.172  15.490  24.141  1.00  0.00     0.083 C 
HETATM   10  C19 UNL     1      55.614  15.302  22.773  1.00  0.00     0.202 C 
HETATM   11  O9  UNL     1      56.490  14.290  22.520  1.00  0.00    -0.321 OA
ENDROOT
BRANCH   1  12
HETATM   12  C2  UNL     1      56.854  13.957  20.174  1.00  0.00    -0.011 C 
HETATM   13  C1  UNL     1      56.431  14.826  19.272  1.00  0.00     0.021 C 
BRANCH  12  14
HETATM   14  C3  UNL     1      58.168  13.292  19.975  1.00  0.00     0.209 C 
BRANCH  14  15
HETATM   15  O1  UNL     1      59.226  14.161  20.021  1.00  0.00    -0.354 OA
BRANCH  15  16
HETATM   16  C4  UNL     1      59.521  14.522  21.329  1.00  0.00     0.291 C 
HETATM   17  O2  UNL     1      60.582  15.392  21.426  1.00  0.00    -0.348 OA
HETATM   18  C5  UNL     1      61.824  14.845  21.328  1.00  0.00     0.179 C 
HETATM   19  C7  UNL     1      62.085  13.662  22.201  1.00  0.00     0.180 C 
HETATM   20  C8  UNL     1      61.019  12.627  22.016  1.00  0.00     0.183 C 
HETATM   21  C9  UNL     1      59.686  13.278  22.166  1.00  0.00     0.204 C 
BRANCH  18  22
HETATM   22  C6  UNL     1      62.244  14.533  19.909  1.00  0.00     0.198 C 
BRANCH  22  23
HETATM   23  O3  UNL     1      61.850  15.608  19.086  1.00  0.00    -0.398 OA
ATOM     24  H3  UNL     1      62.109  16.417  19.512  1.00  0.00     0.209 HD
ENDBRANCH  22  23
ENDBRANCH  18  22
BRANCH  19  25
HETATM   25  O4  UNL     1      63.365  13.176  21.895  1.00  0.00    -0.390 OA
ATOM     26  H4  UNL     1      63.261  12.336  21.462  1.00  0.00     0.210 HD
ENDBRANCH  19  25
BRANCH  20  27
HETATM   27  O5  UNL     1      61.149  11.902  20.832  1.00  0.00    -0.390 OA
ATOM     28  H5  UNL     1      61.004  12.425  20.051  1.00  0.00     0.210 HD
ENDBRANCH  20  27
BRANCH  21  29
HETATM   29  O6  UNL     1      59.434  13.533  23.508  1.00  0.00    -0.388 OA
ATOM     30  H6  UNL     1      60.174  13.290  24.052  1.00  0.00     0.210 HD
ENDBRANCH  21  29
ENDBRANCH  15  16
ENDBRANCH  14  15
ENDBRANCH  12  14
ENDBRANCH   1  12
BRANCH   3  31
HETATM   31  C12 UNL     1      53.658  15.941  21.344  1.00  0.00     0.207 C 
BRANCH  31  32
HETATM   32  O8  UNL     1      52.855  15.365  20.360  1.00  0.00    -0.398 OA
ATOM     33  H8  UNL     1      52.154  15.979  20.180  1.00  0.00     0.209 HD
ENDBRANCH  31  32
ENDBRANCH   3  31
BRANCH  10  34
HETATM   34  N2  UNL     1      55.968  16.558  22.161  1.00  0.00    -0.213 N 
ATOM     35  H2  UNL     1      55.239  17.107  21.706  1.00  0.00     0.200 HD
BRANCH  34  36
HETATM   36  N3  UNL     1      57.108  16.986  22.167  1.00  0.00    -0.245 NA
BRANCH  36  37
HETATM   37  N4  UNL     1      58.313  17.150  22.389  1.00  0.00    -0.261 N 
ATOM     38  H42 UNL     1      58.309  18.128  22.098  1.00  0.00     0.193 HD
ATOM     39  H41 UNL     1      59.288  17.009  22.650  1.00  0.00     0.193 HD
ENDBRANCH  36  37
ENDBRANCH  34  36
ENDBRANCH  10  34
BRANCH   5  40
HETATM   40  N1  UNL     1      55.079  13.043  24.405  1.00  0.00    -0.070 N 
ATOM     41  H13 UNL     1      54.495  12.256  24.689  1.00  0.00     0.275 HD
ATOM     42  H12 UNL     1      55.334  12.752  23.462  1.00  0.00     0.275 HD
ATOM     43  H11 UNL     1      55.913  13.083  24.992  1.00  0.00     0.275 HD
ENDBRANCH   5  40
TORSDOF 15
ENDMDL
MODEL 4
REMARK VINA RESULT: -5.589856692      3.061      6.148
REMARK  15 active torsions:
REMARK  status: ('A' for Active; 'I' for Inactive)
REMARK    1  A    between atoms: C2_2  and  C3_3 
REMARK    2  A    between atoms: C2_2  and  C10_20 
REMARK    3  A    between atoms: C3_3  and  O1_4 
REMARK    4  A    between atoms: O1_4  and  C4_5 
REMARK    5  A    between atoms: C5_7  and  C6_8 
REMARK    6  A    between atoms: C6_8  and  O3_9 
REMARK    7  A    between atoms: C7_11  and  O4_12 
REMARK    8  A    between atoms: C8_14  and  O5_15 
REMARK    9  A    between atoms: C9_17  and  O6_18 
REMARK   10  A    between atoms: C11_22  and  C12_23 
REMARK   11  A    between atoms: C12_23  and  O8_24 
REMARK   12  A    between atoms: C14_27  and  N1_28 
REMARK   13  A    between atoms: C19_36  and  N2_37 
REMARK   14  A    between atoms: N2_37  and  N3_39 
REMARK   15  A    between atoms: N3_39  and  N4_40 
ROOT
HETATM    1  C10 UNL     1      59.847  13.445  23.011  1.00  0.00     0.296 C 
HETATM    2  O7  UNL     1      59.610  12.912  21.769  1.00  0.00    -0.339 OA
HETATM    3  C11 UNL     1      58.741  11.863  21.895  1.00  0.00     0.140 C 
HETATM    4  C13 UNL     1      59.362  10.518  21.513  1.00  0.00     0.084 C 
HETATM    5  C14 UNL     1      59.722   9.937  22.802  1.00  0.00     0.135 C 
HETATM    6  C15 UNL     1      59.640   8.477  23.001  1.00  0.00     0.039 C 
HETATM    7  C16 UNL     1      59.451   8.409  24.526  1.00  0.00     0.003 C 
HETATM    8  C17 UNL     1      58.861   9.774  24.924  1.00  0.00     0.012 C 
HETATM    9  C18 UNL     1      58.480  10.332  23.631  1.00  0.00     0.083 C 
HETATM   10  C19 UNL     1      58.423  11.762  23.395  1.00  0.00     0.202 C 
HETATM   11  O9  UNL     1      59.393  12.538  23.954  1.00  0.00    -0.321 OA
ENDROOT
BRANCH   1  12
HETATM   12  C2  UNL     1      59.297  14.811  23.199  1.00  0.00    -0.011 C 
HETATM   13  C1  UNL     1      59.426  15.495  24.323  1.00  0.00     0.021 C 
BRANCH  12  14
HETATM   14  C3  UNL     1      58.568  15.427  22.059  1.00  0.00     0.209 C 
BRANCH  14  15
HETATM   15  O1  UNL     1      57.236  15.107  22.032  1.00  0.00    -0.354 OA
BRANCH  15  16
HETATM   16  C4  UNL     1      56.447  16.243  22.158  1.00  0.00     0.291 C 
HETATM   17  O2  UNL     1      55.289  16.023  22.867  1.00  0.00    -0.348 OA
HETATM   18  C5  UNL     1      54.271  15.425  22.193  1.00  0.00     0.179 C 
HETATM   19  C7  UNL     1      53.922  16.026  20.871  1.00  0.00     0.180 C 
HETATM   20  C8  UNL     1      55.143  16.151  20.013  1.00  0.00     0.183 C 
HETATM   21  C9  UNL     1      56.211  16.841  20.793  1.00  0.00     0.204 C 
BRANCH  18  22
HETATM   22  C6  UNL     1      54.432  13.928  22.044  1.00  0.00     0.198 C 
BRANCH  22  23
HETATM   23  O3  UNL     1      54.143  13.329  23.287  1.00  0.00    -0.398 OA
ATOM     24  H3  UNL     1      53.929  12.417  23.134  1.00  0.00     0.209 HD
ENDBRANCH  22  23
ENDBRANCH  18  22
BRANCH  19  25
HETATM   25  O4  UNL     1      52.931  15.227  20.282  1.00  0.00    -0.390 OA
ATOM     26  H4  UNL     1      52.400  14.861  20.980  1.00  0.00     0.210 HD
ENDBRANCH  19  25
BRANCH  20  27
HETATM   27  O5  UNL     1      55.559  14.940  19.461  1.00  0.00    -0.390 OA
ATOM     28  H5  UNL     1      55.984  15.036  18.616  1.00  0.00     0.210 HD
ENDBRANCH  20  27
BRANCH  21  29
HETATM   29  O6  UNL     1      55.931  18.199  20.877  1.00  0.00    -0.388 OA
ATOM     30  H6  UNL     1      56.454  18.620  21.548  1.00  0.00     0.210 HD
ENDBRANCH  21  29
ENDBRANCH  15  16
ENDBRANCH  14  15
ENDBRANCH  12  14
ENDBRANCH   1  12
BRANCH   3  31
HETATM   31  C12 UNL     1      57.480  12.025  21.089  1.00  0.00     0.207 C 
BRANCH  31  32
HETATM   32  O8  UNL     1      57.763  12.929  20.067  1.00  0.00    -0.398 OA
ATOM     33  H8  UNL     1      57.021  13.518  20.004  1.00  0.00     0.209 HD
ENDBRANCH  31  32
ENDBRANCH   3  31
BRANCH  10  34
HETATM   34  N2  UNL     1      57.085  12.268  23.573  1.00  0.00    -0.213 N 
ATOM     35  H2  UNL     1      56.473  12.338  22.760  1.00  0.00     0.200 HD
BRANCH  34  36
HETATM   36  N3  UNL     1      56.660  12.616  24.660  1.00  0.00    -0.245 NA
BRANCH  36  37
HETATM   37  N4  UNL     1      55.958  13.075  25.568  1.00  0.00    -0.261 N 
ATOM     38  H42 UNL     1      55.103  13.068  25.011  1.00  0.00     0.193 HD
ATOM     39  H41 UNL     1      55.631  13.449  26.458  1.00  0.00     0.193 HD
ENDBRANCH  36  37
ENDBRANCH  34  36
ENDBRANCH  10  34
BRANCH   5  40
HETATM   40  N1  UNL     1      60.930  10.432  23.403  1.00  0.00    -0.070 N 
ATOM     41  H13 UNL     1      61.564   9.655  23.593  1.00  0.00     0.275 HD
ATOM     42  H12 UNL     1      61.473  10.948  22.712  1.00  0.00     0.275 HD
ATOM     43  H11 UNL     1      60.814  10.997  24.245  1.00  0.00     0.275 HD
ENDBRANCH   5  40
TORSDOF 15
ENDMDL
MODEL 5
REMARK VINA RESULT: -5.503983794      2.032      3.256
REMARK  15 active torsions:
REMARK  status: ('A' for Active; 'I' for Inactive)
REMARK    1  A    between atoms: C2_2  and  C3_3 
REMARK    2  A    between atoms: C2_2  and  C10_20 
REMARK    3  A    between atoms: C3_3  and  O1_4 
REMARK    4  A    between atoms: O1_4  and  C4_5 
REMARK    5  A    between atoms: C5_7  and  C6_8 
REMARK    6  A    between atoms: C6_8  and  O3_9 
REMARK    7  A    between atoms: C7_11  and  O4_12 
REMARK    8  A    between atoms: C8_14  and  O5_15 
REMARK    9  A    between atoms: C9_17  and  O6_18 
REMARK   10  A    between atoms: C11_22  and  C12_23 
REMARK   11  A    between atoms: C12_23  and  O8_24 
REMARK   12  A    between atoms: C14_27  and  N1_28 
REMARK   13  A    between atoms: C19_36  and  N2_37 
REMARK   14  A    between atoms: N2_37  and  N3_39 
REMARK   15  A    between atoms: N3_39  and  N4_40 
ROOT
HETATM    1  C10 UNL     1      56.522  13.581  21.378  1.00  0.00     0.296 C 
HETATM    2  O7  UNL     1      55.192  13.739  21.079  1.00  0.00    -0.339 OA
HETATM    3  C11 UNL     1      54.683  14.754  21.842  1.00  0.00     0.140 C 
HETATM    4  C13 UNL     1      53.620  14.285  22.837  1.00  0.00     0.084 C 
HETATM    5  C14 UNL     1      54.360  14.168  24.088  1.00  0.00     0.135 C 
HETATM    6  C15 UNL     1      53.694  14.475  25.369  1.00  0.00     0.039 C 
HETATM    7  C16 UNL     1      54.909  14.854  26.235  1.00  0.00     0.003 C 
HETATM    8  C17 UNL     1      55.997  15.292  25.239  1.00  0.00     0.012 C 
HETATM    9  C18 UNL     1      55.240  15.434  23.999  1.00  0.00     0.083 C 
HETATM   10  C19 UNL     1      55.855  15.262  22.697  1.00  0.00     0.202 C 
HETATM   11  O9  UNL     1      56.775  14.268  22.554  1.00  0.00    -0.321 OA
ENDROOT
BRANCH   1  12
HETATM   12  C2  UNL     1      57.439  13.955  20.272  1.00  0.00    -0.011 C 
HETATM   13  C1  UNL     1      57.017  14.376  19.092  1.00  0.00     0.021 C 
BRANCH  12  14
HETATM   14  C3  UNL     1      58.901  13.846  20.518  1.00  0.00     0.209 C 
BRANCH  14  15
HETATM   15  O1  UNL     1      59.308  12.569  20.805  1.00  0.00    -0.354 OA
BRANCH  15  16
HETATM   16  C4  UNL     1      59.703  12.457  22.131  1.00  0.00     0.291 C 
HETATM   17  O2  UNL     1      61.065  12.345  22.284  1.00  0.00    -0.348 OA
HETATM   18  C5  UNL     1      61.601  11.116  22.050  1.00  0.00     0.179 C 
HETATM   19  C7  UNL     1      60.939   9.974  22.748  1.00  0.00     0.180 C 
HETATM   20  C8  UNL     1      59.465   9.982  22.488  1.00  0.00     0.183 C 
HETATM   21  C9  UNL     1      58.931  11.342  22.791  1.00  0.00     0.204 C 
BRANCH  18  22
HETATM   22  C6  UNL     1      61.765  10.790  20.583  1.00  0.00     0.198 C 
BRANCH  22  23
HETATM   23  O3  UNL     1      62.193  11.957  19.918  1.00  0.00    -0.398 OA
ATOM     24  H3  UNL     1      61.424  12.447  19.654  1.00  0.00     0.209 HD
ENDBRANCH  22  23
ENDBRANCH  18  22
BRANCH  19  25
HETATM   25  O4  UNL     1      61.555   8.790  22.315  1.00  0.00    -0.390 OA
ATOM     26  H4  UNL     1      61.056   8.456  21.579  1.00  0.00     0.210 HD
ENDBRANCH  19  25
BRANCH  20  27
HETATM   27  O5  UNL     1      59.124   9.528  21.214  1.00  0.00    -0.390 OA
ATOM     28  H5  UNL     1      59.083   8.581  21.150  1.00  0.00     0.210 HD
ENDBRANCH  20  27
BRANCH  21  29
HETATM   29  O6  UNL     1      58.855  11.522  24.166  1.00  0.00    -0.388 OA
ATOM     30  H6  UNL     1      58.087  11.095  24.529  1.00  0.00     0.210 HD
ENDBRANCH  21  29
ENDBRANCH  15  16
ENDBRANCH  14  15
ENDBRANCH  12  14
ENDBRANCH   1  12
BRANCH   3  31
HETATM   31  C12 UNL     1      54.085  15.874  21.034  1.00  0.00     0.207 C 
BRANCH  31  32
HETATM   32  O8  UNL     1      52.948  15.364  20.409  1.00  0.00    -0.398 OA
ATOM     33  H8  UNL     1      52.457  16.105  20.077  1.00  0.00     0.209 HD
ENDBRANCH  31  32
ENDBRANCH   3  31
BRANCH  10  34
HETATM   34  N2  UNL     1      56.261  16.528  22.139  1.00  0.00    -0.213 N 
ATOM     35  H2  UNL     1      55.561  17.109  21.678  1.00  0.00     0.200 HD
BRANCH  34  36
HETATM   36  N3  UNL     1      57.409  16.928  22.200  1.00  0.00    -0.245 NA
BRANCH  36  37
HETATM   37  N4  UNL     1      58.638  16.994  22.312  1.00  0.00    -0.261 N 
ATOM     38  H42 UNL     1      58.698  16.189  22.937  1.00  0.00     0.193 HD
ATOM     39  H41 UNL     1      59.615  17.273  22.229  1.00  0.00     0.193 HD
ENDBRANCH  36  37
ENDBRANCH  34  36
ENDBRANCH  10  34
BRANCH   5  40
HETATM   40  N1  UNL     1      55.160  12.984  24.241  1.00  0.00    -0.070 N 
ATOM     41  H13 UNL     1      54.630  12.167  23.938  1.00  0.00     0.275 HD
ATOM     42  H12 UNL     1      55.910  12.983  23.550  1.00  0.00     0.275 HD
ATOM     43  H11 UNL     1      55.547  12.820  25.170  1.00  0.00     0.275 HD
ENDBRANCH   5  40
TORSDOF 15
ENDMDL
