MODEL 1
REMARK VINA RESULT: -6.822510121      0.000      0.000
REMARK  14 active torsions:
REMARK  status: ('A' for Active; 'I' for Inactive)
REMARK    1  A    between atoms: O1_2  and  C2_3 
REMARK    2  A    between atoms: C2_3  and  C3_5 
REMARK    3  A    between atoms: C4_6  and  C5_7 
REMARK    4  A    between atoms: C6_8  and  C8_10 
REMARK    5  A    between atoms: C8_10  and  C9_11 
REMARK    6  A    between atoms: C8_10  and  O9_35 
REMARK    7  A    between atoms: C10_12  and  C11_13 
REMARK    8  A    between atoms: C15_17  and  O3_18 
REMARK    9  A    between atoms: C16_20  and  O4_21 
REMARK   10  A    between atoms: O4_21  and  C17_22 
REMARK   11  A    between atoms: C20_26  and  O6_27 
REMARK   12  A    between atoms: C21_29  and  O7_30 
REMARK   13  A    between atoms: C22_32  and  O8_33 
REMARK   14  A    between atoms: O9_35  and  N1_36 
ROOT
HETATM    1  C11 UNL     1      58.055  15.575  24.542  1.00  0.00     0.040 C 
HETATM    2  C12 UNL     1      59.215  16.590  24.464  1.00  0.00     0.018 C 
HETATM    3  C13 UNL     1      60.377  15.600  24.296  1.00  0.00     0.013 C 
HETATM    4  C14 UNL     1      60.773  15.168  25.692  1.00  0.00     0.012 C 
HETATM    5  C15 UNL     1      59.783  14.387  23.603  1.00  0.00     0.151 C 
HETATM    6  C16 UNL     1      58.357  14.843  23.224  1.00  0.00     0.161 C 
ENDROOT
BRANCH   1   7
HETATM    7  C10 UNL     1      56.761  16.212  24.592  1.00  0.00    -0.021 C 
HETATM    8  C9  UNL     1      55.600  15.732  24.908  1.00  0.00     0.008 C 
BRANCH   8   9
HETATM    9  C8  UNL     1      55.211  14.371  25.327  1.00  0.00     0.203 C 
BRANCH   9  10
HETATM   10  C6  UNL     1      53.828  14.021  24.906  1.00  0.00    -0.049 C 
HETATM   11  C5  UNL     1      53.655  13.340  23.796  1.00  0.00     0.006 C 
HETATM   12  C7  UNL     1      52.674  14.429  25.715  1.00  0.00     0.046 C 
BRANCH  11  13
HETATM   13  C4  UNL     1      52.291  13.008  23.399  1.00  0.00     0.006 C 
HETATM   14  C3  UNL     1      52.056  12.191  22.365  1.00  0.00     0.082 C 
BRANCH  14  15
HETATM   15  C2  UNL     1      50.721  11.841  21.946  1.00  0.00     0.282 C 
HETATM   16  O2  UNL     1      50.523  11.145  20.924  1.00  0.00    -0.260 OA
BRANCH  15  17
HETATM   17  O1  UNL     1      49.637  12.275  22.678  1.00  0.00    -0.323 OA
HETATM   18  C1  UNL     1      48.721  11.387  23.243  1.00  0.00     0.213 C 
ENDBRANCH  15  17
ENDBRANCH  14  15
ENDBRANCH  11  13
ENDBRANCH   9  10
BRANCH   9  19
HETATM   19  O9  UNL     1      56.047  13.361  24.912  1.00  0.00    -0.274 OA
BRANCH  19  20
HETATM   20  N1  UNL     1      56.399  12.595  25.936  1.00  0.00    -0.310 N 
ATOM     21  H12 UNL     1      56.924  12.931  26.744  1.00  0.00     0.184 HD
ATOM     22  H11 UNL     1      56.073  11.638  25.798  1.00  0.00     0.184 HD
ENDBRANCH  19  20
ENDBRANCH   9  19
ENDBRANCH   8   9
ENDBRANCH   1   7
BRANCH   6  23
HETATM   23  O4  UNL     1      58.386  15.730  22.181  1.00  0.00    -0.350 OA
BRANCH  23  24
HETATM   24  C17 UNL     1      57.814  15.276  21.014  1.00  0.00     0.292 C 
HETATM   25  O5  UNL     1      57.155  16.341  20.394  1.00  0.00    -0.351 OA
HETATM   26  C18 UNL     1      56.094  16.811  21.157  1.00  0.00     0.152 C 
HETATM   27  C19 UNL     1      55.534  18.023  20.402  1.00  0.00     0.042 C 
HETATM   28  C20 UNL     1      54.985  15.821  21.312  1.00  0.00     0.178 C 
HETATM   29  C21 UNL     1      55.452  14.504  20.711  1.00  0.00     0.183 C 
HETATM   30  C22 UNL     1      56.815  14.213  21.303  1.00  0.00     0.204 C 
BRANCH  28  31
HETATM   31  O6  UNL     1      53.804  16.256  20.716  1.00  0.00    -0.390 OA
ATOM     32  H6  UNL     1      53.243  16.718  21.328  1.00  0.00     0.210 HD
ENDBRANCH  28  31
BRANCH  29  33
HETATM   33  O7  UNL     1      55.452  14.564  19.339  1.00  0.00    -0.390 OA
ATOM     34  H7  UNL     1      54.669  14.161  18.982  1.00  0.00     0.210 HD
ENDBRANCH  29  33
BRANCH  30  35
HETATM   35  O8  UNL     1      57.221  12.949  20.870  1.00  0.00    -0.388 OA
ATOM     36  H8  UNL     1      56.649  12.582  20.206  1.00  0.00     0.210 HD
ENDBRANCH  30  35
ENDBRANCH  23  24
ENDBRANCH   6  23
BRANCH   5  37
HETATM   37  O3  UNL     1      60.496  13.994  22.500  1.00  0.00    -0.393 OA
ATOM     38  H3  UNL     1      61.332  13.598  22.717  1.00  0.00     0.210 HD
ENDBRANCH   5  37
TORSDOF 14
ENDMDL
MODEL 2
REMARK VINA RESULT: -6.682654822      1.618      4.305
REMARK  14 active torsions:
REMARK  status: ('A' for Active; 'I' for Inactive)
REMARK    1  A    between atoms: O1_2  and  C2_3 
REMARK    2  A    between atoms: C2_3  and  C3_5 
REMARK    3  A    between atoms: C4_6  and  C5_7 
REMARK    4  A    between atoms: C6_8  and  C8_10 
REMARK    5  A    between atoms: C8_10  and  C9_11 
REMARK    6  A    between atoms: C8_10  and  O9_35 
REMARK    7  A    between atoms: C10_12  and  C11_13 
REMARK    8  A    between atoms: C15_17  and  O3_18 
REMARK    9  A    between atoms: C16_20  and  O4_21 
REMARK   10  A    between atoms: O4_21  and  C17_22 
REMARK   11  A    between atoms: C20_26  and  O6_27 
REMARK   12  A    between atoms: C21_29  and  O7_30 
REMARK   13  A    between atoms: C22_32  and  O8_33 
REMARK   14  A    between atoms: O9_35  and  N1_36 
ROOT
HETATM    1  C11 UNL     1      55.566  15.374  22.597  1.00  0.00     0.040 C 
HETATM    2  C12 UNL     1      55.494  14.566  21.283  1.00  0.00     0.018 C 
HETATM    3  C13 UNL     1      55.207  15.722  20.316  1.00  0.00     0.013 C 
HETATM    4  C14 UNL     1      53.709  15.932  20.335  1.00  0.00     0.012 C 
HETATM    5  C15 UNL     1      55.840  16.949  20.947  1.00  0.00     0.151 C 
HETATM    6  C16 UNL     1      56.636  16.378  22.141  1.00  0.00     0.161 C 
ENDROOT
BRANCH   1   7
HETATM    7  C10 UNL     1      55.946  14.564  23.729  1.00  0.00    -0.021 C 
HETATM    8  C9  UNL     1      55.344  14.361  24.857  1.00  0.00     0.008 C 
BRANCH   8   9
HETATM    9  C8  UNL     1      54.062  14.891  25.363  1.00  0.00     0.203 C 
BRANCH   9  10
HETATM   10  C6  UNL     1      52.892  14.120  24.864  1.00  0.00    -0.049 C 
HETATM   11  C5  UNL     1      53.034  13.373  23.793  1.00  0.00     0.006 C 
HETATM   12  C7  UNL     1      51.599  14.191  25.554  1.00  0.00     0.046 C 
BRANCH  11  13
HETATM   13  C4  UNL     1      51.874  12.625  23.318  1.00  0.00     0.006 C 
HETATM   14  C3  UNL     1      51.790  12.226  22.043  1.00  0.00     0.082 C 
BRANCH  14  15
HETATM   15  C2  UNL     1      50.659  11.486  21.540  1.00  0.00     0.282 C 
HETATM   16  O2  UNL     1      50.658  11.011  20.381  1.00  0.00    -0.260 OA
BRANCH  15  17
HETATM   17  O1  UNL     1      49.555  11.291  22.342  1.00  0.00    -0.323 OA
HETATM   18  C1  UNL     1      49.200  12.192  23.346  1.00  0.00     0.213 C 
ENDBRANCH  15  17
ENDBRANCH  14  15
ENDBRANCH  11  13
ENDBRANCH   9  10
BRANCH   9  19
HETATM   19  O9  UNL     1      53.956  14.980  26.732  1.00  0.00    -0.274 OA
BRANCH  19  20
HETATM   20  N1  UNL     1      54.889  14.244  27.322  1.00  0.00    -0.310 N 
ATOM     21  H12 UNL     1      55.027  13.249  27.142  1.00  0.00     0.184 HD
ATOM     22  H11 UNL     1      55.436  14.810  27.970  1.00  0.00     0.184 HD
ENDBRANCH  19  20
ENDBRANCH   9  19
ENDBRANCH   8   9
ENDBRANCH   1   7
BRANCH   6  23
HETATM   23  O4  UNL     1      57.758  15.719  21.712  1.00  0.00    -0.350 OA
BRANCH  23  24
HETATM   24  C17 UNL     1      58.945  16.200  22.217  1.00  0.00     0.292 C 
HETATM   25  O5  UNL     1      59.988  15.775  21.390  1.00  0.00    -0.351 OA
HETATM   26  C18 UNL     1      60.126  14.393  21.396  1.00  0.00     0.152 C 
HETATM   27  C19 UNL     1      61.234  14.074  20.384  1.00  0.00     0.042 C 
HETATM   28  C20 UNL     1      60.549  13.841  22.720  1.00  0.00     0.178 C 
HETATM   29  C21 UNL     1      60.528  14.981  23.725  1.00  0.00     0.183 C 
HETATM   30  C22 UNL     1      59.184  15.665  23.583  1.00  0.00     0.204 C 
BRANCH  28  31
HETATM   31  O6  UNL     1      61.803  13.240  22.663  1.00  0.00    -0.390 OA
ATOM     32  H6  UNL     1      61.998  12.740  23.447  1.00  0.00     0.210 HD
ENDBRANCH  28  31
BRANCH  29  33
HETATM   33  O7  UNL     1      61.595  15.824  23.532  1.00  0.00    -0.390 OA
ATOM     34  H7  UNL     1      62.291  15.386  23.056  1.00  0.00     0.210 HD
ENDBRANCH  29  33
BRANCH  30  35
HETATM   35  O8  UNL     1      59.080  16.640  24.578  1.00  0.00    -0.388 OA
ATOM     36  H8  UNL     1      59.356  16.330  25.433  1.00  0.00     0.210 HD
ENDBRANCH  30  35
ENDBRANCH  23  24
ENDBRANCH   6  23
BRANCH   5  37
HETATM   37  O3  UNL     1      56.651  17.642  20.085  1.00  0.00    -0.393 OA
ATOM     38  H3  UNL     1      56.924  18.486  20.425  1.00  0.00     0.210 HD
ENDBRANCH   5  37
TORSDOF 14
ENDMDL
MODEL 3
REMARK VINA RESULT: -6.669405460      1.728      4.273
REMARK  14 active torsions:
REMARK  status: ('A' for Active; 'I' for Inactive)
REMARK    1  A    between atoms: O1_2  and  C2_3 
REMARK    2  A    between atoms: C2_3  and  C3_5 
REMARK    3  A    between atoms: C4_6  and  C5_7 
REMARK    4  A    between atoms: C6_8  and  C8_10 
REMARK    5  A    between atoms: C8_10  and  C9_11 
REMARK    6  A    between atoms: C8_10  and  O9_35 
REMARK    7  A    between atoms: C10_12  and  C11_13 
REMARK    8  A    between atoms: C15_17  and  O3_18 
REMARK    9  A    between atoms: C16_20  and  O4_21 
REMARK   10  A    between atoms: O4_21  and  C17_22 
REMARK   11  A    between atoms: C20_26  and  O6_27 
REMARK   12  A    between atoms: C21_29  and  O7_30 
REMARK   13  A    between atoms: C22_32  and  O8_33 
REMARK   14  A    between atoms: O9_35  and  N1_36 
ROOT
HETATM    1  C11 UNL     1      55.763  14.809  22.429  1.00  0.00     0.040 C 
HETATM    2  C12 UNL     1      54.836  14.118  21.406  1.00  0.00     0.018 C 
HETATM    3  C13 UNL     1      54.712  15.266  20.395  1.00  0.00     0.013 C 
HETATM    4  C14 UNL     1      53.593  16.154  20.893  1.00  0.00     0.012 C 
HETATM    5  C15 UNL     1      56.002  16.058  20.515  1.00  0.00     0.151 C 
HETATM    6  C16 UNL     1      56.879  15.190  21.444  1.00  0.00     0.161 C 
ENDROOT
BRANCH   1   7
HETATM    7  C10 UNL     1      56.176  13.925  23.492  1.00  0.00    -0.021 C 
HETATM    8  C9  UNL     1      55.767  13.836  24.718  1.00  0.00     0.008 C 
BRANCH   8   9
HETATM    9  C8  UNL     1      54.736  14.609  25.439  1.00  0.00     0.203 C 
BRANCH   9  10
HETATM   10  C6  UNL     1      53.358  14.143  25.131  1.00  0.00    -0.049 C 
HETATM   11  C5  UNL     1      53.156  13.425  24.049  1.00  0.00     0.006 C 
HETATM   12  C7  UNL     1      52.239  14.478  26.020  1.00  0.00     0.046 C 
BRANCH  11  13
HETATM   13  C4  UNL     1      51.797  12.979  23.765  1.00  0.00     0.006 C 
HETATM   14  C3  UNL     1      51.521  12.283  22.655  1.00  0.00     0.082 C 
BRANCH  14  15
HETATM   15  C2  UNL     1      50.189  11.826  22.342  1.00  0.00     0.282 C 
HETATM   16  O2  UNL     1      49.968  11.107  21.341  1.00  0.00    -0.260 OA
BRANCH  15  17
HETATM   17  O1  UNL     1      49.134  12.181  23.154  1.00  0.00    -0.323 OA
HETATM   18  C1  UNL     1      48.140  11.271  23.518  1.00  0.00     0.213 C 
ENDBRANCH  15  17
ENDBRANCH  14  15
ENDBRANCH  11  13
ENDBRANCH   9  10
BRANCH   9  19
HETATM   19  O9  UNL     1      54.873  14.649  26.807  1.00  0.00    -0.274 OA
BRANCH  19  20
HETATM   20  N1  UNL     1      55.895  13.897  27.197  1.00  0.00    -0.310 N 
ATOM     21  H12 UNL     1      56.839  13.982  26.820  1.00  0.00     0.184 HD
ATOM     22  H11 UNL     1      55.600  13.235  27.914  1.00  0.00     0.184 HD
ENDBRANCH  19  20
ENDBRANCH   9  19
ENDBRANCH   8   9
ENDBRANCH   1   7
BRANCH   6  23
HETATM   23  O4  UNL     1      57.337  14.078  20.788  1.00  0.00    -0.350 OA
BRANCH  23  24
HETATM   24  C17 UNL     1      58.707  13.990  20.676  1.00  0.00     0.292 C 
HETATM   25  O5  UNL     1      59.070  12.641  20.680  1.00  0.00    -0.351 OA
HETATM   26  C18 UNL     1      58.767  12.024  21.887  1.00  0.00     0.152 C 
HETATM   27  C19 UNL     1      59.133  10.545  21.710  1.00  0.00     0.042 C 
HETATM   28  C20 UNL     1      59.555  12.551  23.043  1.00  0.00     0.178 C 
HETATM   29  C21 UNL     1      60.345  13.755  22.554  1.00  0.00     0.183 C 
HETATM   30  C22 UNL     1      59.367  14.656  21.830  1.00  0.00     0.204 C 
BRANCH  28  31
HETATM   31  O6  UNL     1      60.394  11.585  23.591  1.00  0.00    -0.390 OA
ATOM     32  H6  UNL     1      59.914  10.932  24.086  1.00  0.00     0.210 HD
ENDBRANCH  28  31
BRANCH  29  33
HETATM   33  O7  UNL     1      61.406  13.360  21.775  1.00  0.00    -0.390 OA
ATOM     34  H7  UNL     1      61.674  14.058  21.189  1.00  0.00     0.210 HD
ENDBRANCH  29  33
BRANCH  30  35
HETATM   35  O8  UNL     1      60.032  15.832  21.475  1.00  0.00    -0.388 OA
ATOM     36  H8  UNL     1      60.325  15.835  20.572  1.00  0.00     0.210 HD
ENDBRANCH  30  35
ENDBRANCH  23  24
ENDBRANCH   6  23
BRANCH   5  37
HETATM   37  O3  UNL     1      56.613  16.282  19.309  1.00  0.00    -0.393 OA
ATOM     38  H3  UNL     1      57.017  17.139  19.248  1.00  0.00     0.210 HD
ENDBRANCH   5  37
TORSDOF 14
ENDMDL
MODEL 4
REMARK VINA RESULT: -6.561238679      2.938      5.338
REMARK  14 active torsions:
REMARK  status: ('A' for Active; 'I' for Inactive)
REMARK    1  A    between atoms: O1_2  and  C2_3 
REMARK    2  A    between atoms: C2_3  and  C3_5 
REMARK    3  A    between atoms: C4_6  and  C5_7 
REMARK    4  A    between atoms: C6_8  and  C8_10 
REMARK    5  A    between atoms: C8_10  and  C9_11 
REMARK    6  A    between atoms: C8_10  and  O9_35 
REMARK    7  A    between atoms: C10_12  and  C11_13 
REMARK    8  A    between atoms: C15_17  and  O3_18 
REMARK    9  A    between atoms: C16_20  and  O4_21 
REMARK   10  A    between atoms: O4_21  and  C17_22 
REMARK   11  A    between atoms: C20_26  and  O6_27 
REMARK   12  A    between atoms: C21_29  and  O7_30 
REMARK   13  A    between atoms: C22_32  and  O8_33 
REMARK   14  A    between atoms: O9_35  and  N1_36 
ROOT
HETATM    1  C11 UNL     1      55.055  14.897  21.659  1.00  0.00     0.040 C 
HETATM    2  C12 UNL     1      55.454  14.840  20.170  1.00  0.00     0.018 C 
HETATM    3  C13 UNL     1      56.218  16.168  20.084  1.00  0.00     0.013 C 
HETATM    4  C14 UNL     1      55.182  17.240  19.824  1.00  0.00     0.012 C 
HETATM    5  C15 UNL     1      56.774  16.410  21.476  1.00  0.00     0.151 C 
HETATM    6  C16 UNL     1      56.470  15.094  22.226  1.00  0.00     0.161 C 
ENDROOT
BRANCH   1   7
HETATM    7  C10 UNL     1      54.393  13.695  22.105  1.00  0.00    -0.021 C 
HETATM    8  C9  UNL     1      53.974  13.352  23.281  1.00  0.00     0.008 C 
BRANCH   8   9
HETATM    9  C8  UNL     1      54.033  14.080  24.564  1.00  0.00     0.203 C 
BRANCH   9  10
HETATM   10  C6  UNL     1      52.712  14.139  25.244  1.00  0.00    -0.049 C 
HETATM   11  C5  UNL     1      52.645  14.628  26.462  1.00  0.00     0.006 C 
HETATM   12  C7  UNL     1      51.500  13.660  24.569  1.00  0.00     0.046 C 
BRANCH  11  13
HETATM   13  C4  UNL     1      51.340  14.676  27.112  1.00  0.00     0.006 C 
HETATM   14  C3  UNL     1      51.132  15.460  28.177  1.00  0.00     0.082 C 
BRANCH  14  15
HETATM   15  C2  UNL     1      49.855  15.533  28.844  1.00  0.00     0.282 C 
HETATM   16  O2  UNL     1      49.507  14.664  29.676  1.00  0.00    -0.260 OA
BRANCH  15  17
HETATM   17  O1  UNL     1      48.995  16.574  28.568  1.00  0.00    -0.323 OA
HETATM   18  C1  UNL     1      49.456  17.835  28.188  1.00  0.00     0.213 C 
ENDBRANCH  15  17
ENDBRANCH  14  15
ENDBRANCH  11  13
ENDBRANCH   9  10
BRANCH   9  19
HETATM   19  O9  UNL     1      54.954  13.610  25.472  1.00  0.00    -0.274 OA
BRANCH  19  20
HETATM   20  N1  UNL     1      55.944  14.480  25.625  1.00  0.00    -0.310 N 
ATOM     21  H12 UNL     1      55.820  15.493  25.606  1.00  0.00     0.184 HD
ATOM     22  H11 UNL     1      56.831  13.995  25.761  1.00  0.00     0.184 HD
ENDBRANCH  19  20
ENDBRANCH   9  19
ENDBRANCH   8   9
ENDBRANCH   1   7
BRANCH   6  23
HETATM   23  O4  UNL     1      57.298  14.087  21.805  1.00  0.00    -0.350 OA
BRANCH  23  24
HETATM   24  C17 UNL     1      58.098  13.543  22.784  1.00  0.00     0.292 C 
HETATM   25  O5  UNL     1      59.413  13.503  22.316  1.00  0.00    -0.351 OA
HETATM   26  C18 UNL     1      59.552  12.655  21.225  1.00  0.00     0.152 C 
HETATM   27  C19 UNL     1      61.011  12.785  20.770  1.00  0.00     0.042 C 
HETATM   28  C20 UNL     1      59.304  11.217  21.551  1.00  0.00     0.178 C 
HETATM   29  C21 UNL     1      58.794  11.147  22.981  1.00  0.00     0.183 C 
HETATM   30  C22 UNL     1      57.669  12.154  23.094  1.00  0.00     0.204 C 
BRANCH  28  31
HETATM   31  O6  UNL     1      60.445  10.436  21.382  1.00  0.00    -0.390 OA
ATOM     32  H6  UNL     1      60.476   9.710  21.994  1.00  0.00     0.210 HD
ENDBRANCH  28  31
BRANCH  29  33
HETATM   33  O7  UNL     1      59.815  11.363  23.876  1.00  0.00    -0.390 OA
ATOM     34  H7  UNL     1      59.479  11.429  24.762  1.00  0.00     0.210 HD
ENDBRANCH  29  33
BRANCH  30  35
HETATM   35  O8  UNL     1      57.093  12.029  24.360  1.00  0.00    -0.388 OA
ATOM     36  H8  UNL     1      57.727  12.084  25.065  1.00  0.00     0.210 HD
ENDBRANCH  30  35
ENDBRANCH  23  24
ENDBRANCH   6  23
BRANCH   5  37
HETATM   37  O3  UNL     1      58.115  16.695  21.480  1.00  0.00    -0.393 OA
ATOM     38  H3  UNL     1      58.641  16.016  21.885  1.00  0.00     0.210 HD
ENDBRANCH   5  37
TORSDOF 14
ENDMDL
MODEL 5
REMARK VINA RESULT: -6.499289552      2.308      4.731
REMARK  14 active torsions:
REMARK  status: ('A' for Active; 'I' for Inactive)
REMARK    1  A    between atoms: O1_2  and  C2_3 
REMARK    2  A    between atoms: C2_3  and  C3_5 
REMARK    3  A    between atoms: C4_6  and  C5_7 
REMARK    4  A    between atoms: C6_8  and  C8_10 
REMARK    5  A    between atoms: C8_10  and  C9_11 
REMARK    6  A    between atoms: C8_10  and  O9_35 
REMARK    7  A    between atoms: C10_12  and  C11_13 
REMARK    8  A    between atoms: C15_17  and  O3_18 
REMARK    9  A    between atoms: C16_20  and  O4_21 
REMARK   10  A    between atoms: O4_21  and  C17_22 
REMARK   11  A    between atoms: C20_26  and  O6_27 
REMARK   12  A    between atoms: C21_29  and  O7_30 
REMARK   13  A    between atoms: C22_32  and  O8_33 
REMARK   14  A    between atoms: O9_35  and  N1_36 
ROOT
HETATM    1  C11 UNL     1      57.031  15.963  23.179  1.00  0.00     0.040 C 
HETATM    2  C12 UNL     1      58.019  16.553  24.208  1.00  0.00     0.018 C 
HETATM    3  C13 UNL     1      57.761  15.576  25.363  1.00  0.00     0.013 C 
HETATM    4  C14 UNL     1      56.565  16.113  26.118  1.00  0.00     0.012 C 
HETATM    5  C15 UNL     1      57.331  14.275  24.710  1.00  0.00     0.151 C 
HETATM    6  C16 UNL     1      57.572  14.524  23.204  1.00  0.00     0.161 C 
ENDROOT
BRANCH   1   7
HETATM    7  C10 UNL     1      57.111  16.613  21.894  1.00  0.00    -0.021 C 
HETATM    8  C9  UNL     1      56.730  16.210  20.723  1.00  0.00     0.008 C 
BRANCH   8   9
HETATM    9  C8  UNL     1      56.082  14.949  20.312  1.00  0.00     0.203 C 
BRANCH   9  10
HETATM   10  C6  UNL     1      54.691  14.832  20.827  1.00  0.00    -0.049 C 
HETATM   11  C5  UNL     1      54.386  13.820  21.608  1.00  0.00     0.006 C 
HETATM   12  C7  UNL     1      53.674  15.827  20.469  1.00  0.00     0.046 C 
BRANCH  11  13
HETATM   13  C4  UNL     1      53.017  13.722  22.101  1.00  0.00     0.006 C 
HETATM   14  C3  UNL     1      52.546  12.570  22.595  1.00  0.00     0.082 C 
BRANCH  14  15
HETATM   15  C2  UNL     1      51.199  12.437  23.092  1.00  0.00     0.282 C 
HETATM   16  O2  UNL     1      50.865  12.918  24.199  1.00  0.00    -0.260 OA
BRANCH  15  17
HETATM   17  O1  UNL     1      50.254  11.771  22.342  1.00  0.00    -0.323 OA
HETATM   18  C1  UNL     1      50.574  11.136  21.141  1.00  0.00     0.213 C 
ENDBRANCH  15  17
ENDBRANCH  14  15
ENDBRANCH  11  13
ENDBRANCH   9  10
BRANCH   9  19
HETATM   19  O9  UNL     1      56.052  14.711  18.957  1.00  0.00    -0.274 OA
BRANCH  19  20
HETATM   20  N1  UNL     1      56.945  13.787  18.626  1.00  0.00    -0.310 N 
ATOM     21  H12 UNL     1      56.931  13.274  17.744  1.00  0.00     0.184 HD
ATOM     22  H11 UNL     1      57.632  13.668  19.370  1.00  0.00     0.184 HD
ENDBRANCH  19  20
ENDBRANCH   9  19
ENDBRANCH   8   9
ENDBRANCH   1   7
BRANCH   6  23
HETATM   23  O4  UNL     1      58.911  14.512  22.913  1.00  0.00    -0.350 OA
BRANCH  23  24
HETATM   24  C17 UNL     1      59.298  13.563  21.995  1.00  0.00     0.292 C 
HETATM   25  O5  UNL     1      59.982  12.545  22.665  1.00  0.00    -0.351 OA
HETATM   26  C18 UNL     1      61.164  13.001  23.235  1.00  0.00     0.152 C 
HETATM   27  C19 UNL     1      61.749  11.810  24.005  1.00  0.00     0.042 C 
HETATM   28  C20 UNL     1      62.182  13.435  22.230  1.00  0.00     0.178 C 
HETATM   29  C21 UNL     1      61.524  13.405  20.860  1.00  0.00     0.183 C 
HETATM   30  C22 UNL     1      60.215  14.156  20.986  1.00  0.00     0.204 C 
BRANCH  28  31
HETATM   31  O6  UNL     1      63.323  12.638  22.260  1.00  0.00    -0.390 OA
ATOM     32  H6  UNL     1      63.316  11.976  21.578  1.00  0.00     0.210 HD
ENDBRANCH  28  31
BRANCH  29  33
HETATM   33  O7  UNL     1      61.372  12.112  20.418  1.00  0.00    -0.390 OA
ATOM     34  H7  UNL     1      61.815  11.985  19.587  1.00  0.00     0.210 HD
ENDBRANCH  29  33
BRANCH  30  35
HETATM   35  O8  UNL     1      59.641  14.257  19.717  1.00  0.00    -0.388 OA
ATOM     36  H8  UNL     1      59.172  13.473  19.459  1.00  0.00     0.210 HD
ENDBRANCH  30  35
ENDBRANCH  23  24
ENDBRANCH   6  23
BRANCH   5  37
HETATM   37  O3  UNL     1      58.034  13.187  25.159  1.00  0.00    -0.393 OA
ATOM     38  H3  UNL     1      58.851  13.419  25.585  1.00  0.00     0.210 HD
ENDBRANCH   5  37
TORSDOF 14
ENDMDL
