MODEL 1
REMARK VINA RESULT: -6.049183373      0.000      0.000
REMARK  10 active torsions:
REMARK  status: ('A' for Active; 'I' for Inactive)
REMARK    1  A    between atoms: O1_2  and  C2_3 
REMARK    2  A    between atoms: C2_3  and  C3_4 
REMARK    3  A    between atoms: C3_4  and  C4_5 
REMARK    4  A    between atoms: C4_5  and  O2_6 
REMARK    5  A    between atoms: C4_5  and  C5_8 
REMARK    6  A    between atoms: C5_8  and  N1_9 
REMARK    7  A    between atoms: N1_9  and  C6_11 
REMARK    8  A    between atoms: C6_11  and  C8_13 
REMARK    9  A    between atoms: C8_13  and  C9_14 
REMARK   10  A    between atoms: C9_14  and  C10_15 
ROOT
HETATM    1  N1  UNL     1      24.787  66.337  -3.907  1.00  0.00    -0.415 N 
ATOM      2  H1  UNL     1      25.494  66.357  -3.172  1.00  0.00     0.153 HD
ENDROOT
BRANCH   1   3
HETATM    3  C5  UNL     1      24.382  67.512  -4.595  1.00  0.00     0.145 C 
BRANCH   3   4
HETATM    4  C4  UNL     1      22.928  67.860  -4.493  1.00  0.00     0.137 C 
BRANCH   4   5
HETATM    5  C3  UNL     1      22.472  68.713  -5.673  1.00  0.00     0.059 C 
BRANCH   5   6
HETATM    6  C2  UNL     1      22.188  70.111  -5.183  1.00  0.00     0.169 C 
BRANCH   6   7
HETATM    7  O1  UNL     1      20.861  70.269  -4.800  1.00  0.00    -0.396 OA
HETATM    8  C1  UNL     1      20.673  71.395  -4.026  1.00  0.00     0.201 C 
ENDBRANCH   6   7
ENDBRANCH   5   6
ENDBRANCH   4   5
BRANCH   4   9
HETATM    9  O2  UNL     1      22.796  68.713  -3.373  1.00  0.00    -0.394 OA
ATOM     10  H2  UNL     1      23.045  68.171  -2.635  1.00  0.00     0.210 HD
ENDBRANCH   4   9
ENDBRANCH   3   4
ENDBRANCH   1   3
BRANCH   1  11
HETATM   11  C6  UNL     1      24.148  65.129  -4.306  1.00  0.00     0.072 C 
HETATM   12  C7  UNL     1      24.383  63.973  -3.363  1.00  0.00     0.031 C 
BRANCH  11  13
HETATM   13  C8  UNL     1      24.674  64.749  -5.688  1.00  0.00     0.024 C 
BRANCH  13  14
HETATM   14  C9  UNL     1      23.544  64.428  -6.633  1.00  0.00     0.006 C 
BRANCH  14  15
HETATM   15  C10 UNL     1      23.278  65.543  -7.603  1.00  0.00    -0.014 C 
HETATM   16  C11 UNL     1      24.517  66.194  -8.120  1.00  0.00     0.004 C 
HETATM   17  C12 UNL     1      24.150  67.015  -9.354  1.00  0.00     0.000 C 
HETATM   18  C13 UNL     1      22.720  67.475  -9.247  1.00  0.00     0.000 C 
HETATM   19  C14 UNL     1      21.803  66.288  -9.416  1.00  0.00     0.000 C 
HETATM   20  C15 UNL     1      22.440  65.081  -8.774  1.00  0.00     0.004 C 
ENDBRANCH  14  15
ENDBRANCH  13  14
ENDBRANCH  11  13
ENDBRANCH   1  11
TORSDOF 10
ENDMDL
MODEL 2
REMARK VINA RESULT: -5.976608933      2.003      2.532
REMARK  10 active torsions:
REMARK  status: ('A' for Active; 'I' for Inactive)
REMARK    1  A    between atoms: O1_2  and  C2_3 
REMARK    2  A    between atoms: C2_3  and  C3_4 
REMARK    3  A    between atoms: C3_4  and  C4_5 
REMARK    4  A    between atoms: C4_5  and  O2_6 
REMARK    5  A    between atoms: C4_5  and  C5_8 
REMARK    6  A    between atoms: C5_8  and  N1_9 
REMARK    7  A    between atoms: N1_9  and  C6_11 
REMARK    8  A    between atoms: C6_11  and  C8_13 
REMARK    9  A    between atoms: C8_13  and  C9_14 
REMARK   10  A    between atoms: C9_14  and  C10_15 
ROOT
HETATM    1  N1  UNL     1      22.203  67.946  -4.544  1.00  0.00    -0.415 N 
ATOM      2  H1  UNL     1      21.215  67.706  -4.635  1.00  0.00     0.153 HD
ENDROOT
BRANCH   1   3
HETATM    3  C5  UNL     1      22.683  69.262  -4.778  1.00  0.00     0.145 C 
BRANCH   3   4
HETATM    4  C4  UNL     1      21.828  70.373  -4.249  1.00  0.00     0.137 C 
BRANCH   4   5
HETATM    5  C3  UNL     1      22.120  71.691  -4.959  1.00  0.00     0.059 C 
BRANCH   5   6
HETATM    6  C2  UNL     1      23.596  71.763  -5.266  1.00  0.00     0.169 C 
BRANCH   6   7
HETATM    7  O1  UNL     1      24.309  72.381  -4.246  1.00  0.00    -0.396 OA
HETATM    8  C1  UNL     1      24.928  73.538  -4.671  1.00  0.00     0.201 C 
ENDBRANCH   6   7
ENDBRANCH   5   6
ENDBRANCH   4   5
BRANCH   4   9
HETATM    9  O2  UNL     1      22.240  70.597  -2.914  1.00  0.00    -0.394 OA
ATOM     10  H2  UNL     1      21.451  70.468  -2.401  1.00  0.00     0.210 HD
ENDBRANCH   4   9
ENDBRANCH   3   4
ENDBRANCH   1   3
BRANCH   1  11
HETATM   11  C6  UNL     1      23.182  66.980  -4.176  1.00  0.00     0.072 C 
HETATM   12  C7  UNL     1      23.670  67.116  -2.753  1.00  0.00     0.031 C 
BRANCH  11  13
HETATM   13  C8  UNL     1      24.374  67.133  -5.118  1.00  0.00     0.024 C 
BRANCH  13  14
HETATM   14  C9  UNL     1      24.384  66.047  -6.165  1.00  0.00     0.006 C 
BRANCH  14  15
HETATM   15  C10 UNL     1      23.504  66.376  -7.337  1.00  0.00    -0.014 C 
HETATM   16  C11 UNL     1      23.740  67.738  -7.898  1.00  0.00     0.004 C 
HETATM   17  C12 UNL     1      23.094  67.808  -9.280  1.00  0.00     0.000 C 
HETATM   18  C13 UNL     1      21.920  66.867  -9.335  1.00  0.00     0.000 C 
HETATM   19  C14 UNL     1      22.424  65.444  -9.331  1.00  0.00     0.000 C 
HETATM   20  C15 UNL     1      23.641  65.357  -8.446  1.00  0.00     0.004 C 
ENDBRANCH  14  15
ENDBRANCH  13  14
ENDBRANCH  11  13
ENDBRANCH   1  11
TORSDOF 10
ENDMDL
MODEL 3
REMARK VINA RESULT: -5.869922128      1.843      2.753
REMARK  10 active torsions:
REMARK  status: ('A' for Active; 'I' for Inactive)
REMARK    1  A    between atoms: O1_2  and  C2_3 
REMARK    2  A    between atoms: C2_3  and  C3_4 
REMARK    3  A    between atoms: C3_4  and  C4_5 
REMARK    4  A    between atoms: C4_5  and  O2_6 
REMARK    5  A    between atoms: C4_5  and  C5_8 
REMARK    6  A    between atoms: C5_8  and  N1_9 
REMARK    7  A    between atoms: N1_9  and  C6_11 
REMARK    8  A    between atoms: C6_11  and  C8_13 
REMARK    9  A    between atoms: C8_13  and  C9_14 
REMARK   10  A    between atoms: C9_14  and  C10_15 
ROOT
HETATM    1  N1  UNL     1      23.303  64.133  -3.560  1.00  0.00    -0.415 N 
ATOM      2  H1  UNL     1      22.286  64.183  -3.625  1.00  0.00     0.153 HD
ENDROOT
BRANCH   1   3
HETATM    3  C5  UNL     1      23.986  64.281  -2.324  1.00  0.00     0.145 C 
BRANCH   3   4
HETATM    4  C4  UNL     1      23.570  65.450  -1.482  1.00  0.00     0.137 C 
BRANCH   4   5
HETATM    5  C3  UNL     1      24.151  66.756  -2.012  1.00  0.00     0.059 C 
BRANCH   5   6
HETATM    6  C2  UNL     1      23.051  67.545  -2.679  1.00  0.00     0.169 C 
BRANCH   6   7
HETATM    7  O1  UNL     1      23.006  67.318  -4.049  1.00  0.00    -0.396 OA
HETATM    8  C1  UNL     1      22.757  68.472  -4.760  1.00  0.00     0.201 C 
ENDBRANCH   6   7
ENDBRANCH   5   6
ENDBRANCH   4   5
BRANCH   4   9
HETATM    9  O2  UNL     1      24.189  65.278  -0.222  1.00  0.00    -0.394 OA
ATOM     10  H2  UNL     1      25.019  65.732  -0.305  1.00  0.00     0.210 HD
ENDBRANCH   4   9
ENDBRANCH   3   4
ENDBRANCH   1   3
BRANCH   1  11
HETATM   11  C6  UNL     1      24.123  63.912  -4.703  1.00  0.00     0.072 C 
HETATM   12  C7  UNL     1      25.435  64.659  -4.668  1.00  0.00     0.031 C 
BRANCH  11  13
HETATM   13  C8  UNL     1      23.341  64.353  -5.938  1.00  0.00     0.024 C 
BRANCH  13  14
HETATM   14  C9  UNL     1      24.150  65.302  -6.786  1.00  0.00     0.006 C 
BRANCH  14  15
HETATM   15  C10 UNL     1      23.291  66.115  -7.710  1.00  0.00    -0.014 C 
HETATM   16  C11 UNL     1      23.905  67.416  -8.108  1.00  0.00     0.004 C 
HETATM   17  C12 UNL     1      23.146  67.956  -9.318  1.00  0.00     0.000 C 
HETATM   18  C13 UNL     1      21.724  67.464  -9.282  1.00  0.00     0.000 C 
HETATM   19  C14 UNL     1      21.704  65.983  -9.575  1.00  0.00     0.000 C 
HETATM   20  C15 UNL     1      22.922  65.344  -8.958  1.00  0.00     0.004 C 
ENDBRANCH  14  15
ENDBRANCH  13  14
ENDBRANCH  11  13
ENDBRANCH   1  11
TORSDOF 10
ENDMDL
MODEL 4
REMARK VINA RESULT: -5.793595404      2.044      4.311
REMARK  10 active torsions:
REMARK  status: ('A' for Active; 'I' for Inactive)
REMARK    1  A    between atoms: O1_2  and  C2_3 
REMARK    2  A    between atoms: C2_3  and  C3_4 
REMARK    3  A    between atoms: C3_4  and  C4_5 
REMARK    4  A    between atoms: C4_5  and  O2_6 
REMARK    5  A    between atoms: C4_5  and  C5_8 
REMARK    6  A    between atoms: C5_8  and  N1_9 
REMARK    7  A    between atoms: N1_9  and  C6_11 
REMARK    8  A    between atoms: C6_11  and  C8_13 
REMARK    9  A    between atoms: C8_13  and  C9_14 
REMARK   10  A    between atoms: C9_14  and  C10_15 
ROOT
HETATM    1  N1  UNL     1      22.570  67.903  -3.962  1.00  0.00    -0.415 N 
ATOM      2  H1  UNL     1      21.978  67.283  -4.515  1.00  0.00     0.153 HD
ENDROOT
BRANCH   1   3
HETATM    3  C5  UNL     1      23.131  67.498  -2.721  1.00  0.00     0.145 C 
BRANCH   3   4
HETATM    4  C4  UNL     1      22.843  66.089  -2.302  1.00  0.00     0.137 C 
BRANCH   4   5
HETATM    5  C3  UNL     1      22.497  65.208  -3.497  1.00  0.00     0.059 C 
BRANCH   5   6
HETATM    6  C2  UNL     1      23.501  64.085  -3.583  1.00  0.00     0.169 C 
BRANCH   6   7
HETATM    7  O1  UNL     1      23.866  63.814  -4.896  1.00  0.00    -0.396 OA
HETATM    8  C1  UNL     1      25.026  64.465  -5.259  1.00  0.00     0.201 C 
ENDBRANCH   6   7
ENDBRANCH   5   6
ENDBRANCH   4   5
BRANCH   4   9
HETATM    9  O2  UNL     1      21.651  66.131  -1.542  1.00  0.00    -0.394 OA
ATOM     10  H2  UNL     1      21.473  65.222  -1.335  1.00  0.00     0.210 HD
ENDBRANCH   4   9
ENDBRANCH   3   4
ENDBRANCH   1   3
BRANCH   1  11
HETATM   11  C6  UNL     1      22.884  69.225  -4.387  1.00  0.00     0.072 C 
HETATM   12  C7  UNL     1      21.719  70.183  -4.313  1.00  0.00     0.031 C 
BRANCH  11  13
HETATM   13  C8  UNL     1      23.370  69.155  -5.832  1.00  0.00     0.024 C 
BRANCH  13  14
HETATM   14  C9  UNL     1      23.859  67.770  -6.177  1.00  0.00     0.006 C 
BRANCH  14  15
HETATM   15  C10 UNL     1      23.131  67.184  -7.353  1.00  0.00    -0.014 C 
HETATM   16  C11 UNL     1      22.192  68.139  -8.011  1.00  0.00     0.004 C 
HETATM   17  C12 UNL     1      21.820  67.580  -9.382  1.00  0.00     0.000 C 
HETATM   18  C13 UNL     1      21.897  66.077  -9.352  1.00  0.00     0.000 C 
HETATM   19  C14 UNL     1      23.344  65.656  -9.259  1.00  0.00     0.000 C 
HETATM   20  C15 UNL     1      24.086  66.641  -8.391  1.00  0.00     0.004 C 
ENDBRANCH  14  15
ENDBRANCH  13  14
ENDBRANCH  11  13
ENDBRANCH   1  11
TORSDOF 10
ENDMDL
MODEL 5
REMARK VINA RESULT: -5.790168579      2.235      4.682
REMARK  10 active torsions:
REMARK  status: ('A' for Active; 'I' for Inactive)
REMARK    1  A    between atoms: O1_2  and  C2_3 
REMARK    2  A    between atoms: C2_3  and  C3_4 
REMARK    3  A    between atoms: C3_4  and  C4_5 
REMARK    4  A    between atoms: C4_5  and  O2_6 
REMARK    5  A    between atoms: C4_5  and  C5_8 
REMARK    6  A    between atoms: C5_8  and  N1_9 
REMARK    7  A    between atoms: N1_9  and  C6_11 
REMARK    8  A    between atoms: C6_11  and  C8_13 
REMARK    9  A    between atoms: C8_13  and  C9_14 
REMARK   10  A    between atoms: C9_14  and  C10_15 
ROOT
HETATM    1  N1  UNL     1      24.056  67.148  -8.857  1.00  0.00    -0.415 N 
ATOM      2  H1  UNL     1      24.898  67.725  -8.840  1.00  0.00     0.153 HD
ENDROOT
BRANCH   1   3
HETATM    3  C5  UNL     1      22.775  67.695  -9.132  1.00  0.00     0.145 C 
BRANCH   3   4
HETATM    4  C4  UNL     1      22.343  68.826  -8.248  1.00  0.00     0.137 C 
BRANCH   4   5
HETATM    5  C3  UNL     1      22.245  68.391  -6.790  1.00  0.00     0.059 C 
BRANCH   5   6
HETATM    6  C2  UNL     1      23.191  69.229  -5.965  1.00  0.00     0.169 C 
BRANCH   6   7
HETATM    7  O1  UNL     1      24.436  69.354  -6.570  1.00  0.00    -0.396 OA
HETATM    8  C1  UNL     1      25.033  70.565  -6.287  1.00  0.00     0.201 C 
ENDBRANCH   6   7
ENDBRANCH   5   6
ENDBRANCH   4   5
BRANCH   4   9
HETATM    9  O2  UNL     1      21.012  69.135  -8.611  1.00  0.00    -0.394 OA
ATOM     10  H2  UNL     1      21.076  69.421  -9.514  1.00  0.00     0.210 HD
ENDBRANCH   4   9
ENDBRANCH   3   4
ENDBRANCH   1   3
BRANCH   1  11
HETATM   11  C6  UNL     1      24.096  65.747  -8.607  1.00  0.00     0.072 C 
HETATM   12  C7  UNL     1      22.763  65.058  -8.777  1.00  0.00     0.031 C 
BRANCH  11  13
HETATM   13  C8  UNL     1      24.578  65.536  -7.174  1.00  0.00     0.024 C 
BRANCH  13  14
HETATM   14  C9  UNL     1      23.619  64.668  -6.398  1.00  0.00     0.006 C 
BRANCH  14  15
HETATM   15  C10 UNL     1      23.586  65.018  -4.938  1.00  0.00    -0.014 C 
HETATM   16  C11 UNL     1      23.765  63.842  -4.037  1.00  0.00     0.004 C 
HETATM   17  C12 UNL     1      24.100  64.355  -2.639  1.00  0.00     0.000 C 
HETATM   18  C13 UNL     1      23.483  65.713  -2.438  1.00  0.00     0.000 C 
HETATM   19  C14 UNL     1      24.216  66.721  -3.291  1.00  0.00     0.000 C 
HETATM   20  C15 UNL     1      24.617  66.067  -4.588  1.00  0.00     0.004 C 
ENDBRANCH  14  15
ENDBRANCH  13  14
ENDBRANCH  11  13
ENDBRANCH   1  11
TORSDOF 10
ENDMDL
