MODEL 1
REMARK VINA RESULT: -4.872843869      0.000      0.000
REMARK  5 active torsions:
REMARK  status: ('A' for Active; 'I' for Inactive)
REMARK    1  A    between atoms: C2_2  and  N1_3 
REMARK    2  A    between atoms: N1_3  and  C3_6 
REMARK    3  A    between atoms: C3_6  and  C4_7 
REMARK    4  A    between atoms: C5_14  and  C6_15 
REMARK    5  A    between atoms: C6_15  and  N5_16 
ROOT
HETATM    1  C4  UNL     1       9.423  -1.406  18.311  1.00  0.00     0.078 A 
HETATM    2  N2  UNL     1      10.565  -0.680  18.579  1.00  0.00    -0.287 N 
ATOM      3  H2  UNL     1      11.455  -0.767  18.087  1.00  0.00     0.188 HD
HETATM    4  N3  UNL     1      10.325   0.110  19.537  1.00  0.00    -0.242 N 
ATOM      5  H3  UNL     1      11.000   0.762  19.939  1.00  0.00     0.208 HD
HETATM    6  N4  UNL     1       9.060  -0.029  19.948  1.00  0.00    -0.287 N 
ATOM      7  H4  UNL     1       8.610   0.490  20.701  1.00  0.00     0.188 HD
HETATM    8  C5  UNL     1       8.485  -0.987  19.181  1.00  0.00     0.078 A 
ENDROOT
BRANCH   1   9
HETATM    9  C3  UNL     1       9.192  -2.253  17.135  1.00  0.00     0.292 C 
BRANCH   9  10
HETATM   10  N1  UNL     1       9.838  -1.757  15.952  1.00  0.00    -0.070 N 
ATOM     11  H12 UNL     1      10.643  -2.325  15.690  1.00  0.00     0.277 HD
ATOM     12  H11 UNL     1      10.325  -0.877  16.122  1.00  0.00     0.277 HD
BRANCH  10  13
HETATM   13  C2  UNL     1       8.871  -1.646  14.865  1.00  0.00     0.228 C 
HETATM   14  C1  UNL     1       9.631  -0.665  13.913  1.00  0.00     0.034 C 
ENDBRANCH  10  13
ENDBRANCH   9  10
ENDBRANCH   1   9
BRANCH   8  15
HETATM   15  C6  UNL     1       7.125  -1.555  19.407  1.00  0.00     0.290 C 
BRANCH  15  16
HETATM   16  N5  UNL     1       6.727  -1.254  20.785  1.00  0.00    -0.074 N 
ATOM     17  H53 UNL     1       7.200  -0.432  21.161  1.00  0.00     0.274 HD
ATOM     18  H52 UNL     1       5.771  -0.904  20.851  1.00  0.00     0.274 HD
ATOM     19  H51 UNL     1       6.880  -2.089  21.350  1.00  0.00     0.274 HD
ENDBRANCH  15  16
ENDBRANCH   8  15
TORSDOF 5
ENDMDL
MODEL 2
REMARK VINA RESULT: -4.397955728      2.176      4.903
REMARK  5 active torsions:
REMARK  status: ('A' for Active; 'I' for Inactive)
REMARK    1  A    between atoms: C2_2  and  N1_3 
REMARK    2  A    between atoms: N1_3  and  C3_6 
REMARK    3  A    between atoms: C3_6  and  C4_7 
REMARK    4  A    between atoms: C5_14  and  C6_15 
REMARK    5  A    between atoms: C6_15  and  N5_16 
ROOT
HETATM    1  C4  UNL     1       8.973  -0.467  19.483  1.00  0.00     0.078 A 
HETATM    2  N2  UNL     1      10.239   0.072  19.582  1.00  0.00    -0.287 N 
ATOM      3  H2  UNL     1      10.540   0.760  20.273  1.00  0.00     0.188 HD
HETATM    4  N3  UNL     1      10.962  -0.427  18.673  1.00  0.00    -0.242 N 
ATOM      5  H3  UNL     1      11.945  -0.199  18.518  1.00  0.00     0.208 HD
HETATM    6  N4  UNL     1      10.255  -1.297  17.944  1.00  0.00    -0.287 N 
ATOM      7  H4  UNL     1      10.600  -1.841  17.152  1.00  0.00     0.188 HD
HETATM    8  C5  UNL     1       8.998  -1.325  18.447  1.00  0.00     0.078 A 
ENDROOT
BRANCH   1   9
HETATM    9  C3  UNL     1       7.901  -0.346  20.477  1.00  0.00     0.292 C 
BRANCH   9  10
HETATM   10  N1  UNL     1       8.245   0.520  21.571  1.00  0.00    -0.070 N 
ATOM     11  H12 UNL     1       8.516   1.450  21.251  1.00  0.00     0.277 HD
ATOM     12  H11 UNL     1       9.126   0.250  22.010  1.00  0.00     0.277 HD
BRANCH  10  13
HETATM   13  C2  UNL     1       7.149   0.571  22.532  1.00  0.00     0.228 C 
HETATM   14  C1  UNL     1       7.933   0.340  23.865  1.00  0.00     0.034 C 
ENDBRANCH  10  13
ENDBRANCH   9  10
ENDBRANCH   1   9
BRANCH   8  15
HETATM   15  C6  UNL     1       7.851  -2.053  17.832  1.00  0.00     0.290 C 
BRANCH  15  16
HETATM   16  N5  UNL     1       8.309  -2.647  16.572  1.00  0.00    -0.074 N 
ATOM     17  H53 UNL     1       7.551  -3.079  16.043  1.00  0.00     0.274 HD
ATOM     18  H52 UNL     1       8.577  -1.947  15.881  1.00  0.00     0.274 HD
ATOM     19  H51 UNL     1       9.063  -3.300  16.783  1.00  0.00     0.274 HD
ENDBRANCH  15  16
ENDBRANCH   8  15
TORSDOF 5
ENDMDL
MODEL 3
REMARK VINA RESULT: -4.371751791      1.794      2.713
REMARK  5 active torsions:
REMARK  status: ('A' for Active; 'I' for Inactive)
REMARK    1  A    between atoms: C2_2  and  N1_3 
REMARK    2  A    between atoms: N1_3  and  C3_6 
REMARK    3  A    between atoms: C3_6  and  C4_7 
REMARK    4  A    between atoms: C5_14  and  C6_15 
REMARK    5  A    between atoms: C6_15  and  N5_16 
ROOT
HETATM    1  C4  UNL     1       7.656  -0.789  20.288  1.00  0.00     0.078 A 
HETATM    2  N2  UNL     1       8.640   0.160  20.471  1.00  0.00    -0.287 N 
ATOM      3  H2  UNL     1       9.431   0.325  19.848  1.00  0.00     0.188 HD
HETATM    4  N3  UNL     1       8.400   0.791  21.541  1.00  0.00    -0.242 N 
ATOM      5  H3  UNL     1       8.974   1.547  21.914  1.00  0.00     0.208 HD
HETATM    6  N4  UNL     1       7.284   0.324  22.112  1.00  0.00    -0.287 N 
ATOM      7  H4  UNL     1       6.865   0.660  22.980  1.00  0.00     0.188 HD
HETATM    8  C5  UNL     1       6.811  -0.675  21.329  1.00  0.00     0.078 A 
ENDROOT
BRANCH   1   9
HETATM    9  C3  UNL     1       7.421  -1.567  19.067  1.00  0.00     0.292 C 
BRANCH   9  10
HETATM   10  N1  UNL     1       8.569  -1.620  18.206  1.00  0.00    -0.070 N 
ATOM     11  H12 UNL     1       9.443  -1.568  18.730  1.00  0.00     0.277 HD
ATOM     12  H11 UNL     1       8.675  -0.768  17.655  1.00  0.00     0.277 HD
BRANCH  10  13
HETATM   13  C2  UNL     1       8.508  -2.811  17.364  1.00  0.00     0.228 C 
HETATM   14  C1  UNL     1       8.842  -2.186  15.970  1.00  0.00     0.034 C 
ENDBRANCH  10  13
ENDBRANCH   9  10
ENDBRANCH   1   9
BRANCH   8  15
HETATM   15  C6  UNL     1       5.667  -1.563  21.682  1.00  0.00     0.290 C 
BRANCH  15  16
HETATM   16  N5  UNL     1       6.115  -2.497  22.720  1.00  0.00    -0.074 N 
ATOM     17  H53 UNL     1       6.178  -3.458  22.384  1.00  0.00     0.274 HD
ATOM     18  H52 UNL     1       7.097  -2.372  22.964  1.00  0.00     0.274 HD
ATOM     19  H51 UNL     1       5.494  -2.401  23.524  1.00  0.00     0.274 HD
ENDBRANCH  15  16
ENDBRANCH   8  15
TORSDOF 5
ENDMDL
MODEL 4
REMARK VINA RESULT: -4.357932793      1.597      4.888
REMARK  5 active torsions:
REMARK  status: ('A' for Active; 'I' for Inactive)
REMARK    1  A    between atoms: C2_2  and  N1_3 
REMARK    2  A    between atoms: N1_3  and  C3_6 
REMARK    3  A    between atoms: C3_6  and  C4_7 
REMARK    4  A    between atoms: C5_14  and  C6_15 
REMARK    5  A    between atoms: C6_15  and  N5_16 
ROOT
HETATM    1  C4  UNL     1       8.325  -0.910  19.441  1.00  0.00     0.078 A 
HETATM    2  N2  UNL     1       9.133   0.050  20.014  1.00  0.00    -0.287 N 
ATOM      3  H2  UNL     1       8.872   0.663  20.787  1.00  0.00     0.188 HD
HETATM    4  N3  UNL     1      10.250   0.043  19.421  1.00  0.00    -0.242 N 
ATOM      5  H3  UNL     1      11.033   0.658  19.645  1.00  0.00     0.208 HD
HETATM    6  N4  UNL     1      10.258  -0.885  18.459  1.00  0.00    -0.287 N 
ATOM      7  H4  UNL     1      11.036  -1.100  17.834  1.00  0.00     0.188 HD
HETATM    8  C5  UNL     1       9.045  -1.489  18.463  1.00  0.00     0.078 A 
ENDROOT
BRANCH   1   9
HETATM    9  C3  UNL     1       7.047  -1.396  19.975  1.00  0.00     0.292 C 
BRANCH   9  10
HETATM   10  N1  UNL     1       6.740  -0.860  21.271  1.00  0.00    -0.070 N 
ATOM     11  H12 UNL     1       6.154  -0.027  21.212  1.00  0.00     0.277 HD
ATOM     12  H11 UNL     1       7.557  -0.436  21.713  1.00  0.00     0.277 HD
BRANCH  10  13
HETATM   13  C2  UNL     1       6.140  -1.892  22.110  1.00  0.00     0.228 C 
HETATM   14  C1  UNL     1       6.637  -1.432  23.520  1.00  0.00     0.034 C 
ENDBRANCH  10  13
ENDBRANCH   9  10
ENDBRANCH   1   9
BRANCH   8  15
HETATM   15  C6  UNL     1       8.585  -2.480  17.449  1.00  0.00     0.290 C 
BRANCH  15  16
HETATM   16  N5  UNL     1       9.549  -2.487  16.344  1.00  0.00    -0.074 N 
ATOM     17  H53 UNL     1      10.372  -3.054  16.545  1.00  0.00     0.274 HD
ATOM     18  H52 UNL     1       9.215  -3.009  15.534  1.00  0.00     0.274 HD
ATOM     19  H51 UNL     1       9.782  -1.520  16.120  1.00  0.00     0.274 HD
ENDBRANCH  15  16
ENDBRANCH   8  15
TORSDOF 5
ENDMDL
MODEL 5
REMARK VINA RESULT: -4.349369908      4.028      6.069
REMARK  5 active torsions:
REMARK  status: ('A' for Active; 'I' for Inactive)
REMARK    1  A    between atoms: C2_2  and  N1_3 
REMARK    2  A    between atoms: N1_3  and  C3_6 
REMARK    3  A    between atoms: C3_6  and  C4_7 
REMARK    4  A    between atoms: C5_14  and  C6_15 
REMARK    5  A    between atoms: C6_15  and  N5_16 
ROOT
HETATM    1  C4  UNL     1       7.668   0.226  21.529  1.00  0.00     0.078 A 
HETATM    2  N2  UNL     1       8.634   0.432  20.566  1.00  0.00    -0.287 N 
ATOM      3  H2  UNL     1       9.334   1.174  20.575  1.00  0.00     0.188 HD
HETATM    4  N3  UNL     1       8.505  -0.451  19.670  1.00  0.00    -0.242 N 
ATOM      5  H3  UNL     1       9.091  -0.528  18.838  1.00  0.00     0.208 HD
HETATM    6  N4  UNL     1       7.492  -1.270  19.969  1.00  0.00    -0.287 N 
ATOM      7  H4  UNL     1       7.178  -2.069  19.417  1.00  0.00     0.188 HD
HETATM    8  C5  UNL     1       6.956  -0.847  21.140  1.00  0.00     0.078 A 
ENDROOT
BRANCH   1   9
HETATM    9  C3  UNL     1       7.611   0.867  22.848  1.00  0.00     0.292 C 
BRANCH   9  10
HETATM   10  N1  UNL     1       8.501   0.267  23.803  1.00  0.00    -0.070 N 
ATOM     11  H12 UNL     1       9.270   0.889  24.051  1.00  0.00     0.277 HD
ATOM     12  H11 UNL     1       9.047  -0.491  23.393  1.00  0.00     0.277 HD
BRANCH  10  13
HETATM   13  C2  UNL     1       7.752  -0.171  24.976  1.00  0.00     0.228 C 
HETATM   14  C1  UNL     1       6.655   0.942  25.041  1.00  0.00     0.034 C 
ENDBRANCH  10  13
ENDBRANCH   9  10
ENDBRANCH   1   9
BRANCH   8  15
HETATM   15  C6  UNL     1       5.711  -1.393  21.752  1.00  0.00     0.290 C 
BRANCH  15  16
HETATM   16  N5  UNL     1       6.088  -2.462  22.682  1.00  0.00    -0.074 N 
ATOM     17  H53 UNL     1       6.078  -3.384  22.245  1.00  0.00     0.274 HD
ATOM     18  H52 UNL     1       7.077  -2.438  22.929  1.00  0.00     0.274 HD
ATOM     19  H51 UNL     1       5.477  -2.406  23.496  1.00  0.00     0.274 HD
ENDBRANCH  15  16
ENDBRANCH   8  15
TORSDOF 5
ENDMDL
