MODEL 1
REMARK VINA RESULT: -5.301075873      0.000      0.000
REMARK  3 active torsions:
REMARK  status: ('A' for Active; 'I' for Inactive)
REMARK    1  A    between atoms: C2_2  and  N1_3 
REMARK    2  A    between atoms: C2_2  and  C5_13 
REMARK    3  A    between atoms: N1_3  and  C3_5 
ROOT
HETATM    1  N1  UNL     1       8.564  -2.198  17.874  1.00  0.00    -0.214 N 
ATOM      2  H1  UNL     1       8.601  -3.166  18.194  1.00  0.00     0.178 HD
ENDROOT
BRANCH   1   3
HETATM    3  C2  UNL     1       8.133  -1.148  18.758  1.00  0.00     0.159 C 
HETATM    4  C1  UNL     1       7.214  -1.744  19.794  1.00  0.00     0.040 C 
BRANCH   3   5
HETATM    5  C5  UNL     1       9.238  -0.454  19.422  1.00  0.00     0.109 C 
HETATM    6  N5  UNL     1       8.982   0.480  20.265  1.00  0.00    -0.389 N 
ATOM      7  H52 UNL     1       7.997   0.687  20.430  1.00  0.00     0.157 HD
ATOM      8  H51 UNL     1       9.752   0.964  20.727  1.00  0.00     0.157 HD
HETATM    9  N6  UNL     1      10.610  -0.742  19.192  1.00  0.00    -0.086 NA
ENDBRANCH   3   5
ENDBRANCH   1   3
BRANCH   1  10
HETATM   10  C3  UNL     1       8.938  -1.859  16.545  1.00  0.00     0.694 A 
HETATM   11  N2  UNL     1       8.149  -1.946  15.430  1.00  0.00    -0.185 N 
HETATM   12  C4  UNL     1       8.861  -1.546  14.364  1.00  0.00     0.215 A 
ATOM     13  H2  UNL     1       7.179  -2.262  15.411  1.00  0.00     0.185 HD
HETATM   14  N3  UNL     1      10.079  -1.209  14.780  1.00  0.00    -0.281 N 
HETATM   15  N4  UNL     1      10.115  -1.396  16.067  1.00  0.00    -0.131 N 
ATOM     16  H3  UNL     1      10.844  -0.867  14.198  1.00  0.00     0.188 HD
ATOM     17  H4  UNL     1      10.934  -1.215  16.648  1.00  0.00     0.205 HD
ENDBRANCH   1  10
TORSDOF 3
ENDMDL
MODEL 2
REMARK VINA RESULT: -4.984599982      1.689      4.584
REMARK  3 active torsions:
REMARK  status: ('A' for Active; 'I' for Inactive)
REMARK    1  A    between atoms: C2_2  and  N1_3 
REMARK    2  A    between atoms: C2_2  and  C5_13 
REMARK    3  A    between atoms: N1_3  and  C3_5 
ROOT
HETATM    1  N1  UNL     1       7.626  -1.194  18.707  1.00  0.00    -0.214 N 
ATOM      2  H1  UNL     1       6.884  -0.913  18.066  1.00  0.00     0.178 HD
ENDROOT
BRANCH   1   3
HETATM    3  C2  UNL     1       8.641  -2.126  18.292  1.00  0.00     0.159 C 
HETATM    4  C1  UNL     1       8.110  -2.923  17.128  1.00  0.00     0.040 C 
BRANCH   3   5
HETATM    5  C5  UNL     1       9.902  -1.485  17.914  1.00  0.00     0.109 C 
HETATM    6  N5  UNL     1      10.250  -1.455  16.679  1.00  0.00    -0.389 N 
ATOM      7  H52 UNL     1       9.609  -1.889  16.014  1.00  0.00     0.157 HD
ATOM      8  H51 UNL     1      11.129  -1.009  16.415  1.00  0.00     0.157 HD
HETATM    9  N6  UNL     1      10.795  -0.880  18.839  1.00  0.00    -0.086 NA
ENDBRANCH   3   5
ENDBRANCH   1   3
BRANCH   1  10
HETATM   10  C3  UNL     1       7.678  -0.674  20.029  1.00  0.00     0.694 A 
HETATM   11  N2  UNL     1       6.842  -0.996  21.064  1.00  0.00    -0.185 N 
HETATM   12  C4  UNL     1       7.204  -0.291  22.147  1.00  0.00     0.215 A 
ATOM     13  H2  UNL     1       6.071  -1.662  21.020  1.00  0.00     0.185 HD
HETATM   14  N3  UNL     1       8.248   0.468  21.821  1.00  0.00    -0.281 N 
HETATM   15  N4  UNL     1       8.520   0.234  20.570  1.00  0.00    -0.131 N 
ATOM     16  H3  UNL     1       8.743   1.112  22.437  1.00  0.00     0.188 HD
ATOM     17  H4  UNL     1       9.280   0.683  20.058  1.00  0.00     0.205 HD
ENDBRANCH   1  10
TORSDOF 3
ENDMDL
MODEL 3
REMARK VINA RESULT: -4.767767877      1.861      4.668
REMARK  3 active torsions:
REMARK  status: ('A' for Active; 'I' for Inactive)
REMARK    1  A    between atoms: C2_2  and  N1_3 
REMARK    2  A    between atoms: C2_2  and  C5_13 
REMARK    3  A    between atoms: N1_3  and  C3_5 
ROOT
HETATM    1  N1  UNL     1       7.505  -1.392  18.552  1.00  0.00    -0.214 N 
ATOM      2  H1  UNL     1       6.815  -1.086  17.865  1.00  0.00     0.178 HD
ENDROOT
BRANCH   1   3
HETATM    3  C2  UNL     1       8.606  -2.233  18.161  1.00  0.00     0.159 C 
HETATM    4  C1  UNL     1       8.192  -3.026  16.948  1.00  0.00     0.040 C 
BRANCH   3   5
HETATM    5  C5  UNL     1       9.833  -1.490  17.868  1.00  0.00     0.109 C 
HETATM    6  N5  UNL     1      10.279  -1.456  16.665  1.00  0.00    -0.389 N 
ATOM      7  H52 UNL     1       9.735  -1.960  15.963  1.00  0.00     0.157 HD
ATOM      8  H51 UNL     1      11.133  -0.939  16.461  1.00  0.00     0.157 HD
HETATM    9  N6  UNL     1      10.589  -0.788  18.844  1.00  0.00    -0.086 NA
ENDBRANCH   3   5
ENDBRANCH   1   3
BRANCH   1  10
HETATM   10  C3  UNL     1       7.400  -0.996  19.913  1.00  0.00     0.694 A 
HETATM   11  N2  UNL     1       8.116  -0.007  20.531  1.00  0.00    -0.185 N 
HETATM   12  C4  UNL     1       7.740   0.060  21.818  1.00  0.00     0.215 A 
ATOM     13  H2  UNL     1       8.821   0.582  20.087  1.00  0.00     0.185 HD
HETATM   14  N3  UNL     1       6.802  -0.862  22.026  1.00  0.00    -0.281 N 
HETATM   15  N4  UNL     1       6.608  -1.479  20.896  1.00  0.00    -0.131 N 
ATOM     16  H3  UNL     1       6.325  -1.050  22.907  1.00  0.00     0.188 HD
ATOM     17  H4  UNL     1       5.938  -2.238  20.768  1.00  0.00     0.205 HD
ENDBRANCH   1  10
TORSDOF 3
ENDMDL
MODEL 4
REMARK VINA RESULT: -4.546485699      1.508      4.669
REMARK  3 active torsions:
REMARK  status: ('A' for Active; 'I' for Inactive)
REMARK    1  A    between atoms: C2_2  and  N1_3 
REMARK    2  A    between atoms: C2_2  and  C5_13 
REMARK    3  A    between atoms: N1_3  and  C3_5 
ROOT
HETATM    1  N1  UNL     1       8.972  -1.203  18.374  1.00  0.00    -0.214 N 
ATOM      2  H1  UNL     1       9.820  -0.820  17.955  1.00  0.00     0.178 HD
ENDROOT
BRANCH   1   3
HETATM    3  C2  UNL     1       8.267  -2.286  17.739  1.00  0.00     0.159 C 
HETATM    4  C1  UNL     1       6.805  -1.924  17.667  1.00  0.00     0.040 C 
BRANCH   3   5
HETATM    5  C5  UNL     1       8.763  -2.599  16.398  1.00  0.00     0.109 C 
HETATM    6  N5  UNL     1       9.586  -3.572  16.241  1.00  0.00    -0.389 N 
ATOM      7  H52 UNL     1       9.851  -4.085  17.082  1.00  0.00     0.157 HD
ATOM      8  H51 UNL     1       9.933  -3.790  15.307  1.00  0.00     0.157 HD
HETATM    9  N6  UNL     1       8.395  -1.885  15.227  1.00  0.00    -0.086 NA
ENDBRANCH   3   5
ENDBRANCH   1   3
BRANCH   1  10
HETATM   10  C3  UNL     1       8.465  -0.681  19.594  1.00  0.00     0.694 A 
HETATM   11  N2  UNL     1       7.380  -1.143  20.289  1.00  0.00    -0.185 N 
HETATM   12  C4  UNL     1       7.212  -0.384  21.383  1.00  0.00     0.215 A 
ATOM     13  H2  UNL     1       6.795  -1.934  20.020  1.00  0.00     0.185 HD
HETATM   14  N3  UNL     1       8.165   0.545  21.396  1.00  0.00    -0.281 N 
HETATM   15  N4  UNL     1       8.899   0.362  20.337  1.00  0.00    -0.131 N 
ATOM     16  H3  UNL     1       8.296   1.267  22.104  1.00  0.00     0.188 HD
ATOM     17  H4  UNL     1       9.707   0.936  20.096  1.00  0.00     0.205 HD
ENDBRANCH   1  10
TORSDOF 3
ENDMDL
MODEL 5
REMARK VINA RESULT: -4.510784054      2.543      4.007
REMARK  3 active torsions:
REMARK  status: ('A' for Active; 'I' for Inactive)
REMARK    1  A    between atoms: C2_2  and  N1_3 
REMARK    2  A    between atoms: C2_2  and  C5_13 
REMARK    3  A    between atoms: N1_3  and  C3_5 
ROOT
HETATM    1  N1  UNL     1       8.324   0.607  20.936  1.00  0.00    -0.214 N 
ATOM      2  H1  UNL     1       8.365   1.626  20.969  1.00  0.00     0.178 HD
ENDROOT
BRANCH   1   3
HETATM    3  C2  UNL     1       7.632  -0.134  21.958  1.00  0.00     0.159 C 
HETATM    4  C1  UNL     1       7.889   0.533  23.285  1.00  0.00     0.040 C 
BRANCH   3   5
HETATM    5  C5  UNL     1       6.190  -0.236  21.729  1.00  0.00     0.109 C 
HETATM    6  N5  UNL     1       5.383   0.422  22.480  1.00  0.00    -0.389 N 
ATOM      7  H52 UNL     1       5.806   0.996  23.210  1.00  0.00     0.157 HD
ATOM      8  H51 UNL     1       4.378   0.351  22.320  1.00  0.00     0.157 HD
HETATM    9  N6  UNL     1       5.601  -1.034  20.712  1.00  0.00    -0.086 NA
ENDBRANCH   3   5
ENDBRANCH   1   3
BRANCH   1  10
HETATM   10  C3  UNL     1       8.949  -0.109  19.879  1.00  0.00     0.694 A 
HETATM   11  N2  UNL     1       8.358  -1.037  19.063  1.00  0.00    -0.185 N 
HETATM   12  C4  UNL     1       9.274  -1.496  18.197  1.00  0.00     0.215 A 
ATOM     13  H2  UNL     1       7.382  -1.330  19.106  1.00  0.00     0.185 HD
HETATM   14  N3  UNL     1      10.428  -0.882  18.446  1.00  0.00    -0.281 N 
HETATM   15  N4  UNL     1      10.226  -0.065  19.439  1.00  0.00    -0.131 N 
ATOM     16  H3  UNL     1      11.308  -1.024  17.950  1.00  0.00     0.188 HD
ATOM     17  H4  UNL     1      10.946   0.537  19.838  1.00  0.00     0.205 HD
ENDBRANCH   1  10
TORSDOF 3
ENDMDL
