MODEL 1
REMARK VINA RESULT: -5.451954811      0.000      0.000
REMARK  4 active torsions:
REMARK  status: ('A' for Active; 'I' for Inactive)
REMARK    1  A    between atoms: C1_4  and  N2_5 
REMARK    2  A    between atoms: N2_5  and  N3_7 
REMARK    3  A    between atoms: C2_9  and  C3_10 
REMARK    4  A    between atoms: C4_17  and  O1_18 
ROOT
HETATM    1  C3  UNL     1       7.919  -1.086  19.469  1.00  0.00     0.118 A 
HETATM    2  N4  UNL     1       6.875  -1.213  20.297  1.00  0.00    -0.281 N 
ATOM      3  H4  UNL     1       6.065  -1.816  20.151  1.00  0.00     0.188 HD
HETATM    4  N5  UNL     1       7.074  -0.422  21.334  1.00  0.00    -0.240 N 
ATOM      5  H5  UNL     1       6.431  -0.323  22.120  1.00  0.00     0.208 HD
HETATM    6  N6  UNL     1       8.220   0.223  21.214  1.00  0.00    -0.264 N 
ATOM      7  H6  UNL     1       8.613   0.894  21.873  1.00  0.00     0.190 HD
HETATM    8  C4  UNL     1       8.764  -0.175  20.059  1.00  0.00     0.186 A 
ENDROOT
BRANCH   1   9
HETATM    9  C2  UNL     1       8.141  -1.774  18.179  1.00  0.00     0.142 C 
HETATM   10  N3  UNL     1       9.289  -1.784  17.613  1.00  0.00    -0.309 N 
ATOM     11  H3  UNL     1      10.080  -1.311  18.048  1.00  0.00     0.186 HD
BRANCH  10  12
HETATM   12  N2  UNL     1       9.449  -2.443  16.404  1.00  0.00    -0.297 N 
ATOM     13  H2  UNL     1       9.967  -3.321  16.385  1.00  0.00     0.187 HD
BRANCH  12  14
HETATM   14  C1  UNL     1       8.918  -1.939  15.197  1.00  0.00     0.190 C 
HETATM   15  N1  UNL     1       9.660  -1.148  14.475  1.00  0.00    -0.394 N 
ATOM     16  H12 UNL     1      10.600  -0.909  14.789  1.00  0.00     0.156 HD
ATOM     17  H11 UNL     1       9.277  -0.784  13.603  1.00  0.00     0.156 HD
ENDBRANCH  12  14
ENDBRANCH  10  12
ENDBRANCH   1   9
BRANCH   8  18
HETATM   18  O1  UNL     1       9.979   0.256  19.540  1.00  0.00    -0.343 OA
ATOM     19  H1  UNL     1      10.148   1.114  19.168  1.00  0.00     0.219 HD
ENDBRANCH   8  18
TORSDOF 4
ENDMDL
MODEL 2
REMARK VINA RESULT: -5.426897666      1.463      4.870
REMARK  4 active torsions:
REMARK  status: ('A' for Active; 'I' for Inactive)
REMARK    1  A    between atoms: C1_4  and  N2_5 
REMARK    2  A    between atoms: N2_5  and  N3_7 
REMARK    3  A    between atoms: C2_9  and  C3_10 
REMARK    4  A    between atoms: C4_17  and  O1_18 
ROOT
HETATM    1  C3  UNL     1       8.490  -1.793  17.876  1.00  0.00     0.118 A 
HETATM    2  N4  UNL     1       8.169  -2.208  16.644  1.00  0.00    -0.281 N 
ATOM      3  H4  UNL     1       7.247  -2.518  16.338  1.00  0.00     0.188 HD
HETATM    4  N5  UNL     1       9.253  -2.147  15.894  1.00  0.00    -0.240 N 
ATOM      5  H5  UNL     1       9.293  -2.406  14.909  1.00  0.00     0.208 HD
HETATM    6  N6  UNL     1      10.280  -1.703  16.597  1.00  0.00    -0.264 N 
ATOM      7  H6  UNL     1      11.232  -1.562  16.261  1.00  0.00     0.190 HD
HETATM    8  C4  UNL     1       9.828  -1.476  17.835  1.00  0.00     0.186 A 
ENDROOT
BRANCH   1   9
HETATM    9  C2  UNL     1       7.604  -1.689  19.055  1.00  0.00     0.142 C 
HETATM   10  N3  UNL     1       7.813  -0.825  19.976  1.00  0.00    -0.309 N 
ATOM     11  H3  UNL     1       8.605  -0.186  19.911  1.00  0.00     0.186 HD
BRANCH  10  12
HETATM   12  N2  UNL     1       6.954  -0.764  21.063  1.00  0.00    -0.297 N 
ATOM     13  H2  UNL     1       6.253  -1.496  21.179  1.00  0.00     0.187 HD
BRANCH  12  14
HETATM   14  C1  UNL     1       7.017   0.278  22.014  1.00  0.00     0.190 C 
HETATM   15  N1  UNL     1       8.184   0.630  22.472  1.00  0.00    -0.394 N 
ATOM     16  H12 UNL     1       9.024   0.155  22.140  1.00  0.00     0.156 HD
ATOM     17  H11 UNL     1       8.230   1.383  23.158  1.00  0.00     0.156 HD
ENDBRANCH  12  14
ENDBRANCH  10  12
ENDBRANCH   1   9
BRANCH   8  18
HETATM   18  O1  UNL     1      10.579  -1.000  18.902  1.00  0.00    -0.343 OA
ATOM     19  H1  UNL     1      11.510  -0.810  18.882  1.00  0.00     0.219 HD
ENDBRANCH   8  18
TORSDOF 4
ENDMDL
MODEL 3
REMARK VINA RESULT: -5.338225923      1.477      4.861
REMARK  4 active torsions:
REMARK  status: ('A' for Active; 'I' for Inactive)
REMARK    1  A    between atoms: C1_4  and  N2_5 
REMARK    2  A    between atoms: N2_5  and  N3_7 
REMARK    3  A    between atoms: C2_9  and  C3_10 
REMARK    4  A    between atoms: C4_17  and  O1_18 
ROOT
HETATM    1  C3  UNL     1       8.493  -1.754  17.989  1.00  0.00     0.118 A 
HETATM    2  N4  UNL     1       8.118  -2.208  16.787  1.00  0.00    -0.281 N 
ATOM      3  H4  UNL     1       7.179  -2.514  16.529  1.00  0.00     0.188 HD
HETATM    4  N5  UNL     1       9.172  -2.192  15.994  1.00  0.00    -0.240 N 
ATOM      5  H5  UNL     1       9.169  -2.488  15.018  1.00  0.00     0.208 HD
HETATM    6  N6  UNL     1      10.232  -1.740  16.639  1.00  0.00    -0.264 N 
ATOM      7  H6  UNL     1      11.172  -1.626  16.262  1.00  0.00     0.190 HD
HETATM    8  C4  UNL     1       9.833  -1.461  17.884  1.00  0.00     0.186 A 
ENDROOT
BRANCH   1   9
HETATM    9  C2  UNL     1       7.656  -1.592  19.197  1.00  0.00     0.142 C 
HETATM   10  N3  UNL     1       7.905  -0.689  20.070  1.00  0.00    -0.309 N 
ATOM     11  H3  UNL     1       8.697  -0.058  19.944  1.00  0.00     0.186 HD
BRANCH  10  12
HETATM   12  N2  UNL     1       7.092  -0.575  21.186  1.00  0.00    -0.297 N 
ATOM     13  H2  UNL     1       7.224   0.219  21.814  1.00  0.00     0.187 HD
BRANCH  12  14
HETATM   14  C1  UNL     1       6.087  -1.520  21.485  1.00  0.00     0.190 C 
HETATM   15  N1  UNL     1       6.265  -2.316  22.501  1.00  0.00    -0.394 N 
ATOM     16  H12 UNL     1       7.116  -2.244  23.058  1.00  0.00     0.156 HD
ATOM     17  H11 UNL     1       5.539  -2.998  22.717  1.00  0.00     0.156 HD
ENDBRANCH  12  14
ENDBRANCH  10  12
ENDBRANCH   1   9
BRANCH   8  18
HETATM   18  O1  UNL     1      10.633  -0.958  18.903  1.00  0.00    -0.343 OA
ATOM     19  H1  UNL     1      11.500  -1.271  19.130  1.00  0.00     0.219 HD
ENDBRANCH   8  18
TORSDOF 4
ENDMDL
MODEL 4
REMARK VINA RESULT: -5.270423908      2.020      5.212
REMARK  4 active torsions:
REMARK  status: ('A' for Active; 'I' for Inactive)
REMARK    1  A    between atoms: C1_4  and  N2_5 
REMARK    2  A    between atoms: N2_5  and  N3_7 
REMARK    3  A    between atoms: C2_9  and  C3_10 
REMARK    4  A    between atoms: C4_17  and  O1_18 
ROOT
HETATM    1  C3  UNL     1       8.953  -1.442  18.129  1.00  0.00     0.118 A 
HETATM    2  N4  UNL     1      10.172  -1.281  17.600  1.00  0.00    -0.281 N 
ATOM      3  H4  UNL     1      10.935  -0.741  18.007  1.00  0.00     0.188 HD
HETATM    4  N5  UNL     1      10.215  -1.944  16.460  1.00  0.00    -0.240 N 
ATOM      5  H5  UNL     1      11.029  -1.991  15.847  1.00  0.00     0.208 HD
HETATM    6  N6  UNL     1       9.059  -2.536  16.222  1.00  0.00    -0.264 N 
ATOM      7  H6  UNL     1       8.824  -3.110  15.412  1.00  0.00     0.190 HD
HETATM    8  C4  UNL     1       8.257  -2.238  17.249  1.00  0.00     0.186 A 
ENDROOT
BRANCH   1   9
HETATM    9  C2  UNL     1       8.437  -0.887  19.399  1.00  0.00     0.142 C 
HETATM   10  N3  UNL     1       9.033   0.071  20.003  1.00  0.00    -0.309 N 
ATOM     11  H3  UNL     1       9.886   0.473  19.613  1.00  0.00     0.186 HD
BRANCH  10  12
HETATM   12  N2  UNL     1       8.512   0.560  21.191  1.00  0.00    -0.297 N 
ATOM     13  H2  UNL     1       8.977   1.345  21.648  1.00  0.00     0.187 HD
BRANCH  12  14
HETATM   14  C1  UNL     1       7.359   0.008  21.790  1.00  0.00     0.190 C 
HETATM   15  N1  UNL     1       7.385  -0.248  23.066  1.00  0.00    -0.394 N 
ATOM     16  H12 UNL     1       8.226  -0.048  23.607  1.00  0.00     0.156 HD
ATOM     17  H11 UNL     1       6.552  -0.646  23.499  1.00  0.00     0.156 HD
ENDBRANCH  12  14
ENDBRANCH  10  12
ENDBRANCH   1   9
BRANCH   8  18
HETATM   18  O1  UNL     1       6.942  -2.659  17.405  1.00  0.00    -0.343 OA
ATOM     19  H1  UNL     1       6.352  -2.902  16.702  1.00  0.00     0.219 HD
ENDBRANCH   8  18
TORSDOF 4
ENDMDL
MODEL 5
REMARK VINA RESULT: -5.208378467      1.371      1.535
REMARK  4 active torsions:
REMARK  status: ('A' for Active; 'I' for Inactive)
REMARK    1  A    between atoms: C1_4  and  N2_5 
REMARK    2  A    between atoms: N2_5  and  N3_7 
REMARK    3  A    between atoms: C2_9  and  C3_10 
REMARK    4  A    between atoms: C4_17  and  O1_18 
ROOT
HETATM    1  C3  UNL     1       7.311  -0.865  20.698  1.00  0.00     0.118 A 
HETATM    2  N4  UNL     1       6.777  -1.209  21.877  1.00  0.00    -0.281 N 
ATOM      3  H4  UNL     1       6.167  -2.009  22.048  1.00  0.00     0.188 HD
HETATM    4  N5  UNL     1       7.175  -0.333  22.780  1.00  0.00    -0.240 N 
ATOM      5  H5  UNL     1       6.916  -0.357  23.766  1.00  0.00     0.208 HD
HETATM    6  N6  UNL     1       7.957   0.578  22.230  1.00  0.00    -0.264 N 
ATOM      7  H6  UNL     1       8.399   1.367  22.702  1.00  0.00     0.190 HD
HETATM    8  C4  UNL     1       8.055   0.268  20.933  1.00  0.00     0.186 A 
ENDROOT
BRANCH   1   9
HETATM    9  C2  UNL     1       7.146  -1.548  19.397  1.00  0.00     0.142 C 
HETATM   10  N3  UNL     1       8.098  -1.599  18.542  1.00  0.00    -0.309 N 
ATOM     11  H3  UNL     1       8.996  -1.162  18.747  1.00  0.00     0.186 HD
BRANCH  10  12
HETATM   12  N2  UNL     1       7.898  -2.251  17.335  1.00  0.00    -0.297 N 
ATOM     13  H2  UNL     1       6.954  -2.546  17.084  1.00  0.00     0.187 HD
BRANCH  12  14
HETATM   14  C1  UNL     1       8.956  -2.521  16.442  1.00  0.00     0.190 C 
HETATM   15  N1  UNL     1      10.011  -1.758  16.479  1.00  0.00    -0.394 N 
ATOM     16  H12 UNL     1      10.055  -0.987  17.146  1.00  0.00     0.156 HD
ATOM     17  H11 UNL     1      10.776  -1.953  15.834  1.00  0.00     0.156 HD
ENDBRANCH  12  14
ENDBRANCH  10  12
ENDBRANCH   1   9
BRANCH   8  18
HETATM   18  O1  UNL     1       8.786   0.966  19.981  1.00  0.00    -0.343 OA
ATOM     19  H1  UNL     1       9.654   1.329  20.107  1.00  0.00     0.219 HD
ENDBRANCH   8  18
TORSDOF 4
ENDMDL
