MODEL 1
REMARK VINA RESULT: -6.287535897      0.000      0.000
REMARK  8 active torsions:
REMARK  status: ('A' for Active; 'I' for Inactive)
REMARK    1  A    between atoms: C2_2  and  C3_3 
REMARK    2  A    between atoms: C3_3  and  C4_4 
REMARK    3  A    between atoms: C4_4  and  C5_5 
REMARK    4  A    between atoms: C5_5  and  C6_6 
REMARK    5  A    between atoms: C6_6  and  C7_7 
REMARK    6  A    between atoms: C7_7  and  C8_8 
REMARK    7  A    between atoms: C8_8  and  C9_9 
REMARK    8  A    between atoms: C9_9  and  C10_10 
ROOT
HETATM    1  C8  UNL     1      -3.262  25.243  45.896  1.00  0.00     0.058 C 
HETATM    2  N1  UNL     1      -3.974  26.443  46.051  1.00  0.00    -0.409 N 
ATOM      3  H1  UNL     1      -3.437  27.304  46.151  1.00  0.00     0.154 HD
HETATM    4  C12 UNL     1      -5.357  26.537  46.076  1.00  0.00     0.142 C 
HETATM    5  C13 UNL     1      -5.938  26.881  47.461  1.00  0.00     0.254 C 
HETATM    6  N2  UNL     1      -6.424  25.627  48.065  1.00  0.00    -0.042 N 
ATOM      7  H21 UNL     1      -7.102  25.144  47.474  1.00  0.00     0.279 HD
ATOM      8  H22 UNL     1      -7.030  25.789  48.870  1.00  0.00     0.279 HD
HETATM    9  C14 UNL     1      -5.277  24.799  48.388  1.00  0.00     0.421 C 
HETATM   10  C15 UNL     1      -5.426  23.999  49.644  1.00  0.00     0.096 C 
HETATM   11  C16 UNL     1      -4.054  23.465  49.998  1.00  0.00     0.276 C 
HETATM   12  N3  UNL     1      -3.362  22.902  48.881  1.00  0.00     0.092 N 
HETATM   13  C17 UNL     1      -4.166  21.938  48.200  1.00  0.00     0.302 C 
HETATM   14  C18 UNL     1      -5.273  22.591  47.420  1.00  0.00     0.306 C 
HETATM   15  N4  UNL     1      -4.981  24.013  47.222  1.00  0.00     0.130 N 
HETATM   16  C19 UNL     1      -3.627  24.096  46.789  1.00  0.00     0.281 C 
HETATM   17  C20 UNL     1      -2.778  23.905  48.006  1.00  0.00     0.310 C 
ENDROOT
BRANCH   1  18
HETATM   18  C7  UNL     1      -3.089  24.799  44.446  1.00  0.00     0.033 C 
BRANCH  18  19
HETATM   19  C6  UNL     1      -2.005  23.834  44.172  1.00  0.00     0.002 C 
BRANCH  19  20
HETATM   20  C5  UNL     1      -1.658  23.850  42.701  1.00  0.00     0.000 C 
BRANCH  20  21
HETATM   21  C4  UNL     1      -0.587  24.839  42.334  1.00  0.00     0.000 C 
BRANCH  21  22
HETATM   22  C3  UNL     1      -0.303  24.636  40.849  1.00  0.00    -0.000 C 
BRANCH  22  23
HETATM   23  C2  UNL     1      -0.778  23.267  40.395  1.00  0.00    -0.005 C 
HETATM   24  C1  UNL     1       0.001  22.949  39.122  1.00  0.00     0.005 C 
ENDBRANCH  22  23
ENDBRANCH  21  22
ENDBRANCH  20  21
ENDBRANCH  19  20
ENDBRANCH  18  19
ENDBRANCH   1  18
BRANCH   1  25
HETATM   25  C9  UNL     1      -1.829  25.617  46.312  1.00  0.00     0.032 C 
BRANCH  25  26
HETATM   26  C10 UNL     1      -1.269  26.792  45.551  1.00  0.00    -0.002 C 
HETATM   27  C11 UNL     1       0.173  26.349  45.187  1.00  0.00     0.005 C 
ENDBRANCH  25  26
ENDBRANCH   1  25
TORSDOF 8
ENDMDL
MODEL 2
REMARK VINA RESULT: -5.817924497      1.749      2.805
REMARK  8 active torsions:
REMARK  status: ('A' for Active; 'I' for Inactive)
REMARK    1  A    between atoms: C2_2  and  C3_3 
REMARK    2  A    between atoms: C3_3  and  C4_4 
REMARK    3  A    between atoms: C4_4  and  C5_5 
REMARK    4  A    between atoms: C5_5  and  C6_6 
REMARK    5  A    between atoms: C6_6  and  C7_7 
REMARK    6  A    between atoms: C7_7  and  C8_8 
REMARK    7  A    between atoms: C8_8  and  C9_9 
REMARK    8  A    between atoms: C9_9  and  C10_10 
ROOT
HETATM    1  C8  UNL     1      -3.965  24.105  47.405  1.00  0.00     0.058 C 
HETATM    2  N1  UNL     1      -4.317  25.271  48.102  1.00  0.00    -0.409 N 
ATOM      3  H1  UNL     1      -3.604  25.713  48.682  1.00  0.00     0.154 HD
HETATM    4  C12 UNL     1      -5.569  25.865  48.054  1.00  0.00     0.142 C 
HETATM    5  C13 UNL     1      -6.378  25.733  49.359  1.00  0.00     0.254 C 
HETATM    6  N2  UNL     1      -7.345  24.636  49.176  1.00  0.00    -0.042 N 
ATOM      7  H21 UNL     1      -7.948  24.776  48.365  1.00  0.00     0.279 HD
ATOM      8  H22 UNL     1      -8.073  24.631  49.891  1.00  0.00     0.279 HD
HETATM    9  C14 UNL     1      -6.614  23.384  49.116  1.00  0.00     0.421 C 
HETATM   10  C15 UNL     1      -7.317  22.226  49.751  1.00  0.00     0.096 C 
HETATM   11  C16 UNL     1      -6.302  21.111  49.891  1.00  0.00     0.276 C 
HETATM   12  N3  UNL     1      -5.528  20.902  48.709  1.00  0.00     0.092 N 
HETATM   13  C17 UNL     1      -6.360  20.745  47.559  1.00  0.00     0.302 C 
HETATM   14  C18 UNL     1      -6.981  22.050  47.142  1.00  0.00     0.306 C 
HETATM   15  N4  UNL     1      -6.253  23.171  47.742  1.00  0.00     0.130 N 
HETATM   16  C19 UNL     1      -4.868  22.916  47.533  1.00  0.00     0.281 C 
HETATM   17  C20 UNL     1      -4.468  21.883  48.539  1.00  0.00     0.310 C 
ENDROOT
BRANCH   1  18
HETATM   18  C7  UNL     1      -3.543  24.343  45.958  1.00  0.00     0.033 C 
BRANCH  18  19
HETATM   19  C6  UNL     1      -3.300  25.744  45.559  1.00  0.00     0.002 C 
BRANCH  19  20
HETATM   20  C5  UNL     1      -2.205  25.804  44.520  1.00  0.00     0.000 C 
BRANCH  20  21
HETATM   21  C4  UNL     1      -0.874  26.254  45.055  1.00  0.00     0.000 C 
BRANCH  21  22
HETATM   22  C3  UNL     1       0.186  25.653  44.138  1.00  0.00    -0.000 C 
BRANCH  22  23
HETATM   23  C2  UNL     1      -0.452  25.086  42.882  1.00  0.00    -0.005 C 
HETATM   24  C1  UNL     1       0.295  25.713  41.708  1.00  0.00     0.005 C 
ENDBRANCH  22  23
ENDBRANCH  21  22
ENDBRANCH  20  21
ENDBRANCH  19  20
ENDBRANCH  18  19
ENDBRANCH   1  18
BRANCH   1  25
HETATM   25  C9  UNL     1      -2.651  23.668  48.076  1.00  0.00     0.032 C 
BRANCH  25  26
HETATM   26  C10 UNL     1      -1.581  23.260  47.096  1.00  0.00    -0.002 C 
HETATM   27  C11 UNL     1      -1.061  21.907  47.650  1.00  0.00     0.005 C 
ENDBRANCH  25  26
ENDBRANCH   1  25
TORSDOF 8
ENDMDL
MODEL 3
REMARK VINA RESULT: -5.767502625      2.126      3.637
REMARK  8 active torsions:
REMARK  status: ('A' for Active; 'I' for Inactive)
REMARK    1  A    between atoms: C2_2  and  C3_3 
REMARK    2  A    between atoms: C3_3  and  C4_4 
REMARK    3  A    between atoms: C4_4  and  C5_5 
REMARK    4  A    between atoms: C5_5  and  C6_6 
REMARK    5  A    between atoms: C6_6  and  C7_7 
REMARK    6  A    between atoms: C7_7  and  C8_8 
REMARK    7  A    between atoms: C8_8  and  C9_9 
REMARK    8  A    between atoms: C9_9  and  C10_10 
ROOT
HETATM    1  C8  UNL     1      -5.275  24.271  47.355  1.00  0.00     0.058 C 
HETATM    2  N1  UNL     1      -5.089  25.157  48.427  1.00  0.00    -0.409 N 
ATOM      3  H1  UNL     1      -4.171  25.178  48.873  1.00  0.00     0.154 HD
HETATM    4  C12 UNL     1      -6.067  26.006  48.922  1.00  0.00     0.142 C 
HETATM    5  C13 UNL     1      -6.599  25.609  50.313  1.00  0.00     0.254 C 
HETATM    6  N2  UNL     1      -7.884  24.913  50.117  1.00  0.00    -0.042 N 
ATOM      7  H21 UNL     1      -8.558  25.474  49.595  1.00  0.00     0.279 HD
ATOM      8  H22 UNL     1      -8.417  24.824  50.982  1.00  0.00     0.279 HD
HETATM    9  C14 UNL     1      -7.621  23.632  49.489  1.00  0.00     0.421 C 
HETATM   10  C15 UNL     1      -8.517  22.524  49.945  1.00  0.00     0.096 C 
HETATM   11  C16 UNL     1      -7.909  21.227  49.455  1.00  0.00     0.276 C 
HETATM   12  N3  UNL     1      -7.493  21.280  48.088  1.00  0.00     0.092 N 
HETATM   13  C17 UNL     1      -8.542  21.749  47.240  1.00  0.00     0.302 C 
HETATM   14  C18 UNL     1      -8.781  23.223  47.416  1.00  0.00     0.306 C 
HETATM   15  N4  UNL     1      -7.628  23.848  48.069  1.00  0.00     0.130 N 
HETATM   16  C19 UNL     1      -6.468  23.365  47.398  1.00  0.00     0.281 C 
HETATM   17  C20 UNL     1      -6.230  21.977  47.902  1.00  0.00     0.310 C 
ENDROOT
BRANCH   1  18
HETATM   18  C7  UNL     1      -5.095  24.906  45.979  1.00  0.00     0.033 C 
BRANCH  18  19
HETATM   19  C6  UNL     1      -4.065  25.959  45.863  1.00  0.00     0.002 C 
BRANCH  19  20
HETATM   20  C5  UNL     1      -2.938  25.485  44.977  1.00  0.00     0.000 C 
BRANCH  20  21
HETATM   21  C4  UNL     1      -1.566  25.773  45.522  1.00  0.00     0.000 C 
BRANCH  21  22
HETATM   22  C3  UNL     1      -0.607  24.839  44.793  1.00  0.00    -0.000 C 
BRANCH  22  23
HETATM   23  C2  UNL     1       0.510  25.628  44.131  1.00  0.00    -0.005 C 
HETATM   24  C1  UNL     1       0.208  25.613  42.635  1.00  0.00     0.005 C 
ENDBRANCH  22  23
ENDBRANCH  21  22
ENDBRANCH  20  21
ENDBRANCH  19  20
ENDBRANCH  18  19
ENDBRANCH   1  18
BRANCH   1  25
HETATM   25  C9  UNL     1      -4.066  23.325  47.455  1.00  0.00     0.032 C 
BRANCH  25  26
HETATM   26  C10 UNL     1      -3.028  23.776  48.451  1.00  0.00    -0.002 C 
HETATM   27  C11 UNL     1      -1.730  23.063  47.989  1.00  0.00     0.005 C 
ENDBRANCH  25  26
ENDBRANCH   1  25
TORSDOF 8
ENDMDL
MODEL 4
REMARK VINA RESULT: -5.765215513      1.990      4.130
REMARK  8 active torsions:
REMARK  status: ('A' for Active; 'I' for Inactive)
REMARK    1  A    between atoms: C2_2  and  C3_3 
REMARK    2  A    between atoms: C3_3  and  C4_4 
REMARK    3  A    between atoms: C4_4  and  C5_5 
REMARK    4  A    between atoms: C5_5  and  C6_6 
REMARK    5  A    between atoms: C6_6  and  C7_7 
REMARK    6  A    between atoms: C7_7  and  C8_8 
REMARK    7  A    between atoms: C8_8  and  C9_9 
REMARK    8  A    between atoms: C9_9  and  C10_10 
ROOT
HETATM    1  C8  UNL     1      -4.708  24.155  47.633  1.00  0.00     0.058 C 
HETATM    2  N1  UNL     1      -4.593  22.877  47.066  1.00  0.00    -0.409 N 
ATOM      3  H1  UNL     1      -4.828  22.771  46.079  1.00  0.00     0.154 HD
HETATM    4  C12 UNL     1      -4.181  21.747  47.756  1.00  0.00     0.142 C 
HETATM    5  C13 UNL     1      -5.302  20.721  48.008  1.00  0.00     0.254 C 
HETATM    6  N2  UNL     1      -5.764  20.897  49.396  1.00  0.00    -0.042 N 
ATOM      7  H21 UNL     1      -5.008  20.811  50.076  1.00  0.00     0.279 HD
ATOM      8  H22 UNL     1      -6.333  20.114  49.722  1.00  0.00     0.279 HD
HETATM    9  C14 UNL     1      -6.458  22.168  49.492  1.00  0.00     0.421 C 
HETATM   10  C15 UNL     1      -7.629  22.166  50.423  1.00  0.00     0.096 C 
HETATM   11  C16 UNL     1      -8.412  23.434  50.157  1.00  0.00     0.276 C 
HETATM   12  N3  UNL     1      -7.587  24.597  50.065  1.00  0.00     0.092 N 
HETATM   13  C17 UNL     1      -6.721  24.714  51.195  1.00  0.00     0.302 C 
HETATM   14  C18 UNL     1      -5.612  23.700  51.150  1.00  0.00     0.306 C 
HETATM   15  N4  UNL     1      -5.469  23.166  49.793  1.00  0.00     0.130 N 
HETATM   16  C19 UNL     1      -5.479  24.284  48.911  1.00  0.00     0.281 C 
HETATM   17  C20 UNL     1      -6.906  24.715  48.786  1.00  0.00     0.310 C 
ENDROOT
BRANCH   1  18
HETATM   18  C7  UNL     1      -3.401  24.941  47.678  1.00  0.00     0.033 C 
BRANCH  18  19
HETATM   19  C6  UNL     1      -2.173  24.208  47.309  1.00  0.00     0.002 C 
BRANCH  19  20
HETATM   20  C5  UNL     1      -1.761  24.564  45.899  1.00  0.00     0.000 C 
BRANCH  20  21
HETATM   21  C4  UNL     1      -1.399  26.012  45.714  1.00  0.00     0.000 C 
BRANCH  21  22
HETATM   22  C3  UNL     1      -1.059  26.186  44.237  1.00  0.00    -0.000 C 
BRANCH  22  23
HETATM   23  C2  UNL     1       0.331  25.650  43.941  1.00  0.00    -0.005 C 
HETATM   24  C1  UNL     1       0.464  25.639  42.421  1.00  0.00     0.005 C 
ENDBRANCH  22  23
ENDBRANCH  21  22
ENDBRANCH  20  21
ENDBRANCH  19  20
ENDBRANCH  18  19
ENDBRANCH   1  18
BRANCH   1  25
HETATM   25  C9  UNL     1      -5.539  24.935  46.599  1.00  0.00     0.032 C 
BRANCH  25  26
HETATM   26  C10 UNL     1      -4.923  26.251  46.199  1.00  0.00    -0.002 C 
HETATM   27  C11 UNL     1      -6.068  27.278  46.401  1.00  0.00     0.005 C 
ENDBRANCH  25  26
ENDBRANCH   1  25
TORSDOF 8
ENDMDL
MODEL 5
REMARK VINA RESULT: -5.743651773      2.856      4.358
REMARK  8 active torsions:
REMARK  status: ('A' for Active; 'I' for Inactive)
REMARK    1  A    between atoms: C2_2  and  C3_3 
REMARK    2  A    between atoms: C3_3  and  C4_4 
REMARK    3  A    between atoms: C4_4  and  C5_5 
REMARK    4  A    between atoms: C5_5  and  C6_6 
REMARK    5  A    between atoms: C6_6  and  C7_7 
REMARK    6  A    between atoms: C7_7  and  C8_8 
REMARK    7  A    between atoms: C8_8  and  C9_9 
REMARK    8  A    between atoms: C9_9  and  C10_10 
ROOT
HETATM    1  C8  UNL     1      -1.857  21.707  47.708  1.00  0.00     0.058 C 
HETATM    2  N1  UNL     1      -2.103  22.679  48.691  1.00  0.00    -0.409 N 
ATOM      3  H1  UNL     1      -1.318  22.978  49.271  1.00  0.00     0.154 HD
HETATM    4  C12 UNL     1      -3.339  23.262  48.926  1.00  0.00     0.142 C 
HETATM    5  C13 UNL     1      -3.996  22.828  50.250  1.00  0.00     0.254 C 
HETATM    6  N2  UNL     1      -5.003  21.799  49.931  1.00  0.00    -0.042 N 
ATOM      7  H21 UNL     1      -5.691  22.120  49.249  1.00  0.00     0.279 HD
ATOM      8  H22 UNL     1      -5.644  21.625  50.705  1.00  0.00     0.279 HD
HETATM    9  C14 UNL     1      -4.311  20.598  49.501  1.00  0.00     0.421 C 
HETATM   10  C15 UNL     1      -4.963  19.321  49.929  1.00  0.00     0.096 C 
HETATM   11  C16 UNL     1      -3.964  18.208  49.690  1.00  0.00     0.276 C 
HETATM   12  N3  UNL     1      -3.333  18.283  48.409  1.00  0.00     0.092 N 
HETATM   13  C17 UNL     1      -4.294  18.392  47.358  1.00  0.00     0.302 C 
HETATM   14  C18 UNL     1      -4.929  19.755  47.328  1.00  0.00     0.306 C 
HETATM   15  N4  UNL     1      -4.113  20.710  48.082  1.00  0.00     0.130 N 
HETATM   16  C19 UNL     1      -2.766  20.518  47.662  1.00  0.00     0.281 C 
HETATM   17  C20 UNL     1      -2.278  19.282  48.350  1.00  0.00     0.310 C 
ENDROOT
BRANCH   1  18
HETATM   18  C7  UNL     1      -1.597  22.276  46.316  1.00  0.00     0.033 C 
BRANCH  18  19
HETATM   19  C6  UNL     1      -1.465  23.744  46.212  1.00  0.00     0.002 C 
BRANCH  19  20
HETATM   20  C5  UNL     1      -0.990  24.124  44.829  1.00  0.00     0.000 C 
BRANCH  20  21
HETATM   21  C4  UNL     1      -1.780  25.234  44.193  1.00  0.00     0.000 C 
BRANCH  21  22
HETATM   22  C3  UNL     1      -0.775  26.316  43.811  1.00  0.00    -0.000 C 
BRANCH  22  23
HETATM   23  C2  UNL     1       0.468  25.698  43.196  1.00  0.00    -0.005 C 
HETATM   24  C1  UNL     1       0.219  25.655  41.691  1.00  0.00     0.005 C 
ENDBRANCH  22  23
ENDBRANCH  21  22
ENDBRANCH  20  21
ENDBRANCH  19  20
ENDBRANCH  18  19
ENDBRANCH   1  18
BRANCH   1  25
HETATM   25  C9  UNL     1      -0.486  21.133  48.104  1.00  0.00     0.032 C 
BRANCH  25  26
HETATM   26  C10 UNL     1       0.373  20.756  46.923  1.00  0.00    -0.002 C 
HETATM   27  C11 UNL     1       1.597  20.048  47.562  1.00  0.00     0.005 C 
ENDBRANCH  25  26
ENDBRANCH   1  25
TORSDOF 8
ENDMDL
