MODEL 1
REMARK VINA RESULT: -4.826531145      0.000      0.000
REMARK  2 active torsions:
REMARK  status: ('A' for Active; 'I' for Inactive)
REMARK    1  A    between atoms: C1_2  and  C2_4 
REMARK    2  A    between atoms: C4_6  and  N2_7 
ROOT
HETATM    1  C2  UNL     1      -4.782   2.042  14.903  1.00  0.00     0.079 C 
HETATM    2  C3  UNL     1      -3.804   3.215  15.061  1.00  0.00     0.046 C 
HETATM    3  C4  UNL     1      -4.907   4.000  14.335  1.00  0.00     0.185 C 
HETATM    4  C5  UNL     1      -5.857   3.123  15.092  1.00  0.00     0.046 C 
ENDROOT
BRANCH   3   5
HETATM    5  N2  UNL     1      -4.901   5.395  14.657  1.00  0.00    -0.075 N 
ATOM      6  H23 UNL     1      -4.033   5.658  15.123  1.00  0.00     0.274 HD
ATOM      7  H22 UNL     1      -4.817   5.964  13.815  1.00  0.00     0.274 HD
ATOM      8  H21 UNL     1      -5.711   5.678  15.209  1.00  0.00     0.274 HD
ENDBRANCH   3   5
BRANCH   1   9
HETATM    9  C1  UNL     1      -4.719   1.041  15.957  1.00  0.00     0.235 C 
HETATM   10  N1  UNL     1      -5.908   0.438  16.447  1.00  0.00    -0.062 NA
HETATM   11  O1  UNL     1      -3.607   0.707  16.438  1.00  0.00    -0.277 OA
ENDBRANCH   1   9
TORSDOF 2
ENDMDL
MODEL 2
REMARK VINA RESULT: -4.617688045      1.424      1.660
REMARK  2 active torsions:
REMARK  status: ('A' for Active; 'I' for Inactive)
REMARK    1  A    between atoms: C1_2  and  C2_4 
REMARK    2  A    between atoms: C4_6  and  N2_7 
ROOT
HETATM    1  C2  UNL     1      -4.766   2.013  14.770  1.00  0.00     0.079 C 
HETATM    2  C3  UNL     1      -4.318   1.963  13.302  1.00  0.00     0.046 C 
HETATM    3  C4  UNL     1      -4.433   3.492  13.401  1.00  0.00     0.185 C 
HETATM    4  C5  UNL     1      -3.947   3.312  14.808  1.00  0.00     0.046 C 
ENDROOT
BRANCH   3   5
HETATM    5  N2  UNL     1      -3.565   4.175  12.489  1.00  0.00    -0.075 N 
ATOM      6  H23 UNL     1      -3.374   3.601  11.668  1.00  0.00     0.274 HD
ATOM      7  H22 UNL     1      -4.048   4.953  12.040  1.00  0.00     0.274 HD
ATOM      8  H21 UNL     1      -2.698   4.487  12.925  1.00  0.00     0.274 HD
ENDBRANCH   3   5
BRANCH   1   9
HETATM    9  C1  UNL     1      -4.256   0.937  15.606  1.00  0.00     0.235 C 
HETATM   10  N1  UNL     1      -4.668  -0.404  15.382  1.00  0.00    -0.062 NA
HETATM   11  O1  UNL     1      -3.447   1.193  16.533  1.00  0.00    -0.277 OA
ENDBRANCH   1   9
TORSDOF 2
ENDMDL
MODEL 3
REMARK VINA RESULT: -4.503658105      1.697      1.896
REMARK  2 active torsions:
REMARK  status: ('A' for Active; 'I' for Inactive)
REMARK    1  A    between atoms: C1_2  and  C2_4 
REMARK    2  A    between atoms: C4_6  and  N2_7 
ROOT
HETATM    1  C2  UNL     1      -4.825   1.980  14.566  1.00  0.00     0.079 C 
HETATM    2  C3  UNL     1      -4.327   2.095  13.118  1.00  0.00     0.046 C 
HETATM    3  C4  UNL     1      -4.326   3.600  13.427  1.00  0.00     0.185 C 
HETATM    4  C5  UNL     1      -3.910   3.191  14.807  1.00  0.00     0.046 C 
ENDROOT
BRANCH   3   5
HETATM    5  N2  UNL     1      -3.374   4.328  12.642  1.00  0.00    -0.075 N 
ATOM      6  H23 UNL     1      -3.735   4.509  11.706  1.00  0.00     0.274 HD
ATOM      7  H22 UNL     1      -3.285   5.288  12.975  1.00  0.00     0.274 HD
ATOM      8  H21 UNL     1      -2.463   3.870  12.600  1.00  0.00     0.274 HD
ENDBRANCH   3   5
BRANCH   1   9
HETATM    9  C1  UNL     1      -4.433   0.762  15.258  1.00  0.00     0.235 C 
HETATM   10  N1  UNL     1      -3.758   0.829  16.507  1.00  0.00    -0.062 NA
HETATM   11  O1  UNL     1      -4.692  -0.358  14.750  1.00  0.00    -0.277 OA
ENDBRANCH   1   9
TORSDOF 2
ENDMDL
MODEL 4
REMARK VINA RESULT: -4.330466876      1.807      2.218
REMARK  2 active torsions:
REMARK  status: ('A' for Active; 'I' for Inactive)
REMARK    1  A    between atoms: C1_2  and  C2_4 
REMARK    2  A    between atoms: C4_6  and  N2_7 
ROOT
HETATM    1  C2  UNL     1      -4.982   1.537  16.310  1.00  0.00     0.079 C 
HETATM    2  C3  UNL     1      -5.653   2.513  15.333  1.00  0.00     0.046 C 
HETATM    3  C4  UNL     1      -4.393   2.258  14.492  1.00  0.00     0.185 C 
HETATM    4  C5  UNL     1      -4.467   0.861  15.030  1.00  0.00     0.046 C 
ENDROOT
BRANCH   3   5
HETATM    5  N2  UNL     1      -4.616   2.434  13.088  1.00  0.00    -0.075 N 
ATOM      6  H23 UNL     1      -4.095   3.236  12.734  1.00  0.00     0.274 HD
ATOM      7  H22 UNL     1      -4.166   1.692  12.551  1.00  0.00     0.274 HD
ATOM      8  H21 UNL     1      -5.605   2.507  12.850  1.00  0.00     0.274 HD
ENDBRANCH   3   5
BRANCH   1   9
HETATM    9  C1  UNL     1      -5.897   0.736  17.107  1.00  0.00     0.235 C 
HETATM   10  N1  UNL     1      -7.286   0.720  16.810  1.00  0.00    -0.062 NA
HETATM   11  O1  UNL     1      -5.458   0.052  18.067  1.00  0.00    -0.277 OA
ENDBRANCH   1   9
TORSDOF 2
ENDMDL
MODEL 5
REMARK VINA RESULT: -4.123663356      3.210      3.512
REMARK  2 active torsions:
REMARK  status: ('A' for Active; 'I' for Inactive)
REMARK    1  A    between atoms: C1_2  and  C2_4 
REMARK    2  A    between atoms: C4_6  and  N2_7 
ROOT
HETATM    1  C2  UNL     1      -4.203   3.275  12.853  1.00  0.00     0.079 C 
HETATM    2  C3  UNL     1      -2.680   3.417  12.721  1.00  0.00     0.046 C 
HETATM    3  C4  UNL     1      -2.810   4.137  14.071  1.00  0.00     0.185 C 
HETATM    4  C5  UNL     1      -3.900   3.149  14.354  1.00  0.00     0.046 C 
ENDROOT
BRANCH   3   5
HETATM    5  N2  UNL     1      -1.621   4.049  14.866  1.00  0.00    -0.075 N 
ATOM      6  H23 UNL     1      -1.286   3.087  14.915  1.00  0.00     0.274 HD
ATOM      7  H22 UNL     1      -0.829   4.477  14.386  1.00  0.00     0.274 HD
ATOM      8  H21 UNL     1      -1.738   4.442  15.799  1.00  0.00     0.274 HD
ENDBRANCH   3   5
BRANCH   1   9
HETATM    9  C1  UNL     1      -4.767   2.085  12.234  1.00  0.00     0.235 C 
HETATM   10  N1  UNL     1      -4.359   0.792  12.657  1.00  0.00    -0.062 NA
HETATM   11  O1  UNL     1      -5.620   2.200  11.318  1.00  0.00    -0.277 OA
ENDBRANCH   1   9
TORSDOF 2
ENDMDL
