MODEL 1
REMARK VINA RESULT: -5.918222038      0.000      0.000
REMARK  3 active torsions:
REMARK  status: ('A' for Active; 'I' for Inactive)
REMARK    1  A    between atoms: C3_5  and  C4_6 
REMARK    2  A    between atoms: C5_8  and  N3_9 
REMARK    3  A    between atoms: C6_12  and  N4_13 
REMARK       I    between atoms: N4_13  and  C7_15 
ROOT
HETATM    1  C1  UNL     1      17.870  -1.735  39.606  1.00  0.00     0.162 C 
HETATM    2  N1  UNL     1      16.985  -1.692  38.458  1.00  0.00    -0.291 N 
HETATM    3  C2  UNL     1      16.697  -2.899  37.897  1.00  0.00     0.137 C 
HETATM    4  N2  UNL     1      17.071  -3.994  38.711  1.00  0.00    -0.081 NA
HETATM    5  C3  UNL     1      16.111  -3.185  36.684  1.00  0.00     0.073 C 
HETATM    6  C5  UNL     1      15.683  -2.278  35.719  1.00  0.00     0.087 C 
HETATM    7  C6  UNL     1      15.563  -0.913  35.861  1.00  0.00     0.139 C 
HETATM    8  N7  UNL     1      15.798  -0.178  36.951  1.00  0.00    -0.292 N 
ATOM      9  H7  UNL     1      15.366   0.746  36.958  1.00  0.00     0.172 HD
HETATM   10  C8  UNL     1      16.535  -0.489  38.055  1.00  0.00     0.329 C 
HETATM   11  O2  UNL     1      16.831   0.473  38.791  1.00  0.00    -0.246 OA
ENDROOT
BRANCH   7  12
HETATM   12  N4  UNL     1      15.168  -0.300  34.771  1.00  0.00    -0.315 N 
HETATM   13  C7  UNL     1      15.752   0.959  34.405  1.00  0.00     0.187 C 
HETATM   14  N5  UNL     1      16.923   1.032  33.881  1.00  0.00    -0.373 N 
HETATM   15  N6  UNL     1      15.050   2.180  34.609  1.00  0.00    -0.064 NA
ATOM     16  H52 UNL     1      17.426   0.156  33.734  1.00  0.00     0.158 HD
ATOM     17  H51 UNL     1      17.337   1.926  33.621  1.00  0.00     0.158 HD
ATOM     18  H4  UNL     1      14.447  -0.719  34.184  1.00  0.00     0.170 HD
ENDBRANCH   7  12
BRANCH   6  19
HETATM   19  N3  UNL     1      15.361  -2.746  34.564  1.00  0.00    -0.395 N 
ATOM     20  H32 UNL     1      16.064  -2.636  33.834  1.00  0.00     0.156 HD
ATOM     21  H31 UNL     1      14.444  -3.183  34.472  1.00  0.00     0.156 HD
ENDBRANCH   6  19
BRANCH   5  22
HETATM   22  C4  UNL     1      15.910  -4.582  36.363  1.00  0.00     0.275 C 
HETATM   23  O1  UNL     1      16.764  -5.196  35.677  1.00  0.00    -0.301 OA
ENDBRANCH   5  22
TORSDOF 3
ENDMDL
MODEL 2
REMARK VINA RESULT: -5.289916271      1.225      1.239
REMARK  3 active torsions:
REMARK  status: ('A' for Active; 'I' for Inactive)
REMARK    1  A    between atoms: C3_5  and  C4_6 
REMARK    2  A    between atoms: C5_8  and  N3_9 
REMARK    3  A    between atoms: C6_12  and  N4_13 
REMARK       I    between atoms: N4_13  and  C7_15 
ROOT
HETATM    1  C1  UNL     1      19.054  -1.749  38.326  1.00  0.00     0.162 C 
HETATM    2  N1  UNL     1      17.881  -1.381  37.557  1.00  0.00    -0.291 N 
HETATM    3  C2  UNL     1      17.011  -2.395  37.297  1.00  0.00     0.137 C 
HETATM    4  N2  UNL     1      17.258  -3.553  38.072  1.00  0.00    -0.081 NA
HETATM    5  C3  UNL     1      15.958  -2.442  36.409  1.00  0.00     0.073 C 
HETATM    6  C5  UNL     1      15.545  -1.440  35.538  1.00  0.00     0.087 C 
HETATM    7  C6  UNL     1      15.962  -0.126  35.529  1.00  0.00     0.139 C 
HETATM    8  N7  UNL     1      16.820   0.468  36.362  1.00  0.00    -0.292 N 
ATOM      9  H7  UNL     1      16.766   1.486  36.393  1.00  0.00     0.172 HD
HETATM   10  C8  UNL     1      17.756  -0.095  37.176  1.00  0.00     0.329 C 
HETATM   11  O2  UNL     1      18.614   0.688  37.630  1.00  0.00    -0.246 OA
ENDROOT
BRANCH   7  12
HETATM   12  N4  UNL     1      15.429   0.591  34.569  1.00  0.00    -0.315 N 
HETATM   13  C7  UNL     1      16.129   1.734  34.054  1.00  0.00     0.187 C 
HETATM   14  N5  UNL     1      17.122   1.607  33.248  1.00  0.00    -0.373 N 
HETATM   15  N6  UNL     1      15.747   3.055  34.418  1.00  0.00    -0.064 NA
ATOM     16  H52 UNL     1      17.396   0.660  32.986  1.00  0.00     0.158 HD
ATOM     17  H51 UNL     1      17.620   2.418  32.882  1.00  0.00     0.158 HD
ATOM     18  H4  UNL     1      14.517   0.338  34.189  1.00  0.00     0.170 HD
ENDBRANCH   7  12
BRANCH   6  19
HETATM   19  N3  UNL     1      14.679  -1.753  34.638  1.00  0.00    -0.395 N 
ATOM     20  H32 UNL     1      13.858  -2.256  34.975  1.00  0.00     0.156 HD
ATOM     21  H31 UNL     1      14.879  -1.479  33.677  1.00  0.00     0.156 HD
ENDBRANCH   6  19
BRANCH   5  22
HETATM   22  C4  UNL     1      15.187  -3.666  36.367  1.00  0.00     0.275 C 
HETATM   23  O1  UNL     1      15.427  -4.528  35.486  1.00  0.00    -0.301 OA
ENDBRANCH   5  22
TORSDOF 3
ENDMDL
MODEL 3
REMARK VINA RESULT: -5.186655077      2.426      3.582
REMARK  3 active torsions:
REMARK  status: ('A' for Active; 'I' for Inactive)
REMARK    1  A    between atoms: C3_5  and  C4_6 
REMARK    2  A    between atoms: C5_8  and  N3_9 
REMARK    3  A    between atoms: C6_12  and  N4_13 
REMARK       I    between atoms: N4_13  and  C7_15 
ROOT
HETATM    1  C1  UNL     1      14.699  -3.761  35.696  1.00  0.00     0.162 C 
HETATM    2  N1  UNL     1      15.671  -2.713  35.935  1.00  0.00    -0.291 N 
HETATM    3  C2  UNL     1      16.923  -3.139  36.262  1.00  0.00     0.137 C 
HETATM    4  N2  UNL     1      17.121  -4.518  36.018  1.00  0.00    -0.081 NA
HETATM    5  C3  UNL     1      17.984  -2.430  36.781  1.00  0.00     0.073 C 
HETATM    6  C5  UNL     1      18.013  -1.080  37.116  1.00  0.00     0.087 C 
HETATM    7  C6  UNL     1      17.064  -0.129  36.805  1.00  0.00     0.139 C 
HETATM    8  N7  UNL     1      15.942  -0.289  36.099  1.00  0.00    -0.292 N 
ATOM      9  H7  UNL     1      15.539   0.567  35.717  1.00  0.00     0.172 HD
HETATM   10  C8  UNL     1      15.261  -1.435  35.816  1.00  0.00     0.329 C 
HETATM   11  O2  UNL     1      14.100  -1.279  35.389  1.00  0.00    -0.246 OA
ENDROOT
BRANCH   7  12
HETATM   12  N4  UNL     1      17.335   1.063  37.281  1.00  0.00    -0.315 N 
HETATM   13  C7  UNL     1      16.309   1.823  37.938  1.00  0.00     0.187 C 
HETATM   14  N5  UNL     1      15.938   1.556  39.139  1.00  0.00    -0.373 N 
HETATM   15  N6  UNL     1      15.662   2.906  37.279  1.00  0.00    -0.064 NA
ATOM     16  H52 UNL     1      16.402   0.780  39.612  1.00  0.00     0.158 HD
ATOM     17  H51 UNL     1      15.210   2.096  39.605  1.00  0.00     0.158 HD
ATOM     18  H4  UNL     1      18.274   1.449  37.184  1.00  0.00     0.170 HD
ENDBRANCH   7  12
BRANCH   6  19
HETATM   19  N3  UNL     1      19.025  -0.655  37.786  1.00  0.00    -0.395 N 
ATOM     20  H32 UNL     1      19.886  -1.190  37.669  1.00  0.00     0.156 HD
ATOM     21  H31 UNL     1      18.891   0.169  38.372  1.00  0.00     0.156 HD
ENDBRANCH   6  19
BRANCH   5  22
HETATM   22  C4  UNL     1      19.213  -3.158  37.008  1.00  0.00     0.275 C 
HETATM   23  O1  UNL     1      19.573  -3.430  38.180  1.00  0.00    -0.301 OA
ENDBRANCH   5  22
TORSDOF 3
ENDMDL
MODEL 4
REMARK VINA RESULT: -5.144656958      2.005      4.496
REMARK  3 active torsions:
REMARK  status: ('A' for Active; 'I' for Inactive)
REMARK    1  A    between atoms: C3_5  and  C4_6 
REMARK    2  A    between atoms: C5_8  and  N3_9 
REMARK    3  A    between atoms: C6_12  and  N4_13 
REMARK       I    between atoms: N4_13  and  C7_15 
ROOT
HETATM    1  C1  UNL     1      17.231   1.361  38.902  1.00  0.00     0.162 C 
HETATM    2  N1  UNL     1      16.913   0.329  37.935  1.00  0.00    -0.291 N 
HETATM    3  C2  UNL     1      16.536   0.776  36.705  1.00  0.00     0.137 C 
HETATM    4  N2  UNL     1      16.809   2.150  36.506  1.00  0.00    -0.081 NA
HETATM    5  C3  UNL     1      15.945   0.092  35.666  1.00  0.00     0.073 C 
HETATM    6  C5  UNL     1      15.570  -1.248  35.643  1.00  0.00     0.087 C 
HETATM    7  C6  UNL     1      15.901  -2.216  36.567  1.00  0.00     0.139 C 
HETATM    8  N7  UNL     1      16.666  -2.087  37.653  1.00  0.00    -0.292 N 
ATOM      9  H7  UNL     1      17.043  -2.956  38.030  1.00  0.00     0.172 HD
HETATM   10  C8  UNL     1      17.016  -0.956  38.328  1.00  0.00     0.329 C 
HETATM   11  O2  UNL     1      17.496  -1.135  39.465  1.00  0.00    -0.246 OA
ENDROOT
BRANCH   7  12
HETATM   12  N4  UNL     1      15.378  -3.391  36.311  1.00  0.00    -0.315 N 
HETATM   13  C7  UNL     1      16.077  -4.586  36.692  1.00  0.00     0.187 C 
HETATM   14  N5  UNL     1      16.100  -4.992  37.911  1.00  0.00    -0.373 N 
HETATM   15  N6  UNL     1      16.774  -5.368  35.729  1.00  0.00    -0.064 NA
ATOM     16  H52 UNL     1      15.600  -4.432  38.602  1.00  0.00     0.158 HD
ATOM     17  H51 UNL     1      16.596  -5.841  38.182  1.00  0.00     0.158 HD
ATOM     18  H4  UNL     1      14.475  -3.456  35.841  1.00  0.00     0.170 HD
ENDBRANCH   7  12
BRANCH   6  19
HETATM   19  N3  UNL     1      14.838  -1.644  34.662  1.00  0.00    -0.395 N 
ATOM     20  H32 UNL     1      14.935  -1.111  33.798  1.00  0.00     0.156 HD
ATOM     21  H31 UNL     1      14.229  -2.446  34.823  1.00  0.00     0.156 HD
ENDBRANCH   6  19
BRANCH   5  22
HETATM   22  C4  UNL     1      15.677   0.838  34.455  1.00  0.00     0.275 C 
HETATM   23  O1  UNL     1      14.558   1.384  34.290  1.00  0.00    -0.301 OA
ENDBRANCH   5  22
TORSDOF 3
ENDMDL
MODEL 5
REMARK VINA RESULT: -4.969787836      2.565      5.146
REMARK  3 active torsions:
REMARK  status: ('A' for Active; 'I' for Inactive)
REMARK    1  A    between atoms: C3_5  and  C4_6 
REMARK    2  A    between atoms: C5_8  and  N3_9 
REMARK    3  A    between atoms: C6_12  and  N4_13 
REMARK       I    between atoms: N4_13  and  C7_15 
ROOT
HETATM    1  C1  UNL     1      14.660  -3.835  36.040  1.00  0.00     0.162 C 
HETATM    2  N1  UNL     1      15.782  -3.032  36.483  1.00  0.00    -0.291 N 
HETATM    3  C2  UNL     1      15.747  -1.722  36.111  1.00  0.00     0.137 C 
HETATM    4  N2  UNL     1      14.484  -1.319  35.616  1.00  0.00    -0.081 NA
HETATM    5  C3  UNL     1      16.744  -0.772  36.149  1.00  0.00     0.073 C 
HETATM    6  C5  UNL     1      18.057  -0.944  36.574  1.00  0.00     0.087 C 
HETATM    7  C6  UNL     1      18.577  -2.035  37.238  1.00  0.00     0.139 C 
HETATM    8  N7  UNL     1      17.934  -3.134  37.639  1.00  0.00    -0.292 N 
ATOM      9  H7  UNL     1      18.400  -3.673  38.369  1.00  0.00     0.172 HD
HETATM   10  C8  UNL     1      16.741  -3.636  37.211  1.00  0.00     0.329 C 
HETATM   11  O2  UNL     1      16.507  -4.817  37.537  1.00  0.00    -0.246 OA
ENDROOT
BRANCH   7  12
HETATM   12  N4  UNL     1      19.861  -1.940  37.486  1.00  0.00    -0.315 N 
HETATM   13  C7  UNL     1      20.726  -3.055  37.222  1.00  0.00     0.187 C 
HETATM   14  N5  UNL     1      21.097  -3.351  36.027  1.00  0.00    -0.373 N 
HETATM   15  N6  UNL     1      21.207  -3.878  38.278  1.00  0.00    -0.064 NA
ATOM     16  H52 UNL     1      20.753  -2.762  35.269  1.00  0.00     0.158 HD
ATOM     17  H51 UNL     1      21.711  -4.143  35.840  1.00  0.00     0.158 HD
ATOM     18  H4  UNL     1      20.245  -1.075  37.865  1.00  0.00     0.170 HD
ENDBRANCH   7  12
BRANCH   6  19
HETATM   19  N3  UNL     1      18.891   0.006  36.331  1.00  0.00    -0.395 N 
ATOM     20  H32 UNL     1      18.694   0.892  36.795  1.00  0.00     0.156 HD
ATOM     21  H31 UNL     1      19.668  -0.199  35.703  1.00  0.00     0.156 HD
ENDBRANCH   6  19
BRANCH   5  22
HETATM   22  C4  UNL     1      16.400   0.560  35.700  1.00  0.00     0.275 C 
HETATM   23  O1  UNL     1      16.075   1.439  36.536  1.00  0.00    -0.301 OA
ENDBRANCH   5  22
TORSDOF 3
ENDMDL
