MODEL 1
REMARK VINA RESULT: -5.879584018      0.000      0.000
REMARK  4 active torsions:
REMARK  status: ('A' for Active; 'I' for Inactive)
REMARK    1  A    between atoms: C2_3  and  C3_4 
REMARK    2  A    between atoms: C5_6  and  O1_7 
REMARK    3  A    between atoms: C6_9  and  O2_10 
REMARK    4  A    between atoms: C7_12  and  N2_13 
ROOT
HETATM    1  N1  UNL     1      35.048  16.530 -15.116  1.00  0.00    -0.197 NA
HETATM    2  C1  UNL     1      34.474  16.350 -16.105  1.00  0.00     0.061 C 
HETATM    3  C2  UNL     1      33.742  16.128 -17.349  1.00  0.00     0.156 C 
ENDROOT
BRANCH   3   4
HETATM    4  C3  UNL     1      34.505  15.122 -18.183  1.00  0.00     0.140 C 
HETATM    5  C4  UNL     1      35.812  15.664 -18.680  1.00  0.00     0.067 C 
HETATM    6  C5  UNL     1      36.226  14.820 -19.869  1.00  0.00     0.153 C 
HETATM    7  C6  UNL     1      35.222  15.038 -21.008  1.00  0.00     0.197 C 
HETATM    8  C7  UNL     1      33.931  15.492 -20.388  1.00  0.00     0.274 C 
HETATM    9  O3  UNL     1      33.701  14.710 -19.260  1.00  0.00    -0.356 OA
BRANCH   6  10
HETATM   10  O1  UNL     1      37.488  15.154 -20.312  1.00  0.00    -0.393 OA
ATOM     11  H1  UNL     1      37.643  16.090 -20.250  1.00  0.00     0.210 HD
ENDBRANCH   6  10
BRANCH   7  12
HETATM   12  O2  UNL     1      35.748  15.948 -21.912  1.00  0.00    -0.389 OA
ATOM     13  H2  UNL     1      36.685  15.809 -21.986  1.00  0.00     0.210 HD
ENDBRANCH   7  12
BRANCH   8  14
HETATM   14  N2  UNL     1      32.813  15.384 -21.283  1.00  0.00    -0.272 N 
HETATM   15  C8  UNL     1      31.781  14.543 -21.139  1.00  0.00     0.114 A 
HETATM   16  C9  UNL     1      30.947  14.772 -22.214  1.00  0.00     0.037 A 
HETATM   17  C10 UNL     1      31.494  15.763 -23.002  1.00  0.00     0.108 A 
HETATM   18  N3  UNL     1      32.638  16.094 -22.375  1.00  0.00    -0.308 N 
ATOM     19  H3  UNL     1      33.288  16.807 -22.706  1.00  0.00     0.186 HD
ENDBRANCH   8  14
ENDBRANCH   3   4
TORSDOF 4
ENDMDL
MODEL 2
REMARK VINA RESULT: -5.808555456      2.627      3.736
REMARK  4 active torsions:
REMARK  status: ('A' for Active; 'I' for Inactive)
REMARK    1  A    between atoms: C2_3  and  C3_4 
REMARK    2  A    between atoms: C5_6  and  O1_7 
REMARK    3  A    between atoms: C6_9  and  O2_10 
REMARK    4  A    between atoms: C7_12  and  N2_13 
ROOT
HETATM    1  N1  UNL     1      32.101  14.327 -20.075  1.00  0.00    -0.197 NA
HETATM    2  C1  UNL     1      32.233  14.623 -18.963  1.00  0.00     0.061 C 
HETATM    3  C2  UNL     1      32.391  14.995 -17.561  1.00  0.00     0.156 C 
ENDROOT
BRANCH   3   4
HETATM    4  C3  UNL     1      33.851  15.300 -17.305  1.00  0.00     0.140 C 
HETATM    5  C4  UNL     1      34.040  16.520 -16.453  1.00  0.00     0.067 C 
HETATM    6  C5  UNL     1      35.454  17.015 -16.683  1.00  0.00     0.153 C 
HETATM    7  C6  UNL     1      35.584  17.493 -18.134  1.00  0.00     0.197 C 
HETATM    8  C7  UNL     1      34.532  16.782 -18.938  1.00  0.00     0.274 C 
HETATM    9  O3  UNL     1      34.514  15.451 -18.535  1.00  0.00    -0.356 OA
BRANCH   6  10
HETATM   10  O1  UNL     1      35.770  18.057 -15.837  1.00  0.00    -0.393 OA
ATOM     11  H1  UNL     1      35.019  18.618 -15.679  1.00  0.00     0.210 HD
ENDBRANCH   6  10
BRANCH   7  12
HETATM   12  O2  UNL     1      35.465  18.874 -18.173  1.00  0.00    -0.389 OA
ATOM     13  H2  UNL     1      36.257  19.265 -17.822  1.00  0.00     0.210 HD
ENDBRANCH   7  12
BRANCH   8  14
HETATM   14  N2  UNL     1      34.767  16.853 -20.353  1.00  0.00    -0.272 N 
HETATM   15  C8  UNL     1      35.193  15.842 -21.121  1.00  0.00     0.114 A 
HETATM   16  C9  UNL     1      35.282  16.345 -22.402  1.00  0.00     0.037 A 
HETATM   17  C10 UNL     1      34.902  17.671 -22.390  1.00  0.00     0.108 A 
HETATM   18  N3  UNL     1      34.599  17.919 -21.103  1.00  0.00    -0.308 N 
ATOM     19  H3  UNL     1      34.279  18.822 -20.753  1.00  0.00     0.186 HD
ENDBRANCH   8  14
ENDBRANCH   3   4
TORSDOF 4
ENDMDL
MODEL 3
REMARK VINA RESULT: -5.669566596      2.324      3.007
REMARK  4 active torsions:
REMARK  status: ('A' for Active; 'I' for Inactive)
REMARK    1  A    between atoms: C2_3  and  C3_4 
REMARK    2  A    between atoms: C5_6  and  O1_7 
REMARK    3  A    between atoms: C6_9  and  O2_10 
REMARK    4  A    between atoms: C7_12  and  N2_13 
ROOT
HETATM    1  N1  UNL     1      35.505  17.599 -15.470  1.00  0.00    -0.197 NA
HETATM    2  C1  UNL     1      35.437  17.636 -16.625  1.00  0.00     0.061 C 
HETATM    3  C2  UNL     1      35.357  17.690 -18.082  1.00  0.00     0.156 C 
ENDROOT
BRANCH   3   4
HETATM    4  C3  UNL     1      34.410  16.609 -18.552  1.00  0.00     0.140 C 
HETATM    5  C4  UNL     1      34.827  15.243 -18.094  1.00  0.00     0.067 C 
HETATM    6  C5  UNL     1      34.153  14.237 -19.005  1.00  0.00     0.153 C 
HETATM    7  C6  UNL     1      34.716  14.393 -20.423  1.00  0.00     0.197 C 
HETATM    8  C7  UNL     1      35.243  15.795 -20.546  1.00  0.00     0.274 C 
HETATM    9  O3  UNL     1      34.319  16.651 -19.955  1.00  0.00    -0.356 OA
BRANCH   6  10
HETATM   10  O1  UNL     1      34.366  12.944 -18.577  1.00  0.00    -0.393 OA
ATOM     11  H1  UNL     1      33.813  12.327 -19.042  1.00  0.00     0.210 HD
ENDBRANCH   6  10
BRANCH   7  12
HETATM   12  O2  UNL     1      35.681  13.422 -20.641  1.00  0.00    -0.389 OA
ATOM     13  H2  UNL     1      35.500  12.672 -20.085  1.00  0.00     0.210 HD
ENDBRANCH   7  12
BRANCH   8  14
HETATM   14  N2  UNL     1      35.463  16.192 -21.907  1.00  0.00    -0.272 N 
HETATM   15  C8  UNL     1      34.856  17.213 -22.528  1.00  0.00     0.114 A 
HETATM   16  C9  UNL     1      35.359  17.235 -23.811  1.00  0.00     0.037 A 
HETATM   17  C10 UNL     1      36.276  16.214 -23.951  1.00  0.00     0.108 A 
HETATM   18  N3  UNL     1      36.292  15.613 -22.748  1.00  0.00    -0.308 N 
ATOM     19  H3  UNL     1      36.874  14.808 -22.516  1.00  0.00     0.186 HD
ENDBRANCH   8  14
ENDBRANCH   3   4
TORSDOF 4
ENDMDL
MODEL 4
REMARK VINA RESULT: -5.463354689      2.176      5.189
REMARK  4 active torsions:
REMARK  status: ('A' for Active; 'I' for Inactive)
REMARK    1  A    between atoms: C2_3  and  C3_4 
REMARK    2  A    between atoms: C5_6  and  O1_7 
REMARK    3  A    between atoms: C6_9  and  O2_10 
REMARK    4  A    between atoms: C7_12  and  N2_13 
ROOT
HETATM    1  N1  UNL     1      33.646  16.844 -24.290  1.00  0.00    -0.197 NA
HETATM    2  C1  UNL     1      33.964  17.099 -23.206  1.00  0.00     0.061 C 
HETATM    3  C2  UNL     1      34.361  17.429 -21.841  1.00  0.00     0.156 C 
ENDROOT
BRANCH   3   4
HETATM    4  C3  UNL     1      35.247  16.321 -21.316  1.00  0.00     0.140 C 
HETATM    5  C4  UNL     1      34.661  14.960 -21.550  1.00  0.00     0.067 C 
HETATM    6  C5  UNL     1      35.327  14.009 -20.576  1.00  0.00     0.153 C 
HETATM    7  C6  UNL     1      34.927  14.398 -19.148  1.00  0.00     0.197 C 
HETATM    8  C7  UNL     1      34.547  15.852 -19.167  1.00  0.00     0.274 C 
HETATM    9  O3  UNL     1      35.482  16.527 -19.945  1.00  0.00    -0.356 OA
BRANCH   6  10
HETATM   10  O1  UNL     1      34.953  12.703 -20.808  1.00  0.00    -0.393 OA
ATOM     11  H1  UNL     1      35.439  12.324 -21.531  1.00  0.00     0.210 HD
ENDBRANCH   6  10
BRANCH   7  12
HETATM   12  O2  UNL     1      33.903  13.568 -18.718  1.00  0.00    -0.389 OA
ATOM     13  H2  UNL     1      33.086  13.852 -19.111  1.00  0.00     0.210 HD
ENDBRANCH   7  12
BRANCH   8  14
HETATM   14  N2  UNL     1      34.503  16.435 -17.856  1.00  0.00    -0.272 N 
HETATM   15  C8  UNL     1      35.000  17.633 -17.521  1.00  0.00     0.114 A 
HETATM   16  C9  UNL     1      34.743  17.793 -16.175  1.00  0.00     0.037 A 
HETATM   17  C10 UNL     1      34.085  16.673 -15.709  1.00  0.00     0.108 A 
HETATM   18  N3  UNL     1      33.970  15.880 -16.790  1.00  0.00    -0.308 N 
ATOM     19  H3  UNL     1      33.524  14.963 -16.783  1.00  0.00     0.186 HD
ENDBRANCH   8  14
ENDBRANCH   3   4
TORSDOF 4
ENDMDL
MODEL 5
REMARK VINA RESULT: -5.368432861      3.040      4.121
REMARK  4 active torsions:
REMARK  status: ('A' for Active; 'I' for Inactive)
REMARK    1  A    between atoms: C2_3  and  C3_4 
REMARK    2  A    between atoms: C5_6  and  O1_7 
REMARK    3  A    between atoms: C6_9  and  O2_10 
REMARK    4  A    between atoms: C7_12  and  N2_13 
ROOT
HETATM    1  N1  UNL     1      31.285  13.796 -18.454  1.00  0.00    -0.197 NA
HETATM    2  C1  UNL     1      31.519  14.707 -17.778  1.00  0.00     0.061 C 
HETATM    3  C2  UNL     1      31.807  15.859 -16.929  1.00  0.00     0.156 C 
ENDROOT
BRANCH   3   4
HETATM    4  C3  UNL     1      33.246  15.772 -16.472  1.00  0.00     0.140 C 
HETATM    5  C4  UNL     1      33.702  17.020 -15.775  1.00  0.00     0.067 C 
HETATM    6  C5  UNL     1      35.216  17.037 -15.826  1.00  0.00     0.153 C 
HETATM    7  C6  UNL     1      35.664  17.184 -17.285  1.00  0.00     0.197 C 
HETATM    8  C7  UNL     1      34.548  16.672 -18.152  1.00  0.00     0.274 C 
HETATM    9  O3  UNL     1      34.068  15.499 -17.580  1.00  0.00    -0.356 OA
BRANCH   6  10
HETATM   10  O1  UNL     1      35.736  18.080 -15.089  1.00  0.00    -0.393 OA
ATOM     11  H1  UNL     1      35.403  18.079 -14.200  1.00  0.00     0.210 HD
ENDBRANCH   6  10
BRANCH   7  12
HETATM   12  O2  UNL     1      35.987  18.510 -17.532  1.00  0.00    -0.389 OA
ATOM     13  H2  UNL     1      36.863  18.683 -17.207  1.00  0.00     0.210 HD
ENDBRANCH   7  12
BRANCH   8  14
HETATM   14  N2  UNL     1      34.963  16.412 -19.502  1.00  0.00    -0.272 N 
HETATM   15  C8  UNL     1      34.584  17.112 -20.580  1.00  0.00     0.114 A 
HETATM   16  C9  UNL     1      35.212  16.524 -21.658  1.00  0.00     0.037 A 
HETATM   17  C10 UNL     1      35.973  15.464 -21.210  1.00  0.00     0.108 A 
HETATM   18  N3  UNL     1      35.776  15.450 -19.880  1.00  0.00    -0.308 N 
ATOM     19  H3  UNL     1      36.203  14.777 -19.243  1.00  0.00     0.186 HD
ENDBRANCH   8  14
ENDBRANCH   3   4
TORSDOF 4
ENDMDL
