MODEL 1
REMARK VINA RESULT: -5.034443554      0.000      0.000
REMARK  6 active torsions:
REMARK  status: ('A' for Active; 'I' for Inactive)
REMARK    1  A    between atoms: N1_1  and  N2_4 
REMARK    2  A    between atoms: N2_4  and  N3_5 
REMARK    3  A    between atoms: N3_5  and  C1_7 
REMARK    4  A    between atoms: C2_8  and  C3_9 
REMARK    5  A    between atoms: C3_9  and  O1_10 
REMARK    6  A    between atoms: C7_18  and  O5_19 
ROOT
HETATM    1  C1  UNL     1      34.743  15.673 -17.329  1.00  0.00     0.182 C 
HETATM    2  C2  UNL     1      33.965  14.567 -18.006  1.00  0.00     0.179 C 
HETATM    3  O2  UNL     1      34.344  14.584 -19.335  1.00  0.00    -0.321 OA
HETATM    4  C4  UNL     1      35.009  15.746 -19.599  1.00  0.00     0.312 C 
HETATM    5  O3  UNL     1      36.369  15.488 -19.685  1.00  0.00    -0.329 OA
HETATM    6  C5  UNL     1      36.511  14.957 -20.965  1.00  0.00     0.200 C 
HETATM    7  C6  UNL     1      35.246  15.356 -21.703  1.00  0.00     0.200 C 
HETATM    8  O4  UNL     1      34.720  16.315 -20.825  1.00  0.00    -0.329 OA
HETATM    9  C7  UNL     1      34.724  16.698 -18.444  1.00  0.00     0.239 C 
ENDROOT
BRANCH   1  10
HETATM   10  N3  UNL     1      34.133  16.136 -16.123  1.00  0.00    -0.242 N 
ATOM     11  H3  UNL     1      33.332  15.653 -15.714  1.00  0.00     0.197 HD
BRANCH  10  12
HETATM   12  N2  UNL     1      34.619  17.153 -15.590  1.00  0.00    -0.248 NA
BRANCH  12  13
HETATM   13  N1  UNL     1      35.148  18.161 -15.124  1.00  0.00    -0.261 N 
ATOM     14  H12 UNL     1      35.478  18.094 -16.087  1.00  0.00     0.193 HD
ATOM     15  H11 UNL     1      35.557  18.985 -14.683  1.00  0.00     0.193 HD
ENDBRANCH  12  13
ENDBRANCH  10  12
ENDBRANCH   1  10
BRANCH   2  16
HETATM   16  C3  UNL     1      32.462  14.850 -17.958  1.00  0.00     0.198 C 
BRANCH  16  17
HETATM   17  O1  UNL     1      31.917  14.505 -19.208  1.00  0.00    -0.398 OA
ATOM     18  H1  UNL     1      31.047  14.885 -19.262  1.00  0.00     0.209 HD
ENDBRANCH  16  17
ENDBRANCH   2  16
BRANCH   9  19
HETATM   19  O5  UNL     1      35.739  17.636 -18.313  1.00  0.00    -0.385 OA
ATOM     20  H5  UNL     1      35.593  18.402 -18.856  1.00  0.00     0.210 HD
ENDBRANCH   9  19
TORSDOF 6
ENDMDL
MODEL 2
REMARK VINA RESULT: -4.981107143      3.041      4.489
REMARK  6 active torsions:
REMARK  status: ('A' for Active; 'I' for Inactive)
REMARK    1  A    between atoms: N1_1  and  N2_4 
REMARK    2  A    between atoms: N2_4  and  N3_5 
REMARK    3  A    between atoms: N3_5  and  C1_7 
REMARK    4  A    between atoms: C2_8  and  C3_9 
REMARK    5  A    between atoms: C3_9  and  O1_10 
REMARK    6  A    between atoms: C7_18  and  O5_19 
ROOT
HETATM    1  C1  UNL     1      34.503  16.839 -19.553  1.00  0.00     0.182 C 
HETATM    2  C2  UNL     1      34.349  15.430 -19.027  1.00  0.00     0.179 C 
HETATM    3  O2  UNL     1      34.315  15.532 -17.649  1.00  0.00    -0.321 OA
HETATM    4  C4  UNL     1      34.735  16.777 -17.279  1.00  0.00     0.312 C 
HETATM    5  O3  UNL     1      33.640  17.542 -16.909  1.00  0.00    -0.329 OA
HETATM    6  C5  UNL     1      33.367  17.102 -15.616  1.00  0.00     0.200 C 
HETATM    7  C6  UNL     1      34.630  16.393 -15.164  1.00  0.00     0.200 C 
HETATM    8  O4  UNL     1      35.535  16.809 -16.152  1.00  0.00    -0.329 OA
HETATM    9  C7  UNL     1      35.427  17.394 -18.489  1.00  0.00     0.239 C 
ENDROOT
BRANCH   1  10
HETATM   10  N3  UNL     1      35.057  16.893 -20.870  1.00  0.00    -0.242 N 
ATOM     11  H3  UNL     1      36.042  17.111 -21.023  1.00  0.00     0.197 HD
BRANCH  10  12
HETATM   12  N2  UNL     1      34.288  16.662 -21.823  1.00  0.00    -0.248 NA
BRANCH  12  13
HETATM   13  N1  UNL     1      33.494  16.380 -22.720  1.00  0.00    -0.261 N 
ATOM     14  H12 UNL     1      33.181  17.274 -22.343  1.00  0.00     0.193 HD
ATOM     15  H11 UNL     1      32.870  16.093 -23.474  1.00  0.00     0.193 HD
ENDBRANCH  12  13
ENDBRANCH  10  12
ENDBRANCH   1  10
BRANCH   2  16
HETATM   16  C3  UNL     1      35.567  14.577 -19.390  1.00  0.00     0.198 C 
BRANCH  16  17
HETATM   17  O1  UNL     1      35.244  13.828 -20.536  1.00  0.00    -0.398 OA
ATOM     18  H1  UNL     1      36.055  13.605 -20.977  1.00  0.00     0.209 HD
ENDBRANCH  16  17
ENDBRANCH   2  16
BRANCH   9  19
HETATM   19  O5  UNL     1      35.386  18.781 -18.429  1.00  0.00    -0.385 OA
ATOM     20  H5  UNL     1      35.041  19.165 -19.227  1.00  0.00     0.210 HD
ENDBRANCH   9  19
TORSDOF 6
ENDMDL
MODEL 3
REMARK VINA RESULT: -4.957981507      1.497      2.803
REMARK  6 active torsions:
REMARK  status: ('A' for Active; 'I' for Inactive)
REMARK    1  A    between atoms: N1_1  and  N2_4 
REMARK    2  A    between atoms: N2_4  and  N3_5 
REMARK    3  A    between atoms: N3_5  and  C1_7 
REMARK    4  A    between atoms: C2_8  and  C3_9 
REMARK    5  A    between atoms: C3_9  and  O1_10 
REMARK    6  A    between atoms: C7_18  and  O5_19 
ROOT
HETATM    1  C1  UNL     1      34.043  15.710 -18.112  1.00  0.00     0.182 C 
HETATM    2  C2  UNL     1      34.871  16.901 -18.542  1.00  0.00     0.179 C 
HETATM    3  O2  UNL     1      35.501  16.532 -19.715  1.00  0.00    -0.321 OA
HETATM    4  C4  UNL     1      35.401  15.180 -19.874  1.00  0.00     0.312 C 
HETATM    5  O3  UNL     1      34.442  14.900 -20.835  1.00  0.00    -0.329 OA
HETATM    6  C5  UNL     1      35.116  15.127 -22.032  1.00  0.00     0.200 C 
HETATM    7  C6  UNL     1      36.590  15.111 -21.667  1.00  0.00     0.200 C 
HETATM    8  O4  UNL     1      36.535  14.569 -20.375  1.00  0.00    -0.329 OA
HETATM    9  C7  UNL     1      34.986  14.601 -18.527  1.00  0.00     0.239 C 
ENDROOT
BRANCH   1  10
HETATM   10  N3  UNL     1      33.742  15.707 -16.715  1.00  0.00    -0.242 N 
ATOM     11  H3  UNL     1      34.041  14.942 -16.110  1.00  0.00     0.197 HD
BRANCH  10  12
HETATM   12  N2  UNL     1      33.099  16.677 -16.267  1.00  0.00    -0.248 NA
BRANCH  12  13
HETATM   13  N1  UNL     1      32.532  17.670 -15.814  1.00  0.00    -0.261 N 
ATOM     14  H12 UNL     1      32.988  17.977 -16.673  1.00  0.00     0.193 HD
ATOM     15  H11 UNL     1      32.042  18.457 -15.390  1.00  0.00     0.193 HD
ENDBRANCH  12  13
ENDBRANCH  10  12
ENDBRANCH   1  10
BRANCH   2  16
HETATM   16  C3  UNL     1      35.962  17.205 -17.514  1.00  0.00     0.198 C 
BRANCH  16  17
HETATM   17  O1  UNL     1      35.536  18.300 -16.741  1.00  0.00    -0.398 OA
ATOM     18  H1  UNL     1      35.971  18.250 -15.898  1.00  0.00     0.209 HD
ENDBRANCH  16  17
ENDBRANCH   2  16
BRANCH   9  19
HETATM   19  O5  UNL     1      34.329  13.388 -18.691  1.00  0.00    -0.385 OA
ATOM     20  H5  UNL     1      33.921  13.313 -19.546  1.00  0.00     0.210 HD
ENDBRANCH   9  19
TORSDOF 6
ENDMDL
MODEL 4
REMARK VINA RESULT: -4.711430997      3.058      4.753
REMARK  6 active torsions:
REMARK  status: ('A' for Active; 'I' for Inactive)
REMARK    1  A    between atoms: N1_1  and  N2_4 
REMARK    2  A    between atoms: N2_4  and  N3_5 
REMARK    3  A    between atoms: N3_5  and  C1_7 
REMARK    4  A    between atoms: C2_8  and  C3_9 
REMARK    5  A    between atoms: C3_9  and  O1_10 
REMARK    6  A    between atoms: C7_18  and  O5_19 
ROOT
HETATM    1  C1  UNL     1      34.071  14.575 -19.247  1.00  0.00     0.182 C 
HETATM    2  C2  UNL     1      35.108  15.666 -19.097  1.00  0.00     0.179 C 
HETATM    3  O2  UNL     1      34.939  16.189 -17.829  1.00  0.00    -0.321 OA
HETATM    4  C4  UNL     1      33.744  15.766 -17.323  1.00  0.00     0.312 C 
HETATM    5  O3  UNL     1      33.969  14.768 -16.387  1.00  0.00    -0.329 OA
HETATM    6  C5  UNL     1      34.353  15.477 -15.252  1.00  0.00     0.200 C 
HETATM    7  C6  UNL     1      33.895  16.903 -15.501  1.00  0.00     0.200 C 
HETATM    8  O4  UNL     1      33.047  16.719 -16.604  1.00  0.00    -0.329 OA
HETATM    9  C7  UNL     1      32.931  15.222 -18.491  1.00  0.00     0.239 C 
ENDROOT
BRANCH   1  10
HETATM   10  N3  UNL     1      33.755  14.281 -20.610  1.00  0.00    -0.242 N 
ATOM     11  H3  UNL     1      34.485  14.070 -21.291  1.00  0.00     0.197 HD
BRANCH  10  12
HETATM   12  N2  UNL     1      32.550  14.293 -20.931  1.00  0.00    -0.248 NA
BRANCH  12  13
HETATM   13  N1  UNL     1      31.383  14.293 -21.321  1.00  0.00    -0.261 N 
ATOM     14  H12 UNL     1      31.588  15.257 -21.057  1.00  0.00     0.193 HD
ATOM     15  H11 UNL     1      30.422  14.230 -21.655  1.00  0.00     0.193 HD
ENDBRANCH  12  13
ENDBRANCH  10  12
ENDBRANCH   1  10
BRANCH   2  16
HETATM   16  C3  UNL     1      34.856  16.798 -20.094  1.00  0.00     0.198 C 
BRANCH  16  17
HETATM   17  O1  UNL     1      35.121  18.016 -19.442  1.00  0.00    -0.398 OA
ATOM     18  H1  UNL     1      36.046  18.209 -19.548  1.00  0.00     0.209 HD
ENDBRANCH  16  17
ENDBRANCH   2  16
BRANCH   9  19
HETATM   19  O5  UNL     1      31.996  14.292 -18.053  1.00  0.00    -0.385 OA
ATOM     20  H5  UNL     1      32.387  13.443 -17.882  1.00  0.00     0.210 HD
ENDBRANCH   9  19
TORSDOF 6
ENDMDL
MODEL 5
REMARK VINA RESULT: -4.662118391      3.047      4.770
REMARK  6 active torsions:
REMARK  status: ('A' for Active; 'I' for Inactive)
REMARK    1  A    between atoms: N1_1  and  N2_4 
REMARK    2  A    between atoms: N2_4  and  N3_5 
REMARK    3  A    between atoms: N3_5  and  C1_7 
REMARK    4  A    between atoms: C2_8  and  C3_9 
REMARK    5  A    between atoms: C3_9  and  O1_10 
REMARK    6  A    between atoms: C7_18  and  O5_19 
ROOT
HETATM    1  C1  UNL     1      33.941  14.464 -19.101  1.00  0.00     0.182 C 
HETATM    2  C2  UNL     1      34.999  15.545 -19.103  1.00  0.00     0.179 C 
HETATM    3  O2  UNL     1      34.901  16.186 -17.882  1.00  0.00    -0.321 OA
HETATM    4  C4  UNL     1      33.727  15.832 -17.281  1.00  0.00     0.312 C 
HETATM    5  O3  UNL     1      33.985  14.920 -16.269  1.00  0.00    -0.329 OA
HETATM    6  C5  UNL     1      34.435  15.724 -15.224  1.00  0.00     0.200 C 
HETATM    7  C6  UNL     1      33.985  17.129 -15.582  1.00  0.00     0.200 C 
HETATM    8  O4  UNL     1      33.081  16.859 -16.620  1.00  0.00    -0.329 OA
HETATM    9  C7  UNL     1      32.849  15.198 -18.353  1.00  0.00     0.239 C 
ENDROOT
BRANCH   1  10
HETATM   10  N3  UNL     1      33.552  14.052 -20.413  1.00  0.00    -0.242 N 
ATOM     11  H3  UNL     1      32.603  14.201 -20.757  1.00  0.00     0.197 HD
BRANCH  10  12
HETATM   12  N2  UNL     1      34.421  13.504 -21.120  1.00  0.00    -0.248 NA
BRANCH  12  13
HETATM   13  N1  UNL     1      35.282  13.028 -21.859  1.00  0.00    -0.261 N 
ATOM     14  H12 UNL     1      35.518  12.715 -20.918  1.00  0.00     0.193 HD
ATOM     15  H11 UNL     1      35.966  12.661 -22.521  1.00  0.00     0.193 HD
ENDBRANCH  12  13
ENDBRANCH  10  12
ENDBRANCH   1  10
BRANCH   2  16
HETATM   16  C3  UNL     1      34.712  16.586 -20.187  1.00  0.00     0.198 C 
BRANCH  16  17
HETATM   17  O1  UNL     1      35.341  16.160 -21.372  1.00  0.00    -0.398 OA
ATOM     18  H1  UNL     1      34.774  15.520 -21.789  1.00  0.00     0.209 HD
ENDBRANCH  16  17
ENDBRANCH   2  16
BRANCH   9  19
HETATM   19  O5  UNL     1      31.925  14.330 -17.786  1.00  0.00    -0.385 OA
ATOM     20  H5  UNL     1      31.167  14.197 -18.343  1.00  0.00     0.210 HD
ENDBRANCH   9  19
TORSDOF 6
ENDMDL
