MODEL 1
REMARK VINA RESULT: -5.835853348      0.000      0.000
REMARK  3 active torsions:
REMARK  status: ('A' for Active; 'I' for Inactive)
REMARK    1  A    between atoms: O1_2  and  C2_3 
REMARK    2  A    between atoms: C8_12  and  O5_13 
REMARK    3  A    between atoms: C9_15  and  O6_16 
ROOT
HETATM    1  C2  UNL     1      35.289  15.546 -20.434  1.00  0.00     0.293 C 
HETATM    2  O2  UNL     1      35.786  16.081 -19.222  1.00  0.00    -0.326 OA
HETATM    3  C3  UNL     1      34.721  16.192 -18.378  1.00  0.00     0.298 C 
HETATM    4  O3  UNL     1      34.965  16.735 -17.147  1.00  0.00    -0.323 OA
HETATM    5  C4  UNL     1      33.928  16.230 -16.333  1.00  0.00     0.160 C 
HETATM    6  C5  UNL     1      32.859  17.299 -16.302  1.00  0.00     0.078 C 
HETATM    7  C6  UNL     1      34.468  15.901 -14.978  1.00  0.00     0.078 C 
HETATM    8  O4  UNL     1      33.486  15.057 -16.923  1.00  0.00    -0.343 OA
HETATM    9  C7  UNL     1      34.342  14.761 -17.954  1.00  0.00     0.211 C 
HETATM   10  C8  UNL     1      33.724  14.123 -19.149  1.00  0.00     0.185 C 
HETATM   11  C9  UNL     1      34.807  14.114 -20.238  1.00  0.00     0.204 C 
ENDROOT
BRANCH   1  12
HETATM   12  O1  UNL     1      34.174  16.299 -20.768  1.00  0.00    -0.363 OA
HETATM   13  C1  UNL     1      34.375  17.101 -21.874  1.00  0.00     0.204 C 
ENDBRANCH   1  12
BRANCH  11  14
HETATM   14  O6  UNL     1      34.325  13.671 -21.445  1.00  0.00    -0.388 OA
ATOM     15  H6  UNL     1      34.560  12.753 -21.527  1.00  0.00     0.210 HD
ENDBRANCH  11  14
BRANCH  10  16
HETATM   16  O5  UNL     1      32.621  14.852 -19.541  1.00  0.00    -0.390 OA
ATOM     17  H5  UNL     1      32.817  15.780 -19.481  1.00  0.00     0.210 HD
ENDBRANCH  10  16
TORSDOF 3
ENDMDL
MODEL 2
REMARK VINA RESULT: -5.800137967      1.432      4.714
REMARK  3 active torsions:
REMARK  status: ('A' for Active; 'I' for Inactive)
REMARK    1  A    between atoms: O1_2  and  C2_3 
REMARK    2  A    between atoms: C8_12  and  O5_13 
REMARK    3  A    between atoms: C9_15  and  O6_16 
ROOT
HETATM    1  C2  UNL     1      34.056  16.530 -15.875  1.00  0.00     0.293 C 
HETATM    2  O2  UNL     1      33.960  15.423 -16.753  1.00  0.00    -0.326 OA
HETATM    3  C3  UNL     1      34.182  15.902 -18.010  1.00  0.00     0.298 C 
HETATM    4  O3  UNL     1      34.092  15.002 -19.036  1.00  0.00    -0.323 OA
HETATM    5  C4  UNL     1      34.881  15.567 -20.063  1.00  0.00     0.160 C 
HETATM    6  C5  UNL     1      33.923  16.302 -20.973  1.00  0.00     0.078 C 
HETATM    7  C6  UNL     1      35.642  14.487 -20.763  1.00  0.00     0.078 C 
HETATM    8  O4  UNL     1      35.789  16.417 -19.453  1.00  0.00    -0.343 OA
HETATM    9  C7  UNL     1      35.683  16.238 -18.097  1.00  0.00     0.211 C 
HETATM   10  C8  UNL     1      35.885  17.455 -17.263  1.00  0.00     0.185 C 
HETATM   11  C9  UNL     1      35.482  17.066 -15.833  1.00  0.00     0.204 C 
ENDROOT
BRANCH   1  12
HETATM   12  O1  UNL     1      33.269  17.533 -16.419  1.00  0.00    -0.363 OA
HETATM   13  C1  UNL     1      32.127  17.781 -15.685  1.00  0.00     0.204 C 
ENDBRANCH   1  12
BRANCH  11  14
HETATM   14  O6  UNL     1      35.494  18.142 -14.980  1.00  0.00    -0.388 OA
ATOM     15  H6  UNL     1      35.820  17.838 -14.140  1.00  0.00     0.210 HD
ENDBRANCH  11  14
BRANCH  10  16
HETATM   16  O5  UNL     1      35.100  18.480 -17.747  1.00  0.00    -0.390 OA
ATOM     17  H5  UNL     1      34.739  18.974 -17.020  1.00  0.00     0.210 HD
ENDBRANCH  10  16
TORSDOF 3
ENDMDL
MODEL 3
REMARK VINA RESULT: -5.084087168      1.594      1.988
REMARK  3 active torsions:
REMARK  status: ('A' for Active; 'I' for Inactive)
REMARK    1  A    between atoms: O1_2  and  C2_3 
REMARK    2  A    between atoms: C8_12  and  O5_13 
REMARK    3  A    between atoms: C9_15  and  O6_16 
ROOT
HETATM    1  C2  UNL     1      36.113  14.103 -21.099  1.00  0.00     0.293 C 
HETATM    2  O2  UNL     1      36.680  14.594 -19.898  1.00  0.00    -0.326 OA
HETATM    3  C3  UNL     1      35.907  15.647 -19.504  1.00  0.00     0.298 C 
HETATM    4  O3  UNL     1      36.302  16.309 -18.375  1.00  0.00    -0.323 OA
HETATM    5  C4  UNL     1      35.118  16.911 -17.895  1.00  0.00     0.160 C 
HETATM    6  C5  UNL     1      35.127  18.331 -18.414  1.00  0.00     0.078 C 
HETATM    7  C6  UNL     1      35.085  16.834 -16.402  1.00  0.00     0.078 C 
HETATM    8  O4  UNL     1      34.058  16.172 -18.395  1.00  0.00    -0.343 OA
HETATM    9  C7  UNL     1      34.577  15.056 -19.002  1.00  0.00     0.211 C 
HETATM   10  C8  UNL     1      33.852  14.578 -20.211  1.00  0.00     0.185 C 
HETATM   11  C9  UNL     1      34.740  13.495 -20.842  1.00  0.00     0.204 C 
ENDROOT
BRANCH   1  12
HETATM   12  O1  UNL     1      35.914  15.204 -21.919  1.00  0.00    -0.363 OA
HETATM   13  C1  UNL     1      36.790  15.248 -22.984  1.00  0.00     0.204 C 
ENDBRANCH   1  12
BRANCH  11  14
HETATM   14  O6  UNL     1      34.248  13.060 -22.048  1.00  0.00    -0.388 OA
ATOM     15  H6  UNL     1      33.442  12.587 -21.874  1.00  0.00     0.210 HD
ENDBRANCH  11  14
BRANCH  10  16
HETATM   16  O5  UNL     1      33.652  15.633 -21.076  1.00  0.00    -0.390 OA
ATOM     17  H5  UNL     1      33.221  16.344 -20.615  1.00  0.00     0.210 HD
ENDBRANCH  10  16
TORSDOF 3
ENDMDL
MODEL 4
REMARK VINA RESULT: -5.072969486      2.080      4.741
REMARK  3 active torsions:
REMARK  status: ('A' for Active; 'I' for Inactive)
REMARK    1  A    between atoms: O1_2  and  C2_3 
REMARK    2  A    between atoms: C8_12  and  O5_13 
REMARK    3  A    between atoms: C9_15  and  O6_16 
ROOT
HETATM    1  C2  UNL     1      34.715  14.563 -18.939  1.00  0.00     0.293 C 
HETATM    2  O2  UNL     1      33.809  13.778 -19.690  1.00  0.00    -0.326 OA
HETATM    3  C3  UNL     1      33.212  14.618 -20.583  1.00  0.00     0.298 C 
HETATM    4  O3  UNL     1      32.254  14.074 -21.393  1.00  0.00    -0.323 OA
HETATM    5  C4  UNL     1      32.229  14.926 -22.520  1.00  0.00     0.160 C 
HETATM    6  C5  UNL     1      31.100  15.904 -22.283  1.00  0.00     0.078 C 
HETATM    7  C6  UNL     1      32.049  14.112 -23.761  1.00  0.00     0.078 C 
HETATM    8  O4  UNL     1      33.464  15.550 -22.583  1.00  0.00    -0.343 OA
HETATM    9  C7  UNL     1      34.275  14.965 -21.642  1.00  0.00     0.211 C 
HETATM   10  C8  UNL     1      35.250  15.870 -20.972  1.00  0.00     0.185 C 
HETATM   11  C9  UNL     1      35.858  15.062 -19.815  1.00  0.00     0.204 C 
ENDROOT
BRANCH   1  12
HETATM   12  O1  UNL     1      34.014  15.684 -18.523  1.00  0.00    -0.363 OA
HETATM   13  C1  UNL     1      33.732  15.675 -17.172  1.00  0.00     0.204 C 
ENDBRANCH   1  12
BRANCH  11  14
HETATM   14  O6  UNL     1      36.681  15.826 -19.027  1.00  0.00    -0.388 OA
ATOM     15  H6  UNL     1      36.907  15.309 -18.262  1.00  0.00     0.210 HD
ENDBRANCH  11  14
BRANCH  10  16
HETATM   16  O5  UNL     1      34.595  16.993 -20.513  1.00  0.00    -0.390 OA
ATOM     17  H5  UNL     1      33.771  17.091 -20.976  1.00  0.00     0.210 HD
ENDBRANCH  10  16
TORSDOF 3
ENDMDL
MODEL 5
REMARK VINA RESULT: -4.992642324      1.586      2.095
REMARK  3 active torsions:
REMARK  status: ('A' for Active; 'I' for Inactive)
REMARK    1  A    between atoms: O1_2  and  C2_3 
REMARK    2  A    between atoms: C8_12  and  O5_13 
REMARK    3  A    between atoms: C9_15  and  O6_16 
ROOT
HETATM    1  C2  UNL     1      35.162  16.118 -21.693  1.00  0.00     0.293 C 
HETATM    2  O2  UNL     1      34.948  16.603 -20.380  1.00  0.00    -0.326 OA
HETATM    3  C3  UNL     1      34.133  15.702 -19.760  1.00  0.00     0.298 C 
HETATM    4  O3  UNL     1      33.755  15.996 -18.479  1.00  0.00    -0.323 OA
HETATM    5  C4  UNL     1      33.442  14.740 -17.913  1.00  0.00     0.160 C 
HETATM    6  C5  UNL     1      31.943  14.584 -18.040  1.00  0.00     0.078 C 
HETATM    7  C6  UNL     1      33.918  14.695 -16.497  1.00  0.00     0.078 C 
HETATM    8  O4  UNL     1      34.137  13.786 -18.639  1.00  0.00    -0.343 OA
HETATM    9  C7  UNL     1      34.984  14.447 -19.493  1.00  0.00     0.211 C 
HETATM   10  C8  UNL     1      35.202  13.803 -20.818  1.00  0.00     0.185 C 
HETATM   11  C9  UNL     1      35.969  14.826 -21.670  1.00  0.00     0.204 C 
ENDROOT
BRANCH   1  12
HETATM   12  O1  UNL     1      33.913  15.798 -22.203  1.00  0.00    -0.363 OA
HETATM   13  C1  UNL     1      33.489  16.675 -23.181  1.00  0.00     0.204 C 
ENDBRANCH   1  12
BRANCH  11  14
HETATM   14  O6  UNL     1      36.120  14.409 -22.969  1.00  0.00    -0.388 OA
ATOM     15  H6  UNL     1      36.032  13.462 -22.977  1.00  0.00     0.210 HD
ENDBRANCH  11  14
BRANCH  10  16
HETATM   16  O5  UNL     1      33.984  13.489 -21.383  1.00  0.00    -0.390 OA
ATOM     17  H5  UNL     1      33.956  12.560 -21.580  1.00  0.00     0.210 HD
ENDBRANCH  10  16
TORSDOF 3
ENDMDL
