MODEL 1
REMARK VINA RESULT: -7.076449213      0.000      0.000
REMARK  19 active torsions:
REMARK  status: ('A' for Active; 'I' for Inactive)
REMARK    1  A    between atoms: C2_3  and  O1_4 
REMARK    2  A    between atoms: C3_8  and  O2_9 
REMARK    3  A    between atoms: O2_9  and  C4_10 
REMARK    4  A    between atoms: C5_11  and  C6_12 
REMARK    5  A    between atoms: C6_12  and  O3_13 
REMARK    6  A    between atoms: C8_17  and  O5_18 
REMARK    7  A    between atoms: C8_17  and  C9_20 
REMARK    8  A    between atoms: C9_20  and  O6_21 
REMARK    9  A    between atoms: C9_20  and  C10_23 
REMARK   10  A    between atoms: C11_24  and  O7_25 
REMARK   11  A    between atoms: C12_27  and  O8_28 
REMARK   12  A    between atoms: C13_30  and  O9_31 
REMARK   13  A    between atoms: C14_33  and  O10_34 
REMARK   14  A    between atoms: C15_38  and  O11_39 
REMARK   15  A    between atoms: C16_41  and  C17_42 
REMARK   16  A    between atoms: C17_42  and  N4_43 
REMARK   17  A    between atoms: N4_43  and  O12_44 
REMARK   18  A    between atoms: N4_43  and  C18_46 
REMARK   19  A    between atoms: C18_46  and  O13_47 
ROOT
HETATM    1  C4  UNL     1       1.023   5.042  38.471  1.00  0.00     0.161 C 
HETATM    2  C5  UNL     1       1.331   4.496  39.638  1.00  0.00     0.067 C 
HETATM    3  C7  UNL     1       0.081   4.170  40.353  1.00  0.00     0.219 C 
HETATM    4  O4  UNL     1      -0.092   3.969  41.573  1.00  0.00    -0.287 OA
HETATM    5  C8  UNL     1      -0.965   4.130  39.269  1.00  0.00     0.227 C 
HETATM    6  N3  UNL     1      -0.412   5.105  38.357  1.00  0.00    -0.330 N 
ATOM      7  H3  UNL     1      -0.941   5.725  37.744  1.00  0.00     0.165 HD
ENDROOT
BRANCH   1   8
HETATM    8  O2  UNL     1       1.879   5.496  37.485  1.00  0.00    -0.274 OA
BRANCH   8   9
HETATM    9  C3  UNL     1       2.305   4.692  36.430  1.00  0.00     0.186 A 
HETATM   10  N2  UNL     1       3.461   4.109  36.349  1.00  0.00    -0.313 N 
HETATM   11  C2  UNL     1       3.811   3.348  35.308  1.00  0.00     0.167 A 
ATOM     12  H2  UNL     1       4.129   4.237  37.109  1.00  0.00     0.170 HD
HETATM   13  C1  UNL     1       2.929   3.163  34.278  1.00  0.00     0.111 A 
HETATM   14  N1  UNL     1       3.274   2.356  33.161  1.00  0.00    -0.097 NA
HETATM   15  C16 UNL     1       1.641   3.765  34.286  1.00  0.00     0.043 A 
HETATM   16  C15 UNL     1       1.350   4.533  35.381  1.00  0.00     0.131 A 
BRANCH  11  17
HETATM   17  O1  UNL     1       5.076   2.727  35.248  1.00  0.00    -0.345 OA
ATOM     18  H1  UNL     1       5.730   3.066  34.646  1.00  0.00     0.219 HD
ENDBRANCH  11  17
BRANCH  15  19
HETATM   19  C17 UNL     1       0.819   3.499  33.098  1.00  0.00     0.108 C 
BRANCH  19  20
HETATM   20  N4  UNL     1      -0.456   2.936  33.213  1.00  0.00    -0.151 NA
BRANCH  20  21
HETATM   21  O12 UNL     1      -1.414   3.910  33.407  1.00  0.00    -0.307 OA
ATOM     22  H12 UNL     1      -2.290   3.548  33.337  1.00  0.00     0.237 HD
ENDBRANCH  20  21
BRANCH  20  23
HETATM   23  C18 UNL     1      -0.547   2.042  34.347  1.00  0.00     0.289 C 
BRANCH  23  24
HETATM   24  O13 UNL     1      -1.464   2.497  35.289  1.00  0.00    -0.384 OA
ATOM     25  H13 UNL     1      -1.309   3.406  35.520  1.00  0.00     0.211 HD
ENDBRANCH  23  24
ENDBRANCH  20  23
ENDBRANCH  19  20
ENDBRANCH  15  19
BRANCH  16  26
HETATM   26  O11 UNL     1       0.172   5.178  35.526  1.00  0.00    -0.356 OA
ATOM     27  H11 UNL     1      -0.601   4.740  35.189  1.00  0.00     0.218 HD
ENDBRANCH  16  26
ENDBRANCH   8   9
ENDBRANCH   1   8
BRANCH   2  28
HETATM   28  C6  UNL     1       2.685   4.228  40.195  1.00  0.00     0.211 C 
BRANCH  28  29
HETATM   29  O3  UNL     1       3.480   5.389  40.208  1.00  0.00    -0.396 OA
ATOM     30  H3  UNL     1       4.003   5.446  40.998  1.00  0.00     0.209 HD
ENDBRANCH  28  29
ENDBRANCH   2  28
BRANCH   5  31
HETATM   31  O5  UNL     1      -0.872   2.883  38.684  1.00  0.00    -0.362 OA
ATOM     32  H5  UNL     1      -0.602   3.028  37.785  1.00  0.00     0.213 HD
ENDBRANCH   5  31
BRANCH   5  33
HETATM   33  C9  UNL     1      -2.324   4.470  39.771  1.00  0.00     0.191 C 
BRANCH  33  34
HETATM   34  O6  UNL     1      -2.929   5.314  38.844  1.00  0.00    -0.390 OA
ATOM     35  H6  UNL     1      -2.317   6.009  38.633  1.00  0.00     0.210 HD
ENDBRANCH  33  34
BRANCH  33  36
HETATM   36  C10 UNL     1      -3.136   3.219  39.884  1.00  0.00     0.082 C 
HETATM   37  C11 UNL     1      -4.152   3.168  38.744  1.00  0.00     0.158 C 
HETATM   38  C12 UNL     1      -5.031   2.021  39.200  1.00  0.00     0.178 C 
HETATM   39  C13 UNL     1      -5.015   2.064  40.701  1.00  0.00     0.178 C 
HETATM   40  C14 UNL     1      -4.012   3.159  41.088  1.00  0.00     0.158 C 
BRANCH  37  41
HETATM   41  O7  UNL     1      -3.533   2.845  37.539  1.00  0.00    -0.392 OA
ATOM     42  H7  UNL     1      -3.444   3.612  36.987  1.00  0.00     0.210 HD
ENDBRANCH  37  41
BRANCH  38  43
HETATM   43  O8  UNL     1      -6.363   2.192  38.798  1.00  0.00    -0.390 OA
ATOM     44  H8  UNL     1      -6.896   1.434  39.006  1.00  0.00     0.210 HD
ENDBRANCH  38  43
BRANCH  39  45
HETATM   45  O9  UNL     1      -4.589   0.838  41.209  1.00  0.00    -0.390 OA
ATOM     46  H9  UNL     1      -5.339   0.281  41.386  1.00  0.00     0.210 HD
ENDBRANCH  39  45
BRANCH  40  47
HETATM   47  O10 UNL     1      -4.648   4.370  41.277  1.00  0.00    -0.392 OA
ATOM     48  H10 UNL     1      -5.459   4.245  41.755  1.00  0.00     0.210 HD
ENDBRANCH  40  47
ENDBRANCH  33  36
ENDBRANCH   5  33
TORSDOF 19
ENDMDL
MODEL 2
REMARK VINA RESULT: -6.895559074      3.169      7.623
REMARK  19 active torsions:
REMARK  status: ('A' for Active; 'I' for Inactive)
REMARK    1  A    between atoms: C2_3  and  O1_4 
REMARK    2  A    between atoms: C3_8  and  O2_9 
REMARK    3  A    between atoms: O2_9  and  C4_10 
REMARK    4  A    between atoms: C5_11  and  C6_12 
REMARK    5  A    between atoms: C6_12  and  O3_13 
REMARK    6  A    between atoms: C8_17  and  O5_18 
REMARK    7  A    between atoms: C8_17  and  C9_20 
REMARK    8  A    between atoms: C9_20  and  O6_21 
REMARK    9  A    between atoms: C9_20  and  C10_23 
REMARK   10  A    between atoms: C11_24  and  O7_25 
REMARK   11  A    between atoms: C12_27  and  O8_28 
REMARK   12  A    between atoms: C13_30  and  O9_31 
REMARK   13  A    between atoms: C14_33  and  O10_34 
REMARK   14  A    between atoms: C15_38  and  O11_39 
REMARK   15  A    between atoms: C16_41  and  C17_42 
REMARK   16  A    between atoms: C17_42  and  N4_43 
REMARK   17  A    between atoms: N4_43  and  O12_44 
REMARK   18  A    between atoms: N4_43  and  C18_46 
REMARK   19  A    between atoms: C18_46  and  O13_47 
ROOT
HETATM    1  C4  UNL     1       3.114   3.782  35.306  1.00  0.00     0.161 C 
HETATM    2  C5  UNL     1       2.685   3.601  34.066  1.00  0.00     0.067 C 
HETATM    3  C7  UNL     1       3.128   2.271  33.602  1.00  0.00     0.219 C 
HETATM    4  O4  UNL     1       3.238   1.848  32.432  1.00  0.00    -0.287 OA
HETATM    5  C8  UNL     1       3.425   1.516  34.871  1.00  0.00     0.227 C 
HETATM    6  N3  UNL     1       3.845   2.610  35.716  1.00  0.00    -0.330 N 
ATOM      7  H3  UNL     1       4.535   2.562  36.466  1.00  0.00     0.165 HD
ENDROOT
BRANCH   1   8
HETATM    8  O2  UNL     1       2.928   4.880  36.126  1.00  0.00    -0.274 OA
BRANCH   8   9
HETATM    9  C3  UNL     1       2.291   4.797  37.362  1.00  0.00     0.186 A 
HETATM   10  N2  UNL     1       2.856   4.451  38.477  1.00  0.00    -0.313 N 
HETATM   11  C2  UNL     1       2.189   4.392  39.633  1.00  0.00     0.167 A 
ATOM     12  H2  UNL     1       3.848   4.214  38.471  1.00  0.00     0.170 HD
HETATM   13  C1  UNL     1       0.857   4.706  39.663  1.00  0.00     0.111 A 
HETATM   14  N1  UNL     1       0.124   4.654  40.878  1.00  0.00    -0.097 NA
HETATM   15  C16 UNL     1       0.159   5.096  38.487  1.00  0.00     0.043 A 
HETATM   16  C15 UNL     1       0.904   5.133  37.338  1.00  0.00     0.131 A 
BRANCH  11  17
HETATM   17  O1  UNL     1       2.830   4.010  40.830  1.00  0.00    -0.345 OA
ATOM     18  H1  UNL     1       2.301   3.759  41.579  1.00  0.00     0.219 HD
ENDBRANCH  11  17
BRANCH  15  19
HETATM   19  C17 UNL     1      -1.272   5.373  38.670  1.00  0.00     0.108 C 
BRANCH  19  20
HETATM   20  N4  UNL     1      -2.167   5.285  37.600  1.00  0.00    -0.151 NA
BRANCH  20  21
HETATM   21  O12 UNL     1      -3.298   6.040  37.833  1.00  0.00    -0.307 OA
ATOM     22  H12 UNL     1      -4.063   5.487  37.945  1.00  0.00     0.237 HD
ENDBRANCH  20  21
BRANCH  20  23
HETATM   23  C18 UNL     1      -2.619   3.926  37.388  1.00  0.00     0.289 C 
BRANCH  23  24
HETATM   24  O13 UNL     1      -1.957   3.324  36.324  1.00  0.00    -0.384 OA
ATOM     25  H13 UNL     1      -2.436   3.424  35.509  1.00  0.00     0.211 HD
ENDBRANCH  23  24
ENDBRANCH  20  23
ENDBRANCH  19  20
ENDBRANCH  15  19
BRANCH  16  26
HETATM   26  O11 UNL     1       0.379   5.473  36.141  1.00  0.00    -0.356 OA
ATOM     27  H11 UNL     1      -0.348   6.084  36.149  1.00  0.00     0.218 HD
ENDBRANCH  16  26
ENDBRANCH   8   9
ENDBRANCH   1   8
BRANCH   2  28
HETATM   28  C6  UNL     1       1.888   4.537  33.227  1.00  0.00     0.211 C 
BRANCH  28  29
HETATM   29  O3  UNL     1       0.509   4.407  33.473  1.00  0.00    -0.396 OA
ATOM     30  H3  UNL     1       0.148   5.195  33.863  1.00  0.00     0.209 HD
ENDBRANCH  28  29
ENDBRANCH   2  28
BRANCH   5  31
HETATM   31  O5  UNL     1       2.213   1.046  35.337  1.00  0.00    -0.362 OA
ATOM     32  H5  UNL     1       2.203   1.211  36.273  1.00  0.00     0.213 HD
ENDBRANCH   5  31
BRANCH   5  33
HETATM   33  C9  UNL     1       4.458   0.462  34.683  1.00  0.00     0.191 C 
BRANCH  33  34
HETATM   34  O6  UNL     1       5.644   0.911  35.255  1.00  0.00    -0.390 OA
ATOM     35  H6  UNL     1       5.570   0.823  36.198  1.00  0.00     0.210 HD
ENDBRANCH  33  34
BRANCH  33  36
HETATM   36  C10 UNL     1       4.025  -0.784  35.389  1.00  0.00     0.082 C 
HETATM   37  C11 UNL     1       4.682  -0.842  36.767  1.00  0.00     0.158 C 
HETATM   38  C12 UNL     1       4.361  -2.266  37.175  1.00  0.00     0.178 C 
HETATM   39  C13 UNL     1       4.333  -3.059  35.900  1.00  0.00     0.178 C 
HETATM   40  C14 UNL     1       4.507  -2.047  34.760  1.00  0.00     0.158 C 
BRANCH  37  41
HETATM   41  O7  UNL     1       4.076   0.053  37.645  1.00  0.00    -0.392 OA
ATOM     42  H7  UNL     1       4.184  -0.229  38.545  1.00  0.00     0.210 HD
ENDBRANCH  37  41
BRANCH  38  43
HETATM   43  O8  UNL     1       5.366  -2.817  37.980  1.00  0.00    -0.390 OA
ATOM     44  H8  UNL     1       5.714  -2.183  38.596  1.00  0.00     0.210 HD
ENDBRANCH  38  43
BRANCH  39  45
HETATM   45  O9  UNL     1       3.106  -3.708  35.769  1.00  0.00    -0.390 OA
ATOM     46  H9  UNL     1       3.244  -4.619  35.535  1.00  0.00     0.210 HD
ENDBRANCH  39  45
BRANCH  40  47
HETATM   47  O10 UNL     1       5.834  -1.927  34.400  1.00  0.00    -0.392 OA
ATOM     48  H10 UNL     1       5.981  -2.320  33.548  1.00  0.00     0.210 HD
ENDBRANCH  40  47
ENDBRANCH  33  36
ENDBRANCH   5  33
TORSDOF 19
ENDMDL
MODEL 3
REMARK VINA RESULT: -6.883759991      2.910      8.414
REMARK  19 active torsions:
REMARK  status: ('A' for Active; 'I' for Inactive)
REMARK    1  A    between atoms: C2_3  and  O1_4 
REMARK    2  A    between atoms: C3_8  and  O2_9 
REMARK    3  A    between atoms: O2_9  and  C4_10 
REMARK    4  A    between atoms: C5_11  and  C6_12 
REMARK    5  A    between atoms: C6_12  and  O3_13 
REMARK    6  A    between atoms: C8_17  and  O5_18 
REMARK    7  A    between atoms: C8_17  and  C9_20 
REMARK    8  A    between atoms: C9_20  and  O6_21 
REMARK    9  A    between atoms: C9_20  and  C10_23 
REMARK   10  A    between atoms: C11_24  and  O7_25 
REMARK   11  A    between atoms: C12_27  and  O8_28 
REMARK   12  A    between atoms: C13_30  and  O9_31 
REMARK   13  A    between atoms: C14_33  and  O10_34 
REMARK   14  A    between atoms: C15_38  and  O11_39 
REMARK   15  A    between atoms: C16_41  and  C17_42 
REMARK   16  A    between atoms: C17_42  and  N4_43 
REMARK   17  A    between atoms: N4_43  and  O12_44 
REMARK   18  A    between atoms: N4_43  and  C18_46 
REMARK   19  A    between atoms: C18_46  and  O13_47 
ROOT
HETATM    1  C4  UNL     1      -0.452   3.190  38.540  1.00  0.00     0.161 C 
HETATM    2  C5  UNL     1      -0.230   4.489  38.670  1.00  0.00     0.067 C 
HETATM    3  C7  UNL     1       0.108   5.046  37.345  1.00  0.00     0.219 C 
HETATM    4  O4  UNL     1       0.700   6.112  37.073  1.00  0.00    -0.287 OA
HETATM    5  C8  UNL     1      -0.427   4.031  36.370  1.00  0.00     0.227 C 
HETATM    6  N3  UNL     1      -0.275   2.829  37.156  1.00  0.00    -0.330 N 
ATOM      7  H3  UNL     1      -0.078   1.895  36.798  1.00  0.00     0.165 HD
ENDROOT
BRANCH   1   8
HETATM    8  O2  UNL     1      -0.797   2.277  39.519  1.00  0.00    -0.274 OA
BRANCH   8   9
HETATM    9  C3  UNL     1      -1.579   2.615  40.621  1.00  0.00     0.186 A 
HETATM   10  N2  UNL     1      -2.789   3.081  40.570  1.00  0.00    -0.313 N 
HETATM   11  C2  UNL     1      -3.490   3.386  41.666  1.00  0.00     0.167 A 
ATOM     12  H2  UNL     1      -3.223   3.219  39.657  1.00  0.00     0.170 HD
HETATM   13  C1  UNL     1      -2.927   3.207  42.900  1.00  0.00     0.111 A 
HETATM   14  N1  UNL     1      -3.649   3.520  44.082  1.00  0.00    -0.097 NA
HETATM   15  C16 UNL     1      -1.606   2.701  43.048  1.00  0.00     0.043 A 
HETATM   16  C15 UNL     1      -0.945   2.412  41.884  1.00  0.00     0.131 A 
BRANCH  11  17
HETATM   17  O1  UNL     1      -4.804   3.891  41.578  1.00  0.00    -0.345 OA
ATOM     18  H1  UNL     1      -5.197   4.011  40.721  1.00  0.00     0.219 HD
ENDBRANCH  11  17
BRANCH  15  19
HETATM   19  C17 UNL     1      -1.128   2.593  44.433  1.00  0.00     0.108 C 
BRANCH  19  20
HETATM   20  N4  UNL     1       0.114   3.110  44.810  1.00  0.00    -0.151 NA
BRANCH  20  21
HETATM   21  O12 UNL     1       1.103   2.153  44.712  1.00  0.00    -0.307 OA
ATOM     22  H12 UNL     1       1.965   2.553  44.674  1.00  0.00     0.237 HD
ENDBRANCH  20  21
BRANCH  20  23
HETATM   23  C18 UNL     1       0.115   3.558  46.187  1.00  0.00     0.289 C 
BRANCH  23  24
HETATM   24  O13 UNL     1       1.362   4.038  46.572  1.00  0.00    -0.384 OA
ATOM     25  H13 UNL     1       1.308   4.925  46.909  1.00  0.00     0.211 HD
ENDBRANCH  23  24
ENDBRANCH  20  23
ENDBRANCH  19  20
ENDBRANCH  15  19
BRANCH  16  26
HETATM   26  O11 UNL     1       0.318   1.936  41.862  1.00  0.00    -0.356 OA
ATOM     27  H11 UNL     1       0.978   2.449  42.314  1.00  0.00     0.218 HD
ENDBRANCH  16  26
ENDBRANCH   8   9
ENDBRANCH   1   8
BRANCH   2  28
HETATM   28  C6  UNL     1      -0.295   5.310  39.910  1.00  0.00     0.211 C 
BRANCH  28  29
HETATM   29  O3  UNL     1      -0.612   6.651  39.627  1.00  0.00    -0.396 OA
ATOM     30  H3  UNL     1      -0.808   7.139  40.419  1.00  0.00     0.209 HD
ENDBRANCH  28  29
ENDBRANCH   2  28
BRANCH   5  31
HETATM   31  O5  UNL     1      -1.775   4.295  36.233  1.00  0.00    -0.362 OA
ATOM     32  H5  UNL     1      -2.182   4.047  37.054  1.00  0.00     0.213 HD
ENDBRANCH   5  31
BRANCH   5  33
HETATM   33  C9  UNL     1       0.326   4.016  35.086  1.00  0.00     0.191 C 
BRANCH  33  34
HETATM   34  O6  UNL     1       0.409   5.324  34.618  1.00  0.00    -0.390 OA
ATOM     35  H6  UNL     1       0.061   5.344  33.734  1.00  0.00     0.210 HD
ENDBRANCH  33  34
BRANCH  33  36
HETATM   36  C10 UNL     1       1.711   3.505  35.332  1.00  0.00     0.082 C 
HETATM   37  C11 UNL     1       2.724   4.470  34.719  1.00  0.00     0.158 C 
HETATM   38  C12 UNL     1       3.993   3.647  34.816  1.00  0.00     0.178 C 
HETATM   39  C13 UNL     1       3.563   2.215  34.673  1.00  0.00     0.178 C 
HETATM   40  C14 UNL     1       2.030   2.229  34.631  1.00  0.00     0.158 C 
BRANCH  37  41
HETATM   41  O7  UNL     1       2.844   5.622  35.491  1.00  0.00    -0.392 OA
ATOM     42  H7  UNL     1       3.459   5.491  36.204  1.00  0.00     0.210 HD
ENDBRANCH  37  41
BRANCH  38  43
HETATM   43  O8  UNL     1       4.874   3.919  33.761  1.00  0.00    -0.390 OA
ATOM     44  H8  UNL     1       5.679   3.420  33.834  1.00  0.00     0.210 HD
ENDBRANCH  38  43
BRANCH  39  45
HETATM   45  O9  UNL     1       3.995   1.475  35.772  1.00  0.00    -0.390 OA
ATOM     46  H9  UNL     1       3.441   0.712  35.889  1.00  0.00     0.210 HD
ENDBRANCH  39  45
BRANCH  40  47
HETATM   47  O10 UNL     1       1.569   2.270  33.330  1.00  0.00    -0.392 OA
ATOM     48  H10 UNL     1       2.065   1.669  32.786  1.00  0.00     0.210 HD
ENDBRANCH  40  47
ENDBRANCH  33  36
ENDBRANCH   5  33
TORSDOF 19
ENDMDL
MODEL 4
REMARK VINA RESULT: -6.878655901      3.080      8.787
REMARK  19 active torsions:
REMARK  status: ('A' for Active; 'I' for Inactive)
REMARK    1  A    between atoms: C2_3  and  O1_4 
REMARK    2  A    between atoms: C3_8  and  O2_9 
REMARK    3  A    between atoms: O2_9  and  C4_10 
REMARK    4  A    between atoms: C5_11  and  C6_12 
REMARK    5  A    between atoms: C6_12  and  O3_13 
REMARK    6  A    between atoms: C8_17  and  O5_18 
REMARK    7  A    between atoms: C8_17  and  C9_20 
REMARK    8  A    between atoms: C9_20  and  O6_21 
REMARK    9  A    between atoms: C9_20  and  C10_23 
REMARK   10  A    between atoms: C11_24  and  O7_25 
REMARK   11  A    between atoms: C12_27  and  O8_28 
REMARK   12  A    between atoms: C13_30  and  O9_31 
REMARK   13  A    between atoms: C14_33  and  O10_34 
REMARK   14  A    between atoms: C15_38  and  O11_39 
REMARK   15  A    between atoms: C16_41  and  C17_42 
REMARK   16  A    between atoms: C17_42  and  N4_43 
REMARK   17  A    between atoms: N4_43  and  O12_44 
REMARK   18  A    between atoms: N4_43  and  C18_46 
REMARK   19  A    between atoms: C18_46  and  O13_47 
ROOT
HETATM    1  C4  UNL     1       3.323   3.981  34.620  1.00  0.00     0.161 C 
HETATM    2  C5  UNL     1       2.591   3.135  33.910  1.00  0.00     0.067 C 
HETATM    3  C7  UNL     1       3.485   2.131  33.301  1.00  0.00     0.219 C 
HETATM    4  O4  UNL     1       3.273   1.387  32.320  1.00  0.00    -0.287 OA
HETATM    5  C8  UNL     1       4.738   2.197  34.135  1.00  0.00     0.227 C 
HETATM    6  N3  UNL     1       4.706   3.589  34.518  1.00  0.00    -0.330 N 
ATOM      7  H3  UNL     1       5.515   4.187  34.686  1.00  0.00     0.165 HD
ENDROOT
BRANCH   1   8
HETATM    8  O2  UNL     1       2.900   5.072  35.356  1.00  0.00    -0.274 OA
BRANCH   8   9
HETATM    9  C3  UNL     1       2.435   4.962  36.665  1.00  0.00     0.186 A 
HETATM   10  N2  UNL     1       3.151   4.619  37.691  1.00  0.00    -0.313 N 
HETATM   11  C2  UNL     1       2.645   4.533  38.925  1.00  0.00     0.167 A 
ATOM     12  H2  UNL     1       4.139   4.407  37.550  1.00  0.00     0.170 HD
HETATM   13  C1  UNL     1       1.322   4.814  39.135  1.00  0.00     0.111 A 
HETATM   14  N1  UNL     1       0.759   4.734  40.436  1.00  0.00    -0.097 NA
HETATM   15  C16 UNL     1       0.466   5.199  38.066  1.00  0.00     0.043 A 
HETATM   16  C15 UNL     1       1.050   5.264  36.830  1.00  0.00     0.131 A 
BRANCH  11  17
HETATM   17  O1  UNL     1       3.449   4.156  40.021  1.00  0.00    -0.345 OA
ATOM     18  H1  UNL     1       3.166   4.379  40.900  1.00  0.00     0.219 HD
ENDBRANCH  11  17
BRANCH  15  19
HETATM   19  C17 UNL     1      -0.934   5.440  38.442  1.00  0.00     0.108 C 
BRANCH  19  20
HETATM   20  N4  UNL     1      -1.968   5.271  37.517  1.00  0.00    -0.151 NA
BRANCH  20  21
HETATM   21  O12 UNL     1      -3.116   5.915  37.930  1.00  0.00    -0.307 OA
ATOM     22  H12 UNL     1      -3.686   5.326  38.412  1.00  0.00     0.237 HD
ENDBRANCH  20  21
BRANCH  20  23
HETATM   23  C18 UNL     1      -2.320   3.876  37.353  1.00  0.00     0.289 C 
BRANCH  23  24
HETATM   24  O13 UNL     1      -1.840   3.362  36.153  1.00  0.00    -0.384 OA
ATOM     25  H13 UNL     1      -2.544   3.191  35.537  1.00  0.00     0.211 HD
ENDBRANCH  23  24
ENDBRANCH  20  23
ENDBRANCH  19  20
ENDBRANCH  15  19
BRANCH  16  26
HETATM   26  O11 UNL     1       0.363   5.603  35.717  1.00  0.00    -0.356 OA
ATOM     27  H11 UNL     1      -0.428   5.109  35.534  1.00  0.00     0.218 HD
ENDBRANCH  16  26
ENDBRANCH   8   9
ENDBRANCH   1   8
BRANCH   2  28
HETATM   28  C6  UNL     1       1.115   3.139  33.718  1.00  0.00     0.211 C 
BRANCH  28  29
HETATM   29  O3  UNL     1       0.649   4.402  33.312  1.00  0.00    -0.396 OA
ATOM     30  H3  UNL     1       1.316   5.071  33.414  1.00  0.00     0.209 HD
ENDBRANCH  28  29
ENDBRANCH   2  28
BRANCH   5  31
HETATM   31  O5  UNL     1       4.499   1.429  35.258  1.00  0.00    -0.362 OA
ATOM     32  H5  UNL     1       3.836   1.888  35.760  1.00  0.00     0.213 HD
ENDBRANCH   5  31
BRANCH   5  33
HETATM   33  C9  UNL     1       5.955   1.803  33.374  1.00  0.00     0.191 C 
BRANCH  33  34
HETATM   34  O6  UNL     1       6.814   2.898  33.336  1.00  0.00    -0.390 OA
ATOM     35  H6  UNL     1       6.622   3.397  32.551  1.00  0.00     0.210 HD
ENDBRANCH  33  34
BRANCH  33  36
HETATM   36  C10 UNL     1       6.640   0.680  34.086  1.00  0.00     0.082 C 
HETATM   37  C11 UNL     1       7.876   0.257  33.295  1.00  0.00     0.158 C 
HETATM   38  C12 UNL     1       8.237  -1.034  34.003  1.00  0.00     0.178 C 
HETATM   39  C13 UNL     1       6.936  -1.622  34.469  1.00  0.00     0.178 C 
HETATM   40  C14 UNL     1       5.854  -0.586  34.138  1.00  0.00     0.158 C 
BRANCH  37  41
HETATM   41  O7  UNL     1       8.904   1.185  33.444  1.00  0.00    -0.392 OA
ATOM     42  H7  UNL     1       9.734   0.819  33.164  1.00  0.00     0.210 HD
ENDBRANCH  37  41
BRANCH  38  43
HETATM   43  O8  UNL     1       8.818  -1.963  33.130  1.00  0.00    -0.390 OA
ATOM     44  H8  UNL     1       9.362  -2.590  33.591  1.00  0.00     0.210 HD
ENDBRANCH  38  43
BRANCH  39  45
HETATM   45  O9  UNL     1       6.976  -1.836  35.846  1.00  0.00    -0.390 OA
ATOM     46  H9  UNL     1       6.161  -1.548  36.243  1.00  0.00     0.210 HD
ENDBRANCH  39  45
BRANCH  40  47
HETATM   47  O10 UNL     1       5.279  -0.844  32.910  1.00  0.00    -0.392 OA
ATOM     48  H10 UNL     1       5.441  -0.122  32.313  1.00  0.00     0.210 HD
ENDBRANCH  40  47
ENDBRANCH  33  36
ENDBRANCH   5  33
TORSDOF 19
ENDMDL
MODEL 5
REMARK VINA RESULT: -6.847210697      2.161      6.641
REMARK  19 active torsions:
REMARK  status: ('A' for Active; 'I' for Inactive)
REMARK    1  A    between atoms: C2_3  and  O1_4 
REMARK    2  A    between atoms: C3_8  and  O2_9 
REMARK    3  A    between atoms: O2_9  and  C4_10 
REMARK    4  A    between atoms: C5_11  and  C6_12 
REMARK    5  A    between atoms: C6_12  and  O3_13 
REMARK    6  A    between atoms: C8_17  and  O5_18 
REMARK    7  A    between atoms: C8_17  and  C9_20 
REMARK    8  A    between atoms: C9_20  and  O6_21 
REMARK    9  A    between atoms: C9_20  and  C10_23 
REMARK   10  A    between atoms: C11_24  and  O7_25 
REMARK   11  A    between atoms: C12_27  and  O8_28 
REMARK   12  A    between atoms: C13_30  and  O9_31 
REMARK   13  A    between atoms: C14_33  and  O10_34 
REMARK   14  A    between atoms: C15_38  and  O11_39 
REMARK   15  A    between atoms: C16_41  and  C17_42 
REMARK   16  A    between atoms: C17_42  and  N4_43 
REMARK   17  A    between atoms: N4_43  and  O12_44 
REMARK   18  A    between atoms: N4_43  and  C18_46 
REMARK   19  A    between atoms: C18_46  and  O13_47 
ROOT
HETATM    1  C4  UNL     1       1.061   5.232  37.534  1.00  0.00     0.161 C 
HETATM    2  C5  UNL     1       2.184   4.629  37.896  1.00  0.00     0.067 C 
HETATM    3  C7  UNL     1       2.931   4.251  36.680  1.00  0.00     0.219 C 
HETATM    4  O4  UNL     1       3.833   3.397  36.550  1.00  0.00    -0.287 OA
HETATM    5  C8  UNL     1       2.360   5.137  35.604  1.00  0.00     0.227 C 
HETATM    6  N3  UNL     1       1.009   5.281  36.095  1.00  0.00    -0.330 N 
ATOM      7  H3  UNL     1       0.170   5.396  35.526  1.00  0.00     0.165 HD
ENDROOT
BRANCH   1   8
HETATM    8  O2  UNL     1       0.066   5.749  38.343  1.00  0.00    -0.274 OA
BRANCH   8   9
HETATM    9  C3  UNL     1      -0.773   4.945  39.111  1.00  0.00     0.186 A 
HETATM   10  N2  UNL     1      -0.609   4.674  40.369  1.00  0.00    -0.313 N 
HETATM   11  C2  UNL     1      -1.453   3.895  41.053  1.00  0.00     0.167 A 
ATOM     12  H2  UNL     1       0.194   5.071  40.856  1.00  0.00     0.170 HD
HETATM   13  C1  UNL     1      -2.538   3.352  40.419  1.00  0.00     0.111 A 
HETATM   14  N1  UNL     1      -3.452   2.523  41.121  1.00  0.00    -0.097 NA
HETATM   15  C16 UNL     1      -2.793   3.598  39.041  1.00  0.00     0.043 A 
HETATM   16  C15 UNL     1      -1.887   4.403  38.403  1.00  0.00     0.131 A 
BRANCH  11  17
HETATM   17  O1  UNL     1      -1.247   3.617  42.420  1.00  0.00    -0.345 OA
ATOM     18  H1  UNL     1      -0.360   3.590  42.759  1.00  0.00     0.219 HD
ENDBRANCH  11  17
BRANCH  15  19
HETATM   19  C17 UNL     1      -3.978   2.924  38.494  1.00  0.00     0.108 C 
BRANCH  19  20
HETATM   20  N4  UNL     1      -3.959   2.357  37.216  1.00  0.00    -0.151 NA
BRANCH  20  21
HETATM   21  O12 UNL     1      -5.210   1.898  36.857  1.00  0.00    -0.307 OA
ATOM     22  H12 UNL     1      -5.290   0.964  37.014  1.00  0.00     0.237 HD
ENDBRANCH  20  21
BRANCH  20  23
HETATM   23  C18 UNL     1      -3.070   1.217  37.146  1.00  0.00     0.289 C 
BRANCH  23  24
HETATM   24  O13 UNL     1      -2.245   1.276  36.029  1.00  0.00    -0.384 OA
ATOM     25  H13 UNL     1      -1.779   2.103  35.978  1.00  0.00     0.211 HD
ENDBRANCH  23  24
ENDBRANCH  20  23
ENDBRANCH  19  20
ENDBRANCH  15  19
BRANCH  16  26
HETATM   26  O11 UNL     1      -1.989   4.717  37.093  1.00  0.00    -0.356 OA
ATOM     27  H11 UNL     1      -2.827   4.553  36.676  1.00  0.00     0.218 HD
ENDBRANCH  16  26
ENDBRANCH   8   9
ENDBRANCH   1   8
BRANCH   2  28
HETATM   28  C6  UNL     1       2.671   4.350  39.275  1.00  0.00     0.211 C 
BRANCH  28  29
HETATM   29  O3  UNL     1       2.424   5.431  40.140  1.00  0.00    -0.396 OA
ATOM     30  H3  UNL     1       2.736   6.251  39.773  1.00  0.00     0.209 HD
ENDBRANCH  28  29
ENDBRANCH   2  28
BRANCH   5  31
HETATM   31  O5  UNL     1       2.999   6.356  35.723  1.00  0.00    -0.362 OA
ATOM     32  H5  UNL     1       2.321   7.020  35.675  1.00  0.00     0.213 HD
ENDBRANCH   5  31
BRANCH   5  33
HETATM   33  C9  UNL     1       2.453   4.528  34.250  1.00  0.00     0.191 C 
BRANCH  33  34
HETATM   34  O6  UNL     1       3.775   4.620  33.824  1.00  0.00    -0.390 OA
ATOM     35  H6  UNL     1       4.204   3.794  34.013  1.00  0.00     0.210 HD
ENDBRANCH  33  34
BRANCH  33  36
HETATM   36  C10 UNL     1       2.073   3.083  34.331  1.00  0.00     0.082 C 
HETATM   37  C11 UNL     1       2.555   2.360  33.075  1.00  0.00     0.158 C 
HETATM   38  C12 UNL     1       1.836   1.034  33.218  1.00  0.00     0.178 C 
HETATM   39  C13 UNL     1       0.546   1.343  33.922  1.00  0.00     0.178 C 
HETATM   40  C14 UNL     1       0.605   2.830  34.295  1.00  0.00     0.158 C 
BRANCH  37  41
HETATM   41  O7  UNL     1       3.933   2.162  33.112  1.00  0.00    -0.392 OA
ATOM     42  H7  UNL     1       4.383   2.806  32.580  1.00  0.00     0.210 HD
ENDBRANCH  37  41
BRANCH  38  43
HETATM   43  O8  UNL     1       1.504   0.483  31.973  1.00  0.00    -0.390 OA
ATOM     44  H8  UNL     1       0.812  -0.164  32.046  1.00  0.00     0.210 HD
ENDBRANCH  38  43
BRANCH  39  45
HETATM   45  O9  UNL     1       0.438   0.573  35.080  1.00  0.00    -0.390 OA
ATOM     46  H9  UNL     1       1.302   0.312  35.379  1.00  0.00     0.210 HD
ENDBRANCH  39  45
BRANCH  40  47
HETATM   47  O10 UNL     1       0.008   3.609  33.323  1.00  0.00    -0.392 OA
ATOM     48  H10 UNL     1      -0.628   4.195  33.716  1.00  0.00     0.210 HD
ENDBRANCH  40  47
ENDBRANCH  33  36
ENDBRANCH   5  33
TORSDOF 19
ENDMDL
