MODEL 1
REMARK VINA RESULT: -9.274133540      0.000      0.000
REMARK  13 active torsions:
REMARK  status: ('A' for Active; 'I' for Inactive)
REMARK    1  A    between atoms: C3_3  and  S1_6 
REMARK    2  A    between atoms: S1_6  and  N1_8 
REMARK    3  A    between atoms: S1_6  and  C29_50 
REMARK    4  A    between atoms: N1_8  and  C6_10 
REMARK    5  A    between atoms: C6_10  and  C9_13 
REMARK       I    between atoms: C9_13  and  N2_15 
REMARK    6  A    between atoms: N2_15  and  C10_17 
REMARK    7  A    between atoms: C10_17  and  N3_18 
REMARK    8  A    between atoms: C10_17  and  C18_28 
REMARK       I    between atoms: N3_18  and  C11_20 
REMARK    9  A    between atoms: C11_20  and  C12_22 
REMARK       I    between atoms: C18_28  and  N4_30 
REMARK   10  A    between atoms: C20_33  and  C21_34 
REMARK   11  A    between atoms: C21_34  and  C22_35 
REMARK   12  A    between atoms: C22_35  and  C23_36 
REMARK   13  A    between atoms: C23_36  and  N5_37 
REMARK       I    between atoms: N5_37  and  C24_39 
ROOT
HETATM    1  C1  UNL     1       7.687   0.485  11.895  1.00  0.00     0.014 C 
HETATM    2  C2  UNL     1       7.249  -0.351  12.635  1.00  0.00    -0.094 C 
HETATM    3  C3  UNL     1       6.698  -1.322  13.520  1.00  0.00     0.100 C 
HETATM    4  C4  UNL     1       6.557  -2.617  12.703  1.00  0.00     0.044 C 
HETATM    5  C5  UNL     1       7.769  -1.639  14.556  1.00  0.00     0.044 C 
ENDROOT
BRANCH   3   6
HETATM    6  S1  UNL     1       5.015  -0.993  14.447  1.00  0.00     0.049 S 
HETATM    7  O1  UNL     1       5.562   0.106  15.316  1.00  0.00    -0.247 OA
BRANCH   6   8
HETATM    8  N1  UNL     1       4.594  -2.080  15.909  1.00  0.00    -0.331 N 
ATOM      9  H1  UNL     1       5.118  -1.929  16.771  1.00  0.00     0.170 HD
BRANCH   8  10
HETATM   10  C6  UNL     1       3.623  -3.080  15.919  1.00  0.00     0.111 C 
HETATM   11  C7  UNL     1       2.915  -3.323  14.605  1.00  0.00     0.049 C 
HETATM   12  C8  UNL     1       2.587  -2.999  17.003  1.00  0.00     0.049 C 
BRANCH  10  13
HETATM   13  C9  UNL     1       4.359  -4.373  16.172  1.00  0.00     0.247 C 
HETATM   14  O2  UNL     1       5.386  -4.608  15.496  1.00  0.00    -0.271 OA
HETATM   15  N2  UNL     1       3.932  -5.298  17.124  1.00  0.00    -0.330 N 
ATOM     16  H2  UNL     1       3.100  -5.089  17.676  1.00  0.00     0.165 HD
BRANCH  15  17
HETATM   17  C10 UNL     1       4.645  -6.568  17.361  1.00  0.00     0.281 C 
BRANCH  17  18
HETATM   18  N3  UNL     1       6.028  -6.250  17.144  1.00  0.00    -0.332 N 
HETATM   19  C11 UNL     1       6.889  -5.873  18.184  1.00  0.00     0.223 C 
HETATM   20  O3  UNL     1       6.497  -5.783  19.394  1.00  0.00    -0.273 OA
ATOM     21  H3  UNL     1       6.399  -6.299  16.195  1.00  0.00     0.165 HD
BRANCH  19  22
HETATM   22  C12 UNL     1       8.296  -5.565  17.916  1.00  0.00     0.078 C 
HETATM   23  C13 UNL     1       8.978  -6.757  17.292  1.00  0.00     0.014 C 
HETATM   24  C14 UNL     1      10.480  -6.432  17.278  1.00  0.00     0.001 C 
HETATM   25  C15 UNL     1      10.780  -5.148  16.585  1.00  0.00     0.000 C 
HETATM   26  C16 UNL     1       9.896  -3.999  16.960  1.00  0.00     0.001 C 
HETATM   27  C17 UNL     1       8.449  -4.423  16.923  1.00  0.00     0.014 C 
ENDBRANCH  19  22
ENDBRANCH  17  18
BRANCH  17  28
HETATM   28  C18 UNL     1       4.200  -7.594  16.379  1.00  0.00     0.270 C 
HETATM   29  O4  UNL     1       3.508  -7.140  15.405  1.00  0.00    -0.269 OA
HETATM   30  N4  UNL     1       4.484  -8.984  16.460  1.00  0.00    -0.270 N 
HETATM   31  C19 UNL     1       3.982  -9.834  15.441  1.00  0.00     0.250 C 
HETATM   32  C27 UNL     1       5.262  -9.598  17.521  1.00  0.00     0.184 C 
HETATM   33  O5  UNL     1       4.015  -9.514  14.241  1.00  0.00    -0.271 OA
HETATM   34  C20 UNL     1       3.381 -11.179  15.804  1.00  0.00     0.179 C 
HETATM   35  N8  UNL     1       4.096 -11.745  16.920  1.00  0.00    -0.341 N 
HETATM   36  C25 UNL     1       4.273 -13.167  17.125  1.00  0.00     0.153 C 
HETATM   37  C26 UNL     1       4.660 -10.896  17.905  1.00  0.00     0.243 C 
HETATM   38  O6  UNL     1       4.671 -11.210  19.131  1.00  0.00    -0.271 OA
HETATM   39  C28 UNL     1       6.668  -9.932  17.047  1.00  0.00     0.043 C 
BRANCH  34  40
HETATM   40  C21 UNL     1       3.355 -11.939  14.542  1.00  0.00     0.037 C 
BRANCH  40  41
HETATM   41  C22 UNL     1       2.141 -12.621  14.081  1.00  0.00     0.022 C 
BRANCH  41  42
HETATM   42  C23 UNL     1       1.640 -12.145  12.730  1.00  0.00     0.122 C 
BRANCH  42  43
HETATM   43  N5  UNL     1       2.624 -11.225  12.204  1.00  0.00    -0.365 N 
HETATM   44  C24 UNL     1       2.424 -10.635  10.947  1.00  0.00     0.181 C 
HETATM   45  N6  UNL     1       2.030  -9.394  10.868  1.00  0.00    -0.374 N 
HETATM   46  N7  UNL     1       2.634 -11.339   9.736  1.00  0.00    -0.064 NA
ATOM     47  H62 UNL     1       1.879  -8.887  11.740  1.00  0.00     0.158 HD
ATOM     48  H61 UNL     1       1.884  -8.965   9.954  1.00  0.00     0.158 HD
ATOM     49  H5  UNL     1       3.460 -11.006  12.744  1.00  0.00     0.162 HD
ENDBRANCH  42  43
ENDBRANCH  41  42
ENDBRANCH  40  41
ENDBRANCH  34  40
ENDBRANCH  17  28
ENDBRANCH  15  17
ENDBRANCH  10  13
ENDBRANCH   8  10
ENDBRANCH   6   8
BRANCH   6  50
HETATM   50  C29 UNL     1       3.721   0.050  13.523  1.00  0.00     0.035 C 
HETATM   51  C30 UNL     1       2.336   0.119  14.173  1.00  0.00     0.030 C 
HETATM   52  C31 UNL     1       4.042   1.505  13.187  1.00  0.00     0.030 C 
HETATM   53  C32 UNL     1       3.467  -0.510  12.107  1.00  0.00     0.030 C 
ENDBRANCH   6  50
ENDBRANCH   3   6
TORSDOF 13
ENDMDL
MODEL 2
REMARK VINA RESULT: -9.203495897      0.927      2.225
REMARK  13 active torsions:
REMARK  status: ('A' for Active; 'I' for Inactive)
REMARK    1  A    between atoms: C3_3  and  S1_6 
REMARK    2  A    between atoms: S1_6  and  N1_8 
REMARK    3  A    between atoms: S1_6  and  C29_50 
REMARK    4  A    between atoms: N1_8  and  C6_10 
REMARK    5  A    between atoms: C6_10  and  C9_13 
REMARK       I    between atoms: C9_13  and  N2_15 
REMARK    6  A    between atoms: N2_15  and  C10_17 
REMARK    7  A    between atoms: C10_17  and  N3_18 
REMARK    8  A    between atoms: C10_17  and  C18_28 
REMARK       I    between atoms: N3_18  and  C11_20 
REMARK    9  A    between atoms: C11_20  and  C12_22 
REMARK       I    between atoms: C18_28  and  N4_30 
REMARK   10  A    between atoms: C20_33  and  C21_34 
REMARK   11  A    between atoms: C21_34  and  C22_35 
REMARK   12  A    between atoms: C22_35  and  C23_36 
REMARK   13  A    between atoms: C23_36  and  N5_37 
REMARK       I    between atoms: N5_37  and  C24_39 
ROOT
HETATM    1  C1  UNL     1       1.276  -0.381  12.698  1.00  0.00     0.014 C 
HETATM    2  C2  UNL     1       2.462  -0.218  12.758  1.00  0.00    -0.094 C 
HETATM    3  C3  UNL     1       3.876  -0.062  12.839  1.00  0.00     0.100 C 
HETATM    4  C4  UNL     1       4.334   0.427  11.455  1.00  0.00     0.044 C 
HETATM    5  C5  UNL     1       4.142   1.116  13.767  1.00  0.00     0.044 C 
ENDROOT
BRANCH   3   6
HETATM    6  S1  UNL     1       5.019  -1.546  13.376  1.00  0.00     0.049 S 
HETATM    7  O1  UNL     1       4.918  -2.268  12.061  1.00  0.00    -0.247 OA
BRANCH   6   8
HETATM    8  N1  UNL     1       4.239  -2.955  14.326  1.00  0.00    -0.331 N 
ATOM      9  H1  UNL     1       3.825  -3.713  13.783  1.00  0.00     0.170 HD
BRANCH   8  10
HETATM   10  C6  UNL     1       4.174  -3.054  15.715  1.00  0.00     0.111 C 
HETATM   11  C7  UNL     1       2.785  -3.093  16.309  1.00  0.00     0.049 C 
HETATM   12  C8  UNL     1       4.992  -2.067  16.497  1.00  0.00     0.049 C 
BRANCH  10  13
HETATM   13  C9  UNL     1       4.748  -4.406  16.064  1.00  0.00     0.247 C 
HETATM   14  O2  UNL     1       5.780  -4.781  15.461  1.00  0.00    -0.271 OA
HETATM   15  N2  UNL     1       4.171  -5.233  17.026  1.00  0.00    -0.330 N 
ATOM     16  H2  UNL     1       3.338  -4.911  17.518  1.00  0.00     0.165 HD
BRANCH  15  17
HETATM   17  C10 UNL     1       4.726  -6.561  17.356  1.00  0.00     0.281 C 
BRANCH  17  18
HETATM   18  N3  UNL     1       6.147  -6.396  17.235  1.00  0.00    -0.332 N 
HETATM   19  C11 UNL     1       6.955  -5.984  18.303  1.00  0.00     0.223 C 
HETATM   20  O3  UNL     1       6.477  -5.721  19.456  1.00  0.00    -0.273 OA
ATOM     21  H3  UNL     1       6.586  -6.586  16.334  1.00  0.00     0.165 HD
BRANCH  19  22
HETATM   22  C12 UNL     1       8.403  -5.838  18.134  1.00  0.00     0.078 C 
HETATM   23  C13 UNL     1       8.953  -7.002  17.351  1.00  0.00     0.014 C 
HETATM   24  C14 UNL     1      10.483  -6.892  17.438  1.00  0.00     0.001 C 
HETATM   25  C15 UNL     1      10.989  -5.571  16.969  1.00  0.00     0.000 C 
HETATM   26  C16 UNL     1      10.246  -4.382  17.494  1.00  0.00     0.001 C 
HETATM   27  C17 UNL     1       8.760  -4.589  17.342  1.00  0.00     0.014 C 
ENDBRANCH  19  22
ENDBRANCH  17  18
BRANCH  17  28
HETATM   28  C18 UNL     1       4.247  -7.573  16.377  1.00  0.00     0.270 C 
HETATM   29  O4  UNL     1       3.547  -7.101  15.417  1.00  0.00    -0.269 OA
HETATM   30  N4  UNL     1       4.505  -8.968  16.447  1.00  0.00    -0.270 N 
HETATM   31  C19 UNL     1       3.971  -9.804  15.433  1.00  0.00     0.250 C 
HETATM   32  C27 UNL     1       5.288  -9.602  17.493  1.00  0.00     0.184 C 
HETATM   33  O5  UNL     1       3.990  -9.479  14.234  1.00  0.00    -0.271 OA
HETATM   34  C20 UNL     1       3.351 -11.139  15.800  1.00  0.00     0.179 C 
HETATM   35  N8  UNL     1       4.072 -11.724  16.902  1.00  0.00    -0.341 N 
HETATM   36  C25 UNL     1       4.226 -13.150  17.097  1.00  0.00     0.153 C 
HETATM   37  C26 UNL     1       4.668 -10.891  17.881  1.00  0.00     0.243 C 
HETATM   38  O6  UNL     1       4.692 -11.210  19.105  1.00  0.00    -0.271 OA
HETATM   39  C28 UNL     1       6.679  -9.960  16.995  1.00  0.00     0.043 C 
BRANCH  34  40
HETATM   40  C21 UNL     1       3.290 -11.892  14.535  1.00  0.00     0.037 C 
BRANCH  40  41
HETATM   41  C22 UNL     1       2.049 -12.527  14.077  1.00  0.00     0.022 C 
BRANCH  41  42
HETATM   42  C23 UNL     1       1.565 -12.033  12.725  1.00  0.00     0.122 C 
BRANCH  42  43
HETATM   43  N5  UNL     1       2.587 -11.158  12.194  1.00  0.00    -0.365 N 
HETATM   44  C24 UNL     1       2.391 -10.533  10.953  1.00  0.00     0.181 C 
HETATM   45  N6  UNL     1       2.065  -9.271  10.906  1.00  0.00    -0.374 N 
HETATM   46  N7  UNL     1       2.534 -11.224   9.725  1.00  0.00    -0.064 NA
ATOM     47  H62 UNL     1       1.963  -8.774  11.791  1.00  0.00     0.158 HD
ATOM     48  H61 UNL     1       1.923  -8.817  10.005  1.00  0.00     0.158 HD
ATOM     49  H5  UNL     1       3.446 -10.997  12.718  1.00  0.00     0.162 HD
ENDBRANCH  42  43
ENDBRANCH  41  42
ENDBRANCH  40  41
ENDBRANCH  34  40
ENDBRANCH  17  28
ENDBRANCH  15  17
ENDBRANCH  10  13
ENDBRANCH   8  10
ENDBRANCH   6   8
BRANCH   6  50
HETATM   50  C29 UNL     1       6.895  -1.236  13.337  1.00  0.00     0.035 C 
HETATM   51  C30 UNL     1       7.772  -2.402  13.799  1.00  0.00     0.030 C 
HETATM   52  C31 UNL     1       7.546  -0.783  12.032  1.00  0.00     0.030 C 
HETATM   53  C32 UNL     1       7.281  -0.059  14.260  1.00  0.00     0.030 C 
ENDBRANCH   6  50
ENDBRANCH   3   6
TORSDOF 13
ENDMDL
MODEL 3
REMARK VINA RESULT: -8.873586759      1.452      2.382
REMARK  13 active torsions:
REMARK  status: ('A' for Active; 'I' for Inactive)
REMARK    1  A    between atoms: C3_3  and  S1_6 
REMARK    2  A    between atoms: S1_6  and  N1_8 
REMARK    3  A    between atoms: S1_6  and  C29_50 
REMARK    4  A    between atoms: N1_8  and  C6_10 
REMARK    5  A    between atoms: C6_10  and  C9_13 
REMARK       I    between atoms: C9_13  and  N2_15 
REMARK    6  A    between atoms: N2_15  and  C10_17 
REMARK    7  A    between atoms: C10_17  and  N3_18 
REMARK    8  A    between atoms: C10_17  and  C18_28 
REMARK       I    between atoms: N3_18  and  C11_20 
REMARK    9  A    between atoms: C11_20  and  C12_22 
REMARK       I    between atoms: C18_28  and  N4_30 
REMARK   10  A    between atoms: C20_33  and  C21_34 
REMARK   11  A    between atoms: C21_34  and  C22_35 
REMARK   12  A    between atoms: C22_35  and  C23_36 
REMARK   13  A    between atoms: C23_36  and  N5_37 
REMARK       I    between atoms: N5_37  and  C24_39 
ROOT
HETATM    1  C1  UNL     1       4.283   0.994  11.217  1.00  0.00     0.014 C 
HETATM    2  C2  UNL     1       4.042   0.315  12.175  1.00  0.00    -0.094 C 
HETATM    3  C3  UNL     1       3.789  -0.511  13.307  1.00  0.00     0.100 C 
HETATM    4  C4  UNL     1       3.687   0.434  14.516  1.00  0.00     0.044 C 
HETATM    5  C5  UNL     1       2.382  -1.073  13.144  1.00  0.00     0.044 C 
ENDROOT
BRANCH   3   6
HETATM    6  S1  UNL     1       4.991  -1.974  13.770  1.00  0.00     0.049 S 
HETATM    7  O1  UNL     1       5.183  -2.435  12.351  1.00  0.00    -0.247 OA
BRANCH   6   8
HETATM    8  N1  UNL     1       4.232  -3.597  14.303  1.00  0.00    -0.331 N 
ATOM      9  H1  UNL     1       4.504  -4.434  13.785  1.00  0.00     0.170 HD
BRANCH   8  10
HETATM   10  C6  UNL     1       3.325  -3.760  15.348  1.00  0.00     0.111 C 
HETATM   11  C7  UNL     1       1.955  -4.267  14.959  1.00  0.00     0.049 C 
HETATM   12  C8  UNL     1       3.147  -2.588  16.271  1.00  0.00     0.049 C 
BRANCH  10  13
HETATM   13  C9  UNL     1       3.880  -4.864  16.215  1.00  0.00     0.247 C 
HETATM   14  O2  UNL     1       4.473  -4.543  17.270  1.00  0.00    -0.271 OA
HETATM   15  N2  UNL     1       3.750  -6.210  15.879  1.00  0.00    -0.330 N 
ATOM     16  H2  UNL     1       3.255  -6.459  15.022  1.00  0.00     0.165 HD
BRANCH  15  17
HETATM   17  C10 UNL     1       4.305  -7.288  16.721  1.00  0.00     0.281 C 
BRANCH  17  18
HETATM   18  N3  UNL     1       5.705  -6.986  16.814  1.00  0.00    -0.332 N 
HETATM   19  C11 UNL     1       6.372  -6.858  18.040  1.00  0.00     0.223 C 
HETATM   20  O3  UNL     1       5.773  -6.995  19.158  1.00  0.00    -0.273 OA
ATOM     21  H3  UNL     1       6.237  -6.860  15.952  1.00  0.00     0.165 HD
BRANCH  19  22
HETATM   22  C12 UNL     1       7.805  -6.557  18.085  1.00  0.00     0.078 C 
HETATM   23  C13 UNL     1       8.575  -7.582  17.292  1.00  0.00     0.014 C 
HETATM   24  C14 UNL     1      10.060  -7.333  17.598  1.00  0.00     0.001 C 
HETATM   25  C15 UNL     1      10.475  -5.931  17.314  1.00  0.00     0.000 C 
HETATM   26  C16 UNL     1       9.547  -4.875  17.828  1.00  0.00     0.001 C 
HETATM   27  C17 UNL     1       8.124  -5.209  17.455  1.00  0.00     0.014 C 
ENDBRANCH  19  22
ENDBRANCH  17  18
BRANCH  17  28
HETATM   28  C18 UNL     1       4.112  -8.606  16.058  1.00  0.00     0.270 C 
HETATM   29  O4  UNL     1       3.988  -8.554  14.787  1.00  0.00    -0.269 OA
HETATM   30  N4  UNL     1       4.056  -9.859  16.725  1.00  0.00    -0.270 N 
HETATM   31  C19 UNL     1       3.862 -11.029  15.946  1.00  0.00     0.250 C 
HETATM   32  C27 UNL     1       4.188 -10.026  18.162  1.00  0.00     0.184 C 
HETATM   33  O5  UNL     1       4.450 -11.205  14.865  1.00  0.00    -0.271 OA
HETATM   34  C20 UNL     1       2.913 -12.110  16.426  1.00  0.00     0.179 C 
HETATM   35  N8  UNL     1       2.975 -12.210  17.862  1.00  0.00    -0.341 N 
HETATM   36  C25 UNL     1       2.767 -13.441  18.593  1.00  0.00     0.153 C 
HETATM   37  C26 UNL     1       3.238 -11.056  18.642  1.00  0.00     0.243 C 
HETATM   38  O6  UNL     1       2.679 -10.865  19.761  1.00  0.00    -0.271 OA
HETATM   39  C28 UNL     1       5.568 -10.551  18.528  1.00  0.00     0.043 C 
BRANCH  34  40
HETATM   40  C21 UNL     1       3.260 -13.302  15.633  1.00  0.00     0.037 C 
BRANCH  40  41
HETATM   41  C22 UNL     1       2.316 -13.893  14.678  1.00  0.00     0.022 C 
BRANCH  41  42
HETATM   42  C23 UNL     1       1.519 -12.871  13.887  1.00  0.00     0.122 C 
BRANCH  42  43
HETATM   43  N5  UNL     1       2.329 -12.470  12.758  1.00  0.00    -0.365 N 
HETATM   44  C24 UNL     1       2.178 -11.186  12.214  1.00  0.00     0.181 C 
HETATM   45  N6  UNL     1       3.062 -10.263  12.472  1.00  0.00    -0.374 N 
HETATM   46  N7  UNL     1       1.086 -10.840  11.379  1.00  0.00    -0.064 NA
ATOM     47  H62 UNL     1       3.848 -10.512  13.072  1.00  0.00     0.158 HD
ATOM     48  H61 UNL     1       2.952  -9.330  12.076  1.00  0.00     0.158 HD
ATOM     49  H5  UNL     1       3.008 -13.118  12.361  1.00  0.00     0.162 HD
ENDBRANCH  42  43
ENDBRANCH  41  42
ENDBRANCH  40  41
ENDBRANCH  34  40
ENDBRANCH  17  28
ENDBRANCH  15  17
ENDBRANCH  10  13
ENDBRANCH   8  10
ENDBRANCH   6   8
BRANCH   6  50
HETATM   50  C29 UNL     1       6.802  -1.511  14.121  1.00  0.00     0.035 C 
HETATM   51  C30 UNL     1       7.117  -0.012  14.122  1.00  0.00     0.030 C 
HETATM   52  C31 UNL     1       7.469  -2.027  15.394  1.00  0.00     0.030 C 
HETATM   53  C32 UNL     1       7.744  -2.113  13.055  1.00  0.00     0.030 C 
ENDBRANCH   6  50
ENDBRANCH   3   6
TORSDOF 13
ENDMDL
MODEL 4
REMARK VINA RESULT: -8.711612998      2.550      3.034
REMARK  13 active torsions:
REMARK  status: ('A' for Active; 'I' for Inactive)
REMARK    1  A    between atoms: C3_3  and  S1_6 
REMARK    2  A    between atoms: S1_6  and  N1_8 
REMARK    3  A    between atoms: S1_6  and  C29_50 
REMARK    4  A    between atoms: N1_8  and  C6_10 
REMARK    5  A    between atoms: C6_10  and  C9_13 
REMARK       I    between atoms: C9_13  and  N2_15 
REMARK    6  A    between atoms: N2_15  and  C10_17 
REMARK    7  A    between atoms: C10_17  and  N3_18 
REMARK    8  A    between atoms: C10_17  and  C18_28 
REMARK       I    between atoms: N3_18  and  C11_20 
REMARK    9  A    between atoms: C11_20  and  C12_22 
REMARK       I    between atoms: C18_28  and  N4_30 
REMARK   10  A    between atoms: C20_33  and  C21_34 
REMARK   11  A    between atoms: C21_34  and  C22_35 
REMARK   12  A    between atoms: C22_35  and  C23_36 
REMARK   13  A    between atoms: C23_36  and  N5_37 
REMARK       I    between atoms: N5_37  and  C24_39 
ROOT
HETATM    1  C1  UNL     1       7.344   0.469  11.930  1.00  0.00     0.014 C 
HETATM    2  C2  UNL     1       6.922  -0.332  12.716  1.00  0.00    -0.094 C 
HETATM    3  C3  UNL     1       6.389  -1.262  13.654  1.00  0.00     0.100 C 
HETATM    4  C4  UNL     1       6.259  -2.600  12.907  1.00  0.00     0.044 C 
HETATM    5  C5  UNL     1       7.470  -1.511  14.697  1.00  0.00     0.044 C 
ENDROOT
BRANCH   3   6
HETATM    6  S1  UNL     1       4.709  -0.906  14.575  1.00  0.00     0.049 S 
HETATM    7  O1  UNL     1       5.235   0.272  15.349  1.00  0.00    -0.247 OA
BRANCH   6   8
HETATM    8  N1  UNL     1       4.333  -1.885  16.123  1.00  0.00    -0.331 N 
ATOM      9  H1  UNL     1       4.641  -1.491  17.013  1.00  0.00     0.170 HD
BRANCH   8  10
HETATM   10  C6  UNL     1       3.668  -3.109  16.163  1.00  0.00     0.111 C 
HETATM   11  C7  UNL     1       2.973  -3.522  14.885  1.00  0.00     0.049 C 
HETATM   12  C8  UNL     1       2.714  -3.318  17.304  1.00  0.00     0.049 C 
BRANCH  10  13
HETATM   13  C9  UNL     1       4.736  -4.159  16.344  1.00  0.00     0.247 C 
HETATM   14  O2  UNL     1       5.480  -4.417  15.370  1.00  0.00    -0.271 OA
HETATM   15  N2  UNL     1       4.917  -4.837  17.548  1.00  0.00    -0.330 N 
ATOM     16  H2  UNL     1       4.312  -4.610  18.337  1.00  0.00     0.165 HD
BRANCH  15  17
HETATM   17  C10 UNL     1       5.954  -5.874  17.719  1.00  0.00     0.281 C 
BRANCH  17  18
HETATM   18  N3  UNL     1       6.987  -5.504  16.794  1.00  0.00    -0.332 N 
HETATM   19  C11 UNL     1       8.292  -5.193  17.203  1.00  0.00     0.223 C 
HETATM   20  O3  UNL     1       8.645  -5.215  18.428  1.00  0.00    -0.273 OA
ATOM     21  H3  UNL     1       6.763  -5.464  15.800  1.00  0.00     0.165 HD
BRANCH  19  22
HETATM   22  C12 UNL     1       9.317  -4.828  16.222  1.00  0.00     0.078 C 
HETATM   23  C13 UNL     1       8.797  -5.047  14.823  1.00  0.00     0.014 C 
HETATM   24  C14 UNL     1      10.003  -4.879  13.887  1.00  0.00     0.001 C 
HETATM   25  C15 UNL     1      10.687  -3.568  14.065  1.00  0.00     0.000 C 
HETATM   26  C16 UNL     1      10.939  -3.169  15.486  1.00  0.00     0.001 C 
HETATM   27  C17 UNL     1       9.688  -3.356  16.308  1.00  0.00     0.014 C 
ENDBRANCH  19  22
ENDBRANCH  17  18
BRANCH  17  28
HETATM   28  C18 UNL     1       5.405  -7.210  17.359  1.00  0.00     0.270 C 
HETATM   29  O4  UNL     1       4.214  -7.193  16.896  1.00  0.00    -0.269 OA
HETATM   30  N4  UNL     1       6.095  -8.444  17.499  1.00  0.00    -0.270 N 
HETATM   31  C19 UNL     1       5.429  -9.635  17.112  1.00  0.00     0.250 C 
HETATM   32  C27 UNL     1       7.448  -8.570  18.011  1.00  0.00     0.184 C 
HETATM   33  O5  UNL     1       4.747  -9.701  16.075  1.00  0.00    -0.271 OA
HETATM   34  C20 UNL     1       5.536 -10.878  17.975  1.00  0.00     0.179 C 
HETATM   35  N8  UNL     1       6.851 -10.952  18.559  1.00  0.00    -0.341 N 
HETATM   36  C25 UNL     1       7.528 -12.194  18.864  1.00  0.00     0.153 C 
HETATM   37  C26 UNL     1       7.551  -9.763  18.883  1.00  0.00     0.243 C 
HETATM   38  O6  UNL     1       8.278  -9.675  19.915  1.00  0.00    -0.271 OA
HETATM   39  C28 UNL     1       8.440  -8.810  16.884  1.00  0.00     0.043 C 
BRANCH  34  40
HETATM   40  C21 UNL     1       5.101 -11.985  17.106  1.00  0.00     0.037 C 
BRANCH  40  41
HETATM   41  C22 UNL     1       3.909 -12.781  17.414  1.00  0.00     0.022 C 
BRANCH  41  42
HETATM   42  C23 UNL     1       2.940 -12.101  18.365  1.00  0.00     0.122 C 
BRANCH  42  43
HETATM   43  N5  UNL     1       2.120 -11.206  17.579  1.00  0.00    -0.365 N 
HETATM   44  C24 UNL     1       1.602 -10.041  18.165  1.00  0.00     0.181 C 
HETATM   45  N6  UNL     1       2.144  -8.886  17.902  1.00  0.00    -0.374 N 
HETATM   46  N7  UNL     1       0.493 -10.065  19.047  1.00  0.00    -0.064 NA
ATOM     47  H62 UNL     1       2.943  -8.868  17.268  1.00  0.00     0.158 HD
ATOM     48  H61 UNL     1       1.768  -8.039  18.329  1.00  0.00     0.158 HD
ATOM     49  H5  UNL     1       1.920 -11.420  16.603  1.00  0.00     0.162 HD
ENDBRANCH  42  43
ENDBRANCH  41  42
ENDBRANCH  40  41
ENDBRANCH  34  40
ENDBRANCH  17  28
ENDBRANCH  15  17
ENDBRANCH  10  13
ENDBRANCH   8  10
ENDBRANCH   6   8
BRANCH   6  50
HETATM   50  C29 UNL     1       3.377   0.028  13.590  1.00  0.00     0.035 C 
HETATM   51  C30 UNL     1       1.975   0.035  14.208  1.00  0.00     0.030 C 
HETATM   52  C31 UNL     1       3.618   1.488  13.212  1.00  0.00     0.030 C 
HETATM   53  C32 UNL     1       3.189  -0.591  12.188  1.00  0.00     0.030 C 
ENDBRANCH   6  50
ENDBRANCH   3   6
TORSDOF 13
ENDMDL
MODEL 5
REMARK VINA RESULT: -8.659788431      1.334      1.820
REMARK  13 active torsions:
REMARK  status: ('A' for Active; 'I' for Inactive)
REMARK    1  A    between atoms: C3_3  and  S1_6 
REMARK    2  A    between atoms: S1_6  and  N1_8 
REMARK    3  A    between atoms: S1_6  and  C29_50 
REMARK    4  A    between atoms: N1_8  and  C6_10 
REMARK    5  A    between atoms: C6_10  and  C9_13 
REMARK       I    between atoms: C9_13  and  N2_15 
REMARK    6  A    between atoms: N2_15  and  C10_17 
REMARK    7  A    between atoms: C10_17  and  N3_18 
REMARK    8  A    between atoms: C10_17  and  C18_28 
REMARK       I    between atoms: N3_18  and  C11_20 
REMARK    9  A    between atoms: C11_20  and  C12_22 
REMARK       I    between atoms: C18_28  and  N4_30 
REMARK   10  A    between atoms: C20_33  and  C21_34 
REMARK   11  A    between atoms: C21_34  and  C22_35 
REMARK   12  A    between atoms: C22_35  and  C23_36 
REMARK   13  A    between atoms: C23_36  and  N5_37 
REMARK       I    between atoms: N5_37  and  C24_39 
ROOT
HETATM    1  C1  UNL     1       8.664  -2.615  15.292  1.00  0.00     0.014 C 
HETATM    2  C2  UNL     1       7.868  -2.013  14.630  1.00  0.00    -0.094 C 
HETATM    3  C3  UNL     1       6.892  -1.316  13.861  1.00  0.00     0.100 C 
HETATM    4  C4  UNL     1       7.111   0.180  14.142  1.00  0.00     0.044 C 
HETATM    5  C5  UNL     1       7.272  -1.488  12.396  1.00  0.00     0.044 C 
ENDROOT
BRANCH   3   6
HETATM    6  S1  UNL     1       4.992  -1.706  14.059  1.00  0.00     0.049 S 
HETATM    7  O1  UNL     1       4.920  -1.261  15.493  1.00  0.00    -0.247 OA
BRANCH   6   8
HETATM    8  N1  UNL     1       4.497  -3.461  14.472  1.00  0.00    -0.331 N 
ATOM      9  H1  UNL     1       5.068  -4.213  14.085  1.00  0.00     0.170 HD
BRANCH   8  10
HETATM   10  C6  UNL     1       3.411  -3.828  15.265  1.00  0.00     0.111 C 
HETATM   11  C7  UNL     1       2.243  -4.451  14.535  1.00  0.00     0.049 C 
HETATM   12  C8  UNL     1       2.876  -2.779  16.198  1.00  0.00     0.049 C 
BRANCH  10  13
HETATM   13  C9  UNL     1       3.904  -4.938  16.161  1.00  0.00     0.247 C 
HETATM   14  O2  UNL     1       4.444  -4.624  17.246  1.00  0.00    -0.271 OA
HETATM   15  N2  UNL     1       3.774  -6.284  15.819  1.00  0.00    -0.330 N 
ATOM     16  H2  UNL     1       3.323  -6.527  14.937  1.00  0.00     0.165 HD
BRANCH  15  17
HETATM   17  C10 UNL     1       4.269  -7.367  16.690  1.00  0.00     0.281 C 
BRANCH  17  18
HETATM   18  N3  UNL     1       5.676  -7.111  16.818  1.00  0.00    -0.332 N 
HETATM   19  C11 UNL     1       6.309  -6.972  18.061  1.00  0.00     0.223 C 
HETATM   20  O3  UNL     1       5.673  -7.058  19.162  1.00  0.00    -0.273 OA
ATOM     21  H3  UNL     1       6.237  -7.027  15.971  1.00  0.00     0.165 HD
BRANCH  19  22
HETATM   22  C12 UNL     1       7.750  -6.719  18.142  1.00  0.00     0.078 C 
HETATM   23  C13 UNL     1       8.501  -7.727  17.310  1.00  0.00     0.014 C 
HETATM   24  C14 UNL     1       9.988  -7.541  17.650  1.00  0.00     0.001 C 
HETATM   25  C15 UNL     1      10.451  -6.141  17.444  1.00  0.00     0.000 C 
HETATM   26  C16 UNL     1       9.546  -5.082  17.996  1.00  0.00     0.001 C 
HETATM   27  C17 UNL     1       8.120  -5.352  17.586  1.00  0.00     0.014 C 
ENDBRANCH  19  22
ENDBRANCH  17  18
BRANCH  17  28
HETATM   28  C18 UNL     1       4.051  -8.687  16.039  1.00  0.00     0.270 C 
HETATM   29  O4  UNL     1       3.912  -8.642  14.768  1.00  0.00    -0.269 OA
HETATM   30  N4  UNL     1       3.985  -9.935  16.715  1.00  0.00    -0.270 N 
HETATM   31  C19 UNL     1       3.766 -11.107  15.947  1.00  0.00     0.250 C 
HETATM   32  C27 UNL     1       4.131 -10.094  18.151  1.00  0.00     0.184 C 
HETATM   33  O5  UNL     1       4.339 -11.299  14.860  1.00  0.00    -0.271 OA
HETATM   34  C20 UNL     1       2.807 -12.172  16.445  1.00  0.00     0.179 C 
HETATM   35  N8  UNL     1       2.885 -12.262  17.881  1.00  0.00    -0.341 N 
HETATM   36  C25 UNL     1       2.669 -13.486  18.623  1.00  0.00     0.153 C 
HETATM   37  C26 UNL     1       3.173 -11.107  18.650  1.00  0.00     0.243 C 
HETATM   38  O6  UNL     1       2.630 -10.900  19.773  1.00  0.00    -0.271 OA
HETATM   39  C28 UNL     1       5.508 -10.634  18.505  1.00  0.00     0.043 C 
BRANCH  34  40
HETATM   40  C21 UNL     1       3.129 -13.374  15.657  1.00  0.00     0.037 C 
BRANCH  40  41
HETATM   41  C22 UNL     1       2.188 -13.924  14.675  1.00  0.00     0.022 C 
BRANCH  41  42
HETATM   42  C23 UNL     1       1.447 -12.870  13.872  1.00  0.00     0.122 C 
BRANCH  42  43
HETATM   43  N5  UNL     1       2.295 -12.498  12.762  1.00  0.00    -0.365 N 
HETATM   44  C24 UNL     1       2.157 -11.231  12.175  1.00  0.00     0.181 C 
HETATM   45  N6  UNL     1       3.027 -10.296  12.437  1.00  0.00    -0.374 N 
HETATM   46  N7  UNL     1       1.093 -10.915  11.293  1.00  0.00    -0.064 NA
ATOM     47  H62 UNL     1       3.792 -10.523  13.072  1.00  0.00     0.158 HD
ATOM     48  H61 UNL     1       2.926  -9.375  12.011  1.00  0.00     0.158 HD
ATOM     49  H5  UNL     1       2.990 -13.153  12.407  1.00  0.00     0.162 HD
ENDBRANCH  42  43
ENDBRANCH  41  42
ENDBRANCH  40  41
ENDBRANCH  34  40
ENDBRANCH  17  28
ENDBRANCH  15  17
ENDBRANCH  10  13
ENDBRANCH   8  10
ENDBRANCH   6   8
BRANCH   6  50
HETATM   50  C29 UNL     1       3.779  -0.426  13.347  1.00  0.00     0.035 C 
HETATM   51  C30 UNL     1       4.172   0.183  11.998  1.00  0.00     0.030 C 
HETATM   52  C31 UNL     1       2.314  -0.814  13.161  1.00  0.00     0.030 C 
HETATM   53  C32 UNL     1       3.626   0.780  14.298  1.00  0.00     0.030 C 
ENDBRANCH   6  50
ENDBRANCH   3   6
TORSDOF 13
ENDMDL
