MODEL 1
REMARK VINA RESULT: -8.403148272      0.000      0.000
REMARK  8 active torsions:
REMARK  status: ('A' for Active; 'I' for Inactive)
REMARK    1  A    between atoms: N2_4  and  N3_6 
REMARK       I    between atoms: N3_6  and  C1_8 
REMARK    2  A    between atoms: C1_8  and  C2_10 
REMARK    3  A    between atoms: C2_10  and  O2_11 
REMARK    4  A    between atoms: C2_10  and  C3_13 
REMARK    5  A    between atoms: N4_18  and  O4_19 
REMARK    6  A    between atoms: C14_29  and  C15_30 
REMARK    7  A    between atoms: C15_30  and  C16_31 
REMARK    8  A    between atoms: C28_47  and  O5_48 
ROOT
HETATM    1  C3  UNL     1       3.489   5.189   7.292  1.00  0.00     0.202 C 
HETATM    2  O3  UNL     1       2.904   4.473   8.373  1.00  0.00    -0.349 OA
HETATM    3  C4  UNL     1       2.906   3.905   9.562  1.00  0.00     0.153 C 
HETATM    4  C5  UNL     1       3.973   3.416  10.572  1.00  0.00     0.054 C 
HETATM    5  C6  UNL     1       4.290   2.015  10.818  1.00  0.00     0.140 C 
HETATM    6  N4  UNL     1       5.385   1.285  11.019  1.00  0.00    -0.247 N 
HETATM    7  C7  UNL     1       6.698   1.045  10.671  1.00  0.00     0.119 C 
HETATM    8  C8  UNL     1       7.902   1.732  10.414  1.00  0.00     0.003 C 
HETATM    9  C9  UNL     1       8.300   3.092  10.117  1.00  0.00     0.076 A 
HETATM   10  C10 UNL     1       8.398   4.058   8.853  1.00  0.00     0.091 A 
HETATM   11  C11 UNL     1       7.515   4.539   8.237  1.00  0.00     0.049 A 
HETATM   12  C12 UNL     1       7.846   4.010   9.385  1.00  0.00     0.105 A 
HETATM   13  N5  UNL     1       9.592   3.809   8.736  1.00  0.00    -0.266 NA
HETATM   14  C13 UNL     1       9.195   4.300   7.742  1.00  0.00     0.137 A 
HETATM   15  C14 UNL     1       8.508   4.873   6.723  1.00  0.00     0.018 A 
HETATM   16  N6  UNL     1       7.214   5.058   7.096  1.00  0.00    -0.330 N 
HETATM   17  C22 UNL     1       6.014   5.458   6.480  1.00  0.00     0.108 C 
HETATM   18  C23 UNL     1       4.766   4.730   6.663  1.00  0.00     0.014 C 
HETATM   19  C24 UNL     1       4.909   3.391   6.588  1.00  0.00     0.056 C 
HETATM   20  N7  UNL     1       4.793   2.225   5.793  1.00  0.00    -0.102 NA
HETATM   21  C25 UNL     1       5.375   3.317   7.938  1.00  0.00     0.029 C 
HETATM   22  C26 UNL     1       5.701   4.335   8.853  1.00  0.00     0.029 C 
HETATM   23  C27 UNL     1       6.688   4.147   9.804  1.00  0.00     0.041 C 
HETATM   24  N8  UNL     1       6.138   4.192  11.113  1.00  0.00    -0.338 N 
ATOM     25  H8  UNL     1       6.783   4.273  11.900  1.00  0.00     0.168 HD
HETATM   26  C28 UNL     1       4.837   4.136  11.379  1.00  0.00     0.154 C 
ENDROOT
BRANCH   1  27
HETATM   27  C2  UNL     1       2.399   5.104   6.264  1.00  0.00     0.245 C 
BRANCH  27  28
HETATM   28  C1  UNL     1       1.325   6.065   6.453  1.00  0.00     0.268 C 
HETATM   29  N3  UNL     1       0.776   6.380   7.726  1.00  0.00    -0.254 N 
ATOM     30  H3  UNL     1       1.153   5.912   8.550  1.00  0.00     0.191 HD
HETATM   31  O1  UNL     1       0.841   6.656   5.460  1.00  0.00    -0.269 OA
BRANCH  29  32
HETATM   32  N2  UNL     1      -0.254   7.302   7.897  1.00  0.00    -0.247 N 
HETATM   33  N1  UNL     1      -1.360   7.103   7.310  1.00  0.00    -0.331 N 
ATOM     34  H12 UNL     1      -1.476   6.276   6.725  1.00  0.00     0.178 HD
ATOM     35  H11 UNL     1      -2.114   7.778   7.435  1.00  0.00     0.178 HD
ATOM     36  H2  UNL     1      -0.121   8.124   8.486  1.00  0.00     0.207 HD
ENDBRANCH  29  32
ENDBRANCH  27  28
BRANCH  27  37
HETATM   37  O2  UNL     1       1.827   3.835   6.204  1.00  0.00    -0.383 OA
ATOM     38  H2  UNL     1       2.455   3.218   6.562  1.00  0.00     0.210 HD
ENDBRANCH  27  37
ENDBRANCH   1  27
BRANCH  26  39
HETATM   39  O5  UNL     1       4.537   4.851  12.476  1.00  0.00    -0.345 OA
ATOM     40  H5  UNL     1       4.955   5.646  12.785  1.00  0.00     0.219 HD
ENDBRANCH  26  39
BRANCH  15  41
HETATM   41  C15 UNL     1       9.036   5.239   5.430  1.00  0.00     0.093 C 
BRANCH  41  42
HETATM   42  C16 UNL     1       9.290   4.026   4.596  1.00  0.00    -0.053 A 
HETATM   43  C17 UNL     1      10.529   3.761   4.073  1.00  0.00     0.007 A 
HETATM   44  C18 UNL     1      10.661   2.608   3.335  1.00  0.00     0.001 A 
HETATM   45  C19 UNL     1       9.557   1.779   3.154  1.00  0.00     0.000 A 
HETATM   46  C20 UNL     1       8.316   2.054   3.683  1.00  0.00     0.001 A 
HETATM   47  C21 UNL     1       8.187   3.201   4.417  1.00  0.00     0.007 A 
ENDBRANCH  41  42
ENDBRANCH  15  41
BRANCH   6  48
HETATM   48  O4  UNL     1       5.003   0.337  12.029  1.00  0.00    -0.284 OA
ATOM     49  H4  UNL     1       5.538  -0.427  11.850  1.00  0.00     0.245 HD
ENDBRANCH   6  48
TORSDOF 8
ENDMDL
MODEL 2
REMARK VINA RESULT: -8.299074472      7.704     12.113
REMARK  8 active torsions:
REMARK  status: ('A' for Active; 'I' for Inactive)
REMARK    1  A    between atoms: N2_4  and  N3_6 
REMARK       I    between atoms: N3_6  and  C1_8 
REMARK    2  A    between atoms: C1_8  and  C2_10 
REMARK    3  A    between atoms: C2_10  and  O2_11 
REMARK    4  A    between atoms: C2_10  and  C3_13 
REMARK    5  A    between atoms: N4_18  and  O4_19 
REMARK    6  A    between atoms: C14_29  and  C15_30 
REMARK    7  A    between atoms: C15_30  and  C16_31 
REMARK    8  A    between atoms: C28_47  and  O5_48 
ROOT
HETATM    1  C3  UNL     1       7.912  -4.677  14.587  1.00  0.00     0.202 C 
HETATM    2  O3  UNL     1       7.476  -5.523  15.644  1.00  0.00    -0.349 OA
HETATM    3  C4  UNL     1       6.570  -6.130  16.385  1.00  0.00     0.153 C 
HETATM    4  C5  UNL     1       5.053  -5.974  16.658  1.00  0.00     0.054 C 
HETATM    5  C6  UNL     1       4.491  -5.428  17.887  1.00  0.00     0.140 C 
HETATM    6  N4  UNL     1       3.496  -4.611  18.224  1.00  0.00    -0.247 N 
HETATM    7  C7  UNL     1       2.794  -3.460  17.935  1.00  0.00     0.119 C 
HETATM    8  C8  UNL     1       2.213  -2.781  16.844  1.00  0.00     0.003 C 
HETATM    9  C9  UNL     1       2.305  -2.827  15.400  1.00  0.00     0.076 A 
HETATM   10  C10 UNL     1       3.241  -2.252  14.245  1.00  0.00     0.091 A 
HETATM   11  C11 UNL     1       4.350  -2.561  13.989  1.00  0.00     0.049 A 
HETATM   12  C12 UNL     1       3.247  -2.947  14.574  1.00  0.00     0.105 A 
HETATM   13  N5  UNL     1       2.457  -1.333  14.046  1.00  0.00    -0.266 NA
HETATM   14  C13 UNL     1       3.493  -1.079  13.547  1.00  0.00     0.137 A 
HETATM   15  C14 UNL     1       4.760  -1.022  13.066  1.00  0.00     0.018 A 
HETATM   16  N6  UNL     1       5.425  -2.157  13.404  1.00  0.00    -0.330 N 
HETATM   17  C22 UNL     1       6.747  -2.635  13.331  1.00  0.00     0.108 C 
HETATM   18  C23 UNL     1       7.406  -3.276  14.461  1.00  0.00     0.014 C 
HETATM   19  C24 UNL     1       7.199  -2.642  15.633  1.00  0.00     0.056 C 
HETATM   20  N7  UNL     1       7.702  -1.741  16.603  1.00  0.00    -0.102 NA
HETATM   21  C25 UNL     1       5.913  -3.249  15.789  1.00  0.00     0.029 C 
HETATM   22  C26 UNL     1       5.163  -4.046  14.908  1.00  0.00     0.029 C 
HETATM   23  C27 UNL     1       3.779  -4.012  14.918  1.00  0.00     0.041 C 
HETATM   24  N8  UNL     1       3.248  -5.272  15.303  1.00  0.00    -0.338 N 
ATOM     25  H8  UNL     1       2.253  -5.436  15.153  1.00  0.00     0.168 HD
HETATM   26  C28 UNL     1       3.966  -6.250  15.846  1.00  0.00     0.154 C 
ENDROOT
BRANCH   1  27
HETATM   27  C2  UNL     1       9.389  -4.625  14.848  1.00  0.00     0.245 C 
BRANCH  27  28
HETATM   28  C1  UNL     1       9.781  -5.113  16.159  1.00  0.00     0.268 C 
HETATM   29  N3  UNL     1       9.906  -6.494  16.472  1.00  0.00    -0.254 N 
ATOM     30  H3  UNL     1       9.711  -7.180  15.742  1.00  0.00     0.191 HD
HETATM   31  O1  UNL     1      10.025  -4.295  17.076  1.00  0.00    -0.269 OA
BRANCH  29  32
HETATM   32  N2  UNL     1      10.281  -6.952  17.733  1.00  0.00    -0.247 N 
HETATM   33  N1  UNL     1       9.445  -6.891  18.683  1.00  0.00    -0.331 N 
ATOM     34  H12 UNL     1       8.515  -6.510  18.510  1.00  0.00     0.178 HD
ATOM     35  H11 UNL     1       9.720  -7.227  19.606  1.00  0.00     0.178 HD
ATOM     36  H2  UNL     1      11.215  -7.331  17.889  1.00  0.00     0.207 HD
ENDBRANCH  29  32
ENDBRANCH  27  28
BRANCH  27  37
HETATM   37  O2  UNL     1       9.905  -3.338  14.703  1.00  0.00    -0.383 OA
ATOM     38  H2  UNL     1       9.202  -2.778  14.396  1.00  0.00     0.210 HD
ENDBRANCH  27  37
ENDBRANCH   1  27
BRANCH  26  39
HETATM   39  O5  UNL     1       3.489  -7.454  15.490  1.00  0.00    -0.345 OA
ATOM     40  H5  UNL     1       3.186  -7.730  14.633  1.00  0.00     0.219 HD
ENDBRANCH  26  39
BRANCH  15  41
HETATM   41  C15 UNL     1       5.343   0.062  12.312  1.00  0.00     0.093 C 
BRANCH  41  42
HETATM   42  C16 UNL     1       4.303   1.064  11.929  1.00  0.00    -0.053 A 
HETATM   43  C17 UNL     1       3.021   0.688  11.623  1.00  0.00     0.007 A 
HETATM   44  C18 UNL     1       2.136   1.689  11.301  1.00  0.00     0.001 A 
HETATM   45  C19 UNL     1       2.569   3.013  11.300  1.00  0.00     0.000 A 
HETATM   46  C20 UNL     1       3.859   3.381  11.608  1.00  0.00     0.001 A 
HETATM   47  C21 UNL     1       4.738   2.383  11.928  1.00  0.00     0.007 A 
ENDBRANCH  41  42
ENDBRANCH  15  41
BRANCH   6  48
HETATM   48  O4  UNL     1       2.940  -5.195  19.413  1.00  0.00    -0.284 OA
ATOM     49  H4  UNL     1       3.471  -4.845  20.119  1.00  0.00     0.245 HD
ENDBRANCH   6  48
TORSDOF 8
ENDMDL
MODEL 3
REMARK VINA RESULT: -7.983243136     11.298     14.897
REMARK  8 active torsions:
REMARK  status: ('A' for Active; 'I' for Inactive)
REMARK    1  A    between atoms: N2_4  and  N3_6 
REMARK       I    between atoms: N3_6  and  C1_8 
REMARK    2  A    between atoms: C1_8  and  C2_10 
REMARK    3  A    between atoms: C2_10  and  O2_11 
REMARK    4  A    between atoms: C2_10  and  C3_13 
REMARK    5  A    between atoms: N4_18  and  O4_19 
REMARK    6  A    between atoms: C14_29  and  C15_30 
REMARK    7  A    between atoms: C15_30  and  C16_31 
REMARK    8  A    between atoms: C28_47  and  O5_48 
ROOT
HETATM    1  C3  UNL     1       3.647  -5.573  18.164  1.00  0.00     0.202 C 
HETATM    2  O3  UNL     1       2.707  -6.560  17.756  1.00  0.00    -0.349 OA
HETATM    3  C4  UNL     1       2.267  -7.793  17.607  1.00  0.00     0.153 C 
HETATM    4  C5  UNL     1       2.880  -9.216  17.631  1.00  0.00     0.054 C 
HETATM    5  C6  UNL     1       3.102 -10.034  16.446  1.00  0.00     0.140 C 
HETATM    6  N4  UNL     1       4.050 -10.849  15.989  1.00  0.00    -0.247 N 
HETATM    7  C7  UNL     1       5.400 -11.090  15.845  1.00  0.00     0.119 C 
HETATM    8  C8  UNL     1       6.601 -11.046  16.583  1.00  0.00     0.003 C 
HETATM    9  C9  UNL     1       7.062 -10.446  17.818  1.00  0.00     0.076 A 
HETATM   10  C10 UNL     1       7.616  -9.043  18.329  1.00  0.00     0.091 A 
HETATM   11  C11 UNL     1       7.025  -8.030  18.452  1.00  0.00     0.049 A 
HETATM   12  C12 UNL     1       6.904  -9.329  18.375  1.00  0.00     0.105 A 
HETATM   13  N5  UNL     1       8.768  -9.446  18.235  1.00  0.00    -0.266 NA
HETATM   14  C13 UNL     1       8.770  -8.272  18.316  1.00  0.00     0.137 A 
HETATM   15  C14 UNL     1       8.511  -6.945  18.424  1.00  0.00     0.018 A 
HETATM   16  N6  UNL     1       7.171  -6.751  18.526  1.00  0.00    -0.330 N 
HETATM   17  C22 UNL     1       6.286  -5.656  18.526  1.00  0.00     0.108 C 
HETATM   18  C23 UNL     1       5.074  -5.636  17.721  1.00  0.00     0.014 C 
HETATM   19  C24 UNL     1       5.255  -6.094  16.465  1.00  0.00     0.056 C 
HETATM   20  N7  UNL     1       5.466  -5.774  15.102  1.00  0.00    -0.102 NA
HETATM   21  C25 UNL     1       5.177  -7.454  16.899  1.00  0.00     0.029 C 
HETATM   22  C26 UNL     1       5.116  -8.002  18.192  1.00  0.00     0.029 C 
HETATM   23  C27 UNL     1       5.672  -9.239  18.468  1.00  0.00     0.041 C 
HETATM   24  N8  UNL     1       4.667 -10.167  18.850  1.00  0.00    -0.338 N 
ATOM     25  H8  UNL     1       4.965 -11.047  19.272  1.00  0.00     0.168 HD
HETATM   26  C28 UNL     1       3.363  -9.963  18.691  1.00  0.00     0.154 C 
ENDROOT
BRANCH   1  27
HETATM   27  C2  UNL     1       3.029  -4.330  17.595  1.00  0.00     0.245 C 
BRANCH  27  28
HETATM   28  C1  UNL     1       3.002  -4.288  16.143  1.00  0.00     0.268 C 
HETATM   29  N3  UNL     1       3.799  -3.396  15.373  1.00  0.00    -0.254 N 
ATOM     30  H3  UNL     1       4.421  -2.752  15.862  1.00  0.00     0.191 HD
HETATM   31  O1  UNL     1       2.248  -5.067  15.515  1.00  0.00    -0.269 OA
BRANCH  29  32
HETATM   32  N2  UNL     1       3.765  -3.364  13.981  1.00  0.00    -0.247 N 
HETATM   33  N1  UNL     1       4.843  -3.162  13.345  1.00  0.00    -0.331 N 
ATOM     34  H12 UNL     1       5.713  -3.027  13.861  1.00  0.00     0.178 HD
ATOM     35  H11 UNL     1       4.818  -3.139  12.326  1.00  0.00     0.178 HD
ATOM     36  H2  UNL     1       2.887  -3.500  13.481  1.00  0.00     0.207 HD
ENDBRANCH  29  32
ENDBRANCH  27  28
BRANCH  27  37
HETATM   37  O2  UNL     1       3.665  -3.173  18.041  1.00  0.00    -0.383 OA
ATOM     38  H2  UNL     1       3.940  -2.682  17.276  1.00  0.00     0.210 HD
ENDBRANCH  27  37
ENDBRANCH   1  27
BRANCH  26  39
HETATM   39  O5  UNL     1       2.659 -10.558  19.668  1.00  0.00    -0.345 OA
ATOM     40  H5  UNL     1       2.559 -10.275  20.569  1.00  0.00     0.219 HD
ENDBRANCH  26  39
BRANCH  15  41
HETATM   41  C15 UNL     1       9.484  -5.878  18.429  1.00  0.00     0.093 C 
BRANCH  41  42
HETATM   42  C16 UNL     1       9.599  -5.256  17.075  1.00  0.00    -0.053 A 
HETATM   43  C17 UNL     1       9.446  -5.994  15.931  1.00  0.00     0.007 A 
HETATM   44  C18 UNL     1       9.552  -5.322  14.735  1.00  0.00     0.001 A 
HETATM   45  C19 UNL     1       9.805  -3.953  14.739  1.00  0.00     0.000 A 
HETATM   46  C20 UNL     1       9.958  -3.220  15.894  1.00  0.00     0.001 A 
HETATM   47  C21 UNL     1       9.851  -3.890  17.081  1.00  0.00     0.007 A 
ENDBRANCH  41  42
ENDBRANCH  15  41
BRANCH   6  48
HETATM   48  O4  UNL     1       3.329 -11.927  15.370  1.00  0.00    -0.284 OA
ATOM     49  H4  UNL     1       3.509 -11.831  14.443  1.00  0.00     0.245 HD
ENDBRANCH   6  48
TORSDOF 8
ENDMDL
MODEL 4
REMARK VINA RESULT: -7.922099105      7.164     11.963
REMARK  8 active torsions:
REMARK  status: ('A' for Active; 'I' for Inactive)
REMARK    1  A    between atoms: N2_4  and  N3_6 
REMARK       I    between atoms: N3_6  and  C1_8 
REMARK    2  A    between atoms: C1_8  and  C2_10 
REMARK    3  A    between atoms: C2_10  and  O2_11 
REMARK    4  A    between atoms: C2_10  and  C3_13 
REMARK    5  A    between atoms: N4_18  and  O4_19 
REMARK    6  A    between atoms: C14_29  and  C15_30 
REMARK    7  A    between atoms: C15_30  and  C16_31 
REMARK    8  A    between atoms: C28_47  and  O5_48 
ROOT
HETATM    1  C3  UNL     1       8.334  -5.124  15.688  1.00  0.00     0.202 C 
HETATM    2  O3  UNL     1       7.366  -5.617  16.606  1.00  0.00    -0.349 OA
HETATM    3  C4  UNL     1       6.141  -5.861  17.026  1.00  0.00     0.153 C 
HETATM    4  C5  UNL     1       4.715  -5.363  16.682  1.00  0.00     0.054 C 
HETATM    5  C6  UNL     1       3.934  -4.463  17.521  1.00  0.00     0.140 C 
HETATM    6  N4  UNL     1       3.130  -3.417  17.343  1.00  0.00    -0.247 N 
HETATM    7  C7  UNL     1       2.887  -2.246  16.656  1.00  0.00     0.119 C 
HETATM    8  C8  UNL     1       2.901  -1.727  15.346  1.00  0.00     0.003 C 
HETATM    9  C9  UNL     1       3.457  -2.107  14.064  1.00  0.00     0.076 A 
HETATM   10  C10 UNL     1       4.840  -1.991  13.281  1.00  0.00     0.091 A 
HETATM   11  C11 UNL     1       5.851  -2.554  13.507  1.00  0.00     0.049 A 
HETATM   12  C12 UNL     1       4.556  -2.584  13.679  1.00  0.00     0.105 A 
HETATM   13  N5  UNL     1       4.434  -1.006  12.678  1.00  0.00    -0.266 NA
HETATM   14  C13 UNL     1       5.605  -1.071  12.577  1.00  0.00     0.137 A 
HETATM   15  C14 UNL     1       6.929  -1.363  12.607  1.00  0.00     0.018 A 
HETATM   16  N6  UNL     1       7.126  -2.501  13.323  1.00  0.00    -0.330 N 
HETATM   17  C22 UNL     1       8.225  -3.226  13.820  1.00  0.00     0.108 C 
HETATM   18  C23 UNL     1       8.278  -3.715  15.190  1.00  0.00     0.014 C 
HETATM   19  C24 UNL     1       7.861  -2.811  16.100  1.00  0.00     0.056 C 
HETATM   20  N7  UNL     1       8.224  -1.830  17.055  1.00  0.00    -0.102 NA
HETATM   21  C25 UNL     1       6.487  -3.112  15.840  1.00  0.00     0.029 C 
HETATM   22  C26 UNL     1       5.897  -3.927  14.858  1.00  0.00     0.029 C 
HETATM   23  C27 UNL     1       4.649  -3.628  14.340  1.00  0.00     0.041 C 
HETATM   24  N8  UNL     1       3.714  -4.647  14.664  1.00  0.00    -0.338 N 
ATOM     25  H8  UNL     1       2.820  -4.648  14.173  1.00  0.00     0.168 HD
HETATM   26  C28 UNL     1       3.930  -5.599  15.566  1.00  0.00     0.154 C 
ENDROOT
BRANCH   1  27
HETATM   27  C2  UNL     1       9.598  -5.298  16.477  1.00  0.00     0.245 C 
BRANCH  27  28
HETATM   28  C1  UNL     1       9.503  -6.275  17.549  1.00  0.00     0.268 C 
HETATM   29  N3  UNL     1       9.253  -7.656  17.325  1.00  0.00    -0.254 N 
ATOM     30  H3  UNL     1       9.134  -7.982  16.365  1.00  0.00     0.191 HD
HETATM   31  O1  UNL     1       9.644  -5.905  18.737  1.00  0.00    -0.269 OA
BRANCH  29  32
HETATM   32  N2  UNL     1       9.164  -8.585  18.360  1.00  0.00    -0.247 N 
HETATM   33  N1  UNL     1       8.245  -8.455  19.223  1.00  0.00    -0.331 N 
ATOM     34  H12 UNL     1       7.590  -7.676  19.147  1.00  0.00     0.178 HD
ATOM     35  H11 UNL     1       8.179  -9.135  19.980  1.00  0.00     0.178 HD
ATOM     36  H2  UNL     1       9.826  -9.357  18.421  1.00  0.00     0.207 HD
ENDBRANCH  29  32
ENDBRANCH  27  28
BRANCH  27  37
HETATM   37  O2  UNL     1      10.041  -4.099  17.034  1.00  0.00    -0.383 OA
ATOM     38  H2  UNL     1      10.727  -3.756  16.473  1.00  0.00     0.210 HD
ENDBRANCH  27  37
ENDBRANCH   1  27
BRANCH  26  39
HETATM   39  O5  UNL     1       3.307  -6.739  15.224  1.00  0.00    -0.345 OA
ATOM     40  H5  UNL     1       3.207  -7.109  14.355  1.00  0.00     0.219 HD
ENDBRANCH  26  39
BRANCH  15  41
HETATM   41  C15 UNL     1       7.990  -0.604  11.989  1.00  0.00     0.093 C 
BRANCH  41  42
HETATM   42  C16 UNL     1       7.569   0.812  11.763  1.00  0.00    -0.053 A 
HETATM   43  C17 UNL     1       7.714   1.768  12.734  1.00  0.00     0.007 A 
HETATM   44  C18 UNL     1       7.311   3.045  12.419  1.00  0.00     0.001 A 
HETATM   45  C19 UNL     1       6.786   3.306  11.156  1.00  0.00     0.000 A 
HETATM   46  C20 UNL     1       6.644   2.338  10.187  1.00  0.00     0.001 A 
HETATM   47  C21 UNL     1       7.045   1.070  10.503  1.00  0.00     0.007 A 
ENDBRANCH  41  42
ENDBRANCH  15  41
BRANCH   6  48
HETATM   48  O4  UNL     1       2.077  -3.608  18.302  1.00  0.00    -0.284 OA
ATOM     49  H4  UNL     1       1.387  -4.039  17.813  1.00  0.00     0.245 HD
ENDBRANCH   6  48
TORSDOF 8
ENDMDL
MODEL 5
REMARK VINA RESULT: -7.817570311      2.460      6.004
REMARK  8 active torsions:
REMARK  status: ('A' for Active; 'I' for Inactive)
REMARK    1  A    between atoms: N2_4  and  N3_6 
REMARK       I    between atoms: N3_6  and  C1_8 
REMARK    2  A    between atoms: C1_8  and  C2_10 
REMARK    3  A    between atoms: C2_10  and  O2_11 
REMARK    4  A    between atoms: C2_10  and  C3_13 
REMARK    5  A    between atoms: N4_18  and  O4_19 
REMARK    6  A    between atoms: C14_29  and  C15_30 
REMARK    7  A    between atoms: C15_30  and  C16_31 
REMARK    8  A    between atoms: C28_47  and  O5_48 
ROOT
HETATM    1  C3  UNL     1       3.206   3.925   5.417  1.00  0.00     0.202 C 
HETATM    2  O3  UNL     1       4.171   4.002   4.375  1.00  0.00    -0.349 OA
HETATM    3  C4  UNL     1       5.364   3.823   3.844  1.00  0.00     0.153 C 
HETATM    4  C5  UNL     1       6.796   3.542   4.364  1.00  0.00     0.054 C 
HETATM    5  C6  UNL     1       7.868   4.528   4.392  1.00  0.00     0.140 C 
HETATM    6  N4  UNL     1       8.842   4.885   5.226  1.00  0.00    -0.247 N 
HETATM    7  C7  UNL     1       9.226   5.108   6.532  1.00  0.00     0.119 C 
HETATM    8  C8  UNL     1       9.128   4.527   7.812  1.00  0.00     0.003 C 
HETATM    9  C9  UNL     1       8.318   3.512   8.453  1.00  0.00     0.076 A 
HETATM   10  C10 UNL     1       6.891   3.390   9.152  1.00  0.00     0.091 A 
HETATM   11  C11 UNL     1       5.827   3.439   8.644  1.00  0.00     0.049 A 
HETATM   12  C12 UNL     1       7.097   3.208   8.434  1.00  0.00     0.105 A 
HETATM   13  N5  UNL     1       7.404   3.508  10.257  1.00  0.00    -0.266 NA
HETATM   14  C13 UNL     1       6.245   3.695  10.342  1.00  0.00     0.137 A 
HETATM   15  C14 UNL     1       4.909   3.863  10.182  1.00  0.00     0.018 A 
HETATM   16  N6  UNL     1       4.581   3.670   8.878  1.00  0.00    -0.330 N 
HETATM   17  C22 UNL     1       3.439   3.826   8.070  1.00  0.00     0.108 C 
HETATM   18  C23 UNL     1       3.488   4.487   6.774  1.00  0.00     0.014 C 
HETATM   19  C24 UNL     1       4.221   5.619   6.775  1.00  0.00     0.056 C 
HETATM   20  N7  UNL     1       4.225   7.033   6.841  1.00  0.00    -0.102 NA
HETATM   21  C25 UNL     1       5.443   4.884   6.663  1.00  0.00     0.029 C 
HETATM   22  C26 UNL     1       5.690   3.501   6.724  1.00  0.00     0.029 C 
HETATM   23  C27 UNL     1       6.882   3.012   7.230  1.00  0.00     0.041 C 
HETATM   24  N8  UNL     1       7.613   2.330   6.221  1.00  0.00    -0.338 N 
ATOM     25  H8  UNL     1       8.403   1.753   6.512  1.00  0.00     0.168 HD
HETATM   26  C28 UNL     1       7.335   2.396   4.923  1.00  0.00     0.154 C 
ENDROOT
BRANCH   1  27
HETATM   27  C2  UNL     1       2.067   4.694   4.814  1.00  0.00     0.245 C 
BRANCH  27  28
HETATM   28  C1  UNL     1       1.173   5.298   5.788  1.00  0.00     0.268 C 
HETATM   29  N3  UNL     1       1.135   6.695   6.049  1.00  0.00    -0.254 N 
ATOM     30  H3  UNL     1       1.764   7.307   5.529  1.00  0.00     0.191 HD
HETATM   31  O1  UNL     1       0.390   4.573   6.442  1.00  0.00    -0.269 OA
BRANCH  29  32
HETATM   32  N2  UNL     1       0.275   7.265   6.986  1.00  0.00    -0.247 N 
HETATM   33  N1  UNL     1       0.541   7.141   8.219  1.00  0.00    -0.331 N 
ATOM     34  H12 UNL     1       1.376   6.629   8.504  1.00  0.00     0.178 HD
ATOM     35  H11 UNL     1      -0.088   7.558   8.904  1.00  0.00     0.178 HD
ATOM     36  H2  UNL     1      -0.556   7.773   6.684  1.00  0.00     0.207 HD
ENDBRANCH  29  32
ENDBRANCH  27  28
BRANCH  27  37
HETATM   37  O2  UNL     1       1.294   3.909   3.960  1.00  0.00    -0.383 OA
ATOM     38  H2  UNL     1       1.849   3.214   3.625  1.00  0.00     0.210 HD
ENDBRANCH  27  37
ENDBRANCH   1  27
BRANCH  26  39
HETATM   39  O5  UNL     1       7.640   1.244   4.305  1.00  0.00    -0.345 OA
ATOM     40  H5  UNL     1       8.259   0.579   4.584  1.00  0.00     0.219 HD
ENDBRANCH  26  39
BRANCH  15  41
HETATM   41  C15 UNL     1       3.956   4.198  11.213  1.00  0.00     0.093 C 
BRANCH  41  42
HETATM   42  C16 UNL     1       2.995   3.075  11.435  1.00  0.00    -0.053 A 
HETATM   43  C17 UNL     1       3.415   1.847  11.874  1.00  0.00     0.007 A 
HETATM   44  C18 UNL     1       2.449   0.887  12.064  1.00  0.00     0.001 A 
HETATM   45  C19 UNL     1       1.115   1.197  11.808  1.00  0.00     0.000 A 
HETATM   46  C20 UNL     1       0.703   2.434  11.366  1.00  0.00     0.001 A 
HETATM   47  C21 UNL     1       1.666   3.387  11.179  1.00  0.00     0.007 A 
ENDBRANCH  41  42
ENDBRANCH  15  41
BRANCH   6  48
HETATM   48  O4  UNL     1       9.961   5.167   4.370  1.00  0.00    -0.284 OA
ATOM     49  H4  UNL     1      10.478   5.798   4.856  1.00  0.00     0.245 HD
ENDBRANCH   6  48
TORSDOF 8
ENDMDL
