MODEL 1
REMARK VINA RESULT: -7.403395237      0.000      0.000
REMARK  7 active torsions:
REMARK  status: ('A' for Active; 'I' for Inactive)
REMARK    1  A    between atoms: C2_2  and  C4_4 
REMARK    2  A    between atoms: C4_4  and  C5_5 
REMARK    3  A    between atoms: C6_8  and  O1_9 
REMARK    4  A    between atoms: C7_11  and  O2_12 
REMARK    5  A    between atoms: C9_18  and  C10_19 
REMARK    6  A    between atoms: C17_32  and  C18_33 
REMARK    7  A    between atoms: C18_33  and  C19_34 
ROOT
HETATM    1  C5  UNL     1       6.985  -1.618  15.161  1.00  0.00     0.176 C 
HETATM    2  N1  UNL     1       5.718  -1.003  15.438  1.00  0.00    -0.354 N 
ATOM      3  H1  UNL     1       5.742  -0.445  16.291  1.00  0.00     0.162 HD
HETATM    4  C6  UNL     1       4.471  -0.977  14.838  1.00  0.00     0.189 C 
HETATM    5  C7  UNL     1       3.315  -1.857  14.830  1.00  0.00     0.194 C 
HETATM    6  N2  UNL     1       2.690  -2.569  15.881  1.00  0.00    -0.302 N 
ATOM      7  H2  UNL     1       1.701  -2.360  16.013  1.00  0.00     0.171 HD
HETATM    8  C8  UNL     1       3.216  -3.516  16.769  1.00  0.00     0.246 C 
HETATM    9  O3  UNL     1       3.173  -3.312  18.003  1.00  0.00    -0.271 OA
HETATM   10  C9  UNL     1       3.864  -4.832  16.345  1.00  0.00     0.180 C 
HETATM   11  N3  UNL     1       4.853  -5.150  17.337  1.00  0.00    -0.346 N 
ATOM     12  H3  UNL     1       5.659  -4.527  17.302  1.00  0.00     0.163 HD
HETATM   13  C13 UNL     1       4.965  -6.108  18.333  1.00  0.00     0.240 C 
HETATM   14  O4  UNL     1       4.616  -5.730  19.522  1.00  0.00    -0.271 OA
HETATM   15  C14 UNL     1       5.417  -7.512  18.339  1.00  0.00     0.172 C 
HETATM   16  C15 UNL     1       4.395  -8.438  19.025  1.00  0.00     0.042 C 
HETATM   17  N4  UNL     1       6.625  -7.641  19.198  1.00  0.00    -0.346 N 
ATOM     18  H4  UNL     1       6.499  -7.882  20.181  1.00  0.00     0.163 HD
HETATM   19  C16 UNL     1       7.934  -7.447  18.716  1.00  0.00     0.241 C 
HETATM   20  O5  UNL     1       8.880  -7.248  19.577  1.00  0.00    -0.271 OA
HETATM   21  C17 UNL     1       8.402  -7.430  17.321  1.00  0.00     0.177 C 
HETATM   22  N5  UNL     1       9.210  -6.198  17.206  1.00  0.00    -0.346 N 
ATOM     23  H5  UNL     1      10.125  -6.221  17.657  1.00  0.00     0.163 HD
HETATM   24  C22 UNL     1       8.875  -5.007  16.558  1.00  0.00     0.246 C 
HETATM   25  O6  UNL     1       8.778  -3.981  17.329  1.00  0.00    -0.271 OA
HETATM   26  C23 UNL     1       8.620  -4.745  15.135  1.00  0.00     0.106 C 
HETATM   27  C24 UNL     1       9.843  -3.979  14.636  1.00  0.00     0.048 C 
HETATM   28  C25 UNL     1       8.762  -6.082  14.353  1.00  0.00     0.048 C 
HETATM   29  N6  UNL     1       7.366  -4.164  14.788  1.00  0.00    -0.342 N 
ATOM     30  H6  UNL     1       6.604  -4.842  14.807  1.00  0.00     0.163 HD
HETATM   31  C26 UNL     1       6.942  -2.904  14.432  1.00  0.00     0.241 C 
HETATM   32  O7  UNL     1       6.406  -2.803  13.255  1.00  0.00    -0.271 OA
ENDROOT
BRANCH   1  33
HETATM   33  C4  UNL     1       7.908  -0.640  14.451  1.00  0.00     0.038 C 
BRANCH  33  34
HETATM   34  C2  UNL     1       7.417   0.122  13.317  1.00  0.00    -0.020 C 
HETATM   35  C1  UNL     1       7.646   1.609  13.654  1.00  0.00     0.009 C 
HETATM   36  C3  UNL     1       7.901  -0.086  11.951  1.00  0.00     0.009 C 
ENDBRANCH  33  34
ENDBRANCH   1  33
BRANCH   4  37
HETATM   37  O1  UNL     1       4.251   0.094  14.091  1.00  0.00    -0.343 OA
ATOM     38  H1  UNL     1       3.357   0.412  14.121  1.00  0.00     0.219 HD
ENDBRANCH   4  37
BRANCH   5  39
HETATM   39  O2  UNL     1       2.726  -2.048  13.676  1.00  0.00    -0.343 OA
ATOM     40  H2  UNL     1       2.043  -2.708  13.647  1.00  0.00     0.219 HD
ENDBRANCH   5  39
BRANCH  10  41
HETATM   41  C10 UNL     1       2.828  -5.841  16.039  1.00  0.00     0.009 C 
HETATM   42  C11 UNL     1       3.366  -7.138  15.549  1.00  0.00     0.012 C 
HETATM   43  C12 UNL     1       1.768  -5.349  15.075  1.00  0.00     0.012 C 
ENDBRANCH  10  41
BRANCH  21  44
HETATM   44  C18 UNL     1       9.223  -8.627  16.992  1.00  0.00     0.038 C 
BRANCH  44  45
HETATM   45  C19 UNL     1       8.987  -9.913  17.663  1.00  0.00    -0.020 C 
HETATM   46  C20 UNL     1       7.787 -10.608  16.919  1.00  0.00     0.009 C 
HETATM   47  C21 UNL     1      10.089 -10.921  17.728  1.00  0.00     0.009 C 
ENDBRANCH  44  45
ENDBRANCH  21  44
TORSDOF 7
ENDMDL
MODEL 2
REMARK VINA RESULT: -6.670909585      7.192     12.749
REMARK  7 active torsions:
REMARK  status: ('A' for Active; 'I' for Inactive)
REMARK    1  A    between atoms: C2_2  and  C4_4 
REMARK    2  A    between atoms: C4_4  and  C5_5 
REMARK    3  A    between atoms: C6_8  and  O1_9 
REMARK    4  A    between atoms: C7_11  and  O2_12 
REMARK    5  A    between atoms: C9_18  and  C10_19 
REMARK    6  A    between atoms: C17_32  and  C18_33 
REMARK    7  A    between atoms: C18_33  and  C19_34 
ROOT
HETATM    1  C5  UNL     1       4.246   0.956  11.227  1.00  0.00     0.176 C 
HETATM    2  N1  UNL     1       2.819   0.875  11.099  1.00  0.00    -0.354 N 
ATOM      3  H1  UNL     1       2.527   0.026  10.615  1.00  0.00     0.162 HD
HETATM    4  C6  UNL     1       1.739   1.658  11.467  1.00  0.00     0.189 C 
HETATM    5  C7  UNL     1       1.077   2.825  10.909  1.00  0.00     0.194 C 
HETATM    6  N2  UNL     1       0.727   3.136   9.573  1.00  0.00    -0.302 N 
ATOM      7  H2  UNL     1      -0.264   3.322   9.421  1.00  0.00     0.171 HD
HETATM    8  C8  UNL     1       1.527   3.229   8.428  1.00  0.00     0.246 C 
HETATM    9  O3  UNL     1       1.293   2.501   7.437  1.00  0.00    -0.271 OA
HETATM   10  C9  UNL     1       2.711   4.181   8.275  1.00  0.00     0.180 C 
HETATM   11  N3  UNL     1       3.649   3.544   7.393  1.00  0.00    -0.346 N 
ATOM     12  H3  UNL     1       4.110   2.743   7.823  1.00  0.00     0.163 HD
HETATM   13  C13 UNL     1       4.073   3.766   6.092  1.00  0.00     0.240 C 
HETATM   14  O4  UNL     1       3.492   3.052   5.179  1.00  0.00    -0.271 OA
HETATM   15  C14 UNL     1       5.080   4.663   5.495  1.00  0.00     0.172 C 
HETATM   16  C15 UNL     1       4.497   5.479   4.326  1.00  0.00     0.042 C 
HETATM   17  N4  UNL     1       6.146   3.853   4.847  1.00  0.00    -0.346 N 
ATOM     18  H4  UNL     1       6.049   3.624   3.858  1.00  0.00     0.163 HD
HETATM   19  C16 UNL     1       7.282   3.387   5.537  1.00  0.00     0.241 C 
HETATM   20  O5  UNL     1       7.972   2.430   5.004  1.00  0.00    -0.271 OA
HETATM   21  C17 UNL     1       7.819   3.844   6.829  1.00  0.00     0.177 C 
HETATM   22  N5  UNL     1       8.028   2.608   7.611  1.00  0.00    -0.346 N 
ATOM     23  H5  UNL     1       8.821   2.031   7.330  1.00  0.00     0.163 HD
HETATM   24  C22 UNL     1       7.274   2.133   8.686  1.00  0.00     0.246 C 
HETATM   25  O6  UNL     1       6.679   1.010   8.475  1.00  0.00    -0.271 OA
HETATM   26  C23 UNL     1       7.058   2.713  10.019  1.00  0.00     0.106 C 
HETATM   27  C24 UNL     1       7.874   1.848  10.977  1.00  0.00     0.048 C 
HETATM   28  C25 UNL     1       7.828   4.062  10.101  1.00  0.00     0.048 C 
HETATM   29  N6  UNL     1       5.712   2.949  10.423  1.00  0.00    -0.342 N 
ATOM     30  H6  UNL     1       5.315   3.782   9.987  1.00  0.00     0.163 HD
HETATM   31  C26 UNL     1       4.823   2.318  11.261  1.00  0.00     0.241 C 
HETATM   32  O7  UNL     1       4.401   3.022  12.267  1.00  0.00    -0.271 OA
ENDROOT
BRANCH   1  33
HETATM   33  C4  UNL     1       4.720   0.153  12.428  1.00  0.00     0.038 C 
BRANCH  33  34
HETATM   34  C2  UNL     1       3.890  -0.915  12.956  1.00  0.00    -0.020 C 
HETATM   35  C1  UNL     1       4.690  -2.221  12.782  1.00  0.00     0.009 C 
HETATM   36  C3  UNL     1       3.368  -0.912  14.323  1.00  0.00     0.009 C 
ENDBRANCH  33  34
ENDBRANCH   1  33
BRANCH   4  37
HETATM   37  O1  UNL     1       1.149   1.275  12.589  1.00  0.00    -0.343 OA
ATOM     38  H1  UNL     1       0.490   0.602  12.471  1.00  0.00     0.219 HD
ENDBRANCH   4  37
BRANCH   5  39
HETATM   39  O2  UNL     1       0.731   3.766  11.750  1.00  0.00    -0.343 OA
ATOM     40  H2  UNL     1       1.187   4.596  11.676  1.00  0.00     0.219 HD
ENDBRANCH   5  39
BRANCH  10  41
HETATM   41  C10 UNL     1       2.238   5.539   7.933  1.00  0.00     0.009 C 
HETATM   42  C11 UNL     1       1.130   5.566   6.940  1.00  0.00     0.012 C 
HETATM   43  C12 UNL     1       3.342   6.466   7.468  1.00  0.00     0.012 C 
ENDBRANCH  10  41
BRANCH  21  44
HETATM   44  C18 UNL     1       9.099   4.587   6.671  1.00  0.00     0.038 C 
BRANCH  44  45
HETATM   45  C19 UNL     1       9.106   6.019   6.343  1.00  0.00    -0.020 C 
HETATM   46  C20 UNL     1       9.606   6.149   4.857  1.00  0.00     0.009 C 
HETATM   47  C21 UNL     1       7.835   6.801   6.436  1.00  0.00     0.009 C 
ENDBRANCH  44  45
ENDBRANCH  21  44
TORSDOF 7
ENDMDL
MODEL 3
REMARK VINA RESULT: -6.491147016      1.398      1.651
REMARK  7 active torsions:
REMARK  status: ('A' for Active; 'I' for Inactive)
REMARK    1  A    between atoms: C2_2  and  C4_4 
REMARK    2  A    between atoms: C4_4  and  C5_5 
REMARK    3  A    between atoms: C6_8  and  O1_9 
REMARK    4  A    between atoms: C7_11  and  O2_12 
REMARK    5  A    between atoms: C9_18  and  C10_19 
REMARK    6  A    between atoms: C17_32  and  C18_33 
REMARK    7  A    between atoms: C18_33  and  C19_34 
ROOT
HETATM    1  C5  UNL     1       6.781  -2.879  15.831  1.00  0.00     0.176 C 
HETATM    2  N1  UNL     1       5.446  -2.426  16.101  1.00  0.00    -0.354 N 
ATOM      3  H1  UNL     1       5.385  -1.925  16.987  1.00  0.00     0.162 HD
HETATM    4  C6  UNL     1       4.221  -2.497  15.462  1.00  0.00     0.189 C 
HETATM    5  C7  UNL     1       3.171  -3.497  15.360  1.00  0.00     0.194 C 
HETATM    6  N2  UNL     1       2.601  -4.339  16.343  1.00  0.00    -0.302 N 
ATOM      7  H2  UNL     1       1.591  -4.248  16.453  1.00  0.00     0.171 HD
HETATM    8  C8  UNL     1       3.204  -5.278  17.189  1.00  0.00     0.246 C 
HETATM    9  O3  UNL     1       3.105  -5.160  18.431  1.00  0.00    -0.271 OA
HETATM   10  C9  UNL     1       4.007  -6.485  16.708  1.00  0.00     0.180 C 
HETATM   11  N3  UNL     1       4.997  -6.757  17.713  1.00  0.00    -0.346 N 
ATOM     12  H3  UNL     1       5.729  -6.047  17.743  1.00  0.00     0.163 HD
HETATM   13  C13 UNL     1       5.188  -7.759  18.651  1.00  0.00     0.240 C 
HETATM   14  O4  UNL     1       4.766  -7.499  19.848  1.00  0.00    -0.271 OA
HETATM   15  C14 UNL     1       5.793  -9.102  18.587  1.00  0.00     0.172 C 
HETATM   16  C15 UNL     1       4.862 -10.176  19.179  1.00  0.00     0.042 C 
HETATM   17  N4  UNL     1       6.984  -9.154  19.477  1.00  0.00    -0.346 N 
ATOM     18  H4  UNL     1       6.858  -9.470  20.438  1.00  0.00     0.163 HD
HETATM   19  C16 UNL     1       8.276  -8.786  19.053  1.00  0.00     0.241 C 
HETATM   20  O5  UNL     1       9.169  -8.541  19.957  1.00  0.00    -0.271 OA
HETATM   21  C17 UNL     1       8.777  -8.628  17.679  1.00  0.00     0.177 C 
HETATM   22  N5  UNL     1       9.445  -7.311  17.668  1.00  0.00    -0.346 N 
ATOM     23  H5  UNL     1      10.345  -7.262  18.147  1.00  0.00     0.163 HD
HETATM   24  C22 UNL     1       8.998  -6.124  17.083  1.00  0.00     0.246 C 
HETATM   25  O6  UNL     1       8.766  -5.167  17.911  1.00  0.00    -0.271 OA
HETATM   26  C23 UNL     1       8.755  -5.800  15.670  1.00  0.00     0.106 C 
HETATM   27  C24 UNL     1       9.898  -4.874  15.262  1.00  0.00     0.048 C 
HETATM   28  C25 UNL     1       9.067  -7.060  14.813  1.00  0.00     0.048 C 
HETATM   29  N6  UNL     1       7.454  -5.339  15.316  1.00  0.00    -0.342 N 
ATOM     30  H6  UNL     1       6.772  -6.095  15.268  1.00  0.00     0.163 HD
HETATM   31  C26 UNL     1       6.902  -4.112  15.024  1.00  0.00     0.241 C 
HETATM   32  O7  UNL     1       6.391  -3.994  13.837  1.00  0.00    -0.271 OA
ENDROOT
BRANCH   1  33
HETATM   33  C4  UNL     1       7.609  -1.762  15.215  1.00  0.00     0.038 C 
BRANCH  33  34
HETATM   34  C2  UNL     1       7.100  -1.038  14.064  1.00  0.00    -0.020 C 
HETATM   35  C1  UNL     1       6.971   0.436  14.493  1.00  0.00     0.009 C 
HETATM   36  C3  UNL     1       7.769  -1.048  12.761  1.00  0.00     0.009 C 
ENDBRANCH  33  34
ENDBRANCH   1  33
BRANCH   4  37
HETATM   37  O1  UNL     1       3.904  -1.411  14.774  1.00  0.00    -0.343 OA
ATOM     38  H1  UNL     1       3.466  -1.587  13.950  1.00  0.00     0.219 HD
ENDBRANCH   4  37
BRANCH   5  39
HETATM   39  O2  UNL     1       2.639  -3.676  14.177  1.00  0.00    -0.343 OA
ATOM     40  H2  UNL     1       1.757  -3.346  14.049  1.00  0.00     0.219 HD
ENDBRANCH   5  39
BRANCH  10  41
HETATM   41  C10 UNL     1       3.098  -7.580  16.306  1.00  0.00     0.009 C 
HETATM   42  C11 UNL     1       2.184  -8.040  17.385  1.00  0.00     0.012 C 
HETATM   43  C12 UNL     1       3.815  -8.779  15.720  1.00  0.00     0.012 C 
ENDBRANCH  10  41
BRANCH  21  44
HETATM   44  C18 UNL     1       9.735  -9.705  17.306  1.00  0.00     0.038 C 
BRANCH  44  45
HETATM   45  C19 UNL     1       9.593 -11.064  17.846  1.00  0.00    -0.020 C 
HETATM   46  C20 UNL     1       8.605 -11.837  16.895  1.00  0.00     0.009 C 
HETATM   47  C21 UNL     1      10.805 -11.926  17.995  1.00  0.00     0.009 C 
ENDBRANCH  44  45
ENDBRANCH  21  44
TORSDOF 7
ENDMDL
MODEL 4
REMARK VINA RESULT: -6.460511645      2.242      8.505
REMARK  7 active torsions:
REMARK  status: ('A' for Active; 'I' for Inactive)
REMARK    1  A    between atoms: C2_2  and  C4_4 
REMARK    2  A    between atoms: C4_4  and  C5_5 
REMARK    3  A    between atoms: C6_8  and  O1_9 
REMARK    4  A    between atoms: C7_11  and  O2_12 
REMARK    5  A    between atoms: C9_18  and  C10_19 
REMARK    6  A    between atoms: C17_32  and  C18_33 
REMARK    7  A    between atoms: C18_33  and  C19_34 
ROOT
HETATM    1  C5  UNL     1       5.159  -9.356  18.843  1.00  0.00     0.176 C 
HETATM    2  N1  UNL     1       6.470  -9.689  19.323  1.00  0.00    -0.354 N 
ATOM      3  H1  UNL     1       6.607  -9.399  20.291  1.00  0.00     0.162 HD
HETATM    4  C6  UNL     1       7.595 -10.303  18.803  1.00  0.00     0.189 C 
HETATM    5  C7  UNL     1       8.709  -9.876  17.974  1.00  0.00     0.194 C 
HETATM    6  N2  UNL     1       9.488  -8.695  18.011  1.00  0.00    -0.302 N 
ATOM      7  H2  UNL     1      10.490  -8.844  18.126  1.00  0.00     0.171 HD
HETATM    8  C8  UNL     1       9.098  -7.353  17.915  1.00  0.00     0.246 C 
HETATM    9  O3  UNL     1       9.358  -6.555  18.844  1.00  0.00    -0.271 OA
HETATM   10  C9  UNL     1       8.353  -6.752  16.725  1.00  0.00     0.180 C 
HETATM   11  N3  UNL     1       7.542  -5.682  17.237  1.00  0.00    -0.346 N 
ATOM     12  H3  UNL     1       6.758  -6.017  17.796  1.00  0.00     0.163 HD
HETATM   13  C13 UNL     1       7.578  -4.299  17.146  1.00  0.00     0.240 C 
HETATM   14  O4  UNL     1       8.137  -3.683  18.141  1.00  0.00    -0.271 OA
HETATM   15  C14 UNL     1       7.098  -3.339  16.135  1.00  0.00     0.172 C 
HETATM   16  C15 UNL     1       8.199  -2.342  15.727  1.00  0.00     0.042 C 
HETATM   17  N4  UNL     1       6.053  -2.467  16.735  1.00  0.00    -0.346 N 
ATOM     18  H4  UNL     1       6.341  -1.583  17.154  1.00  0.00     0.163 HD
HETATM   19  C16 UNL     1       4.686  -2.806  16.750  1.00  0.00     0.241 C 
HETATM   20  O5  UNL     1       3.908  -2.173  17.568  1.00  0.00    -0.271 OA
HETATM   21  C17 UNL     1       3.986  -3.818  15.944  1.00  0.00     0.177 C 
HETATM   22  N5  UNL     1       3.202  -4.604  16.919  1.00  0.00    -0.346 N 
ATOM     23  H5  UNL     1       2.378  -4.143  17.305  1.00  0.00     0.163 HD
HETATM   24  C22 UNL     1       3.451  -5.899  17.377  1.00  0.00     0.246 C 
HETATM   25  O6  UNL     1       3.706  -5.988  18.636  1.00  0.00    -0.271 OA
HETATM   26  C23 UNL     1       3.464  -7.175  16.647  1.00  0.00     0.106 C 
HETATM   27  C24 UNL     1       2.193  -7.903  17.077  1.00  0.00     0.048 C 
HETATM   28  C25 UNL     1       3.155  -6.889  15.149  1.00  0.00     0.048 C 
HETATM   29  N6  UNL     1       4.654  -7.956  16.709  1.00  0.00    -0.342 N 
ATOM     30  H6  UNL     1       5.390  -7.593  16.104  1.00  0.00     0.163 HD
HETATM   31  C26 UNL     1       5.042  -9.084  17.394  1.00  0.00     0.241 C 
HETATM   32  O7  UNL     1       5.370 -10.103  16.659  1.00  0.00    -0.271 OA
ENDROOT
BRANCH   1  33
HETATM   33  C4  UNL     1       4.153 -10.416  19.263  1.00  0.00     0.038 C 
BRANCH  33  34
HETATM   34  C2  UNL     1       2.853 -10.473  18.618  1.00  0.00    -0.020 C 
HETATM   35  C1  UNL     1       2.818 -11.788  17.816  1.00  0.00     0.009 C 
HETATM   36  C3  UNL     1       1.594 -10.391  19.361  1.00  0.00     0.009 C 
ENDBRANCH  33  34
ENDBRANCH   1  33
BRANCH   4  37
HETATM   37  O1  UNL     1       7.710 -11.583  19.122  1.00  0.00    -0.343 OA
ATOM     38  H1  UNL     1       8.554 -11.818  19.490  1.00  0.00     0.219 HD
ENDBRANCH   4  37
BRANCH   5  39
HETATM   39  O2  UNL     1       9.086 -10.695  17.024  1.00  0.00    -0.343 OA
ATOM     40  H2  UNL     1       8.727 -11.574  17.048  1.00  0.00     0.219 HD
ENDBRANCH   5  39
BRANCH  10  41
HETATM   41  C10 UNL     1       9.296  -6.453  15.626  1.00  0.00     0.009 C 
HETATM   42  C11 UNL     1      10.373  -5.495  15.991  1.00  0.00     0.012 C 
HETATM   43  C12 UNL     1       8.617  -5.976  14.358  1.00  0.00     0.012 C 
ENDBRANCH  10  41
BRANCH  21  44
HETATM   44  C18 UNL     1       3.090  -3.201  14.927  1.00  0.00     0.038 C 
BRANCH  44  45
HETATM   45  C19 UNL     1       3.632  -2.652  13.676  1.00  0.00    -0.020 C 
HETATM   46  C20 UNL     1       3.651  -1.086  13.831  1.00  0.00     0.009 C 
HETATM   47  C21 UNL     1       5.001  -3.053  13.229  1.00  0.00     0.009 C 
ENDBRANCH  44  45
ENDBRANCH  21  44
TORSDOF 7
ENDMDL
MODEL 5
REMARK VINA RESULT: -6.156773400      8.366     14.065
REMARK  7 active torsions:
REMARK  status: ('A' for Active; 'I' for Inactive)
REMARK    1  A    between atoms: C2_2  and  C4_4 
REMARK    2  A    between atoms: C4_4  and  C5_5 
REMARK    3  A    between atoms: C6_8  and  O1_9 
REMARK    4  A    between atoms: C7_11  and  O2_12 
REMARK    5  A    between atoms: C9_18  and  C10_19 
REMARK    6  A    between atoms: C17_32  and  C18_33 
REMARK    7  A    between atoms: C18_33  and  C19_34 
ROOT
HETATM    1  C5  UNL     1       6.264   2.371   9.958  1.00  0.00     0.176 C 
HETATM    2  N1  UNL     1       4.950   2.005  10.404  1.00  0.00    -0.354 N 
ATOM      3  H1  UNL     1       4.702   1.057  10.122  1.00  0.00     0.162 HD
HETATM    4  C6  UNL     1       3.936   2.614  11.121  1.00  0.00     0.189 C 
HETATM    5  C7  UNL     1       2.867   3.545  10.802  1.00  0.00     0.194 C 
HETATM    6  N2  UNL     1       1.986   3.595   9.696  1.00  0.00    -0.302 N 
ATOM      7  H2  UNL     1       0.995   3.567   9.935  1.00  0.00     0.171 HD
HETATM    8  C8  UNL     1       2.260   3.675   8.325  1.00  0.00     0.246 C 
HETATM    9  O3  UNL     1       1.848   2.784   7.548  1.00  0.00    -0.271 OA
HETATM   10  C9  UNL     1       3.053   4.802   7.667  1.00  0.00     0.180 C 
HETATM   11  N3  UNL     1       3.715   4.236   6.525  1.00  0.00    -0.346 N 
ATOM     12  H3  UNL     1       4.473   3.605   6.784  1.00  0.00     0.163 HD
HETATM   13  C13 UNL     1       3.564   4.350   5.151  1.00  0.00     0.240 C 
HETATM   14  O4  UNL     1       2.865   3.418   4.582  1.00  0.00    -0.271 OA
HETATM   15  C14 UNL     1       4.045   5.328   4.158  1.00  0.00     0.172 C 
HETATM   16  C15 UNL     1       2.901   5.847   3.268  1.00  0.00     0.042 C 
HETATM   17  N4  UNL     1       4.950   4.651   3.191  1.00  0.00    -0.346 N 
ATOM     18  H4  UNL     1       4.548   4.271   2.334  1.00  0.00     0.163 HD
HETATM   19  C16 UNL     1       6.335   4.509   3.405  1.00  0.00     0.241 C 
HETATM   20  O5  UNL     1       6.976   3.634   2.699  1.00  0.00    -0.271 OA
HETATM   21  C17 UNL     1       7.192   5.235   4.355  1.00  0.00     0.177 C 
HETATM   22  N5  UNL     1       7.952   4.183   5.060  1.00  0.00    -0.346 N 
ATOM     23  H5  UNL     1       8.694   3.732   4.524  1.00  0.00     0.163 HD
HETATM   24  C22 UNL     1       7.781   3.729   6.370  1.00  0.00     0.246 C 
HETATM   25  O6  UNL     1       7.423   2.497   6.473  1.00  0.00    -0.271 OA
HETATM   26  C23 UNL     1       7.948   4.439   7.646  1.00  0.00     0.106 C 
HETATM   27  C24 UNL     1       9.234   3.887   8.254  1.00  0.00     0.048 C 
HETATM   28  C25 UNL     1       8.363   5.908   7.343  1.00  0.00     0.048 C 
HETATM   29  N6  UNL     1       6.831   4.472   8.531  1.00  0.00    -0.342 N 
ATOM     30  H6  UNL     1       6.123   5.145   8.240  1.00  0.00     0.163 HD
HETATM   31  C26 UNL     1       6.486   3.808   9.686  1.00  0.00     0.241 C 
HETATM   32  O7  UNL     1       6.318   4.554  10.734  1.00  0.00    -0.271 OA
ENDROOT
BRANCH   1  33
HETATM   33  C4  UNL     1       7.319   1.848  10.919  1.00  0.00     0.038 C 
BRANCH  33  34
HETATM   34  C2  UNL     1       7.503   0.417  11.081  1.00  0.00    -0.020 C 
HETATM   35  C1  UNL     1       9.017   0.153  10.976  1.00  0.00     0.009 C 
HETATM   36  C3  UNL     1       7.020  -0.318  12.252  1.00  0.00     0.009 C 
ENDBRANCH  33  34
ENDBRANCH   1  33
BRANCH   4  37
HETATM   37  O1  UNL     1       3.907   2.288  12.404  1.00  0.00    -0.343 OA
ATOM     38  H1  UNL     1       3.042   2.316  12.793  1.00  0.00     0.219 HD
ENDBRANCH   4  37
BRANCH   5  39
HETATM   39  O2  UNL     1       2.652   4.513  11.657  1.00  0.00    -0.343 OA
ATOM     40  H2  UNL     1       1.979   4.365  12.312  1.00  0.00     0.219 HD
ENDBRANCH   5  39
BRANCH  10  41
HETATM   41  C10 UNL     1       2.190   5.985   7.462  1.00  0.00     0.009 C 
HETATM   42  C11 UNL     1       0.939   5.703   6.708  1.00  0.00     0.012 C 
HETATM   43  C12 UNL     1       2.906   7.153   6.813  1.00  0.00     0.012 C 
ENDBRANCH  10  41
BRANCH  21  44
HETATM   44  C18 UNL     1       8.117   6.176   3.666  1.00  0.00     0.038 C 
BRANCH  44  45
HETATM   45  C19 UNL     1       9.544   6.225   4.014  1.00  0.00    -0.020 C 
HETATM   46  C20 UNL     1      10.344   5.751   2.745  1.00  0.00     0.009 C 
HETATM   47  C21 UNL     1      10.152   7.523   4.442  1.00  0.00     0.009 C 
ENDBRANCH  44  45
ENDBRANCH  21  44
TORSDOF 7
ENDMDL
