MODEL 1
REMARK VINA RESULT: -4.719346514      0.000      0.000
REMARK  3 active torsions:
REMARK  status: ('A' for Active; 'I' for Inactive)
REMARK    1  A    between atoms: C1_2  and  N1_3 
REMARK    2  A    between atoms: N1_3  and  C2_5 
REMARK    3  A    between atoms: C2_5  and  C3_6 
ROOT
HETATM    1  C3  UNL     1      22.896  35.055  28.005  1.00  0.00     0.229 C 
HETATM    2  C4  UNL     1      21.970  34.559  29.126  1.00  0.00     0.266 C 
HETATM    3  N2  UNL     1      21.708  35.614  30.068  1.00  0.00    -0.071 N 
ATOM      4  H21 UNL     1      22.463  35.742  30.741  1.00  0.00     0.277 HD
ATOM      5  H22 UNL     1      20.972  35.378  30.734  1.00  0.00     0.277 HD
HETATM    6  C5  UNL     1      21.419  36.815  29.311  1.00  0.00     0.259 C 
HETATM    7  C6  UNL     1      22.621  37.307  28.548  1.00  0.00     0.260 C 
HETATM    8  N3  UNL     1      23.599  36.237  28.503  1.00  0.00    -0.066 N 
ATOM      9  H31 UNL     1      24.431  36.472  27.961  1.00  0.00     0.277 HD
ATOM     10  H32 UNL     1      24.070  36.081  29.395  1.00  0.00     0.277 HD
ENDROOT
BRANCH   1  11
HETATM   11  C2  UNL     1      23.823  33.932  27.698  1.00  0.00     0.156 C 
BRANCH  11  12
HETATM   12  N1  UNL     1      24.913  34.242  26.819  1.00  0.00    -0.366 N 
ATOM     13  H1  UNL     1      25.870  34.170  27.162  1.00  0.00     0.161 HD
BRANCH  12  14
HETATM   14  C1  UNL     1      24.684  34.641  25.493  1.00  0.00     0.348 C 
HETATM   15  O1  UNL     1      25.641  34.996  24.787  1.00  0.00    -0.284 OA
ENDBRANCH  12  14
ENDBRANCH  11  12
ENDBRANCH   1  11
TORSDOF 3
ENDMDL
MODEL 2
REMARK VINA RESULT: -4.522964374      2.493      2.704
REMARK  3 active torsions:
REMARK  status: ('A' for Active; 'I' for Inactive)
REMARK    1  A    between atoms: C1_2  and  N1_3 
REMARK    2  A    between atoms: N1_3  and  C2_5 
REMARK    3  A    between atoms: C2_5  and  C3_6 
ROOT
HETATM    1  C3  UNL     1      22.773  35.031  28.179  1.00  0.00     0.229 C 
HETATM    2  C4  UNL     1      21.768  34.842  29.326  1.00  0.00     0.266 C 
HETATM    3  N2  UNL     1      21.625  36.061  30.077  1.00  0.00    -0.071 N 
ATOM      4  H21 UNL     1      22.376  36.203  30.751  1.00  0.00     0.277 HD
ATOM      5  H22 UNL     1      20.851  36.029  30.742  1.00  0.00     0.277 HD
HETATM    6  C5  UNL     1      21.506  37.148  29.128  1.00  0.00     0.259 C 
HETATM    7  C6  UNL     1      22.776  37.358  28.345  1.00  0.00     0.260 C 
HETATM    8  N3  UNL     1      23.611  36.183  28.511  1.00  0.00    -0.066 N 
ATOM      9  H31 UNL     1      24.476  36.223  27.973  1.00  0.00     0.277 HD
ATOM     10  H32 UNL     1      24.040  36.119  29.434  1.00  0.00     0.277 HD
ENDROOT
BRANCH   1  11
HETATM   11  C2  UNL     1      23.555  33.768  28.093  1.00  0.00     0.156 C 
BRANCH  11  12
HETATM   12  N1  UNL     1      22.790  32.566  27.943  1.00  0.00    -0.366 N 
ATOM     13  H1  UNL     1      21.794  32.628  27.732  1.00  0.00     0.161 HD
BRANCH  12  14
HETATM   14  C1  UNL     1      23.387  31.304  28.082  1.00  0.00     0.348 C 
HETATM   15  O1  UNL     1      23.094  30.591  29.056  1.00  0.00    -0.284 OA
ENDBRANCH  12  14
ENDBRANCH  11  12
ENDBRANCH   1  11
TORSDOF 3
ENDMDL
MODEL 3
REMARK VINA RESULT: -4.490705460      2.153      2.618
REMARK  3 active torsions:
REMARK  status: ('A' for Active; 'I' for Inactive)
REMARK    1  A    between atoms: C1_2  and  N1_3 
REMARK    2  A    between atoms: N1_3  and  C2_5 
REMARK    3  A    between atoms: C2_5  and  C3_6 
ROOT
HETATM    1  C3  UNL     1      22.282  37.373  28.176  1.00  0.00     0.229 C 
HETATM    2  C4  UNL     1      21.298  36.633  29.096  1.00  0.00     0.266 C 
HETATM    3  N2  UNL     1      21.310  37.208  30.414  1.00  0.00    -0.071 N 
ATOM      4  H21 UNL     1      22.092  36.884  30.982  1.00  0.00     0.277 HD
ATOM      5  H22 UNL     1      20.558  36.857  31.008  1.00  0.00     0.277 HD
HETATM    6  C5  UNL     1      21.282  38.649  30.264  1.00  0.00     0.259 C 
HETATM    7  C6  UNL     1      22.543  39.176  29.632  1.00  0.00     0.260 C 
HETATM    8  N3  UNL     1      23.250  38.063  29.029  1.00  0.00    -0.066 N 
ATOM      9  H31 UNL     1      24.098  38.341  28.536  1.00  0.00     0.277 HD
ATOM     10  H32 UNL     1      23.697  37.450  29.712  1.00  0.00     0.277 HD
ENDROOT
BRANCH   1  11
HETATM   11  C2  UNL     1      22.920  36.335  27.322  1.00  0.00     0.156 C 
BRANCH  11  12
HETATM   12  N1  UNL     1      23.855  35.469  27.979  1.00  0.00    -0.366 N 
ATOM     13  H1  UNL     1      24.624  35.875  28.513  1.00  0.00     0.161 HD
BRANCH  12  14
HETATM   14  C1  UNL     1      23.730  34.074  27.901  1.00  0.00     0.348 C 
HETATM   15  O1  UNL     1      23.171  33.457  28.823  1.00  0.00    -0.284 OA
ENDBRANCH  12  14
ENDBRANCH  11  12
ENDBRANCH   1  11
TORSDOF 3
ENDMDL
MODEL 4
REMARK VINA RESULT: -4.470869085      3.036      4.524
REMARK  3 active torsions:
REMARK  status: ('A' for Active; 'I' for Inactive)
REMARK    1  A    between atoms: C1_2  and  N1_3 
REMARK    2  A    between atoms: N1_3  and  C2_5 
REMARK    3  A    between atoms: C2_5  and  C3_6 
ROOT
HETATM    1  C3  UNL     1      24.036  32.628  26.846  1.00  0.00     0.229 C 
HETATM    2  C4  UNL     1      22.665  31.955  27.018  1.00  0.00     0.266 C 
HETATM    3  N2  UNL     1      22.692  30.615  26.496  1.00  0.00    -0.071 N 
ATOM      4  H21 UNL     1      22.587  30.582  25.482  1.00  0.00     0.277 HD
ATOM      5  H22 UNL     1      21.857  30.079  26.735  1.00  0.00     0.277 HD
HETATM    6  C5  UNL     1      23.915  29.990  26.956  1.00  0.00     0.259 C 
HETATM    7  C6  UNL     1      25.139  30.631  26.357  1.00  0.00     0.260 C 
HETATM    8  N3  UNL     1      24.752  31.909  25.791  1.00  0.00    -0.066 N 
ATOM      9  H31 UNL     1      25.535  32.434  25.404  1.00  0.00     0.277 HD
ATOM     10  H32 UNL     1      24.217  31.823  24.926  1.00  0.00     0.277 HD
ENDROOT
BRANCH   1  11
HETATM   11  C2  UNL     1      23.766  34.045  26.481  1.00  0.00     0.156 C 
BRANCH  11  12
HETATM   12  N1  UNL     1      24.911  34.827  26.113  1.00  0.00    -0.366 N 
ATOM     13  H1  UNL     1      25.569  35.121  26.834  1.00  0.00     0.161 HD
BRANCH  12  14
HETATM   14  C1  UNL     1      25.140  35.193  24.779  1.00  0.00     0.348 C 
HETATM   15  O1  UNL     1      25.787  34.435  24.038  1.00  0.00    -0.284 OA
ENDBRANCH  12  14
ENDBRANCH  11  12
ENDBRANCH   1  11
TORSDOF 3
ENDMDL
MODEL 5
REMARK VINA RESULT: -4.425304924      3.899      5.131
REMARK  3 active torsions:
REMARK  status: ('A' for Active; 'I' for Inactive)
REMARK    1  A    between atoms: C1_2  and  N1_3 
REMARK    2  A    between atoms: N1_3  and  C2_5 
REMARK    3  A    between atoms: C2_5  and  C3_6 
ROOT
HETATM    1  C3  UNL     1      24.028  32.344  25.642  1.00  0.00     0.229 C 
HETATM    2  C4  UNL     1      24.325  33.512  26.596  1.00  0.00     0.266 C 
HETATM    3  N2  UNL     1      25.175  34.481  25.958  1.00  0.00    -0.071 N 
ATOM      4  H21 UNL     1      26.159  34.215  25.969  1.00  0.00     0.277 HD
ATOM      5  H22 UNL     1      25.263  35.345  26.493  1.00  0.00     0.277 HD
HETATM    6  C5  UNL     1      24.665  34.697  24.619  1.00  0.00     0.259 C 
HETATM    7  C6  UNL     1      24.808  33.472  23.755  1.00  0.00     0.260 C 
HETATM    8  N3  UNL     1      25.072  32.336  24.616  1.00  0.00    -0.066 N 
ATOM      9  H31 UNL     1      25.136  31.452  24.112  1.00  0.00     0.277 HD
ATOM     10  H32 UNL     1      26.017  32.331  25.001  1.00  0.00     0.277 HD
ENDROOT
BRANCH   1  11
HETATM   11  C2  UNL     1      24.041  31.109  26.472  1.00  0.00     0.156 C 
BRANCH  11  12
HETATM   12  N1  UNL     1      22.793  30.750  27.080  1.00  0.00    -0.366 N 
ATOM     13  H1  UNL     1      22.000  30.502  26.488  1.00  0.00     0.161 HD
BRANCH  12  14
HETATM   14  C1  UNL     1      22.644  30.734  28.475  1.00  0.00     0.348 C 
HETATM   15  O1  UNL     1      23.606  31.044  29.197  1.00  0.00    -0.284 OA
ENDBRANCH  12  14
ENDBRANCH  11  12
ENDBRANCH   1  11
TORSDOF 3
ENDMDL
