MODEL 1
REMARK VINA RESULT: -7.404253141      0.000      0.000
REMARK  5 active torsions:
REMARK  status: ('A' for Active; 'I' for Inactive)
REMARK    1  A    between atoms: S1_2  and  N1_5 
REMARK    2  A    between atoms: N1_5  and  C2_7 
REMARK    3  A    between atoms: C2_7  and  N2_9 
REMARK    4  A    between atoms: N2_9  and  N3_11 
REMARK       I    between atoms: N3_11  and  C3_13 
REMARK       I    between atoms: C3_13  and  N4_15 
REMARK    5  A    between atoms: N4_15  and  N5_17 
REMARK       I    between atoms: N5_17  and  C4_19 
ROOT
HETATM    1  N3  UNL     1      20.752  90.317  73.515  1.00  0.00    -0.248 N 
ATOM      2  H3  UNL     1      20.519  90.357  72.523  1.00  0.00     0.192 HD
HETATM    3  C3  UNL     1      22.077  90.598  73.808  1.00  0.00     0.353 C 
HETATM    4  O3  UNL     1      22.651  90.630  74.892  1.00  0.00    -0.244 OA
HETATM    5  N4  UNL     1      22.945  90.914  72.664  1.00  0.00    -0.247 N 
ATOM      6  H4  UNL     1      22.556  90.899  71.721  1.00  0.00     0.192 HD
ENDROOT
BRANCH   1   7
HETATM    7  N2  UNL     1      19.709  90.000  74.326  1.00  0.00    -0.272 N 
ATOM      8  H2  UNL     1      19.217  90.830  74.657  1.00  0.00     0.189 HD
BRANCH   7   9
HETATM    9  C2  UNL     1      19.149  88.848  74.813  1.00  0.00     0.200 C 
HETATM   10  S2  UNL     1      19.849  88.078  76.102  1.00  0.00    -0.039 SA
BRANCH   9  11
HETATM   11  N1  UNL     1      17.994  88.228  74.339  1.00  0.00    -0.260 N 
ATOM     12  H1  UNL     1      17.523  87.579  74.970  1.00  0.00     0.181 HD
BRANCH  11  13
HETATM   13  S1  UNL     1      17.301  88.455  72.811  1.00  0.00     0.228 S 
HETATM   14  C1  UNL     1      18.462  88.046  71.501  1.00  0.00     0.186 C 
HETATM   15  O1  UNL     1      17.017  89.979  72.724  1.00  0.00    -0.206 OA
HETATM   16  O2  UNL     1      15.990  87.803  72.592  1.00  0.00    -0.206 OA
ENDBRANCH  11  13
ENDBRANCH   9  11
ENDBRANCH   7   9
ENDBRANCH   1   7
BRANCH   5  17
HETATM   17  N5  UNL     1      24.272  91.231  72.841  1.00  0.00    -0.250 N 
HETATM   18  C4  UNL     1      25.307  90.354  72.438  1.00  0.00     0.347 C 
HETATM   19  N6  UNL     1      26.671  90.750  72.649  1.00  0.00    -0.038 NA
HETATM   20  O4  UNL     1      25.073  89.247  71.907  1.00  0.00    -0.249 OA
ATOM     21  H5  UNL     1      24.517  92.122  73.273  1.00  0.00     0.191 HD
ENDBRANCH   5  17
TORSDOF 5
ENDMDL
MODEL 2
REMARK VINA RESULT: -7.089540317      2.946      6.407
REMARK  5 active torsions:
REMARK  status: ('A' for Active; 'I' for Inactive)
REMARK    1  A    between atoms: S1_2  and  N1_5 
REMARK    2  A    between atoms: N1_5  and  C2_7 
REMARK    3  A    between atoms: C2_7  and  N2_9 
REMARK    4  A    between atoms: N2_9  and  N3_11 
REMARK       I    between atoms: N3_11  and  C3_13 
REMARK       I    between atoms: C3_13  and  N4_15 
REMARK    5  A    between atoms: N4_15  and  N5_17 
REMARK       I    between atoms: N5_17  and  C4_19 
ROOT
HETATM    1  N3  UNL     1      20.865  88.510  72.025  1.00  0.00    -0.248 N 
ATOM      2  H3  UNL     1      20.769  88.956  71.112  1.00  0.00     0.192 HD
HETATM    3  C3  UNL     1      19.671  88.083  72.584  1.00  0.00     0.353 C 
HETATM    4  O3  UNL     1      19.463  87.521  73.655  1.00  0.00    -0.244 OA
HETATM    5  N4  UNL     1      18.456  88.322  71.791  1.00  0.00    -0.247 N 
ATOM      6  H4  UNL     1      18.531  88.796  70.891  1.00  0.00     0.192 HD
ENDROOT
BRANCH   1   7
HETATM    7  N2  UNL     1      22.141  88.436  72.485  1.00  0.00    -0.272 N 
ATOM      8  H2  UNL     1      22.524  87.495  72.396  1.00  0.00     0.189 HD
BRANCH   7   9
HETATM    9  C2  UNL     1      23.045  89.304  73.039  1.00  0.00     0.200 C 
HETATM   10  S2  UNL     1      24.546  89.470  72.358  1.00  0.00    -0.039 SA
BRANCH   9  11
HETATM   11  N1  UNL     1      22.833  90.115  74.153  1.00  0.00    -0.260 N 
ATOM     12  H1  UNL     1      23.370  90.981  74.205  1.00  0.00     0.181 HD
BRANCH  11  13
HETATM   13  S1  UNL     1      21.765  89.794  75.427  1.00  0.00     0.228 S 
HETATM   14  C1  UNL     1      21.791  88.054  75.878  1.00  0.00     0.186 C 
HETATM   15  O1  UNL     1      20.355  90.106  74.854  1.00  0.00    -0.206 OA
HETATM   16  O2  UNL     1      21.900  90.662  76.618  1.00  0.00    -0.206 OA
ENDBRANCH  11  13
ENDBRANCH   9  11
ENDBRANCH   7   9
ENDBRANCH   1   7
BRANCH   5  17
HETATM   17  N5  UNL     1      17.219  87.918  72.239  1.00  0.00    -0.250 N 
HETATM   18  C4  UNL     1      16.318  88.820  72.853  1.00  0.00     0.347 C 
HETATM   19  N6  UNL     1      15.042  88.331  73.293  1.00  0.00    -0.038 NA
HETATM   20  O4  UNL     1      16.597  90.026  73.024  1.00  0.00    -0.249 OA
ATOM     21  H5  UNL     1      16.945  86.942  72.126  1.00  0.00     0.191 HD
ENDBRANCH   5  17
TORSDOF 5
ENDMDL
MODEL 3
REMARK VINA RESULT: -6.862336817      4.457      5.748
REMARK  5 active torsions:
REMARK  status: ('A' for Active; 'I' for Inactive)
REMARK    1  A    between atoms: S1_2  and  N1_5 
REMARK    2  A    between atoms: N1_5  and  C2_7 
REMARK    3  A    between atoms: C2_7  and  N2_9 
REMARK    4  A    between atoms: N2_9  and  N3_11 
REMARK       I    between atoms: N3_11  and  C3_13 
REMARK       I    between atoms: C3_13  and  N4_15 
REMARK    5  A    between atoms: N4_15  and  N5_17 
REMARK       I    between atoms: N5_17  and  C4_19 
ROOT
HETATM    1  N3  UNL     1      20.006  87.541  76.411  1.00  0.00    -0.248 N 
ATOM      2  H3  UNL     1      19.645  86.693  75.975  1.00  0.00     0.192 HD
HETATM    3  C3  UNL     1      20.927  87.320  77.423  1.00  0.00     0.353 C 
HETATM    4  O3  UNL     1      21.530  88.126  78.125  1.00  0.00    -0.244 OA
HETATM    5  N4  UNL     1      21.254  85.916  77.714  1.00  0.00    -0.247 N 
ATOM      6  H4  UNL     1      20.790  85.175  77.187  1.00  0.00     0.192 HD
ENDROOT
BRANCH   1   7
HETATM    7  N2  UNL     1      19.503  88.696  75.902  1.00  0.00    -0.272 N 
ATOM      8  H2  UNL     1      18.675  89.007  76.410  1.00  0.00     0.189 HD
BRANCH   7   9
HETATM    9  C2  UNL     1      19.825  89.550  74.880  1.00  0.00     0.200 C 
HETATM   10  S2  UNL     1      21.323  90.257  74.844  1.00  0.00    -0.039 SA
BRANCH   9  11
HETATM   11  N1  UNL     1      19.007  89.896  73.806  1.00  0.00    -0.260 N 
ATOM     12  H1  UNL     1      19.172  90.804  73.371  1.00  0.00     0.181 HD
BRANCH  11  13
HETATM   13  S1  UNL     1      17.763  88.947  73.159  1.00  0.00     0.228 S 
HETATM   14  C1  UNL     1      18.361  87.919  71.811  1.00  0.00     0.186 C 
HETATM   15  O1  UNL     1      16.756  89.964  72.558  1.00  0.00    -0.206 OA
HETATM   16  O2  UNL     1      16.980  88.155  74.134  1.00  0.00    -0.206 OA
ENDBRANCH  11  13
ENDBRANCH   9  11
ENDBRANCH   7   9
ENDBRANCH   1   7
BRANCH   5  17
HETATM   17  N5  UNL     1      22.172  85.581  78.681  1.00  0.00    -0.250 N 
HETATM   18  C4  UNL     1      21.773  85.177  79.978  1.00  0.00     0.347 C 
HETATM   19  N6  UNL     1      22.786  84.838  80.938  1.00  0.00    -0.038 NA
HETATM   20  O4  UNL     1      20.572  85.108  80.314  1.00  0.00    -0.249 OA
ATOM     21  H5  UNL     1      23.166  85.625  78.458  1.00  0.00     0.191 HD
ENDBRANCH   5  17
TORSDOF 5
ENDMDL
MODEL 4
REMARK VINA RESULT: -6.860654129      2.539      3.264
REMARK  5 active torsions:
REMARK  status: ('A' for Active; 'I' for Inactive)
REMARK    1  A    between atoms: S1_2  and  N1_5 
REMARK    2  A    between atoms: N1_5  and  C2_7 
REMARK    3  A    between atoms: C2_7  and  N2_9 
REMARK    4  A    between atoms: N2_9  and  N3_11 
REMARK       I    between atoms: N3_11  and  C3_13 
REMARK       I    between atoms: C3_13  and  N4_15 
REMARK    5  A    between atoms: N4_15  and  N5_17 
REMARK       I    between atoms: N5_17  and  C4_19 
ROOT
HETATM    1  N3  UNL     1      20.288  88.599  72.130  1.00  0.00    -0.248 N 
ATOM      2  H3  UNL     1      19.987  89.259  71.414  1.00  0.00     0.192 HD
HETATM    3  C3  UNL     1      21.654  88.591  72.368  1.00  0.00     0.353 C 
HETATM    4  O3  UNL     1      22.309  87.918  73.158  1.00  0.00    -0.244 OA
HETATM    5  N4  UNL     1      22.461  89.527  71.571  1.00  0.00    -0.247 N 
ATOM      6  H4  UNL     1      22.002  90.119  70.879  1.00  0.00     0.192 HD
ENDROOT
BRANCH   1   7
HETATM    7  N2  UNL     1      19.283  87.877  72.690  1.00  0.00    -0.272 N 
ATOM      8  H2  UNL     1      19.354  86.885  72.461  1.00  0.00     0.189 HD
BRANCH   7   9
HETATM    9  C2  UNL     1      18.198  88.140  73.485  1.00  0.00     0.200 C 
HETATM   10  S2  UNL     1      16.789  88.674  72.796  1.00  0.00    -0.039 SA
BRANCH   9  11
HETATM   11  N1  UNL     1      18.134  87.988  74.869  1.00  0.00    -0.260 N 
ATOM     12  H1  UNL     1      17.208  87.860  75.279  1.00  0.00     0.181 HD
BRANCH  11  13
HETATM   13  S1  UNL     1      19.452  87.997  75.932  1.00  0.00     0.228 S 
HETATM   14  C1  UNL     1      20.426  89.497  75.750  1.00  0.00     0.186 C 
HETATM   15  O1  UNL     1      20.339  86.806  75.477  1.00  0.00    -0.206 OA
HETATM   16  O2  UNL     1      19.138  87.726  77.353  1.00  0.00    -0.206 OA
ENDBRANCH  11  13
ENDBRANCH   9  11
ENDBRANCH   7   9
ENDBRANCH   1   7
BRANCH   5  17
HETATM   17  N5  UNL     1      23.823  89.621  71.741  1.00  0.00    -0.250 N 
HETATM   18  C4  UNL     1      24.400  90.565  72.623  1.00  0.00     0.347 C 
HETATM   19  N6  UNL     1      25.829  90.605  72.754  1.00  0.00    -0.038 NA
HETATM   20  O4  UNL     1      23.708  91.365  73.288  1.00  0.00    -0.249 OA
ATOM     21  H5  UNL     1      24.432  88.992  71.217  1.00  0.00     0.191 HD
ENDBRANCH   5  17
TORSDOF 5
ENDMDL
MODEL 5
REMARK VINA RESULT: -6.812707659      2.249      2.966
REMARK  5 active torsions:
REMARK  status: ('A' for Active; 'I' for Inactive)
REMARK    1  A    between atoms: S1_2  and  N1_5 
REMARK    2  A    between atoms: N1_5  and  C2_7 
REMARK    3  A    between atoms: C2_7  and  N2_9 
REMARK    4  A    between atoms: N2_9  and  N3_11 
REMARK       I    between atoms: N3_11  and  C3_13 
REMARK       I    between atoms: C3_13  and  N4_15 
REMARK    5  A    between atoms: N4_15  and  N5_17 
REMARK       I    between atoms: N5_17  and  C4_19 
ROOT
HETATM    1  N3  UNL     1      20.800  88.485  72.123  1.00  0.00    -0.248 N 
ATOM      2  H3  UNL     1      21.195  87.750  71.537  1.00  0.00     0.192 HD
HETATM    3  C3  UNL     1      21.726  89.396  72.605  1.00  0.00     0.353 C 
HETATM    4  O3  UNL     1      21.561  90.377  73.323  1.00  0.00    -0.244 OA
HETATM    5  N4  UNL     1      23.124  89.182  72.202  1.00  0.00    -0.247 N 
ATOM      6  H4  UNL     1      23.358  88.383  71.614  1.00  0.00     0.192 HD
ENDROOT
BRANCH   1   7
HETATM    7  N2  UNL     1      19.455  88.404  72.299  1.00  0.00    -0.272 N 
ATOM      8  H2  UNL     1      19.006  87.870  71.555  1.00  0.00     0.189 HD
BRANCH   7   9
HETATM    9  C2  UNL     1      18.549  88.857  73.220  1.00  0.00     0.200 C 
HETATM   10  S2  UNL     1      16.963  89.051  72.783  1.00  0.00    -0.039 SA
BRANCH   9  11
HETATM   11  N1  UNL     1      18.815  89.173  74.552  1.00  0.00    -0.260 N 
ATOM     12  H1  UNL     1      18.560  90.110  74.866  1.00  0.00     0.181 HD
BRANCH  11  13
HETATM   13  S1  UNL     1      19.522  88.144  75.695  1.00  0.00     0.228 S 
HETATM   14  C1  UNL     1      21.108  88.781  76.254  1.00  0.00     0.186 C 
HETATM   15  O1  UNL     1      19.795  86.822  74.927  1.00  0.00    -0.206 OA
HETATM   16  O2  UNL     1      18.663  87.759  76.837  1.00  0.00    -0.206 OA
ENDBRANCH  11  13
ENDBRANCH   9  11
ENDBRANCH   7   9
ENDBRANCH   1   7
BRANCH   5  17
HETATM   17  N5  UNL     1      24.123  90.040  72.603  1.00  0.00    -0.250 N 
HETATM   18  C4  UNL     1      25.455  89.895  72.147  1.00  0.00     0.347 C 
HETATM   19  N6  UNL     1      26.446  90.829  72.603  1.00  0.00    -0.038 NA
HETATM   20  O4  UNL     1      25.796  88.984  71.364  1.00  0.00    -0.249 OA
ATOM     21  H5  UNL     1      23.896  90.799  73.245  1.00  0.00     0.191 HD
ENDBRANCH   5  17
TORSDOF 5
ENDMDL
