MODEL 1
REMARK VINA RESULT: -7.902002015      0.000      0.000
REMARK  4 active torsions:
REMARK  status: ('A' for Active; 'I' for Inactive)
REMARK    1  A    between atoms: C2_2  and  N1_3 
REMARK    2  A    between atoms: C2_2  and  C4_12 
REMARK       I    between atoms: N1_3  and  C3_5 
REMARK       I    between atoms: C3_5  and  N2_7 
REMARK    3  A    between atoms: N2_7  and  N3_9 
REMARK       I    between atoms: C4_12  and  N4_14 
REMARK    4  A    between atoms: N4_14  and  N5_16 
REMARK       I    between atoms: N5_16  and  C5_18 
REMARK       I    between atoms: C5_18  and  N6_20 
ROOT
HETATM    1  C4  UNL     1      19.179  87.952  75.094  1.00  0.00     0.258 C 
HETATM    2  O2  UNL     1      18.058  87.555  75.461  1.00  0.00    -0.269 OA
HETATM    3  N4  UNL     1      20.296  87.787  75.947  1.00  0.00    -0.264 N 
ATOM      4  H4  UNL     1      21.212  88.112  75.640  1.00  0.00     0.190 HD
ENDROOT
BRANCH   3   5
HETATM    5  N5  UNL     1      20.171  87.191  77.194  1.00  0.00    -0.249 N 
HETATM    6  C5  UNL     1      21.080  87.524  78.227  1.00  0.00     0.337 C 
HETATM    7  O3  UNL     1      21.982  88.372  77.957  1.00  0.00    -0.245 OA
HETATM    8  N6  UNL     1      21.002  86.945  79.525  1.00  0.00    -0.330 N 
HETATM    9  C6  UNL     1      19.951  85.968  79.760  1.00  0.00     0.155 C 
HETATM   10  C9  UNL     1      21.944  87.354  80.511  1.00  0.00     0.155 C 
HETATM   11  C7  UNL     1      19.951  85.597  81.251  1.00  0.00     0.252 C 
HETATM   12  N7  UNL     1      20.027  86.895  81.940  1.00  0.00    -0.072 N 
HETATM   13  C8  UNL     1      21.429  87.271  81.920  1.00  0.00     0.252 C 
ATOM     14  H72 UNL     1      19.409  87.603  81.544  1.00  0.00     0.277 HD
ATOM     15  H71 UNL     1      19.620  86.886  82.874  1.00  0.00     0.277 HD
ATOM     16  H5  UNL     1      19.426  86.515  77.367  1.00  0.00     0.192 HD
ENDBRANCH   3   5
BRANCH   1  17
HETATM   17  C2  UNL     1      19.355  88.600  73.764  1.00  0.00     0.176 C 
HETATM   18  C1  UNL     1      18.051  88.583  72.995  1.00  0.00     0.042 C 
BRANCH  17  19
HETATM   19  N1  UNL     1      19.865  89.943  73.889  1.00  0.00    -0.329 N 
HETATM   20  C3  UNL     1      21.154  90.264  73.409  1.00  0.00     0.335 C 
HETATM   21  O1  UNL     1      21.877  89.388  72.867  1.00  0.00    -0.246 OA
HETATM   22  N2  UNL     1      21.644  91.575  73.535  1.00  0.00    -0.258 N 
ATOM     23  H2  UNL     1      21.071  92.297  73.972  1.00  0.00     0.191 HD
ATOM     24  H1  UNL     1      19.292  90.665  74.327  1.00  0.00     0.165 HD
BRANCH  22  25
HETATM   25  N3  UNL     1      22.916  91.884  73.059  1.00  0.00    -0.341 N 
ATOM     26  H32 UNL     1      23.375  91.241  72.414  1.00  0.00     0.177 HD
ATOM     27  H31 UNL     1      23.371  92.746  73.359  1.00  0.00     0.177 HD
ENDBRANCH  22  25
ENDBRANCH  17  19
ENDBRANCH   1  17
TORSDOF 4
ENDMDL
MODEL 2
REMARK VINA RESULT: -7.889889957      1.336      1.371
REMARK  4 active torsions:
REMARK  status: ('A' for Active; 'I' for Inactive)
REMARK    1  A    between atoms: C2_2  and  N1_3 
REMARK    2  A    between atoms: C2_2  and  C4_12 
REMARK       I    between atoms: N1_3  and  C3_5 
REMARK       I    between atoms: C3_5  and  N2_7 
REMARK    3  A    between atoms: N2_7  and  N3_9 
REMARK       I    between atoms: C4_12  and  N4_14 
REMARK    4  A    between atoms: N4_14  and  N5_16 
REMARK       I    between atoms: N5_16  and  C5_18 
REMARK       I    between atoms: C5_18  and  N6_20 
ROOT
HETATM    1  C4  UNL     1      18.809  87.668  74.819  1.00  0.00     0.258 C 
HETATM    2  O2  UNL     1      17.750  87.595  75.469  1.00  0.00    -0.269 OA
HETATM    3  N4  UNL     1      20.045  87.420  75.464  1.00  0.00    -0.264 N 
ATOM      4  H4  UNL     1      20.910  87.479  74.925  1.00  0.00     0.190 HD
ENDROOT
BRANCH   3   5
HETATM    5  N5  UNL     1      20.106  87.099  76.812  1.00  0.00    -0.249 N 
HETATM    6  C5  UNL     1      21.350  87.132  77.488  1.00  0.00     0.337 C 
HETATM    7  O3  UNL     1      22.370  87.464  76.813  1.00  0.00    -0.245 OA
HETATM    8  N6  UNL     1      21.473  86.812  78.868  1.00  0.00    -0.330 N 
HETATM    9  C6  UNL     1      20.265  86.425  79.578  1.00  0.00     0.155 C 
HETATM   10  C9  UNL     1      22.760  86.892  79.474  1.00  0.00     0.155 C 
HETATM   11  C7  UNL     1      20.597  86.281  81.071  1.00  0.00     0.252 C 
HETATM   12  N7  UNL     1      21.371  87.493  81.381  1.00  0.00    -0.072 N 
HETATM   13  C8  UNL     1      22.727  87.219  80.940  1.00  0.00     0.252 C 
ATOM     14  H72 UNL     1      20.976  88.344  80.980  1.00  0.00     0.277 HD
ATOM     15  H71 UNL     1      21.309  87.779  82.358  1.00  0.00     0.277 HD
ATOM     16  H5  UNL     1      19.257  86.841  77.316  1.00  0.00     0.192 HD
ENDBRANCH   3   5
BRANCH   1  17
HETATM   17  C2  UNL     1      18.788  88.013  73.371  1.00  0.00     0.176 C 
HETATM   18  C1  UNL     1      17.393  88.422  72.949  1.00  0.00     0.042 C 
BRANCH  17  19
HETATM   19  N1  UNL     1      19.747  89.042  73.054  1.00  0.00    -0.329 N 
HETATM   20  C3  UNL     1      21.050  88.697  72.634  1.00  0.00     0.335 C 
HETATM   21  O1  UNL     1      21.397  87.491  72.530  1.00  0.00    -0.246 OA
HETATM   22  N2  UNL     1      21.979  89.706  72.327  1.00  0.00    -0.258 N 
ATOM     23  H2  UNL     1      21.715  90.688  72.406  1.00  0.00     0.191 HD
ATOM     24  H1  UNL     1      19.482  90.025  73.133  1.00  0.00     0.165 HD
BRANCH  22  25
HETATM   25  N3  UNL     1      23.263  89.358  71.914  1.00  0.00    -0.341 N 
ATOM     26  H32 UNL     1      23.399  88.982  70.976  1.00  0.00     0.177 HD
ATOM     27  H31 UNL     1      24.050  89.483  72.551  1.00  0.00     0.177 HD
ENDBRANCH  22  25
ENDBRANCH  17  19
ENDBRANCH   1  17
TORSDOF 4
ENDMDL
MODEL 3
REMARK VINA RESULT: -7.384223818      1.379      1.424
REMARK  4 active torsions:
REMARK  status: ('A' for Active; 'I' for Inactive)
REMARK    1  A    between atoms: C2_2  and  N1_3 
REMARK    2  A    between atoms: C2_2  and  C4_12 
REMARK       I    between atoms: N1_3  and  C3_5 
REMARK       I    between atoms: C3_5  and  N2_7 
REMARK    3  A    between atoms: N2_7  and  N3_9 
REMARK       I    between atoms: C4_12  and  N4_14 
REMARK    4  A    between atoms: N4_14  and  N5_16 
REMARK       I    between atoms: N5_16  and  C5_18 
REMARK       I    between atoms: C5_18  and  N6_20 
ROOT
HETATM    1  C4  UNL     1      19.761  87.604  75.258  1.00  0.00     0.258 C 
HETATM    2  O2  UNL     1      18.603  87.777  75.679  1.00  0.00    -0.269 OA
HETATM    3  N4  UNL     1      20.808  87.340  76.174  1.00  0.00    -0.264 N 
ATOM      4  H4  UNL     1      21.755  87.197  75.822  1.00  0.00     0.190 HD
ENDROOT
BRANCH   3   5
HETATM    5  N5  UNL     1      20.574  87.273  77.540  1.00  0.00    -0.249 N 
HETATM    6  C5  UNL     1      21.124  86.209  78.296  1.00  0.00     0.337 C 
HETATM    7  O3  UNL     1      21.822  85.354  77.674  1.00  0.00    -0.245 OA
HETATM    8  N6  UNL     1      20.917  86.087  79.698  1.00  0.00    -0.330 N 
HETATM    9  C6  UNL     1      20.092  87.095  80.344  1.00  0.00     0.155 C 
HETATM   10  C9  UNL     1      21.525  84.998  80.385  1.00  0.00     0.155 C 
HETATM   11  C7  UNL     1      20.134  86.864  81.862  1.00  0.00     0.252 C 
HETATM   12  N7  UNL     1      21.563  86.669  82.153  1.00  0.00    -0.072 N 
HETATM   13  C8  UNL     1      21.848  85.285  81.823  1.00  0.00     0.252 C 
ATOM     14  H72 UNL     1      22.170  87.336  81.678  1.00  0.00     0.277 HD
ATOM     15  H71 UNL     1      21.824  86.924  83.105  1.00  0.00     0.277 HD
ATOM     16  H5  UNL     1      20.007  87.987  77.998  1.00  0.00     0.192 HD
ENDBRANCH   3   5
BRANCH   1  17
HETATM   17  C2  UNL     1      20.054  87.672  73.800  1.00  0.00     0.176 C 
HETATM   18  C1  UNL     1      18.932  87.038  73.008  1.00  0.00     0.042 C 
BRANCH  17  19
HETATM   19  N1  UNL     1      20.293  89.027  73.367  1.00  0.00    -0.329 N 
HETATM   20  C3  UNL     1      21.581  89.595  73.478  1.00  0.00     0.335 C 
HETATM   21  O1  UNL     1      22.540  88.933  73.955  1.00  0.00    -0.246 OA
HETATM   22  N2  UNL     1      21.805  90.916  73.054  1.00  0.00    -0.258 N 
ATOM     23  H2  UNL     1      21.039  91.467  72.665  1.00  0.00     0.191 HD
ATOM     24  H1  UNL     1      19.527  89.579  72.979  1.00  0.00     0.165 HD
BRANCH  22  25
HETATM   25  N3  UNL     1      23.079  91.469  73.166  1.00  0.00    -0.341 N 
ATOM     26  H32 UNL     1      23.715  91.112  73.878  1.00  0.00     0.177 HD
ATOM     27  H31 UNL     1      23.359  92.222  72.537  1.00  0.00     0.177 HD
ENDBRANCH  22  25
ENDBRANCH  17  19
ENDBRANCH   1  17
TORSDOF 4
ENDMDL
MODEL 4
REMARK VINA RESULT: -7.372505712      1.998      3.256
REMARK  4 active torsions:
REMARK  status: ('A' for Active; 'I' for Inactive)
REMARK    1  A    between atoms: C2_2  and  N1_3 
REMARK    2  A    between atoms: C2_2  and  C4_12 
REMARK       I    between atoms: N1_3  and  C3_5 
REMARK       I    between atoms: C3_5  and  N2_7 
REMARK    3  A    between atoms: N2_7  and  N3_9 
REMARK       I    between atoms: C4_12  and  N4_14 
REMARK    4  A    between atoms: N4_14  and  N5_16 
REMARK       I    between atoms: N5_16  and  C5_18 
REMARK       I    between atoms: C5_18  and  N6_20 
ROOT
HETATM    1  C4  UNL     1      21.575  89.792  75.552  1.00  0.00     0.258 C 
HETATM    2  O2  UNL     1      21.711  90.528  76.546  1.00  0.00    -0.269 OA
HETATM    3  N4  UNL     1      21.712  88.390  75.692  1.00  0.00    -0.264 N 
ATOM      4  H4  UNL     1      21.597  87.792  74.873  1.00  0.00     0.190 HD
ENDROOT
BRANCH   3   5
HETATM    5  N5  UNL     1      22.000  87.811  76.920  1.00  0.00    -0.249 N 
HETATM    6  C5  UNL     1      20.948  87.314  77.727  1.00  0.00     0.337 C 
HETATM    7  O3  UNL     1      19.768  87.422  77.276  1.00  0.00    -0.245 OA
HETATM    8  N6  UNL     1      21.182  86.713  78.995  1.00  0.00    -0.330 N 
HETATM    9  C6  UNL     1      22.558  86.636  79.457  1.00  0.00     0.155 C 
HETATM   10  C9  UNL     1      20.067  86.220  79.731  1.00  0.00     0.155 C 
HETATM   11  C7  UNL     1      22.595  85.817  80.756  1.00  0.00     0.252 C 
HETATM   12  N7  UNL     1      21.769  84.637  80.455  1.00  0.00    -0.072 N 
HETATM   13  C8  UNL     1      20.392  85.064  80.633  1.00  0.00     0.252 C 
ATOM     14  H72 UNL     1      21.955  84.231  79.538  1.00  0.00     0.277 HD
ATOM     15  H71 UNL     1      22.015  83.815  81.005  1.00  0.00     0.277 HD
ATOM     16  H5  UNL     1      22.966  87.743  77.240  1.00  0.00     0.192 HD
ENDBRANCH   3   5
BRANCH   1  17
HETATM   17  C2  UNL     1      21.270  90.374  74.215  1.00  0.00     0.176 C 
HETATM   18  C1  UNL     1      22.488  91.079  73.659  1.00  0.00     0.042 C 
BRANCH  17  19
HETATM   19  N1  UNL     1      20.785  89.374  73.297  1.00  0.00    -0.329 N 
HETATM   20  C3  UNL     1      19.401  89.111  73.195  1.00  0.00     0.335 C 
HETATM   21  O1  UNL     1      18.570  89.740  73.902  1.00  0.00    -0.246 OA
HETATM   22  N2  UNL     1      18.936  88.134  72.297  1.00  0.00    -0.258 N 
ATOM     23  H2  UNL     1      19.596  87.615  71.718  1.00  0.00     0.191 HD
ATOM     24  H1  UNL     1      21.445  88.854  72.717  1.00  0.00     0.165 HD
BRANCH  22  25
HETATM   25  N3  UNL     1      17.570  87.880  72.203  1.00  0.00    -0.341 N 
ATOM     26  H32 UNL     1      16.909  88.615  72.450  1.00  0.00     0.177 HD
ATOM     27  H31 UNL     1      17.248  86.964  71.888  1.00  0.00     0.177 HD
ENDBRANCH  22  25
ENDBRANCH  17  19
ENDBRANCH   1  17
TORSDOF 4
ENDMDL
MODEL 5
REMARK VINA RESULT: -7.178533393      2.220      3.089
REMARK  4 active torsions:
REMARK  status: ('A' for Active; 'I' for Inactive)
REMARK    1  A    between atoms: C2_2  and  N1_3 
REMARK    2  A    between atoms: C2_2  and  C4_12 
REMARK       I    between atoms: N1_3  and  C3_5 
REMARK       I    between atoms: C3_5  and  N2_7 
REMARK    3  A    between atoms: N2_7  and  N3_9 
REMARK       I    between atoms: C4_12  and  N4_14 
REMARK    4  A    between atoms: N4_14  and  N5_16 
REMARK       I    between atoms: N5_16  and  C5_18 
REMARK       I    between atoms: C5_18  and  N6_20 
ROOT
HETATM    1  C4  UNL     1      20.931  88.509  75.860  1.00  0.00     0.258 C 
HETATM    2  O2  UNL     1      21.387  89.407  76.591  1.00  0.00    -0.269 OA
HETATM    3  N4  UNL     1      20.329  87.368  76.442  1.00  0.00    -0.264 N 
ATOM      4  H4  UNL     1      19.954  86.637  75.837  1.00  0.00     0.190 HD
ENDROOT
BRANCH   3   5
HETATM    5  N5  UNL     1      20.239  87.222  77.819  1.00  0.00    -0.249 N 
HETATM    6  C5  UNL     1      21.030  86.249  78.477  1.00  0.00     0.337 C 
HETATM    7  O3  UNL     1      21.802  85.545  77.759  1.00  0.00    -0.245 OA
HETATM    8  N6  UNL     1      20.979  86.053  79.885  1.00  0.00    -0.330 N 
HETATM    9  C6  UNL     1      20.059  86.884  80.644  1.00  0.00     0.155 C 
HETATM   10  C9  UNL     1      21.825  85.066  80.467  1.00  0.00     0.155 C 
HETATM   11  C7  UNL     1      20.281  86.620  82.141  1.00  0.00     0.252 C 
HETATM   12  N7  UNL     1      21.743  86.668  82.298  1.00  0.00    -0.072 N 
HETATM   13  C8  UNL     1      22.228  85.364  81.883  1.00  0.00     0.252 C 
ATOM     14  H72 UNL     1      22.181  87.443  81.800  1.00  0.00     0.277 HD
ATOM     15  H71 UNL     1      22.046  86.937  83.233  1.00  0.00     0.277 HD
ATOM     16  H5  UNL     1      19.605  87.814  78.356  1.00  0.00     0.192 HD
ENDBRANCH   3   5
BRANCH   1  17
HETATM   17  C2  UNL     1      21.011  88.626  74.377  1.00  0.00     0.176 C 
HETATM   18  C1  UNL     1      22.394  88.246  73.895  1.00  0.00     0.042 C 
BRANCH  17  19
HETATM   19  N1  UNL     1      19.998  87.834  73.725  1.00  0.00    -0.329 N 
HETATM   20  C3  UNL     1      18.762  88.413  73.365  1.00  0.00     0.335 C 
HETATM   21  O1  UNL     1      18.522  89.625  73.607  1.00  0.00    -0.246 OA
HETATM   22  N2  UNL     1      17.780  87.634  72.729  1.00  0.00    -0.258 N 
ATOM     23  H2  UNL     1      17.958  86.650  72.526  1.00  0.00     0.191 HD
ATOM     24  H1  UNL     1      20.176  86.850  73.521  1.00  0.00     0.165 HD
BRANCH  22  25
HETATM   25  N3  UNL     1      16.562  88.213  72.377  1.00  0.00    -0.341 N 
ATOM     26  H32 UNL     1      16.491  88.724  71.498  1.00  0.00     0.177 HD
ATOM     27  H31 UNL     1      15.760  88.118  73.000  1.00  0.00     0.177 HD
ENDBRANCH  22  25
ENDBRANCH  17  19
ENDBRANCH   1  17
TORSDOF 4
ENDMDL
