MODEL 1
REMARK VINA RESULT: -8.358528000      0.000      0.000
REMARK  7 active torsions:
REMARK  status: ('A' for Active; 'I' for Inactive)
REMARK    1  A    between atoms: C2_2  and  C3_3 
REMARK    2  A    between atoms: C7_7  and  C8_8 
REMARK       I    between atoms: C8_8  and  N1_10 
REMARK    3  A    between atoms: N1_10  and  C9_12 
REMARK    4  A    between atoms: C9_12  and  C10_13 
REMARK    5  A    between atoms: C9_12  and  C14_17 
REMARK    6  A    between atoms: C10_13  and  C11_14 
REMARK       I    between atoms: C14_17  and  N2_19 
REMARK    7  A    between atoms: N2_19  and  C15_21 
ROOT
HETATM    1  C3  UNL     1      15.994   6.414  21.095  1.00  0.00     0.032 C 
HETATM    2  C4  UNL     1      15.027   6.260  22.210  1.00  0.00     0.035 C 
HETATM    3  C5  UNL     1      13.634   5.888  21.821  1.00  0.00     0.087 C 
HETATM    4  C6  UNL     1      13.201   4.467  22.092  1.00  0.00     0.060 C 
HETATM    5  C7  UNL     1      12.478   4.622  20.772  1.00  0.00     0.178 C 
HETATM    6  N3  UNL     1      13.459   5.638  20.425  1.00  0.00    -0.371 N 
HETATM    7  C19 UNL     1      14.204   6.384  19.440  1.00  0.00     0.105 C 
HETATM    8  C20 UNL     1      15.420   6.745  19.786  1.00  0.00     0.042 C 
HETATM    9  C21 UNL     1      16.157   7.499  18.782  1.00  0.00     0.097 C 
HETATM   10  N4  UNL     1      16.728   8.114  17.984  1.00  0.00    -0.192 NA
ENDROOT
BRANCH   1  11
HETATM   11  C2  UNL     1      16.867   5.178  21.064  1.00  0.00     0.006 C 
HETATM   12  C1  UNL     1      16.698   4.287  22.249  1.00  0.00     0.006 C 
ENDBRANCH   1  11
BRANCH   5  13
HETATM   13  C8  UNL     1      11.117   5.160  20.996  1.00  0.00     0.241 C 
HETATM   14  O1  UNL     1      10.839   6.348  20.716  1.00  0.00    -0.271 OA
HETATM   15  N1  UNL     1      10.119   4.330  21.532  1.00  0.00    -0.346 N 
ATOM     16  H1  UNL     1      10.363   3.366  21.755  1.00  0.00     0.163 HD
BRANCH  15  17
HETATM   17  C9  UNL     1       8.760   4.770  21.786  1.00  0.00     0.177 C 
BRANCH  17  18
HETATM   18  C10 UNL     1       7.896   4.502  20.572  1.00  0.00     0.038 C 
BRANCH  18  19
HETATM   19  C11 UNL     1       6.831   5.531  20.359  1.00  0.00    -0.020 C 
HETATM   20  C12 UNL     1       7.010   6.750  21.213  1.00  0.00     0.009 C 
HETATM   21  C13 UNL     1       5.508   4.892  20.760  1.00  0.00     0.009 C 
ENDBRANCH  18  19
ENDBRANCH  17  18
BRANCH  17  22
HETATM   22  C14 UNL     1       8.157   3.997  22.912  1.00  0.00     0.241 C 
HETATM   23  O2  UNL     1       8.356   2.746  22.985  1.00  0.00    -0.271 OA
HETATM   24  N2  UNL     1       7.366   4.598  23.912  1.00  0.00    -0.351 N 
ATOM     25  H2  UNL     1       7.205   5.603  23.854  1.00  0.00     0.163 HD
BRANCH  24  26
HETATM   26  C15 UNL     1       6.772   3.883  25.006  1.00  0.00     0.022 C 
HETATM   27  C16 UNL     1       6.151   4.852  25.992  1.00  0.00     0.037 C 
HETATM   28  C17 UNL     1       5.651   2.965  24.500  1.00  0.00     0.037 C 
HETATM   29  C18 UNL     1       7.778   2.990  25.687  1.00  0.00     0.037 C 
ENDBRANCH  24  26
ENDBRANCH  17  22
ENDBRANCH  15  17
ENDBRANCH   5  13
TORSDOF 7
ENDMDL
MODEL 2
REMARK VINA RESULT: -7.995251129      2.263      8.309
REMARK  7 active torsions:
REMARK  status: ('A' for Active; 'I' for Inactive)
REMARK    1  A    between atoms: C2_2  and  C3_3 
REMARK    2  A    between atoms: C7_7  and  C8_8 
REMARK       I    between atoms: C8_8  and  N1_10 
REMARK    3  A    between atoms: N1_10  and  C9_12 
REMARK    4  A    between atoms: C9_12  and  C10_13 
REMARK    5  A    between atoms: C9_12  and  C14_17 
REMARK    6  A    between atoms: C10_13  and  C11_14 
REMARK       I    between atoms: C14_17  and  N2_19 
REMARK    7  A    between atoms: N2_19  and  C15_21 
ROOT
HETATM    1  C3  UNL     1       8.659   3.419  22.639  1.00  0.00     0.032 C 
HETATM    2  C4  UNL     1      10.081   3.541  23.046  1.00  0.00     0.035 C 
HETATM    3  C5  UNL     1      10.920   4.465  22.226  1.00  0.00     0.087 C 
HETATM    4  C6  UNL     1      11.289   5.791  22.847  1.00  0.00     0.060 C 
HETATM    5  C7  UNL     1      11.088   6.306  21.438  1.00  0.00     0.178 C 
HETATM    6  N3  UNL     1      10.199   5.177  21.219  1.00  0.00    -0.371 N 
HETATM    7  C19 UNL     1       9.088   4.564  20.530  1.00  0.00     0.105 C 
HETATM    8  C20 UNL     1       8.364   3.724  21.235  1.00  0.00     0.042 C 
HETATM    9  C21 UNL     1       7.250   3.112  20.524  1.00  0.00     0.097 C 
HETATM   10  N4  UNL     1       6.377   2.619  19.945  1.00  0.00    -0.192 NA
ENDROOT
BRANCH   1  11
HETATM   11  C2  UNL     1       7.828   4.230  23.609  1.00  0.00     0.006 C 
HETATM   12  C1  UNL     1       7.537   3.528  24.892  1.00  0.00     0.006 C 
ENDBRANCH   1  11
BRANCH   5  13
HETATM   13  C8  UNL     1      12.356   6.222  20.679  1.00  0.00     0.241 C 
HETATM   14  O1  UNL     1      12.384   5.752  19.519  1.00  0.00    -0.271 OA
HETATM   15  N1  UNL     1      13.551   6.673  21.264  1.00  0.00    -0.346 N 
ATOM     16  H1  UNL     1      13.510   7.052  22.210  1.00  0.00     0.163 HD
BRANCH  15  17
HETATM   17  C9  UNL     1      14.839   6.630  20.598  1.00  0.00     0.177 C 
BRANCH  17  18
HETATM   18  C10 UNL     1      15.636   7.871  20.935  1.00  0.00     0.038 C 
BRANCH  18  19
HETATM   19  C11 UNL     1      16.657   8.225  19.900  1.00  0.00    -0.020 C 
HETATM   20  C12 UNL     1      16.893   9.702  19.788  1.00  0.00     0.009 C 
HETATM   21  C13 UNL     1      16.112   7.754  18.559  1.00  0.00     0.009 C 
ENDBRANCH  18  19
ENDBRANCH  17  18
BRANCH  17  22
HETATM   22  C14 UNL     1      15.643   5.468  21.078  1.00  0.00     0.241 C 
HETATM   23  O2  UNL     1      15.992   5.414  22.297  1.00  0.00    -0.271 OA
HETATM   24  N2  UNL     1      16.039   4.413  20.232  1.00  0.00    -0.351 N 
ATOM     25  H2  UNL     1      15.759   4.455  19.252  1.00  0.00     0.163 HD
BRANCH  24  26
HETATM   26  C15 UNL     1      16.813   3.283  20.663  1.00  0.00     0.022 C 
HETATM   27  C16 UNL     1      16.013   2.438  21.635  1.00  0.00     0.037 C 
HETATM   28  C17 UNL     1      17.169   2.391  19.466  1.00  0.00     0.037 C 
HETATM   29  C18 UNL     1      18.121   3.717  21.274  1.00  0.00     0.037 C 
ENDBRANCH  24  26
ENDBRANCH  17  22
ENDBRANCH  15  17
ENDBRANCH   5  13
TORSDOF 7
ENDMDL
MODEL 3
REMARK VINA RESULT: -7.934157377      2.483      8.276
REMARK  7 active torsions:
REMARK  status: ('A' for Active; 'I' for Inactive)
REMARK    1  A    between atoms: C2_2  and  C3_3 
REMARK    2  A    between atoms: C7_7  and  C8_8 
REMARK       I    between atoms: C8_8  and  N1_10 
REMARK    3  A    between atoms: N1_10  and  C9_12 
REMARK    4  A    between atoms: C9_12  and  C10_13 
REMARK    5  A    between atoms: C9_12  and  C14_17 
REMARK    6  A    between atoms: C10_13  and  C11_14 
REMARK       I    between atoms: C14_17  and  N2_19 
REMARK    7  A    between atoms: N2_19  and  C15_21 
ROOT
HETATM    1  C3  UNL     1       8.464   3.958  22.044  1.00  0.00     0.032 C 
HETATM    2  C4  UNL     1       9.769   3.268  21.883  1.00  0.00     0.035 C 
HETATM    3  C5  UNL     1      10.917   4.130  21.471  1.00  0.00     0.087 C 
HETATM    4  C6  UNL     1      11.942   4.460  22.529  1.00  0.00     0.060 C 
HETATM    5  C7  UNL     1      11.959   5.808  21.840  1.00  0.00     0.178 C 
HETATM    6  N3  UNL     1      10.609   5.522  21.384  1.00  0.00    -0.371 N 
HETATM    7  C19 UNL     1       9.306   5.965  20.947  1.00  0.00     0.105 C 
HETATM    8  C20 UNL     1       8.293   5.196  21.277  1.00  0.00     0.042 C 
HETATM    9  C21 UNL     1       6.987   5.657  20.826  1.00  0.00     0.097 C 
HETATM   10  N4  UNL     1       5.956   6.023  20.448  1.00  0.00    -0.192 NA
ENDROOT
BRANCH   1  11
HETATM   11  C2  UNL     1       8.214   4.137  23.526  1.00  0.00     0.006 C 
HETATM   12  C1  UNL     1       8.910   3.136  24.384  1.00  0.00     0.006 C 
ENDBRANCH   1  11
BRANCH   5  13
HETATM   13  C8  UNL     1      12.966   5.813  20.755  1.00  0.00     0.241 C 
HETATM   14  O1  UNL     1      12.630   6.006  19.565  1.00  0.00    -0.271 OA
HETATM   15  N1  UNL     1      14.320   5.598  21.059  1.00  0.00    -0.346 N 
ATOM     16  H1  UNL     1      14.576   5.443  22.034  1.00  0.00     0.163 HD
BRANCH  15  17
HETATM   17  C9  UNL     1      15.375   5.586  20.062  1.00  0.00     0.177 C 
BRANCH  17  18
HETATM   18  C10 UNL     1      16.316   6.749  20.293  1.00  0.00     0.038 C 
BRANCH  18  19
HETATM   19  C11 UNL     1      15.954   7.974  19.514  1.00  0.00    -0.020 C 
HETATM   20  C12 UNL     1      16.362   7.896  18.074  1.00  0.00     0.009 C 
HETATM   21  C13 UNL     1      16.716   9.137  20.135  1.00  0.00     0.009 C 
ENDBRANCH  18  19
ENDBRANCH  17  18
BRANCH  17  22
HETATM   22  C14 UNL     1      16.198   4.346  20.181  1.00  0.00     0.241 C 
HETATM   23  O2  UNL     1      17.404   4.435  20.567  1.00  0.00    -0.271 OA
HETATM   24  N2  UNL     1      15.695   3.065  19.880  1.00  0.00    -0.351 N 
ATOM     25  H2  UNL     1      14.726   2.993  19.570  1.00  0.00     0.163 HD
BRANCH  24  26
HETATM   26  C15 UNL     1      16.461   1.855  19.983  1.00  0.00     0.022 C 
HETATM   27  C16 UNL     1      16.719   1.518  21.438  1.00  0.00     0.037 C 
HETATM   28  C17 UNL     1      15.687   0.679  19.372  1.00  0.00     0.037 C 
HETATM   29  C18 UNL     1      17.754   1.959  19.214  1.00  0.00     0.037 C 
ENDBRANCH  24  26
ENDBRANCH  17  22
ENDBRANCH  15  17
ENDBRANCH   5  13
TORSDOF 7
ENDMDL
MODEL 4
REMARK VINA RESULT: -7.885594564      0.905      1.421
REMARK  7 active torsions:
REMARK  status: ('A' for Active; 'I' for Inactive)
REMARK    1  A    between atoms: C2_2  and  C3_3 
REMARK    2  A    between atoms: C7_7  and  C8_8 
REMARK       I    between atoms: C8_8  and  N1_10 
REMARK    3  A    between atoms: N1_10  and  C9_12 
REMARK    4  A    between atoms: C9_12  and  C10_13 
REMARK    5  A    between atoms: C9_12  and  C14_17 
REMARK    6  A    between atoms: C10_13  and  C11_14 
REMARK       I    between atoms: C14_17  and  N2_19 
REMARK    7  A    between atoms: N2_19  and  C15_21 
ROOT
HETATM    1  C3  UNL     1      15.944   6.123  20.814  1.00  0.00     0.032 C 
HETATM    2  C4  UNL     1      15.035   5.884  21.964  1.00  0.00     0.035 C 
HETATM    3  C5  UNL     1      13.613   5.586  21.622  1.00  0.00     0.087 C 
HETATM    4  C6  UNL     1      13.154   4.156  21.780  1.00  0.00     0.060 C 
HETATM    5  C7  UNL     1      12.363   4.458  20.525  1.00  0.00     0.178 C 
HETATM    6  N3  UNL     1      13.353   5.478  20.222  1.00  0.00    -0.371 N 
HETATM    7  C19 UNL     1      14.065   6.299  19.271  1.00  0.00     0.105 C 
HETATM    8  C20 UNL     1      15.308   6.594  19.579  1.00  0.00     0.042 C 
HETATM    9  C21 UNL     1      16.010   7.426  18.612  1.00  0.00     0.097 C 
HETATM   10  N4  UNL     1      16.554   8.101  17.845  1.00  0.00    -0.192 NA
ENDROOT
BRANCH   1  11
HETATM   11  C2  UNL     1      16.776   4.875  20.614  1.00  0.00     0.006 C 
HETATM   12  C1  UNL     1      17.120   4.166  21.880  1.00  0.00     0.006 C 
ENDBRANCH   1  11
BRANCH   5  13
HETATM   13  C8  UNL     1      11.033   5.004  20.879  1.00  0.00     0.241 C 
HETATM   14  O1  UNL     1      10.744   6.199  20.645  1.00  0.00    -0.271 OA
HETATM   15  N1  UNL     1      10.078   4.174  21.488  1.00  0.00    -0.346 N 
ATOM     16  H1  UNL     1      10.331   3.203  21.672  1.00  0.00     0.163 HD
BRANCH  15  17
HETATM   17  C9  UNL     1       8.752   4.621  21.870  1.00  0.00     0.177 C 
BRANCH  17  18
HETATM   18  C10 UNL     1       7.787   4.415  20.721  1.00  0.00     0.038 C 
BRANCH  18  19
HETATM   19  C11 UNL     1       6.971   5.628  20.402  1.00  0.00    -0.020 C 
HETATM   20  C12 UNL     1       7.191   6.755  21.366  1.00  0.00     0.009 C 
HETATM   21  C13 UNL     1       5.508   5.220  20.513  1.00  0.00     0.009 C 
ENDBRANCH  18  19
ENDBRANCH  17  18
BRANCH  17  22
HETATM   22  C14 UNL     1       8.229   3.811  23.010  1.00  0.00     0.241 C 
HETATM   23  O2  UNL     1       6.979   3.630  23.122  1.00  0.00    -0.271 OA
HETATM   24  N2  UNL     1       9.069   3.232  23.981  1.00  0.00    -0.351 N 
ATOM     25  H2  UNL     1      10.075   3.377  23.892  1.00  0.00     0.163 HD
BRANCH  24  26
HETATM   26  C15 UNL     1       8.598   2.449  25.089  1.00  0.00     0.022 C 
HETATM   27  C16 UNL     1       8.042   1.126  24.600  1.00  0.00     0.037 C 
HETATM   28  C17 UNL     1       9.752   2.133  26.050  1.00  0.00     0.037 C 
HETATM   29  C18 UNL     1       7.569   3.203  25.893  1.00  0.00     0.037 C 
ENDBRANCH  24  26
ENDBRANCH  17  22
ENDBRANCH  15  17
ENDBRANCH   5  13
TORSDOF 7
ENDMDL
MODEL 5
REMARK VINA RESULT: -7.796827396      0.724      1.430
REMARK  7 active torsions:
REMARK  status: ('A' for Active; 'I' for Inactive)
REMARK    1  A    between atoms: C2_2  and  C3_3 
REMARK    2  A    between atoms: C7_7  and  C8_8 
REMARK       I    between atoms: C8_8  and  N1_10 
REMARK    3  A    between atoms: N1_10  and  C9_12 
REMARK    4  A    between atoms: C9_12  and  C10_13 
REMARK    5  A    between atoms: C9_12  and  C14_17 
REMARK    6  A    between atoms: C10_13  and  C11_14 
REMARK       I    between atoms: C14_17  and  N2_19 
REMARK    7  A    between atoms: N2_19  and  C15_21 
ROOT
HETATM    1  C3  UNL     1      15.934   6.249  21.056  1.00  0.00     0.032 C 
HETATM    2  C4  UNL     1      14.974   6.064  22.174  1.00  0.00     0.035 C 
HETATM    3  C5  UNL     1      13.566   5.757  21.783  1.00  0.00     0.087 C 
HETATM    4  C6  UNL     1      13.092   4.337  21.982  1.00  0.00     0.060 C 
HETATM    5  C7  UNL     1      12.359   4.587  20.681  1.00  0.00     0.178 C 
HETATM    6  N3  UNL     1      13.367   5.589  20.378  1.00  0.00    -0.371 N 
HETATM    7  C19 UNL     1      14.125   6.366  19.426  1.00  0.00     0.105 C 
HETATM    8  C20 UNL     1      15.355   6.669  19.775  1.00  0.00     0.042 C 
HETATM    9  C21 UNL     1      16.104   7.455  18.805  1.00  0.00     0.097 C 
HETATM   10  N4  UNL     1      16.685   8.094  18.034  1.00  0.00    -0.192 NA
ENDROOT
BRANCH   1  11
HETATM   11  C2  UNL     1      16.766   4.990  20.947  1.00  0.00     0.006 C 
HETATM   12  C1  UNL     1      16.751   4.145  22.175  1.00  0.00     0.006 C 
ENDBRANCH   1  11
BRANCH   5  13
HETATM   13  C8  UNL     1      11.019   5.153  20.953  1.00  0.00     0.241 C 
HETATM   14  O1  UNL     1      10.767   6.356  20.715  1.00  0.00    -0.271 OA
HETATM   15  N1  UNL     1      10.010   4.333  21.486  1.00  0.00    -0.346 N 
ATOM     16  H1  UNL     1      10.234   3.356  21.673  1.00  0.00     0.163 HD
BRANCH  15  17
HETATM   17  C9  UNL     1       8.669   4.800  21.783  1.00  0.00     0.177 C 
BRANCH  17  18
HETATM   18  C10 UNL     1       7.742   4.477  20.631  1.00  0.00     0.038 C 
BRANCH  18  19
HETATM   19  C11 UNL     1       7.483   3.013  20.465  1.00  0.00    -0.020 C 
HETATM   20  C12 UNL     1       8.087   2.446  19.216  1.00  0.00     0.009 C 
HETATM   21  C13 UNL     1       5.974   2.838  20.354  1.00  0.00     0.009 C 
ENDBRANCH  18  19
ENDBRANCH  17  18
BRANCH  17  22
HETATM   22  C14 UNL     1       8.118   4.096  22.979  1.00  0.00     0.241 C 
HETATM   23  O2  UNL     1       8.610   2.978  23.324  1.00  0.00    -0.271 OA
HETATM   24  N2  UNL     1       7.064   4.619  23.753  1.00  0.00    -0.351 N 
ATOM     25  H2  UNL     1       6.667   5.517  23.476  1.00  0.00     0.163 HD
BRANCH  24  26
HETATM   26  C15 UNL     1       6.512   3.966  24.906  1.00  0.00     0.022 C 
HETATM   27  C16 UNL     1       5.508   2.911  24.484  1.00  0.00     0.037 C 
HETATM   28  C17 UNL     1       7.616   3.255  25.699  1.00  0.00     0.037 C 
HETATM   29  C18 UNL     1       5.884   4.961  25.850  1.00  0.00     0.037 C 
ENDBRANCH  24  26
ENDBRANCH  17  22
ENDBRANCH  15  17
ENDBRANCH   5  13
TORSDOF 7
ENDMDL
