MODEL 1
REMARK VINA RESULT: -9.305796005      0.000      0.000
REMARK  7 active torsions:
REMARK  status: ('A' for Active; 'I' for Inactive)
REMARK    1  A    between atoms: C2_2  and  C3_3 
REMARK       I    between atoms: C3_3  and  N1_5 
REMARK    2  A    between atoms: N1_5  and  C4_7 
REMARK    3  A    between atoms: C4_7  and  C5_8 
REMARK    4  A    between atoms: C12_15  and  N2_16 
REMARK       I    between atoms: N2_16  and  C13_18 
REMARK    5  A    between atoms: C13_18  and  C14_20 
REMARK    6  A    between atoms: C14_20  and  N3_21 
REMARK    7  A    between atoms: C14_20  and  C15_25 
ROOT
HETATM    1  C5  UNL     1       8.989   4.105  23.071  1.00  0.00    -0.021 C 
HETATM    2  C6  UNL     1       8.707   3.458  21.742  1.00  0.00     0.016 C 
HETATM    3  C7  UNL     1       9.196   4.379  20.637  1.00  0.00    -0.011 C 
HETATM    4  C8  UNL     1       8.397   5.641  20.691  1.00  0.00     0.009 C 
HETATM    5  C9  UNL     1       8.655   6.309  22.012  1.00  0.00    -0.011 C 
HETATM    6  C10 UNL     1       8.259   5.452  23.173  1.00  0.00     0.016 C 
HETATM    7  C11 UNL     1      10.148   6.596  22.136  1.00  0.00     0.035 C 
HETATM    8  C12 UNL     1      10.928   5.314  22.124  1.00  0.00     0.034 C 
HETATM    9  C21 UNL     1      10.666   4.570  20.826  1.00  0.00     0.035 C 
HETATM   10  C22 UNL     1      10.463   4.375  23.234  1.00  0.00     0.042 C 
ENDROOT
BRANCH   8  11
HETATM   11  N2  UNL     1      12.313   5.589  22.331  1.00  0.00    -0.350 N 
HETATM   12  C13 UNL     1      13.133   6.305  21.434  1.00  0.00     0.249 C 
HETATM   13  O2  UNL     1      12.672   6.750  20.370  1.00  0.00    -0.271 OA
ATOM     14  H2  UNL     1      12.741   5.243  23.190  1.00  0.00     0.163 HD
BRANCH  12  15
HETATM   15  C14 UNL     1      14.584   6.560  21.719  1.00  0.00     0.278 C 
BRANCH  15  16
HETATM   16  N3  UNL     1      14.774   7.092  23.036  1.00  0.00    -0.066 N 
ATOM     17  H33 UNL     1      15.382   7.911  23.024  1.00  0.00     0.275 HD
ATOM     18  H32 UNL     1      13.924   7.531  23.388  1.00  0.00     0.275 HD
ATOM     19  H31 UNL     1      15.121   6.381  23.680  1.00  0.00     0.275 HD
ENDBRANCH  15  16
BRANCH  15  20
HETATM   20  C15 UNL     1      15.176   7.419  20.628  1.00  0.00     0.025 C 
HETATM   21  C16 UNL     1      16.269   8.325  21.147  1.00  0.00     0.007 C 
HETATM   22  C17 UNL     1      16.572   9.327  20.052  1.00  0.00     0.000 C 
HETATM   23  C18 UNL     1      17.013   8.642  18.780  1.00  0.00     0.000 C 
HETATM   24  C19 UNL     1      16.079   7.532  18.372  1.00  0.00     0.000 C 
HETATM   25  C20 UNL     1      15.784   6.584  19.524  1.00  0.00     0.007 C 
ENDBRANCH  15  20
ENDBRANCH  12  15
ENDBRANCH   8  11
BRANCH   1  26
HETATM   26  C4  UNL     1       8.445   3.257  24.196  1.00  0.00     0.132 C 
BRANCH  26  27
HETATM   27  N1  UNL     1       9.460   2.918  25.162  1.00  0.00    -0.357 N 
HETATM   28  C3  UNL     1       9.345   1.705  25.875  1.00  0.00     0.240 C 
HETATM   29  O1  UNL     1       8.373   0.934  25.673  1.00  0.00    -0.269 OA
ATOM     30  H1  UNL     1      10.248   3.544  25.327  1.00  0.00     0.162 HD
BRANCH  28  31
HETATM   31  C2  UNL     1      10.344   1.324  26.857  1.00  0.00     0.064 C 
HETATM   32  C1  UNL     1      10.350   1.726  28.115  1.00  0.00     0.017 C 
ENDBRANCH  28  31
ENDBRANCH  26  27
ENDBRANCH   1  26
TORSDOF 7
ENDMDL
MODEL 2
REMARK VINA RESULT: -9.215169352      2.486      8.894
REMARK  7 active torsions:
REMARK  status: ('A' for Active; 'I' for Inactive)
REMARK    1  A    between atoms: C2_2  and  C3_3 
REMARK       I    between atoms: C3_3  and  N1_5 
REMARK    2  A    between atoms: N1_5  and  C4_7 
REMARK    3  A    between atoms: C4_7  and  C5_8 
REMARK    4  A    between atoms: C12_15  and  N2_16 
REMARK       I    between atoms: N2_16  and  C13_18 
REMARK    5  A    between atoms: C13_18  and  C14_20 
REMARK    6  A    between atoms: C14_20  and  N3_21 
REMARK    7  A    between atoms: C14_20  and  C15_25 
ROOT
HETATM    1  C5  UNL     1      15.690   6.690  19.946  1.00  0.00    -0.021 C 
HETATM    2  C6  UNL     1      16.073   5.245  19.766  1.00  0.00     0.016 C 
HETATM    3  C7  UNL     1      15.789   4.500  21.059  1.00  0.00    -0.011 C 
HETATM    4  C8  UNL     1      16.671   5.061  22.128  1.00  0.00     0.009 C 
HETATM    5  C9  UNL     1      16.313   6.507  22.326  1.00  0.00    -0.011 C 
HETATM    6  C10 UNL     1      16.504   7.319  21.085  1.00  0.00     0.016 C 
HETATM    7  C11 UNL     1      14.843   6.602  22.720  1.00  0.00     0.035 C 
HETATM    8  C12 UNL     1      13.973   6.075  21.616  1.00  0.00     0.034 C 
HETATM    9  C21 UNL     1      14.325   4.624  21.337  1.00  0.00     0.035 C 
HETATM   10  C22 UNL     1      14.232   6.816  20.308  1.00  0.00     0.042 C 
ENDROOT
BRANCH   8  11
HETATM   11  N2  UNL     1      12.598   6.251  21.957  1.00  0.00    -0.350 N 
HETATM   12  C13 UNL     1      11.511   5.859  21.147  1.00  0.00     0.249 C 
HETATM   13  O2  UNL     1      11.704   5.320  20.045  1.00  0.00    -0.271 OA
ATOM     14  H2  UNL     1      12.386   6.692  22.852  1.00  0.00     0.163 HD
BRANCH  12  15
HETATM   15  C14 UNL     1      10.089   6.074  21.573  1.00  0.00     0.278 C 
BRANCH  15  16
HETATM   16  N3  UNL     1       9.962   7.224  22.418  1.00  0.00    -0.066 N 
ATOM     17  H33 UNL     1      10.873   7.559  22.734  1.00  0.00     0.275 HD
ATOM     18  H32 UNL     1       9.668   8.045  21.890  1.00  0.00     0.275 HD
ATOM     19  H31 UNL     1       9.338   7.043  23.205  1.00  0.00     0.275 HD
ENDBRANCH  15  16
BRANCH  15  20
HETATM   20  C15 UNL     1       9.544   4.808  22.188  1.00  0.00     0.025 C 
HETATM   21  C16 UNL     1      10.421   4.294  23.305  1.00  0.00     0.007 C 
HETATM   22  C17 UNL     1       9.945   2.894  23.635  1.00  0.00     0.000 C 
HETATM   23  C18 UNL     1       8.495   2.886  24.056  1.00  0.00     0.000 C 
HETATM   24  C19 UNL     1       7.613   3.636  23.093  1.00  0.00     0.000 C 
HETATM   25  C20 UNL     1       8.164   5.016  22.772  1.00  0.00     0.007 C 
ENDBRANCH  15  20
ENDBRANCH  12  15
ENDBRANCH   8  11
BRANCH   1  26
HETATM   26  C4  UNL     1      16.033   7.484  18.708  1.00  0.00     0.132 C 
BRANCH  26  27
HETATM   27  N1  UNL     1      16.862   8.624  19.005  1.00  0.00    -0.357 N 
HETATM   28  C3  UNL     1      17.110   9.571  17.988  1.00  0.00     0.240 C 
HETATM   29  O1  UNL     1      16.617   9.422  16.842  1.00  0.00    -0.269 OA
ATOM     30  H1  UNL     1      17.264   8.745  19.936  1.00  0.00     0.162 HD
BRANCH  28  31
HETATM   31  C2  UNL     1      17.941  10.734  18.244  1.00  0.00     0.064 C 
HETATM   32  C1  UNL     1      18.821  11.229  17.393  1.00  0.00     0.017 C 
ENDBRANCH  28  31
ENDBRANCH  26  27
ENDBRANCH   1  26
TORSDOF 7
ENDMDL
MODEL 3
REMARK VINA RESULT: -9.090617248      2.368      3.052
REMARK  7 active torsions:
REMARK  status: ('A' for Active; 'I' for Inactive)
REMARK    1  A    between atoms: C2_2  and  C3_3 
REMARK       I    between atoms: C3_3  and  N1_5 
REMARK    2  A    between atoms: N1_5  and  C4_7 
REMARK    3  A    between atoms: C4_7  and  C5_8 
REMARK    4  A    between atoms: C12_15  and  N2_16 
REMARK       I    between atoms: N2_16  and  C13_18 
REMARK    5  A    between atoms: C13_18  and  C14_20 
REMARK    6  A    between atoms: C14_20  and  N3_21 
REMARK    7  A    between atoms: C14_20  and  C15_25 
ROOT
HETATM    1  C5  UNL     1       9.416   5.566  22.139  1.00  0.00    -0.021 C 
HETATM    2  C6  UNL     1       9.476   4.397  23.085  1.00  0.00     0.016 C 
HETATM    3  C7  UNL     1      10.697   3.557  22.746  1.00  0.00    -0.011 C 
HETATM    4  C8  UNL     1      10.519   3.002  21.370  1.00  0.00     0.009 C 
HETATM    5  C9  UNL     1      10.450   4.150  20.402  1.00  0.00    -0.011 C 
HETATM    6  C10 UNL     1       9.308   5.073  20.689  1.00  0.00     0.016 C 
HETATM    7  C11 UNL     1      11.738   4.960  20.506  1.00  0.00     0.035 C 
HETATM    8  C12 UNL     1      11.876   5.545  21.882  1.00  0.00     0.034 C 
HETATM    9  C21 UNL     1      11.901   4.428  22.911  1.00  0.00     0.035 C 
HETATM   10  C22 UNL     1      10.666   6.402  22.241  1.00  0.00     0.042 C 
ENDROOT
BRANCH   8  11
HETATM   11  N2  UNL     1      13.037   6.374  21.941  1.00  0.00    -0.350 N 
HETATM   12  C13 UNL     1      14.364   5.897  21.979  1.00  0.00     0.249 C 
HETATM   13  O2  UNL     1      14.600   4.678  21.967  1.00  0.00    -0.271 OA
ATOM     14  H2  UNL     1      12.896   7.384  21.956  1.00  0.00     0.163 HD
BRANCH  12  15
HETATM   15  C14 UNL     1      15.538   6.829  22.037  1.00  0.00     0.278 C 
BRANCH  15  16
HETATM   16  N3  UNL     1      15.440   7.728  23.148  1.00  0.00    -0.066 N 
ATOM     17  H33 UNL     1      14.481   8.048  23.287  1.00  0.00     0.275 HD
ATOM     18  H32 UNL     1      15.573   7.242  24.035  1.00  0.00     0.275 HD
ATOM     19  H31 UNL     1      16.085   8.513  23.052  1.00  0.00     0.275 HD
ENDBRANCH  15  16
BRANCH  15  20
HETATM   20  C15 UNL     1      15.703   7.525  20.708  1.00  0.00     0.025 C 
HETATM   21  C16 UNL     1      16.797   8.568  20.744  1.00  0.00     0.007 C 
HETATM   22  C17 UNL     1      16.670   9.387  19.475  1.00  0.00     0.000 C 
HETATM   23  C18 UNL     1      16.802   8.525  18.243  1.00  0.00     0.000 C 
HETATM   24  C19 UNL     1      15.913   7.310  18.294  1.00  0.00     0.000 C 
HETATM   25  C20 UNL     1      16.057   6.553  19.605  1.00  0.00     0.007 C 
ENDBRANCH  15  20
ENDBRANCH  12  15
ENDBRANCH   8  11
BRANCH   1  26
HETATM   26  C4  UNL     1       8.171   6.383  22.389  1.00  0.00     0.132 C 
BRANCH  26  27
HETATM   27  N1  UNL     1       7.493   5.986  23.597  1.00  0.00    -0.357 N 
HETATM   28  C3  UNL     1       6.227   5.369  23.498  1.00  0.00     0.240 C 
HETATM   29  O1  UNL     1       5.699   5.169  22.375  1.00  0.00    -0.269 OA
ATOM     30  H1  UNL     1       7.921   6.150  24.508  1.00  0.00     0.162 HD
BRANCH  28  31
HETATM   31  C2  UNL     1       5.509   4.954  24.689  1.00  0.00     0.064 C 
HETATM   32  C1  UNL     1       5.945   5.122  25.924  1.00  0.00     0.017 C 
ENDBRANCH  28  31
ENDBRANCH  26  27
ENDBRANCH   1  26
TORSDOF 7
ENDMDL
MODEL 4
REMARK VINA RESULT: -9.016987422      2.723      8.873
REMARK  7 active torsions:
REMARK  status: ('A' for Active; 'I' for Inactive)
REMARK    1  A    between atoms: C2_2  and  C3_3 
REMARK       I    between atoms: C3_3  and  N1_5 
REMARK    2  A    between atoms: N1_5  and  C4_7 
REMARK    3  A    between atoms: C4_7  and  C5_8 
REMARK    4  A    between atoms: C12_15  and  N2_16 
REMARK       I    between atoms: N2_16  and  C13_18 
REMARK    5  A    between atoms: C13_18  and  C14_20 
REMARK    6  A    between atoms: C14_20  and  N3_21 
REMARK    7  A    between atoms: C14_20  and  C15_25 
ROOT
HETATM    1  C5  UNL     1      15.728   6.566  19.982  1.00  0.00    -0.021 C 
HETATM    2  C6  UNL     1      16.056   5.103  19.858  1.00  0.00     0.016 C 
HETATM    3  C7  UNL     1      15.682   4.407  21.156  1.00  0.00    -0.011 C 
HETATM    4  C8  UNL     1      16.538   4.959  22.249  1.00  0.00     0.009 C 
HETATM    5  C9  UNL     1      16.236   6.425  22.393  1.00  0.00    -0.011 C 
HETATM    6  C10 UNL     1      16.518   7.193  21.141  1.00  0.00     0.016 C 
HETATM    7  C11 UNL     1      14.755   6.593  22.716  1.00  0.00     0.035 C 
HETATM    8  C12 UNL     1      13.913   6.072  21.587  1.00  0.00     0.034 C 
HETATM    9  C21 UNL     1      14.214   4.600  21.363  1.00  0.00     0.035 C 
HETATM   10  C22 UNL     1      14.263   6.765  20.274  1.00  0.00     0.042 C 
ENDROOT
BRANCH   8  11
HETATM   11  N2  UNL     1      12.533   6.316  21.861  1.00  0.00    -0.350 N 
HETATM   12  C13 UNL     1      11.468   5.955  21.009  1.00  0.00     0.249 C 
HETATM   13  O2  UNL     1      11.687   5.384  19.928  1.00  0.00    -0.271 OA
ATOM     14  H2  UNL     1      12.301   6.786  22.737  1.00  0.00     0.163 HD
BRANCH  12  15
HETATM   15  C14 UNL     1      10.040   6.242  21.364  1.00  0.00     0.278 C 
BRANCH  15  16
HETATM   16  N3  UNL     1       9.944   7.080  22.522  1.00  0.00    -0.066 N 
ATOM     17  H33 UNL     1       9.955   8.068  22.270  1.00  0.00     0.275 HD
ATOM     18  H32 UNL     1       9.015   7.034  22.940  1.00  0.00     0.275 HD
ATOM     19  H31 UNL     1      10.671   6.861  23.204  1.00  0.00     0.275 HD
ENDBRANCH  15  16
BRANCH  15  20
HETATM   20  C15 UNL     1       9.275   4.946  21.490  1.00  0.00     0.025 C 
HETATM   21  C16 UNL     1       8.546   4.841  22.810  1.00  0.00     0.007 C 
HETATM   22  C17 UNL     1       8.073   3.408  22.943  1.00  0.00     0.000 C 
HETATM   23  C18 UNL     1       7.162   3.016  21.804  1.00  0.00     0.000 C 
HETATM   24  C19 UNL     1       7.745   3.361  20.459  1.00  0.00     0.000 C 
HETATM   25  C20 UNL     1       8.236   4.798  20.401  1.00  0.00     0.007 C 
ENDBRANCH  15  20
ENDBRANCH  12  15
ENDBRANCH   8  11
BRANCH   1  26
HETATM   26  C4  UNL     1      16.160   7.311  18.741  1.00  0.00     0.132 C 
BRANCH  26  27
HETATM   27  N1  UNL     1      16.938   8.483  19.053  1.00  0.00    -0.357 N 
HETATM   28  C3  UNL     1      17.080   9.488  18.071  1.00  0.00     0.240 C 
HETATM   29  O1  UNL     1      16.538   9.362  16.944  1.00  0.00    -0.269 OA
ATOM     30  H1  UNL     1      17.378   8.585  19.967  1.00  0.00     0.162 HD
BRANCH  28  31
HETATM   31  C2  UNL     1      17.855  10.685  18.342  1.00  0.00     0.064 C 
HETATM   32  C1  UNL     1      18.811  11.153  17.560  1.00  0.00     0.017 C 
ENDBRANCH  28  31
ENDBRANCH  26  27
ENDBRANCH   1  26
TORSDOF 7
ENDMDL
MODEL 5
REMARK VINA RESULT: -8.995171586      2.973      8.758
REMARK  7 active torsions:
REMARK  status: ('A' for Active; 'I' for Inactive)
REMARK    1  A    between atoms: C2_2  and  C3_3 
REMARK       I    between atoms: C3_3  and  N1_5 
REMARK    2  A    between atoms: N1_5  and  C4_7 
REMARK    3  A    between atoms: C4_7  and  C5_8 
REMARK    4  A    between atoms: C12_15  and  N2_16 
REMARK       I    between atoms: N2_16  and  C13_18 
REMARK    5  A    between atoms: C13_18  and  C14_20 
REMARK    6  A    between atoms: C14_20  and  N3_21 
REMARK    7  A    between atoms: C14_20  and  C15_25 
ROOT
HETATM    1  C5  UNL     1      15.394   6.476  19.774  1.00  0.00    -0.021 C 
HETATM    2  C6  UNL     1      16.330   5.332  20.059  1.00  0.00     0.016 C 
HETATM    3  C7  UNL     1      15.840   4.596  21.294  1.00  0.00    -0.011 C 
HETATM    4  C8  UNL     1      15.917   5.529  22.458  1.00  0.00     0.009 C 
HETATM    5  C9  UNL     1      14.993   6.687  22.199  1.00  0.00    -0.011 C 
HETATM    6  C10 UNL     1      15.360   7.446  20.963  1.00  0.00     0.016 C 
HETATM    7  C11 UNL     1      13.576   6.155  22.013  1.00  0.00     0.035 C 
HETATM    8  C12 UNL     1      13.511   5.255  20.813  1.00  0.00     0.034 C 
HETATM    9  C21 UNL     1      14.465   4.088  20.999  1.00  0.00     0.035 C 
HETATM   10  C22 UNL     1      13.989   5.976  19.556  1.00  0.00     0.042 C 
ENDROOT
BRANCH   8  11
HETATM   11  N2  UNL     1      12.164   4.835  20.596  1.00  0.00    -0.350 N 
HETATM   12  C13 UNL     1      11.445   3.969  21.446  1.00  0.00     0.249 C 
HETATM   13  O2  UNL     1      11.972   3.504  22.471  1.00  0.00    -0.271 OA
ATOM     14  H2  UNL     1      11.687   5.188  19.766  1.00  0.00     0.163 HD
BRANCH  12  15
HETATM   15  C14 UNL     1      10.028   3.573  21.156  1.00  0.00     0.278 C 
BRANCH  15  16
HETATM   16  N3  UNL     1       9.941   2.747  19.988  1.00  0.00    -0.066 N 
ATOM     17  H33 UNL     1       9.629   3.280  19.177  1.00  0.00     0.275 HD
ATOM     18  H32 UNL     1      10.866   2.477  19.653  1.00  0.00     0.275 HD
ATOM     19  H31 UNL     1       9.350   1.932  20.150  1.00  0.00     0.275 HD
ENDBRANCH  15  16
BRANCH  15  20
HETATM   20  C15 UNL     1       9.156   4.803  21.093  1.00  0.00     0.025 C 
HETATM   21  C16 UNL     1       7.790   4.505  20.520  1.00  0.00     0.007 C 
HETATM   22  C17 UNL     1       7.128   5.837  20.234  1.00  0.00     0.000 C 
HETATM   23  C18 UNL     1       7.005   6.676  21.484  1.00  0.00     0.000 C 
HETATM   24  C19 UNL     1       8.304   6.772  22.241  1.00  0.00     0.000 C 
HETATM   25  C20 UNL     1       8.937   5.408  22.462  1.00  0.00     0.007 C 
ENDBRANCH  15  20
ENDBRANCH  12  15
ENDBRANCH   8  11
BRANCH   1  26
HETATM   26  C4  UNL     1      15.891   7.284  18.599  1.00  0.00     0.132 C 
BRANCH  26  27
HETATM   27  N1  UNL     1      16.710   8.396  19.010  1.00  0.00    -0.357 N 
HETATM   28  C3  UNL     1      16.997   9.415  18.076  1.00  0.00     0.240 C 
HETATM   29  O1  UNL     1      16.547   9.353  16.904  1.00  0.00    -0.269 OA
ATOM     30  H1  UNL     1      17.076   8.446  19.962  1.00  0.00     0.162 HD
BRANCH  28  31
HETATM   31  C2  UNL     1      17.818  10.553  18.448  1.00  0.00     0.064 C 
HETATM   32  C1  UNL     1      18.573  11.239  17.610  1.00  0.00     0.017 C 
ENDBRANCH  28  31
ENDBRANCH  26  27
ENDBRANCH   1  26
TORSDOF 7
ENDMDL
