MODEL 1
REMARK VINA RESULT: -6.629424007      0.000      0.000
REMARK  2 active torsions:
REMARK  status: ('A' for Active; 'I' for Inactive)
REMARK    1  A    between atoms: N1_8  and  O1_10 
REMARK    2  A    between atoms: C9_13  and  O2_15 
ROOT
HETATM    1  C1  UNL     1       9.398  18.881  51.819  1.00  0.00     0.010 C 
HETATM    2  C2  UNL     1       9.574  18.897  50.314  1.00  0.00    -0.014 C 
HETATM    3  C3  UNL     1       8.530  17.915  49.765  1.00  0.00     0.005 C 
HETATM    4  C4  UNL     1       7.128  18.383  49.939  1.00  0.00     0.001 C 
HETATM    5  C5  UNL     1       6.904  19.847  49.650  1.00  0.00     0.011 C 
HETATM    6  C6  UNL     1       7.959  20.705  50.316  1.00  0.00     0.038 C 
HETATM    7  C7  UNL     1       7.711  22.123  50.097  1.00  0.00     0.017 C 
HETATM    8  N1  UNL     1       6.733  22.704  50.677  1.00  0.00    -0.277 N 
ATOM      9  H1  UNL     1       6.554  23.697  50.525  1.00  0.00     0.193 HD
HETATM   10  C8  UNL     1       8.583  22.897  49.213  1.00  0.00     0.092 C 
HETATM   11  C9  UNL     1      10.043  22.617  49.390  1.00  0.00     0.059 C 
HETATM   12  C10 UNL     1      10.720  22.849  48.049  1.00  0.00     0.046 C 
HETATM   13  C11 UNL     1      10.369  21.244  49.866  1.00  0.00     0.043 C 
HETATM   14  C12 UNL     1       9.270  20.246  49.717  1.00  0.00     0.002 C 
ENDROOT
BRANCH   8  15
HETATM   15  O1  UNL     1       5.928  21.971  51.504  1.00  0.00    -0.290 OA
ATOM     16  H1  UNL     1       5.960  21.024  51.451  1.00  0.00     0.244 HD
ENDBRANCH   8  15
BRANCH  11  17
HETATM   17  O2  UNL     1      10.580  23.554  50.271  1.00  0.00    -0.390 OA
ATOM     18  H2  UNL     1      11.387  23.208  50.634  1.00  0.00     0.210 HD
ENDBRANCH  11  17
TORSDOF 2
ENDMDL
MODEL 2
REMARK VINA RESULT: -6.379838810      2.465      3.335
REMARK  2 active torsions:
REMARK  status: ('A' for Active; 'I' for Inactive)
REMARK    1  A    between atoms: N1_8  and  O1_10 
REMARK    2  A    between atoms: C9_13  and  O2_15 
ROOT
HETATM    1  C1  UNL     1       5.303  20.580  49.890  1.00  0.00     0.010 C 
HETATM    2  C2  UNL     1       6.068  21.215  51.034  1.00  0.00    -0.014 C 
HETATM    3  C3  UNL     1       5.909  20.254  52.220  1.00  0.00     0.005 C 
HETATM    4  C4  UNL     1       6.614  18.957  52.030  1.00  0.00     0.001 C 
HETATM    5  C5  UNL     1       7.989  19.063  51.419  1.00  0.00     0.011 C 
HETATM    6  C6  UNL     1       7.984  19.978  50.212  1.00  0.00     0.038 C 
HETATM    7  C7  UNL     1       9.294  20.031  49.577  1.00  0.00     0.017 C 
HETATM    8  N1  UNL     1       9.740  19.024  48.933  1.00  0.00    -0.277 N 
ATOM      9  H1  UNL     1      10.658  19.057  48.488  1.00  0.00     0.193 HD
HETATM   10  C8  UNL     1      10.109  21.243  49.669  1.00  0.00     0.092 C 
HETATM   11  C9  UNL     1       9.347  22.514  49.462  1.00  0.00     0.059 C 
HETATM   12  C10 UNL     1      10.040  23.602  50.267  1.00  0.00     0.046 C 
HETATM   13  C11 UNL     1       7.911  22.461  49.856  1.00  0.00     0.043 C 
HETATM   14  C12 UNL     1       7.542  21.323  50.746  1.00  0.00     0.002 C 
ENDROOT
BRANCH   8  15
HETATM   15  O1  UNL     1       8.967  17.899  48.850  1.00  0.00    -0.290 OA
ATOM     16  H1  UNL     1       9.310  17.082  49.193  1.00  0.00     0.244 HD
ENDBRANCH   8  15
BRANCH  11  17
HETATM   17  O2  UNL     1       9.448  22.890  48.123  1.00  0.00    -0.390 OA
ATOM     18  H2  UNL     1       8.657  23.353  47.872  1.00  0.00     0.210 HD
ENDBRANCH  11  17
TORSDOF 2
ENDMDL
MODEL 3
REMARK VINA RESULT: -6.181892908      1.014      1.098
REMARK  2 active torsions:
REMARK  status: ('A' for Active; 'I' for Inactive)
REMARK    1  A    between atoms: N1_8  and  O1_10 
REMARK    2  A    between atoms: C9_13  and  O2_15 
ROOT
HETATM    1  C1  UNL     1       8.206  18.682  52.602  1.00  0.00     0.010 C 
HETATM    2  C2  UNL     1       8.823  18.696  51.219  1.00  0.00    -0.014 C 
HETATM    3  C3  UNL     1       8.040  17.655  50.407  1.00  0.00     0.005 C 
HETATM    4  C4  UNL     1       6.629  18.048  50.143  1.00  0.00     0.001 C 
HETATM    5  C5  UNL     1       6.430  19.496  49.767  1.00  0.00     0.011 C 
HETATM    6  C6  UNL     1       7.194  20.415  50.697  1.00  0.00     0.038 C 
HETATM    7  C7  UNL     1       6.953  21.815  50.381  1.00  0.00     0.017 C 
HETATM    8  N1  UNL     1       5.818  22.347  50.628  1.00  0.00    -0.277 N 
ATOM      9  H1  UNL     1       5.645  23.327  50.407  1.00  0.00     0.193 HD
HETATM   10  C8  UNL     1       8.010  22.629  49.779  1.00  0.00     0.092 C 
HETATM   11  C9  UNL     1       9.362  22.429  50.389  1.00  0.00     0.059 C 
HETATM   12  C10 UNL     1      10.397  22.687  49.306  1.00  0.00     0.046 C 
HETATM   13  C11 UNL     1       9.598  21.079  50.973  1.00  0.00     0.043 C 
HETATM   14  C12 UNL     1       8.645  20.022  50.527  1.00  0.00     0.002 C 
ENDROOT
BRANCH   8  15
HETATM   15  O1  UNL     1       4.840  21.578  51.195  1.00  0.00    -0.290 OA
ATOM     16  H1  UNL     1       5.042  21.093  51.987  1.00  0.00     0.244 HD
ENDBRANCH   8  15
BRANCH  11  17
HETATM   17  O2  UNL     1       9.564  23.401  51.368  1.00  0.00    -0.390 OA
ATOM     18  H2  UNL     1       8.724  23.765  51.619  1.00  0.00     0.210 HD
ENDBRANCH  11  17
TORSDOF 2
ENDMDL
MODEL 4
REMARK VINA RESULT: -5.998459958      2.052      4.061
REMARK  2 active torsions:
REMARK  status: ('A' for Active; 'I' for Inactive)
REMARK    1  A    between atoms: N1_8  and  O1_10 
REMARK    2  A    between atoms: C9_13  and  O2_15 
ROOT
HETATM    1  C1  UNL     1       9.232  21.159  49.563  1.00  0.00     0.010 C 
HETATM    2  C2  UNL     1       8.457  19.858  49.554  1.00  0.00    -0.014 C 
HETATM    3  C3  UNL     1       9.376  18.825  50.219  1.00  0.00     0.005 C 
HETATM    4  C4  UNL     1       9.591  19.071  51.672  1.00  0.00     0.001 C 
HETATM    5  C5  UNL     1       8.356  19.479  52.438  1.00  0.00     0.011 C 
HETATM    6  C6  UNL     1       7.587  20.559  51.706  1.00  0.00     0.038 C 
HETATM    7  C7  UNL     1       6.432  21.004  52.472  1.00  0.00     0.017 C 
HETATM    8  N1  UNL     1       6.589  21.699  53.532  1.00  0.00    -0.277 N 
ATOM      9  H1  UNL     1       5.782  22.011  54.072  1.00  0.00     0.193 HD
HETATM   10  C8  UNL     1       5.079  20.664  52.031  1.00  0.00     0.092 C 
HETATM   11  C9  UNL     1       4.854  20.818  50.560  1.00  0.00     0.059 C 
HETATM   12  C10 UNL     1       3.798  19.805  50.148  1.00  0.00     0.046 C 
HETATM   13  C11 UNL     1       6.064  20.626  49.713  1.00  0.00     0.043 C 
HETATM   14  C12 UNL     1       7.202  19.934  50.383  1.00  0.00     0.002 C 
ENDROOT
BRANCH   8  15
HETATM   15  O1  UNL     1       7.858  22.015  53.931  1.00  0.00    -0.290 OA
ATOM     16  H1  UNL     1       8.209  21.601  54.711  1.00  0.00     0.244 HD
ENDBRANCH   8  15
BRANCH  11  17
HETATM   17  O2  UNL     1       4.310  22.078  50.315  1.00  0.00    -0.390 OA
ATOM     18  H2  UNL     1       4.855  22.735  50.730  1.00  0.00     0.210 HD
ENDBRANCH  11  17
TORSDOF 2
ENDMDL
MODEL 5
REMARK VINA RESULT: -5.844278389      2.044      4.440
REMARK  2 active torsions:
REMARK  status: ('A' for Active; 'I' for Inactive)
REMARK    1  A    between atoms: N1_8  and  O1_10 
REMARK    2  A    between atoms: C9_13  and  O2_15 
ROOT
HETATM    1  C1  UNL     1       9.752  23.597  50.739  1.00  0.00     0.010 C 
HETATM    2  C2  UNL     1       8.923  23.250  49.519  1.00  0.00    -0.014 C 
HETATM    3  C3  UNL     1       9.933  23.009  48.388  1.00  0.00     0.005 C 
HETATM    4  C4  UNL     1      10.761  21.787  48.584  1.00  0.00     0.001 C 
HETATM    5  C5  UNL     1      10.009  20.583  49.095  1.00  0.00     0.011 C 
HETATM    6  C6  UNL     1       9.111  20.949  50.258  1.00  0.00     0.038 C 
HETATM    7  C7  UNL     1       8.434  19.778  50.799  1.00  0.00     0.017 C 
HETATM    8  N1  UNL     1       9.088  18.899  51.454  1.00  0.00    -0.277 N 
ATOM      9  H1  UNL     1       8.618  18.077  51.832  1.00  0.00     0.193 HD
HETATM   10  C8  UNL     1       6.995  19.602  50.600  1.00  0.00     0.092 C 
HETATM   11  C9  UNL     1       6.188  20.846  50.805  1.00  0.00     0.059 C 
HETATM   12  C10 UNL     1       4.965  20.752  49.908  1.00  0.00     0.046 C 
HETATM   13  C11 UNL     1       6.905  22.118  50.513  1.00  0.00     0.043 C 
HETATM   14  C12 UNL     1       8.147  21.972  49.700  1.00  0.00     0.002 C 
ENDROOT
BRANCH   8  15
HETATM   15  O1  UNL     1      10.432  19.078  51.637  1.00  0.00    -0.290 OA
ATOM     16  H1  UNL     1      11.024  18.375  51.397  1.00  0.00     0.244 HD
ENDBRANCH   8  15
BRANCH  11  17
HETATM   17  O2  UNL     1       5.716  20.868  52.116  1.00  0.00    -0.390 OA
ATOM     18  H2  UNL     1       4.834  20.516  52.132  1.00  0.00     0.210 HD
ENDBRANCH  11  17
TORSDOF 2
ENDMDL
