MODEL 1
REMARK VINA RESULT: -7.503588567      0.000      0.000
REMARK  1 active torsions:
REMARK  status: ('A' for Active; 'I' for Inactive)
REMARK       I    between atoms: C1_2  and  N1_3 
REMARK    1  A    between atoms: C1_2  and  C6_14 
ROOT
HETATM    1  O1  UNL     1      16.282  -2.734  -1.213  1.00  0.00    -0.273 OA
HETATM    2  C1  UNL     1      15.463  -2.584  -2.161  1.00  0.00     0.227 C 
HETATM    3  N1  UNL     1      15.956  -2.322  -3.444  1.00  0.00    -0.318 N 
ATOM      4  H1  UNL     1      15.384  -1.774  -4.087  1.00  0.00     0.169 HD
HETATM    5  C2  UNL     1      17.119  -2.751  -3.850  1.00  0.00     0.117 A 
HETATM    6  S1  UNL     1      18.194  -3.675  -2.902  1.00  0.00    -0.038 SA
HETATM    7  C3  UNL     1      19.637  -4.075  -3.737  1.00  0.00     0.174 A 
HETATM    8  F1  UNL     1      20.653  -4.804  -3.204  1.00  0.00    -0.197 F 
HETATM    9  C4  UNL     1      19.691  -3.587  -5.029  1.00  0.00     0.139 A 
HETATM   10  N2  UNL     1      18.745  -2.871  -5.623  1.00  0.00    -0.351 N 
ATOM     11  H2  UNL     1      18.937  -2.586  -6.583  1.00  0.00     0.166 HD
HETATM   12  C5  UNL     1      17.581  -2.479  -5.122  1.00  0.00     0.135 A 
HETATM   13  S2  UNL     1      16.557  -1.583  -6.066  1.00  0.00    -0.057 SA
ENDROOT
BRANCH   2  14
HETATM   14  C6  UNL     1      13.986  -2.672  -1.978  1.00  0.00     0.087 C 
HETATM   15  C7  UNL     1      13.245  -2.302  -3.225  1.00  0.00     0.019 C 
HETATM   16  C8  UNL     1      12.841  -0.843  -3.269  1.00  0.00     0.063 C 
HETATM   17  C9  UNL     1      11.549  -0.712  -2.513  1.00  0.00     0.221 C 
HETATM   18  N3  UNL     1      11.072   0.634  -2.400  1.00  0.00    -0.047 N 
HETATM   19  S3  UNL     1      10.191  -1.475  -3.488  1.00  0.00    -0.118 SA
HETATM   20  S4  UNL     1      11.742  -1.516  -0.917  1.00  0.00    -0.119 SA
HETATM   21  C10 UNL     1      10.533   1.067  -3.636  1.00  0.00     0.245 C 
ATOM     22  H32 UNL     1      10.405   0.739  -1.635  1.00  0.00     0.280 HD
ATOM     23  H31 UNL     1      11.795   1.267  -2.057  1.00  0.00     0.280 HD
HETATM   24  C11 UNL     1       9.444   0.104  -4.068  1.00  0.00     0.105 C 
HETATM   25  C12 UNL     1      13.527  -1.918  -0.756  1.00  0.00     0.091 C 
ENDBRANCH   2  14
TORSDOF 1
ENDMDL
MODEL 2
REMARK VINA RESULT: -7.145809322      2.253      2.994
REMARK  1 active torsions:
REMARK  status: ('A' for Active; 'I' for Inactive)
REMARK       I    between atoms: C1_2  and  N1_3 
REMARK    1  A    between atoms: C1_2  and  C6_14 
ROOT
HETATM    1  O1  UNL     1      17.208  -2.650  -1.143  1.00  0.00    -0.273 OA
HETATM    2  C1  UNL     1      17.037  -2.348  -2.356  1.00  0.00     0.227 C 
HETATM    3  N1  UNL     1      17.939  -2.836  -3.307  1.00  0.00    -0.318 N 
ATOM      4  H1  UNL     1      18.107  -2.287  -4.151  1.00  0.00     0.169 HD
HETATM    5  C2  UNL     1      18.576  -3.965  -3.157  1.00  0.00     0.117 A 
HETATM    6  S1  UNL     1      18.410  -4.996  -1.810  1.00  0.00    -0.038 SA
HETATM    7  C3  UNL     1      19.389  -6.399  -1.926  1.00  0.00     0.174 A 
HETATM    8  F1  UNL     1      19.439  -7.378  -0.984  1.00  0.00    -0.197 F 
HETATM    9  C4  UNL     1      20.143  -6.462  -3.082  1.00  0.00     0.139 A 
HETATM   10  N2  UNL     1      20.152  -5.553  -4.048  1.00  0.00    -0.351 N 
ATOM     11  H2  UNL     1      20.765  -5.748  -4.839  1.00  0.00     0.166 HD
HETATM   12  C5  UNL     1      19.461  -4.422  -4.112  1.00  0.00     0.135 A 
HETATM   13  S2  UNL     1      19.642  -3.440  -5.433  1.00  0.00    -0.057 SA
ENDROOT
BRANCH   2  14
HETATM   14  C6  UNL     1      15.911  -1.491  -2.827  1.00  0.00     0.087 C 
HETATM   15  C7  UNL     1      14.631  -1.808  -2.120  1.00  0.00     0.019 C 
HETATM   16  C8  UNL     1      13.771  -2.810  -2.862  1.00  0.00     0.063 C 
HETATM   17  C9  UNL     1      12.970  -2.046  -3.878  1.00  0.00     0.221 C 
HETATM   18  N3  UNL     1      12.154  -2.871  -4.719  1.00  0.00    -0.047 N 
HETATM   19  S3  UNL     1      11.682  -1.053  -3.022  1.00  0.00    -0.118 SA
HETATM   20  S4  UNL     1      14.092  -0.998  -4.813  1.00  0.00    -0.119 SA
HETATM   21  C10 UNL     1      11.025  -3.336  -4.001  1.00  0.00     0.245 C 
ATOM     22  H32 UNL     1      11.887  -2.393  -5.580  1.00  0.00     0.280 HD
ATOM     23  H31 UNL     1      12.686  -3.638  -5.132  1.00  0.00     0.280 HD
HETATM   24  C11 UNL     1      10.265  -2.148  -3.447  1.00  0.00     0.105 C 
HETATM   25  C12 UNL     1      15.790  -1.503  -4.330  1.00  0.00     0.091 C 
ENDBRANCH   2  14
TORSDOF 1
ENDMDL
MODEL 3
REMARK VINA RESULT: -6.718840510      3.895      6.369
REMARK  1 active torsions:
REMARK  status: ('A' for Active; 'I' for Inactive)
REMARK       I    between atoms: C1_2  and  N1_3 
REMARK    1  A    between atoms: C1_2  and  C6_14 
ROOT
HETATM    1  O1  UNL     1      16.269  -2.772  -2.720  1.00  0.00    -0.273 OA
HETATM    2  C1  UNL     1      15.549  -3.249  -3.639  1.00  0.00     0.227 C 
HETATM    3  N1  UNL     1      14.273  -3.727  -3.318  1.00  0.00    -0.318 N 
ATOM      4  H1  UNL     1      13.878  -4.483  -3.878  1.00  0.00     0.169 HD
HETATM    5  C2  UNL     1      13.570  -3.244  -2.331  1.00  0.00     0.117 A 
HETATM    6  S1  UNL     1      14.086  -1.985  -1.303  1.00  0.00    -0.038 SA
HETATM    7  C3  UNL     1      12.922  -1.590  -0.107  1.00  0.00     0.174 A 
HETATM    8  F1  UNL     1      13.089  -0.622   0.833  1.00  0.00    -0.197 F 
HETATM    9  C4  UNL     1      11.769  -2.349  -0.174  1.00  0.00     0.139 A 
HETATM   10  N2  UNL     1      11.527  -3.308  -1.058  1.00  0.00    -0.351 N 
ATOM     11  H2  UNL     1      10.625  -3.776  -0.973  1.00  0.00     0.166 HD
HETATM   12  C5  UNL     1      12.314  -3.734  -2.037  1.00  0.00     0.135 A 
HETATM   13  S2  UNL     1      11.787  -4.957  -3.021  1.00  0.00    -0.057 SA
ENDROOT
BRANCH   2  14
HETATM   14  C6  UNL     1      15.995  -3.330  -5.059  1.00  0.00     0.087 C 
HETATM   15  C7  UNL     1      15.758  -2.048  -5.794  1.00  0.00     0.019 C 
HETATM   16  C8  UNL     1      14.436  -2.019  -6.534  1.00  0.00     0.063 C 
HETATM   17  C9  UNL     1      14.651  -2.690  -7.861  1.00  0.00     0.221 C 
HETATM   18  N3  UNL     1      13.464  -2.810  -8.654  1.00  0.00    -0.047 N 
HETATM   19  S3  UNL     1      15.672  -1.605  -8.937  1.00  0.00    -0.118 SA
HETATM   20  S4  UNL     1      15.455  -4.272  -7.573  1.00  0.00    -0.119 SA
HETATM   21  C10 UNL     1      13.118  -1.553  -9.210  1.00  0.00     0.245 C 
ATOM     22  H32 UNL     1      13.555  -3.530  -9.371  1.00  0.00     0.280 HD
ATOM     23  H31 UNL     1      12.693  -3.218  -8.126  1.00  0.00     0.280 HD
HETATM   24  C11 UNL     1      14.293  -1.022 -10.007  1.00  0.00     0.105 C 
HETATM   25  C12 UNL     1      15.427  -4.540  -5.757  1.00  0.00     0.091 C 
ENDBRANCH   2  14
TORSDOF 1
ENDMDL
MODEL 4
REMARK VINA RESULT: -6.682066972      2.170      2.736
REMARK  1 active torsions:
REMARK  status: ('A' for Active; 'I' for Inactive)
REMARK       I    between atoms: C1_2  and  N1_3 
REMARK    1  A    between atoms: C1_2  and  C6_14 
ROOT
HETATM    1  O1  UNL     1      16.448  -3.478  -1.742  1.00  0.00    -0.273 OA
HETATM    2  C1  UNL     1      16.480  -3.187  -2.969  1.00  0.00     0.227 C 
HETATM    3  N1  UNL     1      17.675  -3.371  -3.675  1.00  0.00    -0.318 N 
ATOM      4  H1  UNL     1      17.872  -2.764  -4.471  1.00  0.00     0.169 HD
HETATM    5  C2  UNL     1      18.546  -4.287  -3.354  1.00  0.00     0.117 A 
HETATM    6  S1  UNL     1      18.368  -5.377  -2.054  1.00  0.00    -0.038 SA
HETATM    7  C3  UNL     1      19.695  -6.453  -1.907  1.00  0.00     0.174 A 
HETATM    8  F1  UNL     1      19.797  -7.417  -0.954  1.00  0.00    -0.197 F 
HETATM    9  C4  UNL     1      20.680  -6.261  -2.856  1.00  0.00     0.139 A 
HETATM   10  N2  UNL     1      20.658  -5.347  -3.818  1.00  0.00    -0.351 N 
ATOM     11  H2  UNL     1      21.465  -5.335  -4.441  1.00  0.00     0.166 HD
HETATM   12  C5  UNL     1      19.716  -4.447  -4.068  1.00  0.00     0.135 A 
HETATM   13  S2  UNL     1      19.915  -3.402  -5.337  1.00  0.00    -0.057 SA
ENDROOT
BRANCH   2  14
HETATM   14  C6  UNL     1      15.301  -2.653  -3.708  1.00  0.00     0.087 C 
HETATM   15  C7  UNL     1      14.702  -1.465  -3.022  1.00  0.00     0.019 C 
HETATM   16  C8  UNL     1      13.564  -1.825  -2.089  1.00  0.00     0.063 C 
HETATM   17  C9  UNL     1      12.316  -1.921  -2.920  1.00  0.00     0.221 C 
HETATM   18  N3  UNL     1      11.156  -2.332  -2.187  1.00  0.00    -0.047 N 
HETATM   19  S3  UNL     1      11.805  -0.238  -3.454  1.00  0.00    -0.118 SA
HETATM   20  S4  UNL     1      12.655  -2.982  -4.332  1.00  0.00    -0.119 SA
HETATM   21  C10 UNL     1      10.683  -1.266  -1.383  1.00  0.00     0.245 C 
ATOM     22  H32 UNL     1      10.427  -2.699  -2.799  1.00  0.00     0.280 HD
ATOM     23  H31 UNL     1      11.330  -3.174  -1.639  1.00  0.00     0.280 HD
HETATM   24  C11 UNL     1      10.412  -0.062  -2.263  1.00  0.00     0.105 C 
HETATM   25  C12 UNL     1      14.301  -3.735  -4.025  1.00  0.00     0.091 C 
ENDBRANCH   2  14
TORSDOF 1
ENDMDL
MODEL 5
REMARK VINA RESULT: -6.526741506      3.490      6.527
REMARK  1 active torsions:
REMARK  status: ('A' for Active; 'I' for Inactive)
REMARK       I    between atoms: C1_2  and  N1_3 
REMARK    1  A    between atoms: C1_2  and  C6_14 
ROOT
HETATM    1  O1  UNL     1      15.940  -3.349  -2.491  1.00  0.00    -0.273 OA
HETATM    2  C1  UNL     1      15.337  -3.319  -3.599  1.00  0.00     0.227 C 
HETATM    3  N1  UNL     1      13.938  -3.325  -3.606  1.00  0.00    -0.318 N 
ATOM      4  H1  UNL     1      13.454  -3.742  -4.402  1.00  0.00     0.169 HD
HETATM    5  C2  UNL     1      13.228  -2.819  -2.636  1.00  0.00     0.117 A 
HETATM    6  S1  UNL     1      13.881  -2.088  -1.240  1.00  0.00    -0.038 SA
HETATM    7  C3  UNL     1      12.674  -1.527  -0.160  1.00  0.00     0.174 A 
HETATM    8  F1  UNL     1      12.931  -0.908   1.022  1.00  0.00    -0.197 F 
HETATM    9  C4  UNL     1      11.382  -1.756  -0.596  1.00  0.00     0.139 A 
HETATM   10  N2  UNL     1      11.046  -2.350  -1.733  1.00  0.00    -0.351 N 
ATOM     11  H2  UNL     1      10.045  -2.444  -1.909  1.00  0.00     0.166 HD
HETATM   12  C5  UNL     1      11.848  -2.838  -2.669  1.00  0.00     0.135 A 
HETATM   13  S2  UNL     1      11.186  -3.542  -4.014  1.00  0.00    -0.057 SA
ENDROOT
BRANCH   2  14
HETATM   14  C6  UNL     1      16.048  -3.276  -4.909  1.00  0.00     0.087 C 
HETATM   15  C7  UNL     1      16.567  -1.908  -5.220  1.00  0.00     0.019 C 
HETATM   16  C8  UNL     1      15.614  -1.084  -6.062  1.00  0.00     0.063 C 
HETATM   17  C9  UNL     1      15.852  -1.454  -7.498  1.00  0.00     0.221 C 
HETATM   18  N3  UNL     1      14.966  -0.809  -8.422  1.00  0.00    -0.047 N 
HETATM   19  S3  UNL     1      17.469  -0.776  -8.046  1.00  0.00    -0.118 SA
HETATM   20  S4  UNL     1      15.812  -3.246  -7.636  1.00  0.00    -0.119 SA
HETATM   21  C10 UNL     1      15.334   0.549  -8.585  1.00  0.00     0.245 C 
ATOM     22  H32 UNL     1      14.920  -1.302  -9.314  1.00  0.00     0.280 HD
ATOM     23  H31 UNL     1      13.989  -0.909  -8.145  1.00  0.00     0.280 HD
HETATM   24  C11 UNL     1      16.782   0.621  -9.028  1.00  0.00     0.105 C 
HETATM   25  C12 UNL     1      15.218  -3.874  -6.016  1.00  0.00     0.091 C 
ENDBRANCH   2  14
TORSDOF 1
ENDMDL
