MODEL 1
REMARK VINA RESULT: -6.601832646      0.000      0.000
REMARK  0 active torsions:
REMARK  status: ('A' for Active; 'I' for Inactive)
ROOT
HETATM    1  C1  UNL     1      17.973  -2.194  -6.629  1.00  0.00     0.011 A 
HETATM    2  C2  UNL     1      18.437  -2.761  -5.409  1.00  0.00     0.037 A 
HETATM    3  C3  UNL     1      17.801  -3.800  -4.793  1.00  0.00     0.069 A 
HETATM    4  C4  UNL     1      16.683  -4.271  -5.419  1.00  0.00     0.037 A 
HETATM    5  C5  UNL     1      16.198  -3.719  -6.642  1.00  0.00     0.011 A 
HETATM    6  C6  UNL     1      16.847  -2.676  -7.251  1.00  0.00    -0.049 A 
HETATM    7  C7  UNL     1      16.318  -2.115  -8.531  1.00  0.00     0.112 C 
HETATM    8  S1  UNL     1      15.004  -0.870  -8.158  1.00  0.00    -0.164 SA
HETATM    9  C8  UNL     1      13.531  -1.303  -9.107  1.00  0.00     0.084 C 
HETATM   10  C9  UNL     1      12.328  -1.159  -8.207  1.00  0.00     0.085 C 
HETATM   11  S2  UNL     1      12.212  -2.686  -7.204  1.00  0.00    -0.141 SA
HETATM   12  C10 UNL     1      11.329  -2.275  -5.683  1.00  0.00     0.305 C 
HETATM   13  N1  UNL     1      11.957  -1.085  -5.122  1.00  0.00    -0.065 N 
ATOM     14  H11 UNL     1      11.377  -0.256  -5.251  1.00  0.00     0.278 HD
ATOM     15  H12 UNL     1      12.768  -0.793  -5.669  1.00  0.00     0.278 HD
HETATM   16  C11 UNL     1      12.298  -1.290  -3.722  1.00  0.00     0.259 C 
HETATM   17  C12 UNL     1      13.738  -0.869  -3.542  1.00  0.00     0.195 C 
HETATM   18  O1  UNL     1      14.129  -0.839  -2.213  1.00  0.00    -0.388 OA
HETATM   19  C13 UNL     1      14.113  -2.064  -1.593  1.00  0.00     0.187 C 
HETATM   20  C14 UNL     1      15.355  -2.898  -1.952  1.00  0.00     0.145 C 
HETATM   21  N2  UNL     1      16.428  -2.007  -2.156  1.00  0.00    -0.398 N 
ATOM     22  H2  UNL     1      16.256  -1.020  -2.350  1.00  0.00     0.158 HD
HETATM   23  C15 UNL     1      17.742  -2.507  -2.087  1.00  0.00     0.082 C 
HETATM   24  C16 UNL     1      17.927  -3.966  -2.283  1.00  0.00     0.219 C 
HETATM   25  O2  UNL     1      18.282  -4.337  -3.591  1.00  0.00    -0.346 OA
ENDROOT
TORSDOF 0
ENDMDL
MODEL 2
REMARK VINA RESULT: -6.396220575      2.629      5.010
REMARK  0 active torsions:
REMARK  status: ('A' for Active; 'I' for Inactive)
ROOT
HETATM    1  C1  UNL     1      15.349  -2.715  -1.552  1.00  0.00     0.011 A 
HETATM    2  C2  UNL     1      16.468  -2.899  -2.412  1.00  0.00     0.037 A 
HETATM    3  C3  UNL     1      16.683  -2.121  -3.513  1.00  0.00     0.069 A 
HETATM    4  C4  UNL     1      15.757  -1.147  -3.746  1.00  0.00     0.037 A 
HETATM    5  C5  UNL     1      14.627  -0.943  -2.900  1.00  0.00     0.011 A 
HETATM    6  C6  UNL     1      14.422  -1.730  -1.796  1.00  0.00    -0.049 A 
HETATM    7  C7  UNL     1      13.230  -1.498  -0.925  1.00  0.00     0.112 C 
HETATM    8  S1  UNL     1      11.772  -2.387  -1.632  1.00  0.00    -0.164 SA
HETATM    9  C8  UNL     1      10.416  -1.207  -1.793  1.00  0.00     0.084 C 
HETATM   10  C9  UNL     1       9.758  -1.421  -3.135  1.00  0.00     0.085 C 
HETATM   11  S2  UNL     1      10.766  -0.535  -4.381  1.00  0.00    -0.141 SA
HETATM   12  C10 UNL     1      10.492  -1.339  -5.975  1.00  0.00     0.305 C 
HETATM   13  N1  UNL     1      10.678  -2.772  -5.779  1.00  0.00    -0.065 N 
ATOM     14  H11 UNL     1       9.788  -3.271  -5.787  1.00  0.00     0.278 HD
ATOM     15  H12 UNL     1      10.967  -2.987  -4.825  1.00  0.00     0.278 HD
HETATM   16  C11 UNL     1      11.607  -3.313  -6.759  1.00  0.00     0.259 C 
HETATM   17  C12 UNL     1      12.632  -4.129  -6.006  1.00  0.00     0.195 C 
HETATM   18  O1  UNL     1      13.466  -4.853  -6.843  1.00  0.00    -0.388 OA
HETATM   19  C13 UNL     1      14.260  -4.080  -7.654  1.00  0.00     0.187 C 
HETATM   20  C14 UNL     1      15.480  -3.530  -6.894  1.00  0.00     0.145 C 
HETATM   21  N2  UNL     1      15.844  -4.479  -5.919  1.00  0.00    -0.398 N 
ATOM     22  H2  UNL     1      15.181  -5.191  -5.612  1.00  0.00     0.158 HD
HETATM   23  C15 UNL     1      17.143  -4.425  -5.378  1.00  0.00     0.082 C 
HETATM   24  C16 UNL     1      17.873  -3.138  -5.486  1.00  0.00     0.219 C 
HETATM   25  O2  UNL     1      17.795  -2.327  -4.342  1.00  0.00    -0.346 OA
ENDROOT
TORSDOF 0
ENDMDL
MODEL 3
REMARK VINA RESULT: -6.364489881      2.802      4.144
REMARK  0 active torsions:
REMARK  status: ('A' for Active; 'I' for Inactive)
ROOT
HETATM    1  C1  UNL     1      13.693  -3.679  -8.570  1.00  0.00     0.011 A 
HETATM    2  C2  UNL     1      14.957  -3.054  -8.381  1.00  0.00     0.037 A 
HETATM    3  C3  UNL     1      15.829  -3.441  -7.404  1.00  0.00     0.069 A 
HETATM    4  C4  UNL     1      15.417  -4.472  -6.611  1.00  0.00     0.037 A 
HETATM    5  C5  UNL     1      14.155  -5.115  -6.780  1.00  0.00     0.011 A 
HETATM    6  C6  UNL     1      13.288  -4.717  -7.765  1.00  0.00    -0.049 A 
HETATM    7  C7  UNL     1      11.972  -5.405  -7.923  1.00  0.00     0.112 C 
HETATM    8  S1  UNL     1      10.744  -4.652  -6.763  1.00  0.00    -0.164 SA
HETATM    9  C8  UNL     1       9.994  -5.980  -5.796  1.00  0.00     0.084 C 
HETATM   10  C9  UNL     1       9.920  -5.534  -4.356  1.00  0.00     0.085 C 
HETATM   11  S2  UNL     1      11.565  -5.831  -3.610  1.00  0.00    -0.141 SA
HETATM   12  C10 UNL     1      11.750  -4.686  -2.225  1.00  0.00     0.305 C 
HETATM   13  N1  UNL     1      11.403  -3.355  -2.710  1.00  0.00    -0.065 N 
ATOM     14  H11 UNL     1      10.493  -3.053  -2.363  1.00  0.00     0.278 HD
ATOM     15  H12 UNL     1      11.194  -3.360  -3.708  1.00  0.00     0.278 HD
HETATM   16  C11 UNL     1      12.449  -2.396  -2.383  1.00  0.00     0.259 C 
HETATM   17  C12 UNL     1      12.777  -1.639  -3.649  1.00  0.00     0.195 C 
HETATM   18  O1  UNL     1      13.626  -0.566  -3.430  1.00  0.00    -0.388 OA
HETATM   19  C13 UNL     1      14.874  -0.918  -2.979  1.00  0.00     0.187 C 
HETATM   20  C14 UNL     1      15.773  -1.411  -4.126  1.00  0.00     0.145 C 
HETATM   21  N2  UNL     1      15.402  -0.716  -5.294  1.00  0.00    -0.398 N 
ATOM     22  H2  UNL     1      14.493  -0.259  -5.361  1.00  0.00     0.158 HD
HETATM   23  C15 UNL     1      16.312  -0.668  -6.367  1.00  0.00     0.082 C 
HETATM   24  C16 UNL     1      17.367  -1.709  -6.414  1.00  0.00     0.219 C 
HETATM   25  O2  UNL     1      17.068  -2.805  -7.242  1.00  0.00    -0.346 OA
ENDROOT
TORSDOF 0
ENDMDL
MODEL 4
REMARK VINA RESULT: -6.322881035      1.905      5.080
REMARK  0 active torsions:
REMARK  status: ('A' for Active; 'I' for Inactive)
ROOT
HETATM    1  C1  UNL     1      11.243  -2.984  -5.735  1.00  0.00     0.011 A 
HETATM    2  C2  UNL     1      11.024  -2.598  -4.383  1.00  0.00     0.037 A 
HETATM    3  C3  UNL     1      11.607  -1.494  -3.830  1.00  0.00     0.069 A 
HETATM    4  C4  UNL     1      12.419  -0.772  -4.656  1.00  0.00     0.037 A 
HETATM    5  C5  UNL     1      12.655  -1.138  -6.014  1.00  0.00     0.011 A 
HETATM    6  C6  UNL     1      12.064  -2.249  -6.558  1.00  0.00    -0.049 A 
HETATM    7  C7  UNL     1      12.327  -2.612  -7.983  1.00  0.00     0.112 C 
HETATM    8  S1  UNL     1      13.891  -3.592  -8.086  1.00  0.00    -0.164 SA
HETATM    9  C8  UNL     1      14.963  -2.815  -9.314  1.00  0.00     0.084 C 
HETATM   10  C9  UNL     1      16.366  -2.774  -8.759  1.00  0.00     0.085 C 
HETATM   11  S2  UNL     1      16.470  -1.320  -7.652  1.00  0.00    -0.141 SA
HETATM   12  C10 UNL     1      17.780  -1.642  -6.450  1.00  0.00     0.305 C 
HETATM   13  N1  UNL     1      17.542  -2.966  -5.889  1.00  0.00    -0.065 N 
ATOM     14  H11 UNL     1      18.204  -3.654  -6.248  1.00  0.00     0.278 HD
ATOM     15  H12 UNL     1      16.681  -3.379  -6.248  1.00  0.00     0.278 HD
HETATM   16  C11 UNL     1      17.550  -2.921  -4.434  1.00  0.00     0.259 C 
HETATM   17  C12 UNL     1      16.305  -3.630  -3.953  1.00  0.00     0.195 C 
HETATM   18  O1  UNL     1      16.289  -3.821  -2.581  1.00  0.00    -0.388 OA
HETATM   19  C13 UNL     1      16.252  -2.659  -1.851  1.00  0.00     0.187 C 
HETATM   20  C14 UNL     1      14.832  -2.068  -1.798  1.00  0.00     0.145 C 
HETATM   21  N2  UNL     1      13.918  -3.140  -1.831  1.00  0.00    -0.398 N 
ATOM     22  H2  UNL     1      14.204  -4.058  -2.169  1.00  0.00     0.158 HD
HETATM   23  C15 UNL     1      12.601  -2.916  -1.385  1.00  0.00     0.082 C 
HETATM   24  C16 UNL     1      12.118  -1.514  -1.364  1.00  0.00     0.219 C 
HETATM   25  O2  UNL     1      11.371  -1.140  -2.495  1.00  0.00    -0.346 OA
ENDROOT
TORSDOF 0
ENDMDL
MODEL 5
REMARK VINA RESULT: -6.279014519      2.293      4.787
REMARK  0 active torsions:
REMARK  status: ('A' for Active; 'I' for Inactive)
ROOT
HETATM    1  C1  UNL     1      14.293  -2.709  -1.616  1.00  0.00     0.011 A 
HETATM    2  C2  UNL     1      15.658  -2.955  -1.934  1.00  0.00     0.037 A 
HETATM    3  C3  UNL     1      16.369  -2.158  -2.785  1.00  0.00     0.069 A 
HETATM    4  C4  UNL     1      15.692  -1.100  -3.318  1.00  0.00     0.037 A 
HETATM    5  C5  UNL     1      14.324  -0.833  -3.015  1.00  0.00     0.011 A 
HETATM    6  C6  UNL     1      13.620  -1.641  -2.159  1.00  0.00    -0.049 A 
HETATM    7  C7  UNL     1      12.188  -1.341  -1.858  1.00  0.00     0.112 C 
HETATM    8  S1  UNL     1      11.118  -2.076  -3.174  1.00  0.00    -0.164 SA
HETATM    9  C8  UNL     1      10.035  -0.779  -3.810  1.00  0.00     0.084 C 
HETATM   10  C9  UNL     1      10.000  -0.886  -5.315  1.00  0.00     0.085 C 
HETATM   11  S2  UNL     1      11.494  -0.043  -5.954  1.00  0.00    -0.141 SA
HETATM   12  C10 UNL     1      11.877  -0.761  -7.567  1.00  0.00     0.305 C 
HETATM   13  N1  UNL     1      11.873  -2.211  -7.412  1.00  0.00    -0.065 N 
ATOM     14  H11 UNL     1      11.043  -2.632  -7.829  1.00  0.00     0.278 HD
ATOM     15  H12 UNL     1      11.715  -2.485  -6.442  1.00  0.00     0.278 HD
HETATM   16  C11 UNL     1      13.097  -2.792  -7.944  1.00  0.00     0.259 C 
HETATM   17  C12 UNL     1      13.652  -3.719  -6.888  1.00  0.00     0.195 C 
HETATM   18  O1  UNL     1      14.716  -4.479  -7.343  1.00  0.00    -0.388 OA
HETATM   19  C13 UNL     1      15.826  -3.747  -7.687  1.00  0.00     0.187 C 
HETATM   20  C14 UNL     1      16.637  -3.332  -6.448  1.00  0.00     0.145 C 
HETATM   21  N2  UNL     1      16.492  -4.345  -5.478  1.00  0.00    -0.398 N 
ATOM     22  H2  UNL     1      15.720  -5.008  -5.530  1.00  0.00     0.158 HD
HETATM   23  C15 UNL     1      17.437  -4.421  -4.438  1.00  0.00     0.082 C 
HETATM   24  C16 UNL     1      18.222  -3.198  -4.138  1.00  0.00     0.219 C 
HETATM   25  O2  UNL     1      17.713  -2.426  -3.079  1.00  0.00    -0.346 OA
ENDROOT
TORSDOF 0
ENDMDL
