MODEL 1
REMARK VINA RESULT: -5.401228204      0.000      0.000
REMARK  3 active torsions:
REMARK  status: ('A' for Active; 'I' for Inactive)
REMARK    1  A    between atoms: C2_2  and  C3_3 
REMARK    2  A    between atoms: C3_3  and  C5_5 
REMARK    3  A    between atoms: C8_8  and  N1_9 
REMARK       I    between atoms: N1_9  and  C9_11 
REMARK       I    between atoms: C9_11  and  N3_15 
ROOT
HETATM    1  C5  UNL     1      -0.108  18.799  21.166  1.00  0.00     0.023 C 
HETATM    2  C6  UNL     1       0.078  19.701  19.981  1.00  0.00     0.009 C 
HETATM    3  C7  UNL     1      -1.051  18.959  19.316  1.00  0.00     0.038 C 
HETATM    4  C8  UNL     1      -0.549  17.815  20.143  1.00  0.00     0.053 C 
HETATM    5  C11 UNL     1       0.780  17.555  19.411  1.00  0.00     0.048 C 
HETATM    6  C12 UNL     1       1.264  19.016  19.301  1.00  0.00     0.065 C 
HETATM    7 BR1  UNL     1       2.877  19.268  20.319  1.00  0.00    -0.091 Br
ENDROOT
BRANCH   4   8
HETATM    8  N1  UNL     1      -1.357  16.744  20.439  1.00  0.00    -0.217 N 
HETATM    9  C9  UNL     1      -1.564  15.679  19.521  1.00  0.00     0.667 C 
HETATM   10  N2  UNL     1      -1.150  14.483  19.829  1.00  0.00    -0.235 N 
HETATM   11  N3  UNL     1      -2.205  15.845  18.265  1.00  0.00    -0.231 N 
ATOM     12  H22 UNL     1      -0.689  14.365  20.731  1.00  0.00     0.174 HD
ATOM     13  H21 UNL     1      -1.299  13.719  19.170  1.00  0.00     0.174 HD
HETATM   14  C10 UNL     1      -1.706  15.333  17.009  1.00  0.00     0.165 C 
ATOM     15  H3  UNL     1      -3.083  16.363  18.249  1.00  0.00     0.177 HD
ATOM     16  H1  UNL     1      -1.822  16.712  21.346  1.00  0.00     0.178 HD
ENDBRANCH   4   8
BRANCH   1  17
HETATM   17  C3  UNL     1      -0.950  19.211  22.274  1.00  0.00    -0.012 C 
HETATM   18  C4  UNL     1      -0.978  20.632  22.677  1.00  0.00     0.010 C 
BRANCH  17  19
HETATM   19  C2  UNL     1      -0.589  18.342  23.488  1.00  0.00     0.000 C 
HETATM   20  C1  UNL     1      -1.723  17.478  23.915  1.00  0.00     0.005 C 
ENDBRANCH  17  19
ENDBRANCH   1  17
TORSDOF 3
ENDMDL
MODEL 2
REMARK VINA RESULT: -5.268348527      2.235      2.861
REMARK  3 active torsions:
REMARK  status: ('A' for Active; 'I' for Inactive)
REMARK    1  A    between atoms: C2_2  and  C3_3 
REMARK    2  A    between atoms: C3_3  and  C5_5 
REMARK    3  A    between atoms: C8_8  and  N1_9 
REMARK       I    between atoms: N1_9  and  C9_11 
REMARK       I    between atoms: C9_11  and  N3_15 
ROOT
HETATM    1  C5  UNL     1       1.143  19.060  19.327  1.00  0.00     0.023 C 
HETATM    2  C6  UNL     1       0.338  20.177  18.730  1.00  0.00     0.009 C 
HETATM    3  C7  UNL     1      -0.883  19.540  19.338  1.00  0.00     0.038 C 
HETATM    4  C8  UNL     1      -0.105  18.275  19.136  1.00  0.00     0.053 C 
HETATM    5  C11 UNL     1      -0.161  18.203  17.600  1.00  0.00     0.048 C 
HETATM    6  C12 UNL     1       0.194  19.672  17.294  1.00  0.00     0.065 C 
HETATM    7 BR1  UNL     1       1.874  19.777  16.360  1.00  0.00    -0.091 Br
ENDROOT
BRANCH   4   8
HETATM    8  N1  UNL     1      -0.390  17.143  19.859  1.00  0.00    -0.217 N 
HETATM    9  C9  UNL     1      -0.881  15.959  19.244  1.00  0.00     0.667 C 
HETATM   10  N2  UNL     1      -0.155  14.879  19.272  1.00  0.00    -0.235 N 
HETATM   11  N3  UNL     1      -2.138  15.884  18.588  1.00  0.00    -0.231 N 
ATOM     12  H22 UNL     1       0.748  14.933  19.743  1.00  0.00     0.174 HD
ATOM     13  H21 UNL     1      -0.507  14.029  18.831  1.00  0.00     0.174 HD
HETATM   14  C10 UNL     1      -2.354  15.305  17.281  1.00  0.00     0.165 C 
ATOM     15  H3  UNL     1      -2.948  16.267  19.074  1.00  0.00     0.177 HD
ATOM     16  H1  UNL     1      -0.246  17.151  20.868  1.00  0.00     0.178 HD
ENDBRANCH   4   8
BRANCH   1  17
HETATM   17  C3  UNL     1       1.777  19.226  20.621  1.00  0.00    -0.012 C 
HETATM   18  C4  UNL     1       1.384  20.357  21.484  1.00  0.00     0.010 C 
BRANCH  17  19
HETATM   19  C2  UNL     1       3.297  19.255  20.400  1.00  0.00     0.000 C 
HETATM   20  C1  UNL     1       3.949  20.377  21.130  1.00  0.00     0.005 C 
ENDBRANCH  17  19
ENDBRANCH   1  17
TORSDOF 3
ENDMDL
MODEL 3
REMARK VINA RESULT: -4.951800456      2.256      3.516
REMARK  3 active torsions:
REMARK  status: ('A' for Active; 'I' for Inactive)
REMARK    1  A    between atoms: C2_2  and  C3_3 
REMARK    2  A    between atoms: C3_3  and  C5_5 
REMARK    3  A    between atoms: C8_8  and  N1_9 
REMARK       I    between atoms: N1_9  and  C9_11 
REMARK       I    between atoms: C9_11  and  N3_15 
ROOT
HETATM    1  C5  UNL     1      -0.619  19.214  19.085  1.00  0.00     0.023 C 
HETATM    2  C6  UNL     1       0.471  18.772  20.017  1.00  0.00     0.009 C 
HETATM    3  C7  UNL     1       0.879  17.772  18.968  1.00  0.00     0.038 C 
HETATM    4  C8  UNL     1      -0.581  17.800  18.629  1.00  0.00     0.053 C 
HETATM    5  C11 UNL     1      -1.130  17.087  19.877  1.00  0.00     0.048 C 
HETATM    6  C12 UNL     1      -0.323  17.851  20.946  1.00  0.00     0.065 C 
HETATM    7 BR1  UNL     1      -1.500  18.870  22.077  1.00  0.00    -0.091 Br
ENDROOT
BRANCH   4   8
HETATM    8  N1  UNL     1      -1.030  17.403  17.393  1.00  0.00    -0.217 N 
HETATM    9  C9  UNL     1      -1.658  16.144  17.187  1.00  0.00     0.667 C 
HETATM   10  N2  UNL     1      -2.904  16.108  16.814  1.00  0.00    -0.235 N 
HETATM   11  N3  UNL     1      -0.994  14.903  17.369  1.00  0.00    -0.231 N 
ATOM     12  H22 UNL     1      -3.381  17.000  16.684  1.00  0.00     0.174 HD
ATOM     13  H21 UNL     1      -3.355  15.204  16.666  1.00  0.00     0.174 HD
HETATM   14  C10 UNL     1      -1.528  13.781  18.107  1.00  0.00     0.165 C 
ATOM     15  H3  UNL     1      -0.071  14.795  16.947  1.00  0.00     0.177 HD
ATOM     16  H1  UNL     1      -0.911  18.032  16.599  1.00  0.00     0.178 HD
ENDBRANCH   4   8
BRANCH   1  17
HETATM   17  C3  UNL     1      -0.404  20.335  18.189  1.00  0.00    -0.012 C 
HETATM   18  C4  UNL     1       0.590  21.368  18.541  1.00  0.00     0.010 C 
BRANCH  17  19
HETATM   19  C2  UNL     1      -1.765  21.000  17.933  1.00  0.00     0.000 C 
HETATM   20  C1  UNL     1      -2.552  21.168  19.186  1.00  0.00     0.005 C 
ENDBRANCH  17  19
ENDBRANCH   1  17
TORSDOF 3
ENDMDL
MODEL 4
REMARK VINA RESULT: -4.798998314      1.475      2.094
REMARK  3 active torsions:
REMARK  status: ('A' for Active; 'I' for Inactive)
REMARK    1  A    between atoms: C2_2  and  C3_3 
REMARK    2  A    between atoms: C3_3  and  C5_5 
REMARK    3  A    between atoms: C8_8  and  N1_9 
REMARK       I    between atoms: N1_9  and  C9_11 
REMARK       I    between atoms: C9_11  and  N3_15 
ROOT
HETATM    1  C5  UNL     1      -0.337  19.379  19.534  1.00  0.00     0.023 C 
HETATM    2  C6  UNL     1       0.646  19.395  18.401  1.00  0.00     0.009 C 
HETATM    3  C7  UNL     1      -0.155  18.286  17.772  1.00  0.00     0.038 C 
HETATM    4  C8  UNL     1      -0.458  17.936  19.197  1.00  0.00     0.053 C 
HETATM    5  C11 UNL     1       0.933  17.431  19.620  1.00  0.00     0.048 C 
HETATM    6  C12 UNL     1       1.779  18.569  19.012  1.00  0.00     0.065 C 
HETATM    7 BR1  UNL     1       2.674  19.557  20.400  1.00  0.00    -0.091 Br
ENDROOT
BRANCH   4   8
HETATM    8  N1  UNL     1      -1.559  17.184  19.526  1.00  0.00    -0.217 N 
HETATM    9  C9  UNL     1      -1.545  15.764  19.472  1.00  0.00     0.667 C 
HETATM   10  N2  UNL     1      -1.693  15.083  20.573  1.00  0.00    -0.235 N 
HETATM   11  N3  UNL     1      -1.375  15.030  18.269  1.00  0.00    -0.231 N 
ATOM     12  H22 UNL     1      -1.816  15.611  21.437  1.00  0.00     0.174 HD
ATOM     13  H21 UNL     1      -1.684  14.064  20.534  1.00  0.00     0.174 HD
HETATM   14  C10 UNL     1      -0.463  13.922  18.099  1.00  0.00     0.165 C 
ATOM     15  H3  UNL     1      -1.939  15.305  17.465  1.00  0.00     0.177 HD
ATOM     16  H1  UNL     1      -2.413  17.659  19.818  1.00  0.00     0.178 HD
ENDBRANCH   4   8
BRANCH   1  17
HETATM   17  C3  UNL     1      -1.471  20.284  19.531  1.00  0.00    -0.012 C 
HETATM   18  C4  UNL     1      -1.391  21.549  18.772  1.00  0.00     0.010 C 
BRANCH  17  19
HETATM   19  C2  UNL     1      -1.836  20.587  20.992  1.00  0.00     0.000 C 
HETATM   20  C1  UNL     1      -0.736  20.233  21.930  1.00  0.00     0.005 C 
ENDBRANCH  17  19
ENDBRANCH   1  17
TORSDOF 3
ENDMDL
MODEL 5
REMARK VINA RESULT: -4.707361247      3.535      5.768
REMARK  3 active torsions:
REMARK  status: ('A' for Active; 'I' for Inactive)
REMARK    1  A    between atoms: C2_2  and  C3_3 
REMARK    2  A    between atoms: C3_3  and  C5_5 
REMARK    3  A    between atoms: C8_8  and  N1_9 
REMARK       I    between atoms: N1_9  and  C9_11 
REMARK       I    between atoms: C9_11  and  N3_15 
ROOT
HETATM    1  C5  UNL     1       1.969  20.757  16.688  1.00  0.00     0.023 C 
HETATM    2  C6  UNL     1       2.564  21.118  18.017  1.00  0.00     0.009 C 
HETATM    3  C7  UNL     1       2.361  19.685  18.429  1.00  0.00     0.038 C 
HETATM    4  C8  UNL     1       1.201  19.763  17.484  1.00  0.00     0.053 C 
HETATM    5  C11 UNL     1       0.291  20.699  18.299  1.00  0.00     0.048 C 
HETATM    6  C12 UNL     1       1.347  21.749  18.697  1.00  0.00     0.065 C 
HETATM    7 BR1  UNL     1       0.930  23.454  17.909  1.00  0.00    -0.091 Br
ENDROOT
BRANCH   4   8
HETATM    8  N1  UNL     1       0.656  18.629  16.933  1.00  0.00    -0.217 N 
HETATM    9  C9  UNL     1      -0.356  17.881  17.595  1.00  0.00     0.667 C 
HETATM   10  N2  UNL     1      -1.540  17.797  17.058  1.00  0.00    -0.235 N 
HETATM   11  N3  UNL     1      -0.150  17.210  18.828  1.00  0.00    -0.231 N 
ATOM     12  H22 UNL     1      -1.688  18.280  16.171  1.00  0.00     0.174 HD
ATOM     13  H21 UNL     1      -2.266  17.261  17.532  1.00  0.00     0.174 HD
HETATM   14  C10 UNL     1      -1.037  17.284  19.968  1.00  0.00     0.165 C 
ATOM     15  H3  UNL     1       0.686  16.633  18.918  1.00  0.00     0.177 HD
ATOM     16  H1  UNL     1       0.986  18.314  16.022  1.00  0.00     0.178 HD
ENDBRANCH   4   8
BRANCH   1  17
HETATM   17  C3  UNL     1       2.828  20.382  15.580  1.00  0.00    -0.012 C 
HETATM   18  C4  UNL     1       4.193  20.938  15.497  1.00  0.00     0.010 C 
BRANCH  17  19
HETATM   19  C2  UNL     1       2.073  20.682  14.277  1.00  0.00     0.000 C 
HETATM   20  C1  UNL     1       1.008  21.705  14.468  1.00  0.00     0.005 C 
ENDBRANCH  17  19
ENDBRANCH   1  17
TORSDOF 3
ENDMDL
