MODEL 1
REMARK VINA RESULT: -6.291762899      0.000      0.000
REMARK  5 active torsions:
REMARK  status: ('A' for Active; 'I' for Inactive)
REMARK    1  A    between atoms: C2_2  and  S1_3 
REMARK    2  A    between atoms: S1_3  and  C3_4 
REMARK    3  A    between atoms: C5_8  and  C6_9 
REMARK    4  A    between atoms: C8_13  and  C9_14 
REMARK    5  A    between atoms: C9_14  and  C10_15 
ROOT
HETATM    1  C3  UNL     1      -0.520  17.751  19.030  1.00  0.00     0.102 A 
HETATM    2  N1  UNL     1      -0.180  18.326  20.233  1.00  0.00    -0.335 N 
ATOM      3  H1  UNL     1       0.469  19.105  20.345  1.00  0.00     0.168 HD
HETATM    4  C4  UNL     1      -0.826  17.713  21.235  1.00  0.00     0.102 A 
HETATM    5  C5  UNL     1      -0.748  17.993  22.527  1.00  0.00     0.021 C 
HETATM    6  N2  UNL     1      -1.578  16.747  20.681  1.00  0.00    -0.340 N 
ATOM      7  H2  UNL     1      -2.184  16.109  21.198  1.00  0.00     0.167 HD
HETATM    8  C8  UNL     1      -1.414  16.743  19.324  1.00  0.00     0.069 A 
ENDROOT
BRANCH   8   9
HETATM    9  C9  UNL     1      -2.036  15.895  18.542  1.00  0.00     0.051 C 
BRANCH   9  10
HETATM   10  C10 UNL     1      -1.362  14.707  18.046  1.00  0.00     0.059 A 
HETATM   11  C11 UNL     1      -1.572  14.079  16.822  1.00  0.00     0.037 A 
HETATM   12  C12 UNL     1      -2.520  14.483  15.765  1.00  0.00     0.070 C 
HETATM   13  N3  UNL     1      -0.743  13.013  16.758  1.00  0.00    -0.301 N 
HETATM   14  N4  UNL     1      -0.021  12.928  17.868  1.00  0.00    -0.266 N 
ATOM     15  H3  UNL     1      -0.681  12.368  15.970  1.00  0.00     0.186 HD
HETATM   16  C13 UNL     1      -0.387  13.951  18.661  1.00  0.00     0.272 A 
ATOM     17  H4  UNL     1       0.681  12.219  18.081  1.00  0.00     0.190 HD
HETATM   18  O1  UNL     1       0.089  14.191  19.801  1.00  0.00    -0.266 OA
ENDBRANCH   9  10
ENDBRANCH   8   9
BRANCH   1  19
HETATM   19  S1  UNL     1       0.046  18.205  17.574  1.00  0.00    -0.083 SA
BRANCH  19  20
HETATM   20  C2  UNL     1       1.039  19.666  17.309  1.00  0.00     0.041 C 
HETATM   21  C1  UNL     1       1.799  19.791  16.236  1.00  0.00     0.019 C 
ENDBRANCH  19  20
ENDBRANCH   1  19
BRANCH   5  22
HETATM   22  C6  UNL     1      -1.515  17.238  23.533  1.00  0.00     0.026 C 
HETATM   23  C7  UNL     1      -0.946  17.396  24.924  1.00  0.00     0.009 C 
ENDBRANCH   5  22
TORSDOF 5
ENDMDL
MODEL 2
REMARK VINA RESULT: -6.254510949      1.326      4.387
REMARK  5 active torsions:
REMARK  status: ('A' for Active; 'I' for Inactive)
REMARK    1  A    between atoms: C2_2  and  S1_3 
REMARK    2  A    between atoms: S1_3  and  C3_4 
REMARK    3  A    between atoms: C5_8  and  C6_9 
REMARK    4  A    between atoms: C8_13  and  C9_14 
REMARK    5  A    between atoms: C9_14  and  C10_15 
ROOT
HETATM    1  C3  UNL     1      -0.704  17.484  19.452  1.00  0.00     0.102 A 
HETATM    2  N1  UNL     1       0.225  18.481  19.259  1.00  0.00    -0.335 N 
ATOM      3  H1  UNL     1       0.652  19.034  20.002  1.00  0.00     0.168 HD
HETATM    4  C4  UNL     1       0.486  18.619  17.952  1.00  0.00     0.102 A 
HETATM    5  C5  UNL     1       1.326  19.476  17.389  1.00  0.00     0.021 C 
HETATM    6  N2  UNL     1      -0.270  17.716  17.304  1.00  0.00    -0.340 N 
ATOM      7  H2  UNL     1      -0.286  17.584  16.293  1.00  0.00     0.167 HD
HETATM    8  C8  UNL     1      -1.015  17.000  18.199  1.00  0.00     0.069 A 
ENDROOT
BRANCH   8   9
HETATM    9  C9  UNL     1      -1.842  16.052  17.828  1.00  0.00     0.051 C 
BRANCH   9  10
HETATM   10  C10 UNL     1      -1.350  14.728  17.487  1.00  0.00     0.059 A 
HETATM   11  C11 UNL     1      -1.617  14.014  16.322  1.00  0.00     0.037 A 
HETATM   12  C12 UNL     1      -2.452  14.447  15.185  1.00  0.00     0.070 C 
HETATM   13  N3  UNL     1      -0.967  12.832  16.405  1.00  0.00    -0.301 N 
HETATM   14  N4  UNL     1      -0.306  12.753  17.552  1.00  0.00    -0.266 N 
ATOM     15  H3  UNL     1      -0.983  12.105  15.689  1.00  0.00     0.186 HD
HETATM   16  C13 UNL     1      -0.529  13.898  18.222  1.00  0.00     0.272 A 
ATOM     17  H4  UNL     1       0.266  11.970  17.869  1.00  0.00     0.190 HD
HETATM   18  O1  UNL     1      -0.059  14.180  19.354  1.00  0.00    -0.266 OA
ENDBRANCH   9  10
ENDBRANCH   8   9
BRANCH   1  19
HETATM   19  S1  UNL     1      -1.288  17.006  20.893  1.00  0.00    -0.083 SA
BRANCH  19  20
HETATM   20  C2  UNL     1      -1.200  17.997  22.376  1.00  0.00     0.041 C 
HETATM   21  C1  UNL     1      -1.976  17.745  23.415  1.00  0.00     0.019 C 
ENDBRANCH  19  20
ENDBRANCH   1  19
BRANCH   5  22
HETATM   22  C6  UNL     1       1.522  19.526  15.930  1.00  0.00     0.026 C 
HETATM   23  C7  UNL     1       2.730  20.347  15.543  1.00  0.00     0.009 C 
ENDBRANCH   5  22
TORSDOF 5
ENDMDL
MODEL 3
REMARK VINA RESULT: -6.044652511      2.170      5.579
REMARK  5 active torsions:
REMARK  status: ('A' for Active; 'I' for Inactive)
REMARK    1  A    between atoms: C2_2  and  S1_3 
REMARK    2  A    between atoms: S1_3  and  C3_4 
REMARK    3  A    between atoms: C5_8  and  C6_9 
REMARK    4  A    between atoms: C8_13  and  C9_14 
REMARK    5  A    between atoms: C9_14  and  C10_15 
ROOT
HETATM    1  C3  UNL     1      -0.558  18.530  17.762  1.00  0.00     0.102 A 
HETATM    2  N1  UNL     1      -1.349  17.818  16.890  1.00  0.00    -0.335 N 
ATOM      3  H1  UNL     1      -1.851  18.216  16.097  1.00  0.00     0.168 HD
HETATM    4  C4  UNL     1      -1.364  16.523  17.236  1.00  0.00     0.102 A 
HETATM    5  C5  UNL     1      -2.014  15.540  16.631  1.00  0.00     0.021 C 
HETATM    6  N2  UNL     1      -0.587  16.401  18.326  1.00  0.00    -0.340 N 
ATOM      7  H2  UNL     1      -0.406  15.526  18.820  1.00  0.00     0.167 HD
HETATM    8  C8  UNL     1      -0.075  17.618  18.677  1.00  0.00     0.069 A 
ENDROOT
BRANCH   8   9
HETATM    9  C9  UNL     1       0.717  17.779  19.709  1.00  0.00     0.051 C 
BRANCH   9  10
HETATM   10  C10 UNL     1       0.211  18.321  20.958  1.00  0.00     0.059 A 
HETATM   11  C11 UNL     1       0.659  19.465  21.613  1.00  0.00     0.037 A 
HETATM   12  C12 UNL     1       1.740  20.371  21.182  1.00  0.00     0.070 C 
HETATM   13  N3  UNL     1      -0.079  19.612  22.737  1.00  0.00    -0.301 N 
HETATM   14  N4  UNL     1      -0.967  18.630  22.832  1.00  0.00    -0.266 N 
ATOM     15  H3  UNL     1       0.030  20.368  23.412  1.00  0.00     0.186 HD
HETATM   16  C13 UNL     1      -0.803  17.837  21.759  1.00  0.00     0.272 A 
ATOM     17  H4  UNL     1      -1.647  18.501  23.581  1.00  0.00     0.190 HD
HETATM   18  O1  UNL     1      -1.474  16.801  21.513  1.00  0.00    -0.266 OA
ENDBRANCH   9  10
ENDBRANCH   8   9
BRANCH   1  19
HETATM   19  S1  UNL     1      -0.279  20.131  17.688  1.00  0.00    -0.083 SA
BRANCH  19  20
HETATM   20  C2  UNL     1       1.347  20.845  17.499  1.00  0.00     0.041 C 
HETATM   21  C1  UNL     1       2.404  20.089  17.264  1.00  0.00     0.019 C 
ENDBRANCH  19  20
ENDBRANCH   1  19
BRANCH   5  22
HETATM   22  C6  UNL     1      -1.948  14.150  17.116  1.00  0.00     0.026 C 
HETATM   23  C7  UNL     1      -1.768  13.159  15.990  1.00  0.00     0.009 C 
ENDBRANCH   5  22
TORSDOF 5
ENDMDL
MODEL 4
REMARK VINA RESULT: -5.994480640      2.359      5.741
REMARK  5 active torsions:
REMARK  status: ('A' for Active; 'I' for Inactive)
REMARK    1  A    between atoms: C2_2  and  S1_3 
REMARK    2  A    between atoms: S1_3  and  C3_4 
REMARK    3  A    between atoms: C5_8  and  C6_9 
REMARK    4  A    between atoms: C8_13  and  C9_14 
REMARK    5  A    between atoms: C9_14  and  C10_15 
ROOT
HETATM    1  C3  UNL     1      -0.601  18.530  17.719  1.00  0.00     0.102 A 
HETATM    2  N1  UNL     1      -1.393  17.801  16.862  1.00  0.00    -0.335 N 
ATOM      3  H1  UNL     1      -1.915  18.189  16.076  1.00  0.00     0.168 HD
HETATM    4  C4  UNL     1      -1.378  16.507  17.210  1.00  0.00     0.102 A 
HETATM    5  C5  UNL     1      -2.020  15.510  16.618  1.00  0.00     0.021 C 
HETATM    6  N2  UNL     1      -0.580  16.401  18.286  1.00  0.00    -0.340 N 
ATOM      7  H2  UNL     1      -0.375  15.531  18.778  1.00  0.00     0.167 HD
HETATM    8  C8  UNL     1      -0.085  17.628  18.626  1.00  0.00     0.069 A 
ENDROOT
BRANCH   8   9
HETATM    9  C9  UNL     1       0.722  17.805  19.644  1.00  0.00     0.051 C 
BRANCH   9  10
HETATM   10  C10 UNL     1       0.230  18.354  20.897  1.00  0.00     0.059 A 
HETATM   11  C11 UNL     1       0.682  19.505  21.537  1.00  0.00     0.037 A 
HETATM   12  C12 UNL     1       1.753  20.413  21.084  1.00  0.00     0.070 C 
HETATM   13  N3  UNL     1      -0.041  19.657  22.669  1.00  0.00    -0.301 N 
HETATM   14  N4  UNL     1      -0.923  18.672  22.784  1.00  0.00    -0.266 N 
ATOM     15  H3  UNL     1       0.074  20.418  23.338  1.00  0.00     0.186 HD
HETATM   16  C13 UNL     1      -0.770  17.871  21.715  1.00  0.00     0.272 A 
ATOM     17  H4  UNL     1      -1.593  18.545  23.543  1.00  0.00     0.190 HD
HETATM   18  O1  UNL     1      -1.439  16.831  21.485  1.00  0.00    -0.266 OA
ENDBRANCH   9  10
ENDBRANCH   8   9
BRANCH   1  19
HETATM   19  S1  UNL     1      -0.352  20.135  17.638  1.00  0.00    -0.083 SA
BRANCH  19  20
HETATM   20  C2  UNL     1      -1.076  21.308  18.773  1.00  0.00     0.041 C 
HETATM   21  C1  UNL     1      -2.118  20.987  19.519  1.00  0.00     0.019 C 
ENDBRANCH  19  20
ENDBRANCH   1  19
BRANCH   5  22
HETATM   22  C6  UNL     1      -1.919  14.123  17.103  1.00  0.00     0.026 C 
HETATM   23  C7  UNL     1      -1.730  13.135  15.976  1.00  0.00     0.009 C 
ENDBRANCH   5  22
TORSDOF 5
ENDMDL
MODEL 5
REMARK VINA RESULT: -5.991743242      2.944      6.122
REMARK  5 active torsions:
REMARK  status: ('A' for Active; 'I' for Inactive)
REMARK    1  A    between atoms: C2_2  and  S1_3 
REMARK    2  A    between atoms: S1_3  and  C3_4 
REMARK    3  A    between atoms: C5_8  and  C6_9 
REMARK    4  A    between atoms: C8_13  and  C9_14 
REMARK    5  A    between atoms: C9_14  and  C10_15 
ROOT
HETATM    1  C3  UNL     1       0.678  18.537  20.439  1.00  0.00     0.102 A 
HETATM    2  N1  UNL     1       0.850  17.542  19.504  1.00  0.00    -0.335 N 
ATOM      3  H1  UNL     1       1.624  17.489  18.842  1.00  0.00     0.168 HD
HETATM    4  C4  UNL     1      -0.149  16.653  19.591  1.00  0.00     0.102 A 
HETATM    5  C5  UNL     1      -0.319  15.565  18.854  1.00  0.00     0.021 C 
HETATM    6  N2  UNL     1      -0.961  17.072  20.576  1.00  0.00    -0.340 N 
ATOM      7  H2  UNL     1      -1.813  16.596  20.875  1.00  0.00     0.167 HD
HETATM    8  C8  UNL     1      -0.480  18.230  21.120  1.00  0.00     0.069 A 
ENDROOT
BRANCH   8   9
HETATM    9  C9  UNL     1      -1.087  18.852  22.102  1.00  0.00     0.051 C 
BRANCH   9  10
HETATM   10  C10 UNL     1      -0.842  18.476  23.484  1.00  0.00     0.059 A 
HETATM   11  C11 UNL     1      -0.123  19.200  24.431  1.00  0.00     0.037 A 
HETATM   12  C12 UNL     1       0.543  20.502  24.238  1.00  0.00     0.070 C 
HETATM   13  N3  UNL     1      -0.137  18.496  25.586  1.00  0.00    -0.301 N 
HETATM   14  N4  UNL     1      -0.821  17.371  25.427  1.00  0.00    -0.266 N 
ATOM     15  H3  UNL     1       0.312  18.789  26.453  1.00  0.00     0.186 HD
HETATM   16  C13 UNL     1      -1.256  17.343  24.154  1.00  0.00     0.272 A 
ATOM     17  H4  UNL     1      -0.987  16.658  26.137  1.00  0.00     0.190 HD
HETATM   18  O1  UNL     1      -1.942  16.422  23.642  1.00  0.00    -0.266 OA
ENDBRANCH   9  10
ENDBRANCH   8   9
BRANCH   1  19
HETATM   19  S1  UNL     1       1.674  19.805  20.659  1.00  0.00    -0.083 SA
BRANCH  19  20
HETATM   20  C2  UNL     1       3.454  19.674  20.685  1.00  0.00     0.041 C 
HETATM   21  C1  UNL     1       4.205  20.634  21.195  1.00  0.00     0.019 C 
ENDBRANCH  19  20
ENDBRANCH   1  19
BRANCH   5  22
HETATM   22  C6  UNL     1      -1.468  14.664  19.051  1.00  0.00     0.026 C 
HETATM   23  C7  UNL     1      -1.633  13.688  17.911  1.00  0.00     0.009 C 
ENDBRANCH   5  22
TORSDOF 5
ENDMDL
