MODEL 1
REMARK VINA RESULT: -8.060082285      0.000      0.000
REMARK  14 active torsions:
REMARK  status: ('A' for Active; 'I' for Inactive)
REMARK    1  A    between atoms: C2_2  and  C3_3 
REMARK    2  A    between atoms: C3_3  and  C4_4 
REMARK    3  A    between atoms: C4_4  and  C5_5 
REMARK    4  A    between atoms: C6_6  and  O1_7 
REMARK    5  A    between atoms: C8_10  and  O2_11 
REMARK    6  A    between atoms: O2_11  and  C9_12 
REMARK    7  A    between atoms: C13_16  and  O3_17 
REMARK    8  A    between atoms: O3_17  and  C14_18 
REMARK    9  A    between atoms: C15_19  and  O4_20 
REMARK   10  A    between atoms: C17_24  and  O6_25 
REMARK   11  A    between atoms: C19_29  and  C20_30 
REMARK   12  A    between atoms: C20_30  and  O8_31 
REMARK   13  A    between atoms: C21_33  and  O9_34 
REMARK   14  A    between atoms: C22_36  and  O10_37 
ROOT
HETATM    1  C5  UNL     1      -3.408  -1.600   8.723  1.00  0.00     0.045 C 
HETATM    2  C6  UNL     1      -4.384  -1.804   7.588  1.00  0.00     0.143 C 
HETATM    3  C7  UNL     1      -4.782  -3.104   8.185  1.00  0.00     0.090 C 
HETATM    4  C8  UNL     1      -6.051  -3.211   8.942  1.00  0.00     0.277 C 
HETATM    5  O7  UNL     1      -6.968  -3.872   8.151  1.00  0.00    -0.350 OA
HETATM    6  C19 UNL     1      -6.349  -4.515   7.124  1.00  0.00     0.178 C 
HETATM    7  C21 UNL     1      -4.870  -4.271   7.227  1.00  0.00     0.167 C 
HETATM    8  C22 UNL     1      -3.510  -3.080   9.013  1.00  0.00     0.143 C 
ENDROOT
BRANCH   4   9
HETATM    9  O2  UNL     1      -6.591  -2.054   9.432  1.00  0.00    -0.354 OA
BRANCH   9  10
HETATM   10  C9  UNL     1      -6.968  -2.109  10.753  1.00  0.00     0.131 C 
HETATM   11  C10 UNL     1      -6.923  -0.657  11.258  1.00  0.00     0.033 C 
HETATM   12  C11 UNL     1      -5.496  -0.456  11.632  1.00  0.00     0.010 C 
HETATM   13  C12 UNL     1      -5.110  -1.781  12.204  1.00  0.00     0.024 A 
HETATM   14  C13 UNL     1      -6.085  -2.426  13.118  1.00  0.00     0.134 A 
HETATM   15  C18 UNL     1      -6.029  -2.803  11.676  1.00  0.00     0.050 A 
BRANCH  14  16
HETATM   16  O3  UNL     1      -5.520  -3.224  14.092  1.00  0.00    -0.372 OA
BRANCH  16  17
HETATM   17  C14 UNL     1      -6.373  -3.342  15.153  1.00  0.00     0.207 C 
HETATM   18  C15 UNL     1      -7.794  -2.941  14.862  1.00  0.00     0.175 C 
HETATM   19  C16 UNL     1      -8.547  -3.743  15.899  1.00  0.00     0.205 C 
HETATM   20  O5  UNL     1      -7.789  -4.819  16.254  1.00  0.00    -0.356 OA
HETATM   21  C17 UNL     1      -6.589  -4.792  15.592  1.00  0.00     0.288 C 
BRANCH  18  22
HETATM   22  O4  UNL     1      -8.013  -1.581  15.010  1.00  0.00    -0.391 OA
ATOM     23  H4  UNL     1      -8.835  -1.382  15.444  1.00  0.00     0.210 HD
ENDBRANCH  18  22
BRANCH  21  24
HETATM   24  O6  UNL     1      -6.675  -5.615  14.471  1.00  0.00    -0.369 OA
ATOM     25  H6  UNL     1      -5.871  -6.114  14.377  1.00  0.00     0.212 HD
ENDBRANCH  21  24
ENDBRANCH  16  17
ENDBRANCH  14  16
ENDBRANCH   9  10
ENDBRANCH   4   9
BRANCH   2  26
HETATM   26  O1  UNL     1      -3.707  -2.040   6.368  1.00  0.00    -0.394 OA
ATOM     27  H1  UNL     1      -4.285  -1.916   5.625  1.00  0.00     0.210 HD
ENDBRANCH   2  26
BRANCH   7  28
HETATM   28  O9  UNL     1      -4.248  -5.408   7.706  1.00  0.00    -0.392 OA
ATOM     29  H9  UNL     1      -4.523  -5.636   8.587  1.00  0.00     0.210 HD
ENDBRANCH   7  28
BRANCH   8  30
HETATM   30  O10 UNL     1      -2.435  -3.732   8.414  1.00  0.00    -0.394 OA
ATOM     31  H10 UNL     1      -1.626  -3.376   8.763  1.00  0.00     0.210 HD
ENDBRANCH   8  30
BRANCH   6  32
HETATM   32  C20 UNL     1      -6.674  -5.997   7.198  1.00  0.00     0.198 C 
BRANCH  32  33
HETATM   33  O8  UNL     1      -6.985  -6.352   8.487  1.00  0.00    -0.398 OA
ATOM     34  H8  UNL     1      -7.927  -6.376   8.605  1.00  0.00     0.209 HD
ENDBRANCH  32  33
ENDBRANCH   6  32
BRANCH   1  35
HETATM   35  C4  UNL     1      -2.049  -1.128   8.299  1.00  0.00     0.010 C 
BRANCH  35  36
HETATM   36  C3  UNL     1      -1.876   0.312   8.656  1.00  0.00     0.000 C 
BRANCH  36  37
HETATM   37  C2  UNL     1      -2.487   0.614  10.029  1.00  0.00    -0.005 C 
HETATM   38  C1  UNL     1      -2.033   1.981  10.495  1.00  0.00     0.005 C 
ENDBRANCH  36  37
ENDBRANCH  35  36
ENDBRANCH   1  35
TORSDOF 14
ENDMDL
MODEL 2
REMARK VINA RESULT: -8.020753616      1.634      2.219
REMARK  14 active torsions:
REMARK  status: ('A' for Active; 'I' for Inactive)
REMARK    1  A    between atoms: C2_2  and  C3_3 
REMARK    2  A    between atoms: C3_3  and  C4_4 
REMARK    3  A    between atoms: C4_4  and  C5_5 
REMARK    4  A    between atoms: C6_6  and  O1_7 
REMARK    5  A    between atoms: C8_10  and  O2_11 
REMARK    6  A    between atoms: O2_11  and  C9_12 
REMARK    7  A    between atoms: C13_16  and  O3_17 
REMARK    8  A    between atoms: O3_17  and  C14_18 
REMARK    9  A    between atoms: C15_19  and  O4_20 
REMARK   10  A    between atoms: C17_24  and  O6_25 
REMARK   11  A    between atoms: C19_29  and  C20_30 
REMARK   12  A    between atoms: C20_30  and  O8_31 
REMARK   13  A    between atoms: C21_33  and  O9_34 
REMARK   14  A    between atoms: C22_36  and  O10_37 
ROOT
HETATM    1  C5  UNL     1      -2.625  -0.969   9.302  1.00  0.00     0.045 C 
HETATM    2  C6  UNL     1      -4.041  -1.153   8.806  1.00  0.00     0.143 C 
HETATM    3  C7  UNL     1      -3.692  -2.527   8.365  1.00  0.00     0.090 C 
HETATM    4  C8  UNL     1      -4.108  -3.693   9.178  1.00  0.00     0.277 C 
HETATM    5  O7  UNL     1      -5.168  -4.304   8.541  1.00  0.00    -0.350 OA
HETATM    6  C19 UNL     1      -5.258  -3.894   7.246  1.00  0.00     0.178 C 
HETATM    7  C21 UNL     1      -4.154  -2.911   6.977  1.00  0.00     0.167 C 
HETATM    8  C22 UNL     1      -2.224  -2.147   8.443  1.00  0.00     0.143 C 
ENDROOT
BRANCH   4   9
HETATM    9  O2  UNL     1      -4.409  -3.467  10.494  1.00  0.00    -0.354 OA
BRANCH   9  10
HETATM   10  C9  UNL     1      -5.724  -3.685  10.828  1.00  0.00     0.131 C 
HETATM   11  C10 UNL     1      -6.339  -2.289  11.023  1.00  0.00     0.033 C 
HETATM   12  C11 UNL     1      -5.996  -1.944  12.430  1.00  0.00     0.010 C 
HETATM   13  C12 UNL     1      -6.120  -3.254  13.136  1.00  0.00     0.024 A 
HETATM   14  C13 UNL     1      -7.293  -4.095  12.788  1.00  0.00     0.134 A 
HETATM   15  C18 UNL     1      -5.969  -4.334  12.145  1.00  0.00     0.050 A 
BRANCH  14  16
HETATM   16  O3  UNL     1      -7.750  -4.898  13.815  1.00  0.00    -0.372 OA
BRANCH  16  17
HETATM   17  C14 UNL     1      -8.554  -4.176  14.651  1.00  0.00     0.207 C 
HETATM   18  C15 UNL     1      -9.733  -4.935  15.197  1.00  0.00     0.175 C 
HETATM   19  C16 UNL     1     -10.007  -4.178  16.477  1.00  0.00     0.205 C 
HETATM   20  O5  UNL     1      -8.859  -3.554  16.869  1.00  0.00    -0.356 OA
HETATM   21  C17 UNL     1      -7.861  -3.781  15.957  1.00  0.00     0.288 C 
BRANCH  18  22
HETATM   22  O4  UNL     1     -10.828  -4.917  14.348  1.00  0.00    -0.391 OA
ATOM     23  H4  UNL     1     -11.607  -5.295  14.740  1.00  0.00     0.210 HD
ENDBRANCH  18  22
BRANCH  21  24
HETATM   24  O6  UNL     1      -7.073  -4.838  16.409  1.00  0.00    -0.369 OA
ATOM     25  H6  UNL     1      -6.507  -4.538  17.112  1.00  0.00     0.212 HD
ENDBRANCH  21  24
ENDBRANCH  16  17
ENDBRANCH  14  16
ENDBRANCH   9  10
ENDBRANCH   4   9
BRANCH   2  26
HETATM   26  O1  UNL     1      -4.294  -0.349   7.670  1.00  0.00    -0.394 OA
ATOM     27  H1  UNL     1      -4.536   0.535   7.922  1.00  0.00     0.210 HD
ENDBRANCH   2  26
BRANCH   7  28
HETATM   28  O9  UNL     1      -3.164  -3.524   6.231  1.00  0.00    -0.392 OA
ATOM     29  H9  UNL     1      -3.508  -4.149   5.604  1.00  0.00     0.210 HD
ENDBRANCH   7  28
BRANCH   8  30
HETATM   30  O10 UNL     1      -1.699  -1.672   7.243  1.00  0.00    -0.394 OA
ATOM     31  H10 UNL     1      -2.049  -0.805   7.076  1.00  0.00     0.210 HD
ENDBRANCH   8  30
BRANCH   6  32
HETATM   32  C20 UNL     1      -5.160  -5.104   6.334  1.00  0.00     0.198 C 
BRANCH  32  33
HETATM   33  O8  UNL     1      -5.494  -4.759   5.048  1.00  0.00    -0.398 OA
ATOM     34  H8  UNL     1      -5.485  -5.526   4.488  1.00  0.00     0.209 HD
ENDBRANCH  32  33
ENDBRANCH   6  32
BRANCH   1  35
HETATM   35  C4  UNL     1      -1.997   0.338   8.920  1.00  0.00     0.010 C 
BRANCH  35  36
HETATM   36  C3  UNL     1      -2.198   1.337  10.012  1.00  0.00     0.000 C 
BRANCH  36  37
HETATM   37  C2  UNL     1      -1.610   2.699   9.626  1.00  0.00    -0.005 C 
HETATM   38  C1  UNL     1      -0.360   2.492   8.796  1.00  0.00     0.005 C 
ENDBRANCH  36  37
ENDBRANCH  35  36
ENDBRANCH   1  35
TORSDOF 14
ENDMDL
MODEL 3
REMARK VINA RESULT: -7.597180812      1.079      1.297
REMARK  14 active torsions:
REMARK  status: ('A' for Active; 'I' for Inactive)
REMARK    1  A    between atoms: C2_2  and  C3_3 
REMARK    2  A    between atoms: C3_3  and  C4_4 
REMARK    3  A    between atoms: C4_4  and  C5_5 
REMARK    4  A    between atoms: C6_6  and  O1_7 
REMARK    5  A    between atoms: C8_10  and  O2_11 
REMARK    6  A    between atoms: O2_11  and  C9_12 
REMARK    7  A    between atoms: C13_16  and  O3_17 
REMARK    8  A    between atoms: O3_17  and  C14_18 
REMARK    9  A    between atoms: C15_19  and  O4_20 
REMARK   10  A    between atoms: C17_24  and  O6_25 
REMARK   11  A    between atoms: C19_29  and  C20_30 
REMARK   12  A    between atoms: C20_30  and  O8_31 
REMARK   13  A    between atoms: C21_33  and  O9_34 
REMARK   14  A    between atoms: C22_36  and  O10_37 
ROOT
HETATM    1  C5  UNL     1      -3.149  -1.827   8.410  1.00  0.00     0.045 C 
HETATM    2  C6  UNL     1      -4.189  -1.882   7.315  1.00  0.00     0.143 C 
HETATM    3  C7  UNL     1      -4.771  -3.091   7.950  1.00  0.00     0.090 C 
HETATM    4  C8  UNL     1      -6.009  -2.979   8.754  1.00  0.00     0.277 C 
HETATM    5  O7  UNL     1      -7.052  -3.490   8.009  1.00  0.00    -0.350 OA
HETATM    6  C19 UNL     1      -6.588  -4.238   6.972  1.00  0.00     0.178 C 
HETATM    7  C21 UNL     1      -5.086  -4.239   7.017  1.00  0.00     0.167 C 
HETATM    8  C22 UNL     1      -3.481  -3.266   8.730  1.00  0.00     0.143 C 
ENDROOT
BRANCH   4   9
HETATM    9  O2  UNL     1      -6.334  -1.743   9.243  1.00  0.00    -0.354 OA
BRANCH   9  10
HETATM   10  C9  UNL     1      -6.910  -1.750  10.490  1.00  0.00     0.131 C 
HETATM   11  C10 UNL     1      -6.291  -0.559  11.240  1.00  0.00     0.033 C 
HETATM   12  C11 UNL     1      -5.015  -1.105  11.781  1.00  0.00     0.010 C 
HETATM   13  C12 UNL     1      -5.380  -2.504  12.152  1.00  0.00     0.024 A 
HETATM   14  C13 UNL     1      -6.681  -2.698  12.841  1.00  0.00     0.134 A 
HETATM   15  C18 UNL     1      -6.563  -2.902  11.368  1.00  0.00     0.050 A 
BRANCH  14  16
HETATM   16  O3  UNL     1      -6.716  -3.767  13.714  1.00  0.00    -0.372 OA
BRANCH  16  17
HETATM   17  C14 UNL     1      -7.892  -3.764  14.409  1.00  0.00     0.207 C 
HETATM   18  C15 UNL     1      -8.683  -5.041  14.307  1.00  0.00     0.175 C 
HETATM   19  C16 UNL     1      -9.490  -4.994  15.585  1.00  0.00     0.205 C 
HETATM   20  O5  UNL     1      -8.834  -4.208  16.486  1.00  0.00    -0.356 OA
HETATM   21  C17 UNL     1      -7.695  -3.692  15.924  1.00  0.00     0.288 C 
BRANCH  18  22
HETATM   22  O4  UNL     1      -9.500  -5.084  13.189  1.00  0.00    -0.391 OA
ATOM     23  H4  UNL     1     -10.045  -5.862  13.157  1.00  0.00     0.210 HD
ENDBRANCH  18  22
BRANCH  21  24
HETATM   24  O6  UNL     1      -6.611  -4.486  16.296  1.00  0.00    -0.369 OA
ATOM     25  H6  UNL     1      -6.657  -4.677  17.226  1.00  0.00     0.212 HD
ENDBRANCH  21  24
ENDBRANCH  16  17
ENDBRANCH  14  16
ENDBRANCH   9  10
ENDBRANCH   4   9
BRANCH   2  26
HETATM   26  O1  UNL     1      -3.608  -2.240   6.075  1.00  0.00    -0.394 OA
ATOM     27  H1  UNL     1      -2.683  -2.434   6.172  1.00  0.00     0.210 HD
ENDBRANCH   2  26
BRANCH   7  28
HETATM   28  O9  UNL     1      -4.640  -5.457   7.494  1.00  0.00    -0.392 OA
ATOM     29  H9  UNL     1      -5.127  -5.756   8.253  1.00  0.00     0.210 HD
ENDBRANCH   7  28
BRANCH   8  30
HETATM   30  O10 UNL     1      -2.551  -4.093   8.104  1.00  0.00    -0.394 OA
ATOM     31  H10 UNL     1      -2.060  -4.562   8.769  1.00  0.00     0.210 HD
ENDBRANCH   8  30
BRANCH   6  32
HETATM   32  C20 UNL     1      -7.148  -5.645   7.086  1.00  0.00     0.198 C 
BRANCH  32  33
HETATM   33  O8  UNL     1      -8.432  -5.687   6.602  1.00  0.00    -0.398 OA
ATOM     34  H8  UNL     1      -8.672  -6.579   6.381  1.00  0.00     0.209 HD
ENDBRANCH  32  33
ENDBRANCH   6  32
BRANCH   1  35
HETATM   35  C4  UNL     1      -1.748  -1.590   7.927  1.00  0.00     0.010 C 
BRANCH  35  36
HETATM   36  C3  UNL     1      -1.305  -0.215   8.309  1.00  0.00     0.000 C 
BRANCH  36  37
HETATM   37  C2  UNL     1      -2.367   0.486   9.163  1.00  0.00    -0.005 C 
HETATM   38  C1  UNL     1      -2.003   1.947   9.322  1.00  0.00     0.005 C 
ENDBRANCH  36  37
ENDBRANCH  35  36
ENDBRANCH   1  35
TORSDOF 14
ENDMDL
MODEL 4
REMARK VINA RESULT: -7.029012322      3.060      6.786
REMARK  14 active torsions:
REMARK  status: ('A' for Active; 'I' for Inactive)
REMARK    1  A    between atoms: C2_2  and  C3_3 
REMARK    2  A    between atoms: C3_3  and  C4_4 
REMARK    3  A    between atoms: C4_4  and  C5_5 
REMARK    4  A    between atoms: C6_6  and  O1_7 
REMARK    5  A    between atoms: C8_10  and  O2_11 
REMARK    6  A    between atoms: O2_11  and  C9_12 
REMARK    7  A    between atoms: C13_16  and  O3_17 
REMARK    8  A    between atoms: O3_17  and  C14_18 
REMARK    9  A    between atoms: C15_19  and  O4_20 
REMARK   10  A    between atoms: C17_24  and  O6_25 
REMARK   11  A    between atoms: C19_29  and  C20_30 
REMARK   12  A    between atoms: C20_30  and  O8_31 
REMARK   13  A    between atoms: C21_33  and  O9_34 
REMARK   14  A    between atoms: C22_36  and  O10_37 
ROOT
HETATM    1  C5  UNL     1      -5.331  -2.977   9.302  1.00  0.00     0.045 C 
HETATM    2  C6  UNL     1      -5.056  -4.457   9.175  1.00  0.00     0.143 C 
HETATM    3  C7  UNL     1      -5.228  -4.347   7.704  1.00  0.00     0.090 C 
HETATM    4  C8  UNL     1      -4.039  -4.321   6.822  1.00  0.00     0.277 C 
HETATM    5  O7  UNL     1      -3.935  -5.551   6.206  1.00  0.00    -0.350 OA
HETATM    6  C19 UNL     1      -5.101  -6.245   6.307  1.00  0.00     0.178 C 
HETATM    7  C21 UNL     1      -6.094  -5.407   7.060  1.00  0.00     0.167 C 
HETATM    8  C22 UNL     1      -5.933  -3.020   7.916  1.00  0.00     0.143 C 
ENDROOT
BRANCH   4   9
HETATM    9  O2  UNL     1      -2.844  -3.967   7.386  1.00  0.00    -0.354 OA
BRANCH   9  10
HETATM   10  C9  UNL     1      -2.373  -2.732   7.010  1.00  0.00     0.131 C 
HETATM   11  C10 UNL     1      -1.455  -2.987   5.803  1.00  0.00     0.033 C 
HETATM   12  C11 UNL     1      -0.148  -3.343   6.421  1.00  0.00     0.010 C 
HETATM   13  C12 UNL     1      -0.088  -2.448   7.616  1.00  0.00     0.024 A 
HETATM   14  C13 UNL     1      -0.518  -1.041   7.422  1.00  0.00     0.134 A 
HETATM   15  C18 UNL     1      -1.462  -2.055   7.973  1.00  0.00     0.050 A 
BRANCH  14  16
HETATM   16  O3  UNL     1       0.116  -0.128   8.242  1.00  0.00    -0.372 OA
BRANCH  16  17
HETATM   17  C14 UNL     1      -0.504   1.086   8.157  1.00  0.00     0.207 C 
HETATM   18  C15 UNL     1      -1.737   1.222   9.009  1.00  0.00     0.175 C 
HETATM   19  C16 UNL     1      -1.796   2.718   9.212  1.00  0.00     0.205 C 
HETATM   20  O5  UNL     1      -0.541   3.230   9.053  1.00  0.00    -0.356 OA
HETATM   21  C17 UNL     1       0.338   2.232   8.722  1.00  0.00     0.288 C 
BRANCH  18  22
HETATM   22  O4  UNL     1      -2.880   0.745   8.386  1.00  0.00    -0.391 OA
ATOM     23  H4  UNL     1      -3.675   0.948   8.865  1.00  0.00     0.210 HD
ENDBRANCH  18  22
BRANCH  21  24
HETATM   24  O6  UNL     1       0.994   1.809   9.877  1.00  0.00    -0.369 OA
ATOM     25  H6  UNL     1       1.866   2.184   9.906  1.00  0.00     0.212 HD
ENDBRANCH  21  24
ENDBRANCH  16  17
ENDBRANCH  14  16
ENDBRANCH   9  10
ENDBRANCH   4   9
BRANCH   2  26
HETATM   26  O1  UNL     1      -6.117  -5.223   9.712  1.00  0.00    -0.394 OA
ATOM     27  H1  UNL     1      -6.382  -5.912   9.114  1.00  0.00     0.210 HD
ENDBRANCH   2  26
BRANCH   7  28
HETATM   28  O9  UNL     1      -7.018  -4.882   6.177  1.00  0.00    -0.392 OA
ATOM     29  H9  UNL     1      -6.630  -4.284   5.549  1.00  0.00     0.210 HD
ENDBRANCH   7  28
BRANCH   8  30
HETATM   30  O10 UNL     1      -7.317  -3.127   8.029  1.00  0.00    -0.394 OA
ATOM     31  H10 UNL     1      -7.708  -2.283   7.832  1.00  0.00     0.210 HD
ENDBRANCH   8  30
BRANCH   6  32
HETATM   32  C20 UNL     1      -5.601  -6.580   4.913  1.00  0.00     0.198 C 
BRANCH  32  33
HETATM   33  O8  UNL     1      -5.053  -5.723   3.991  1.00  0.00    -0.398 OA
ATOM     34  H8  UNL     1      -5.477  -4.874   4.036  1.00  0.00     0.209 HD
ENDBRANCH  32  33
ENDBRANCH   6  32
BRANCH   1  35
HETATM   35  C4  UNL     1      -6.288  -2.614  10.399  1.00  0.00     0.010 C 
BRANCH  35  36
HETATM   36  C3  UNL     1      -5.841  -1.355  11.067  1.00  0.00     0.000 C 
BRANCH  36  37
HETATM   37  C2  UNL     1      -4.333  -1.145  10.889  1.00  0.00    -0.005 C 
HETATM   38  C1  UNL     1      -3.878   0.011  11.755  1.00  0.00     0.005 C 
ENDBRANCH  36  37
ENDBRANCH  35  36
ENDBRANCH   1  35
TORSDOF 14
ENDMDL
MODEL 5
REMARK VINA RESULT: -6.967809972      1.839      2.426
REMARK  14 active torsions:
REMARK  status: ('A' for Active; 'I' for Inactive)
REMARK    1  A    between atoms: C2_2  and  C3_3 
REMARK    2  A    between atoms: C3_3  and  C4_4 
REMARK    3  A    between atoms: C4_4  and  C5_5 
REMARK    4  A    between atoms: C6_6  and  O1_7 
REMARK    5  A    between atoms: C8_10  and  O2_11 
REMARK    6  A    between atoms: O2_11  and  C9_12 
REMARK    7  A    between atoms: C13_16  and  O3_17 
REMARK    8  A    between atoms: O3_17  and  C14_18 
REMARK    9  A    between atoms: C15_19  and  O4_20 
REMARK   10  A    between atoms: C17_24  and  O6_25 
REMARK   11  A    between atoms: C19_29  and  C20_30 
REMARK   12  A    between atoms: C20_30  and  O8_31 
REMARK   13  A    between atoms: C21_33  and  O9_34 
REMARK   14  A    between atoms: C22_36  and  O10_37 
ROOT
HETATM    1  C5  UNL     1      -2.641  -2.668   7.555  1.00  0.00     0.045 C 
HETATM    2  C6  UNL     1      -3.856  -2.379   6.705  1.00  0.00     0.143 C 
HETATM    3  C7  UNL     1      -4.500  -3.609   7.231  1.00  0.00     0.090 C 
HETATM    4  C8  UNL     1      -5.539  -3.508   8.281  1.00  0.00     0.277 C 
HETATM    5  O7  UNL     1      -6.767  -3.729   7.692  1.00  0.00    -0.350 OA
HETATM    6  C19 UNL     1      -6.621  -4.309   6.469  1.00  0.00     0.178 C 
HETATM    7  C21 UNL     1      -5.155  -4.503   6.202  1.00  0.00     0.167 C 
HETATM    8  C22 UNL     1      -3.134  -4.091   7.687  1.00  0.00     0.143 C 
ENDROOT
BRANCH   4   9
HETATM    9  O2  UNL     1      -5.570  -2.362   9.029  1.00  0.00    -0.354 OA
BRANCH   9  10
HETATM   10  C9  UNL     1      -6.453  -2.385  10.081  1.00  0.00     0.131 C 
HETATM   11  C10 UNL     1      -6.369  -0.991  10.725  1.00  0.00     0.033 C 
HETATM   12  C11 UNL     1      -5.205  -1.096  11.647  1.00  0.00     0.010 C 
HETATM   13  C12 UNL     1      -5.317  -2.490  12.171  1.00  0.00     0.024 A 
HETATM   14  C13 UNL     1      -6.674  -2.956  12.551  1.00  0.00     0.134 A 
HETATM   15  C18 UNL     1      -6.103  -3.287  11.213  1.00  0.00     0.050 A 
BRANCH  14  16
HETATM   16  O3  UNL     1      -6.698  -3.885  13.572  1.00  0.00    -0.372 OA
BRANCH  16  17
HETATM   17  C14 UNL     1      -7.857  -3.764  14.286  1.00  0.00     0.207 C 
HETATM   18  C15 UNL     1      -8.706  -5.007  14.317  1.00  0.00     0.175 C 
HETATM   19  C16 UNL     1      -9.480  -4.806  15.600  1.00  0.00     0.205 C 
HETATM   20  O5  UNL     1      -8.768  -3.973  16.414  1.00  0.00    -0.356 OA
HETATM   21  C17 UNL     1      -7.621  -3.564  15.785  1.00  0.00     0.288 C 
BRANCH  18  22
HETATM   22  O4  UNL     1      -9.550  -5.112  13.223  1.00  0.00    -0.391 OA
ATOM     23  H4  UNL     1     -10.016  -5.940  13.192  1.00  0.00     0.210 HD
ENDBRANCH  18  22
BRANCH  21  24
HETATM   24  O6  UNL     1      -6.566  -4.371  16.207  1.00  0.00    -0.369 OA
ATOM     25  H6  UNL     1      -6.168  -3.998  16.985  1.00  0.00     0.212 HD
ENDBRANCH  21  24
ENDBRANCH  16  17
ENDBRANCH  14  16
ENDBRANCH   9  10
ENDBRANCH   4   9
BRANCH   2  26
HETATM   26  O1  UNL     1      -3.573  -2.553   5.330  1.00  0.00    -0.394 OA
ATOM     27  H1  UNL     1      -4.369  -2.670   4.826  1.00  0.00     0.210 HD
ENDBRANCH   2  26
BRANCH   7  28
HETATM   28  O9  UNL     1      -4.830  -5.836   6.363  1.00  0.00    -0.392 OA
ATOM     29  H9  UNL     1      -5.180  -6.207   7.164  1.00  0.00     0.210 HD
ENDBRANCH   7  28
BRANCH   8  30
HETATM   30  O10 UNL     1      -2.475  -4.886   6.752  1.00  0.00    -0.394 OA
ATOM     31  H10 UNL     1      -3.051  -5.028   6.009  1.00  0.00     0.210 HD
ENDBRANCH   8  30
BRANCH   6  32
HETATM   32  C20 UNL     1      -7.367  -5.631   6.455  1.00  0.00     0.198 C 
BRANCH  32  33
HETATM   33  O8  UNL     1      -7.627  -6.018   5.164  1.00  0.00    -0.398 OA
ATOM     34  H8  UNL     1      -7.887  -6.931   5.139  1.00  0.00     0.209 HD
ENDBRANCH  32  33
ENDBRANCH   6  32
BRANCH   1  35
HETATM   35  C4  UNL     1      -1.331  -2.514   6.841  1.00  0.00     0.010 C 
BRANCH  35  36
HETATM   36  C3  UNL     1      -0.204  -2.634   7.815  1.00  0.00     0.000 C 
BRANCH  36  37
HETATM   37  C2  UNL     1       1.149  -2.585   7.097  1.00  0.00    -0.005 C 
HETATM   38  C1  UNL     1       1.599  -3.993   6.771  1.00  0.00     0.005 C 
ENDBRANCH  36  37
ENDBRANCH  35  36
ENDBRANCH   1  35
TORSDOF 14
ENDMDL
