MODEL 1
REMARK VINA RESULT: -6.152695274      0.000      0.000
REMARK  4 active torsions:
REMARK  status: ('A' for Active; 'I' for Inactive)
REMARK    1  A    between atoms: C2_2  and  C3_3 
REMARK    2  A    between atoms: C3_3  and  N2_7 
REMARK    3  A    between atoms: N2_7  and  C4_9 
REMARK    4  A    between atoms: C5_10  and  O1_11 
ROOT
HETATM    1  C4  UNL     1      21.172  42.738   8.444  1.00  0.00     0.091 A 
HETATM    2  C5  UNL     1      21.712  41.487   8.293  1.00  0.00     0.098 A 
HETATM    3  C7  UNL     1      22.066  40.981   7.046  1.00  0.00     0.064 A 
HETATM    4  C8  UNL     1      21.874  41.748   5.920  1.00  0.00     0.060 A 
HETATM    5 CL1  UNL     1      22.336  41.076   4.349  1.00  0.00    -0.082 Cl
HETATM    6  C9  UNL     1      21.332  43.007   6.049  1.00  0.00     0.080 A 
HETATM    7 CL2  UNL     1      21.083  43.987   4.627  1.00  0.00    -0.081 Cl
HETATM    8  C10 UNL     1      20.985  43.493   7.314  1.00  0.00     0.087 A 
HETATM    9 CL3  UNL     1      20.311  45.095   7.432  1.00  0.00    -0.080 Cl
ENDROOT
BRANCH   1  10
HETATM   10  N2  UNL     1      20.834  43.212   9.713  1.00  0.00    -0.343 N 
ATOM     11  H2  UNL     1      19.851  43.429   9.877  1.00  0.00     0.167 HD
BRANCH  10  12
HETATM   12  C3  UNL     1      21.716  43.418  10.785  1.00  0.00     0.074 C 
HETATM   13  N1  UNL     1      21.630  42.707  11.832  1.00  0.00    -0.389 N 
ATOM     14  H12 UNL     1      22.270  42.857  12.611  1.00  0.00     0.157 HD
ATOM     15  H11 UNL     1      20.915  41.982  11.889  1.00  0.00     0.157 HD
BRANCH  12  16
HETATM   16  C2  UNL     1      22.747  44.462  10.703  1.00  0.00     0.071 C 
HETATM   17  C1  UNL     1      22.251  45.689   9.963  1.00  0.00     0.013 C 
ENDBRANCH  12  16
ENDBRANCH  10  12
ENDBRANCH   1  10
BRANCH   2  18
HETATM   18  O1  UNL     1      21.905  40.720   9.425  1.00  0.00    -0.354 OA
HETATM   19  C6  UNL     1      20.975  39.701   9.740  1.00  0.00     0.210 C 
ENDBRANCH   2  18
TORSDOF 4
ENDMDL
MODEL 2
REMARK VINA RESULT: -6.143610651      1.568      3.467
REMARK  4 active torsions:
REMARK  status: ('A' for Active; 'I' for Inactive)
REMARK    1  A    between atoms: C2_2  and  C3_3 
REMARK    2  A    between atoms: C3_3  and  N2_7 
REMARK    3  A    between atoms: N2_7  and  C4_9 
REMARK    4  A    between atoms: C5_10  and  O1_11 
ROOT
HETATM    1  C4  UNL     1      22.010  42.591   8.441  1.00  0.00     0.091 A 
HETATM    2  C5  UNL     1      21.469  43.842   8.286  1.00  0.00     0.098 A 
HETATM    3  C7  UNL     1      21.116  44.343   7.037  1.00  0.00     0.064 A 
HETATM    4  C8  UNL     1      21.309  43.574   5.914  1.00  0.00     0.060 A 
HETATM    5 CL1  UNL     1      20.848  44.240   4.340  1.00  0.00    -0.082 Cl
HETATM    6  C9  UNL     1      21.853  42.315   6.047  1.00  0.00     0.080 A 
HETATM    7 CL2  UNL     1      22.104  41.332   4.628  1.00  0.00    -0.081 Cl
HETATM    8  C10 UNL     1      22.199  41.834   7.313  1.00  0.00     0.087 A 
HETATM    9 CL3  UNL     1      22.875  40.233   7.437  1.00  0.00    -0.080 Cl
ENDROOT
BRANCH   1  10
HETATM   10  N2  UNL     1      22.348  42.122   9.712  1.00  0.00    -0.343 N 
ATOM     11  H2  UNL     1      23.332  41.914   9.880  1.00  0.00     0.167 HD
BRANCH  10  12
HETATM   12  C3  UNL     1      21.463  41.908  10.781  1.00  0.00     0.074 C 
HETATM   13  N1  UNL     1      21.547  42.613  11.832  1.00  0.00    -0.389 N 
ATOM     14  H12 UNL     1      20.905  42.458  12.609  1.00  0.00     0.157 HD
ATOM     15  H11 UNL     1      22.262  43.337  11.896  1.00  0.00     0.157 HD
BRANCH  12  16
HETATM   16  C2  UNL     1      20.434  40.864  10.690  1.00  0.00     0.071 C 
HETATM   17  C1  UNL     1      20.939  39.633   9.964  1.00  0.00     0.013 C 
ENDBRANCH  12  16
ENDBRANCH  10  12
ENDBRANCH   1  10
BRANCH   2  18
HETATM   18  O1  UNL     1      21.275  44.612   9.416  1.00  0.00    -0.354 OA
HETATM   19  C6  UNL     1      22.217  45.615   9.743  1.00  0.00     0.210 C 
ENDBRANCH   2  18
TORSDOF 4
ENDMDL
MODEL 3
REMARK VINA RESULT: -5.588664633      1.797      3.361
REMARK  4 active torsions:
REMARK  status: ('A' for Active; 'I' for Inactive)
REMARK    1  A    between atoms: C2_2  and  C3_3 
REMARK    2  A    between atoms: C3_3  and  N2_7 
REMARK    3  A    between atoms: N2_7  and  C4_9 
REMARK    4  A    between atoms: C5_10  and  O1_11 
ROOT
HETATM    1  C4  UNL     1      21.983  42.206   8.225  1.00  0.00     0.091 A 
HETATM    2  C5  UNL     1      21.478  43.481   8.212  1.00  0.00     0.098 A 
HETATM    3  C7  UNL     1      21.152  44.134   7.027  1.00  0.00     0.064 A 
HETATM    4  C8  UNL     1      21.336  43.493   5.824  1.00  0.00     0.060 A 
HETATM    5 CL1  UNL     1      20.911  44.350   4.334  1.00  0.00    -0.082 Cl
HETATM    6  C9  UNL     1      21.843  42.213   5.814  1.00  0.00     0.080 A 
HETATM    7 CL2  UNL     1      22.082  41.393   4.293  1.00  0.00    -0.081 Cl
HETATM    8  C10 UNL     1      22.163  41.579   7.019  1.00  0.00     0.087 A 
HETATM    9 CL3  UNL     1      22.792  39.955   6.962  1.00  0.00    -0.080 Cl
ENDROOT
BRANCH   1  10
HETATM   10  N2  UNL     1      22.294  41.584   9.435  1.00  0.00    -0.343 N 
ATOM     11  H2  UNL     1      23.228  41.746   9.811  1.00  0.00     0.167 HD
BRANCH  10  12
HETATM   12  C3  UNL     1      21.444  40.756  10.186  1.00  0.00     0.074 C 
HETATM   13  N1  UNL     1      21.272  39.544   9.853  1.00  0.00    -0.389 N 
ATOM     14  H12 UNL     1      20.655  38.942  10.398  1.00  0.00     0.157 HD
ATOM     15  H11 UNL     1      21.756  39.174   9.036  1.00  0.00     0.157 HD
BRANCH  12  16
HETATM   16  C2  UNL     1      20.745  41.289  11.364  1.00  0.00     0.071 C 
HETATM   17  C1  UNL     1      21.530  42.400  12.033  1.00  0.00     0.013 C 
ENDBRANCH  12  16
ENDBRANCH  10  12
ENDBRANCH   1  10
BRANCH   2  18
HETATM   18  O1  UNL     1      21.293  44.121   9.421  1.00  0.00    -0.354 OA
HETATM   19  C6  UNL     1      21.786  45.436   9.594  1.00  0.00     0.210 C 
ENDBRANCH   2  18
TORSDOF 4
ENDMDL
MODEL 4
REMARK VINA RESULT: -5.372167298      2.436      3.473
REMARK  4 active torsions:
REMARK  status: ('A' for Active; 'I' for Inactive)
REMARK    1  A    between atoms: C2_2  and  C3_3 
REMARK    2  A    between atoms: C3_3  and  N2_7 
REMARK    3  A    between atoms: N2_7  and  C4_9 
REMARK    4  A    between atoms: C5_10  and  O1_11 
ROOT
HETATM    1  C4  UNL     1      21.267  42.398   6.503  1.00  0.00     0.091 A 
HETATM    2  C5  UNL     1      22.248  43.311   6.795  1.00  0.00     0.098 A 
HETATM    3  C7  UNL     1      22.955  43.979   5.800  1.00  0.00     0.064 A 
HETATM    4  C8  UNL     1      22.673  43.728   4.478  1.00  0.00     0.060 A 
HETATM    5 CL1  UNL     1      23.590  44.595   3.237  1.00  0.00    -0.082 Cl
HETATM    6  C9  UNL     1      21.692  42.814   4.162  1.00  0.00     0.080 A 
HETATM    7 CL2  UNL     1      21.328  42.488   2.487  1.00  0.00    -0.081 Cl
HETATM    8  C10 UNL     1      20.996  42.156   5.180  1.00  0.00     0.087 A 
HETATM    9 CL3  UNL     1      19.755  41.016   4.736  1.00  0.00    -0.080 Cl
ENDROOT
BRANCH   1  10
HETATM   10  N2  UNL     1      20.577  41.752   7.529  1.00  0.00    -0.343 N 
ATOM     11  H2  UNL     1      19.561  41.841   7.530  1.00  0.00     0.167 HD
BRANCH  10  12
HETATM   12  C3  UNL     1      21.146  40.989   8.562  1.00  0.00     0.074 C 
HETATM   13  N1  UNL     1      22.183  40.290   8.345  1.00  0.00    -0.389 N 
ATOM     14  H12 UNL     1      22.596  39.736   9.095  1.00  0.00     0.157 HD
ATOM     15  H11 UNL     1      22.601  40.286   7.415  1.00  0.00     0.157 HD
BRANCH  12  16
HETATM   16  C2  UNL     1      20.543  40.994   9.902  1.00  0.00     0.071 C 
HETATM   17  C1  UNL     1      21.390  41.759  10.900  1.00  0.00     0.013 C 
ENDBRANCH  12  16
ENDBRANCH  10  12
ENDBRANCH   1  10
BRANCH   2  18
HETATM   18  O1  UNL     1      22.529  43.561   8.124  1.00  0.00    -0.354 OA
HETATM   19  C6  UNL     1      22.054  44.752   8.722  1.00  0.00     0.210 C 
ENDBRANCH   2  18
TORSDOF 4
ENDMDL
MODEL 5
REMARK VINA RESULT: -5.365004901      2.153      2.548
REMARK  4 active torsions:
REMARK  status: ('A' for Active; 'I' for Inactive)
REMARK    1  A    between atoms: C2_2  and  C3_3 
REMARK    2  A    between atoms: C3_3  and  N2_7 
REMARK    3  A    between atoms: N2_7  and  C4_9 
REMARK    4  A    between atoms: C5_10  and  O1_11 
ROOT
HETATM    1  C4  UNL     1      21.930  42.950   6.509  1.00  0.00     0.091 A 
HETATM    2  C5  UNL     1      20.948  42.030   6.775  1.00  0.00     0.098 A 
HETATM    3  C7  UNL     1      20.263  41.368   5.761  1.00  0.00     0.064 A 
HETATM    4  C8  UNL     1      20.567  41.633   4.447  1.00  0.00     0.060 A 
HETATM    5 CL1  UNL     1      19.677  40.773   3.181  1.00  0.00    -0.082 Cl
HETATM    6  C9  UNL     1      21.549  42.554   4.157  1.00  0.00     0.080 A 
HETATM    7 CL2  UNL     1      21.941  42.899   2.492  1.00  0.00    -0.081 Cl
HETATM    8  C10 UNL     1      22.223  43.206   5.194  1.00  0.00     0.087 A 
HETATM    9 CL3  UNL     1      23.465  44.357   4.783  1.00  0.00    -0.080 Cl
ENDROOT
BRANCH   1  10
HETATM   10  N2  UNL     1      22.598  43.590   7.554  1.00  0.00    -0.343 N 
ATOM     11  H2  UNL     1      23.610  43.469   7.597  1.00  0.00     0.167 HD
BRANCH  10  12
HETATM   12  C3  UNL     1      22.012  44.386   8.551  1.00  0.00     0.074 C 
HETATM   13  N1  UNL     1      20.974  45.070   8.298  1.00  0.00    -0.389 N 
ATOM     14  H12 UNL     1      20.548  45.648   9.022  1.00  0.00     0.157 HD
ATOM     15  H11 UNL     1      20.566  45.037   7.364  1.00  0.00     0.157 HD
BRANCH  12  16
HETATM   16  C2  UNL     1      22.599  44.434   9.897  1.00  0.00     0.071 C 
HETATM   17  C1  UNL     1      21.831  43.573  10.881  1.00  0.00     0.013 C 
ENDBRANCH  12  16
ENDBRANCH  10  12
ENDBRANCH   1  10
BRANCH   2  18
HETATM   18  O1  UNL     1      20.645  41.765   8.096  1.00  0.00    -0.354 OA
HETATM   19  C6  UNL     1      21.128  40.578   8.695  1.00  0.00     0.210 C 
ENDBRANCH   2  18
TORSDOF 4
ENDMDL
