MODEL 1
REMARK VINA RESULT: -6.922069883      0.000      0.000
REMARK  3 active torsions:
REMARK  status: ('A' for Active; 'I' for Inactive)
REMARK    1  A    between atoms: C4_5  and  O1_6 
REMARK    2  A    between atoms: C9_13  and  C10_14 
REMARK    3  A    between atoms: N3_18  and  C13_19 
ROOT
HETATM    1  C1  UNL     1      -3.381   7.268   9.896  1.00  0.00     0.279 C 
HETATM    2  N1  UNL     1      -4.542   6.422   9.759  1.00  0.00    -0.044 N 
HETATM    3  C2  UNL     1      -4.089   5.070   9.500  1.00  0.00     0.279 C 
HETATM    4  C3  UNL     1      -5.155   6.844   8.483  1.00  0.00     0.274 C 
HETATM    5  C4  UNL     1      -6.611   6.545   8.387  1.00  0.00     0.150 C 
HETATM    6  C5  UNL     1      -7.427   7.207   9.465  1.00  0.00     0.036 C 
HETATM    7  C6  UNL     1      -8.133   8.435   9.040  1.00  0.00     0.019 C 
HETATM    8  C7  UNL     1      -7.224   9.609   9.017  1.00  0.00     0.075 C 
HETATM    9  S1  UNL     1      -6.012   9.166  10.327  1.00  0.00    -0.157 SA
HETATM   10  C8  UNL     1      -6.577   7.500  10.650  1.00  0.00     0.113 C 
HETATM   11  C9  UNL     1      -5.451   6.484  10.829  1.00  0.00     0.142 C 
ENDROOT
BRANCH  11  12
HETATM   12  C10 UNL     1      -5.010   6.514  12.240  1.00  0.00     0.120 C 
HETATM   13  N2  UNL     1      -5.113   5.489  13.127  1.00  0.00    -0.385 N 
HETATM   14  C11 UNL     1      -4.456   4.285  13.240  1.00  0.00     0.142 C 
HETATM   15  C17 UNL     1      -5.410   5.968  14.493  1.00  0.00     0.142 C 
HETATM   16  C12 UNL     1      -5.506   3.228  13.657  1.00  0.00     0.145 C 
HETATM   17  N3  UNL     1      -5.942   3.643  14.974  1.00  0.00    -0.358 N 
HETATM   18  C16 UNL     1      -6.257   5.012  15.255  1.00  0.00     0.145 C 
BRANCH  17  19
HETATM   19  C13 UNL     1      -6.042   2.616  15.980  1.00  0.00     0.146 A 
HETATM   20  N4  UNL     1      -6.981   2.444  16.900  1.00  0.00    -0.346 N 
HETATM   21  C14 UNL     1      -6.907   1.454  17.725  1.00  0.00     0.097 A 
ATOM     22  H4  UNL     1      -7.764   3.096  16.956  1.00  0.00     0.167 HD
HETATM   23  C15 UNL     1      -5.837   0.605  17.614  1.00  0.00     0.070 A 
HETATM   24  S2  UNL     1      -4.990   1.300  16.301  1.00  0.00    -0.065 SA
ENDBRANCH  17  19
ENDBRANCH  11  12
BRANCH   5  25
HETATM   25  O1  UNL     1      -6.789   5.167   8.448  1.00  0.00    -0.393 OA
ATOM     26  H1  UNL     1      -6.977   4.845   7.573  1.00  0.00     0.210 HD
ENDBRANCH   5  25
TORSDOF 3
ENDMDL
MODEL 2
REMARK VINA RESULT: -6.841720485      3.094      7.868
REMARK  3 active torsions:
REMARK  status: ('A' for Active; 'I' for Inactive)
REMARK    1  A    between atoms: C4_5  and  O1_6 
REMARK    2  A    between atoms: C9_13  and  C10_14 
REMARK    3  A    between atoms: N3_18  and  C13_19 
ROOT
HETATM    1  C1  UNL     1      -2.205   4.536  11.757  1.00  0.00     0.279 C 
HETATM    2  N1  UNL     1      -3.508   4.110  12.207  1.00  0.00    -0.044 N 
HETATM    3  C2  UNL     1      -4.123   5.212  12.921  1.00  0.00     0.279 C 
HETATM    4  C3  UNL     1      -3.225   3.115  13.262  1.00  0.00     0.274 C 
HETATM    5  C4  UNL     1      -4.331   2.143  13.485  1.00  0.00     0.150 C 
HETATM    6  C5  UNL     1      -4.678   1.343  12.259  1.00  0.00     0.036 C 
HETATM    7  C6  UNL     1      -4.116  -0.025  12.233  1.00  0.00     0.019 C 
HETATM    8  C7  UNL     1      -2.689  -0.023  11.820  1.00  0.00     0.075 C 
HETATM    9  S1  UNL     1      -2.619   1.456  10.731  1.00  0.00    -0.157 SA
HETATM   10  C8  UNL     1      -4.270   2.077  11.031  1.00  0.00     0.113 C 
HETATM   11  C9  UNL     1      -4.343   3.593  11.203  1.00  0.00     0.142 C 
ENDROOT
BRANCH  11  12
HETATM   12  C10 UNL     1      -4.448   4.214   9.865  1.00  0.00     0.120 C 
HETATM   13  N2  UNL     1      -5.192   5.308   9.553  1.00  0.00    -0.385 N 
HETATM   14  C11 UNL     1      -5.054   6.644   9.853  1.00  0.00     0.142 C 
HETATM   15  C17 UNL     1      -5.778   5.210   8.199  1.00  0.00     0.142 C 
HETATM   16  C12 UNL     1      -6.470   7.195  10.149  1.00  0.00     0.145 C 
HETATM   17  N3  UNL     1      -7.182   7.072   8.893  1.00  0.00    -0.358 N 
HETATM   18  C16 UNL     1      -7.105   5.876   8.109  1.00  0.00     0.145 C 
BRANCH  17  19
HETATM   19  C13 UNL     1      -7.965   8.208   8.477  1.00  0.00     0.146 A 
HETATM   20  N4  UNL     1      -9.282   8.310   8.363  1.00  0.00    -0.346 N 
HETATM   21  C14 UNL     1      -9.815   9.420   7.974  1.00  0.00     0.097 A 
ATOM     22  H4  UNL     1      -9.876   7.511   8.584  1.00  0.00     0.167 HD
HETATM   23  C15 UNL     1      -8.979  10.468   7.687  1.00  0.00     0.070 A 
HETATM   24  S2  UNL     1      -7.448   9.774   8.005  1.00  0.00    -0.065 SA
ENDBRANCH  17  19
ENDBRANCH  11  12
BRANCH   5  25
HETATM   25  O1  UNL     1      -5.454   2.839  13.921  1.00  0.00    -0.393 OA
ATOM     26  H1  UNL     1      -5.700   3.470  13.255  1.00  0.00     0.210 HD
ENDBRANCH   5  25
TORSDOF 3
ENDMDL
MODEL 3
REMARK VINA RESULT: -6.673064290      1.951      2.449
REMARK  3 active torsions:
REMARK  status: ('A' for Active; 'I' for Inactive)
REMARK    1  A    between atoms: C4_5  and  O1_6 
REMARK    2  A    between atoms: C9_13  and  C10_14 
REMARK    3  A    between atoms: N3_18  and  C13_19 
ROOT
HETATM    1  C1  UNL     1      -2.856   7.378   8.106  1.00  0.00     0.279 C 
HETATM    2  N1  UNL     1      -3.478   6.106   7.823  1.00  0.00    -0.044 N 
HETATM    3  C2  UNL     1      -2.548   5.312   7.045  1.00  0.00     0.279 C 
HETATM    4  C3  UNL     1      -4.558   6.430   6.869  1.00  0.00     0.274 C 
HETATM    5  C4  UNL     1      -5.666   5.437   6.855  1.00  0.00     0.150 C 
HETATM    6  C5  UNL     1      -6.343   5.280   8.191  1.00  0.00     0.036 C 
HETATM    7  C6  UNL     1      -7.625   6.004   8.324  1.00  0.00     0.019 C 
HETATM    8  C7  UNL     1      -7.413   7.446   8.607  1.00  0.00     0.075 C 
HETATM    9  S1  UNL     1      -5.813   7.416   9.510  1.00  0.00    -0.157 SA
HETATM   10  C8  UNL     1      -5.421   5.685   9.286  1.00  0.00     0.113 C 
HETATM   11  C9  UNL     1      -3.956   5.416   8.949  1.00  0.00     0.142 C 
ENDROOT
BRANCH  11  12
HETATM   12  C10 UNL     1      -3.190   5.335  10.211  1.00  0.00     0.120 C 
HETATM   13  N2  UNL     1      -3.460   4.505  11.254  1.00  0.00    -0.385 N 
HETATM   14  C11 UNL     1      -3.335   3.145  11.418  1.00  0.00     0.142 C 
HETATM   15  C17 UNL     1      -3.174   5.143  12.556  1.00  0.00     0.142 C 
HETATM   16  C12 UNL     1      -4.573   2.664  12.213  1.00  0.00     0.145 C 
HETATM   17  N3  UNL     1      -4.447   3.301  13.508  1.00  0.00    -0.358 N 
HETATM   18  C16 UNL     1      -4.103   4.687  13.624  1.00  0.00     0.145 C 
BRANCH  17  19
HETATM   19  C13 UNL     1      -4.684   2.474  14.664  1.00  0.00     0.146 A 
HETATM   20  N4  UNL     1      -4.010   1.410  15.076  1.00  0.00    -0.346 N 
HETATM   21  C14 UNL     1      -4.370   0.790  16.149  1.00  0.00     0.097 A 
ATOM     22  H4  UNL     1      -3.204   1.081  14.544  1.00  0.00     0.167 HD
HETATM   23  C15 UNL     1      -5.459   1.266  16.832  1.00  0.00     0.070 A 
HETATM   24  S2  UNL     1      -5.902   2.606  15.865  1.00  0.00    -0.065 SA
ENDBRANCH  17  19
ENDBRANCH  11  12
BRANCH   5  25
HETATM   25  O1  UNL     1      -5.160   4.208   6.442  1.00  0.00    -0.393 OA
ATOM     26  H1  UNL     1      -4.597   4.348   5.689  1.00  0.00     0.210 HD
ENDBRANCH   5  25
TORSDOF 3
ENDMDL
MODEL 4
REMARK VINA RESULT: -6.434139362      3.960      5.493
REMARK  3 active torsions:
REMARK  status: ('A' for Active; 'I' for Inactive)
REMARK    1  A    between atoms: C4_5  and  O1_6 
REMARK    2  A    between atoms: C9_13  and  C10_14 
REMARK    3  A    between atoms: N3_18  and  C13_19 
ROOT
HETATM    1  C1  UNL     1      -2.478   6.198  10.820  1.00  0.00     0.279 C 
HETATM    2  N1  UNL     1      -1.416   5.502  11.505  1.00  0.00    -0.044 N 
HETATM    3  C2  UNL     1      -1.464   5.870  12.906  1.00  0.00     0.279 C 
HETATM    4  C3  UNL     1      -0.180   6.142  11.011  1.00  0.00     0.274 C 
HETATM    5  C4  UNL     1       1.028   5.277  11.114  1.00  0.00     0.150 C 
HETATM    6  C5  UNL     1       0.906   3.988  10.347  1.00  0.00     0.036 C 
HETATM    7  C6  UNL     1       1.594   3.980   9.038  1.00  0.00     0.019 C 
HETATM    8  C7  UNL     1       0.793   4.670   7.994  1.00  0.00     0.075 C 
HETATM    9  S1  UNL     1      -0.922   4.378   8.589  1.00  0.00    -0.157 SA
HETATM   10  C8  UNL     1      -0.526   3.630  10.165  1.00  0.00     0.113 C 
HETATM   11  C9  UNL     1      -1.402   4.110  11.320  1.00  0.00     0.142 C 
ENDROOT
BRANCH  11  12
HETATM   12  C10 UNL     1      -2.637   3.297  11.343  1.00  0.00     0.120 C 
HETATM   13  N2  UNL     1      -3.396   3.036  12.441  1.00  0.00    -0.385 N 
HETATM   14  C11 UNL     1      -4.232   3.820  13.202  1.00  0.00     0.142 C 
HETATM   15  C17 UNL     1      -3.966   1.672  12.407  1.00  0.00     0.142 C 
HETATM   16  C12 UNL     1      -4.015   3.418  14.681  1.00  0.00     0.145 C 
HETATM   17  N3  UNL     1      -4.469   2.044  14.758  1.00  0.00    -0.358 N 
HETATM   18  C16 UNL     1      -4.096   1.081  13.765  1.00  0.00     0.145 C 
BRANCH  17  19
HETATM   19  C13 UNL     1      -5.309   1.700  15.877  1.00  0.00     0.146 A 
HETATM   20  N4  UNL     1      -5.248   0.633  16.662  1.00  0.00    -0.346 N 
HETATM   21  C14 UNL     1      -6.092   0.491  17.629  1.00  0.00     0.097 A 
ATOM     22  H4  UNL     1      -4.534  -0.077  16.502  1.00  0.00     0.167 HD
HETATM   23  C15 UNL     1      -7.037   1.468  17.806  1.00  0.00     0.070 A 
HETATM   24  S2  UNL     1      -6.639   2.553  16.544  1.00  0.00    -0.065 SA
ENDBRANCH  17  19
ENDBRANCH  11  12
BRANCH   5  25
HETATM   25  O1  UNL     1       1.264   5.000  12.457  1.00  0.00    -0.393 OA
ATOM     26  H1  UNL     1       0.592   5.424  12.979  1.00  0.00     0.210 HD
ENDBRANCH   5  25
TORSDOF 3
ENDMDL
MODEL 5
REMARK VINA RESULT: -6.286145931      1.939      2.539
REMARK  3 active torsions:
REMARK  status: ('A' for Active; 'I' for Inactive)
REMARK    1  A    between atoms: C4_5  and  O1_6 
REMARK    2  A    between atoms: C9_13  and  C10_14 
REMARK    3  A    between atoms: N3_18  and  C13_19 
ROOT
HETATM    1  C1  UNL     1      -1.346   6.498   9.183  1.00  0.00     0.279 C 
HETATM    2  N1  UNL     1      -2.269   5.535   8.633  1.00  0.00    -0.044 N 
HETATM    3  C2  UNL     1      -1.539   4.680   7.718  1.00  0.00     0.279 C 
HETATM    4  C3  UNL     1      -3.149   6.331   7.753  1.00  0.00     0.274 C 
HETATM    5  C4  UNL     1      -4.483   5.713   7.518  1.00  0.00     0.150 C 
HETATM    6  C5  UNL     1      -5.269   5.493   8.782  1.00  0.00     0.036 C 
HETATM    7  C6  UNL     1      -6.312   6.508   9.047  1.00  0.00     0.019 C 
HETATM    8  C7  UNL     1      -5.735   7.747   9.628  1.00  0.00     0.075 C 
HETATM    9  S1  UNL     1      -4.271   7.090  10.526  1.00  0.00    -0.157 SA
HETATM   10  C8  UNL     1      -4.353   5.398   9.950  1.00  0.00     0.113 C 
HETATM   11  C9  UNL     1      -2.996   4.800   9.583  1.00  0.00     0.142 C 
ENDROOT
BRANCH  11  12
HETATM   12  C10 UNL     1      -2.373   4.259  10.810  1.00  0.00     0.120 C 
HETATM   13  N2  UNL     1      -3.029   3.654  11.836  1.00  0.00    -0.385 N 
HETATM   14  C11 UNL     1      -3.653   2.433  11.951  1.00  0.00     0.142 C 
HETATM   15  C17 UNL     1      -2.423   3.975  13.145  1.00  0.00     0.142 C 
HETATM   16  C12 UNL     1      -4.941   2.654  12.780  1.00  0.00     0.145 C 
HETATM   17  N3  UNL     1      -4.471   3.060  14.088  1.00  0.00    -0.358 N 
HETATM   18  C16 UNL     1      -3.433   4.037  14.235  1.00  0.00     0.145 C 
BRANCH  17  19
HETATM   19  C13 UNL     1      -5.096   2.435  15.227  1.00  0.00     0.146 A 
HETATM   20  N4  UNL     1      -6.227   2.764  15.836  1.00  0.00    -0.346 N 
HETATM   21  C14 UNL     1      -6.638   2.081  16.851  1.00  0.00     0.097 A 
ATOM     22  H4  UNL     1      -6.772   3.559  15.503  1.00  0.00     0.167 HD
HETATM   23  C15 UNL     1      -5.873   1.022  17.266  1.00  0.00     0.070 A 
HETATM   24  S2  UNL     1      -4.583   1.079  16.143  1.00  0.00    -0.065 SA
ENDBRANCH  17  19
ENDBRANCH  11  12
BRANCH   5  25
HETATM   25  O1  UNL     1      -4.303   4.498   6.864  1.00  0.00    -0.393 OA
ATOM     26  H1  UNL     1      -3.554   4.055   7.245  1.00  0.00     0.210 HD
ENDBRANCH   5  25
TORSDOF 3
ENDMDL
