MODEL 1
REMARK VINA RESULT: -7.564472595      0.000      0.000
REMARK  4 active torsions:
REMARK  status: ('A' for Active; 'I' for Inactive)
REMARK       I    between atoms: C1_2  and  N1_3 
REMARK    1  A    between atoms: C1_2  and  C15_23 
REMARK    2  A    between atoms: C2_5  and  C3_6 
REMARK    3  A    between atoms: C7_13  and  C8_14 
REMARK    4  A    between atoms: C8_14  and  O4_15 
ROOT
HETATM    1  C3  UNL     1      -3.757   4.069  13.555  1.00  0.00     0.172 C 
HETATM    2  C4  UNL     1      -4.315   4.732  14.774  1.00  0.00     0.112 C 
HETATM    3  S1  UNL     1      -3.875   6.469  14.816  1.00  0.00    -0.155 SA
HETATM    4  C5  UNL     1      -3.350   7.100  13.204  1.00  0.00     0.117 C 
HETATM    5  C6  UNL     1      -3.055   5.900  12.323  1.00  0.00     0.276 C 
HETATM    6  O2  UNL     1      -3.987   4.900  12.463  1.00  0.00    -0.349 OA
HETATM    7  O3  UNL     1      -1.805   5.450  12.714  1.00  0.00    -0.352 OA
HETATM    8  C7  UNL     1      -1.095   6.505  13.208  1.00  0.00     0.161 C 
HETATM    9  C9  UNL     1      -1.968   7.728  13.278  1.00  0.00     0.022 C 
HETATM   10  C10 UNL     1      -1.786   8.457  14.563  1.00  0.00    -0.017 C 
HETATM   11  C11 UNL     1      -1.815   9.766  14.593  1.00  0.00    -0.030 C 
HETATM   12  C12 UNL     1      -2.016  10.687  13.454  1.00  0.00     0.027 C 
HETATM   13  C13 UNL     1      -2.639   9.908  12.319  1.00  0.00     0.005 C 
HETATM   14  C14 UNL     1      -1.819   8.653  12.104  1.00  0.00     0.018 C 
ENDROOT
BRANCH   1  15
HETATM   15  C2  UNL     1      -4.311   2.706  13.341  1.00  0.00     0.096 C 
HETATM   16  N1  UNL     1      -3.826   1.652  13.852  1.00  0.00    -0.336 N 
HETATM   17  C1  UNL     1      -4.390   0.393  13.616  1.00  0.00     0.251 C 
ATOM     18  H1  UNL     1      -3.003   1.723  14.451  1.00  0.00     0.168 HD
HETATM   19  O1  UNL     1      -4.666  -0.332  14.605  1.00  0.00    -0.270 OA
BRANCH  17  20
HETATM   20  C15 UNL     1      -4.689  -0.156  12.275  1.00  0.00     0.224 C 
HETATM   21  O5  UNL     1      -5.172   0.779  11.358  1.00  0.00    -0.375 OA
HETATM   22  C16 UNL     1      -4.358   0.273  10.342  1.00  0.00     0.181 C 
HETATM   23  C17 UNL     1      -3.554  -0.408  11.380  1.00  0.00     0.016 A 
HETATM   24  C18 UNL     1      -2.773  -1.598  11.239  1.00  0.00     0.016 A 
HETATM   25  C19 UNL     1      -2.156  -0.237  11.652  1.00  0.00     0.016 A 
ENDBRANCH  17  20
ENDBRANCH   1  15
BRANCH   8  26
HETATM   26  C8  UNL     1       0.180   6.686  12.422  1.00  0.00     0.197 C 
BRANCH  26  27
HETATM   27  O4  UNL     1       0.905   5.509  12.361  1.00  0.00    -0.398 OA
ATOM     28  H4  UNL     1       1.646   5.589  11.771  1.00  0.00     0.209 HD
ENDBRANCH  26  27
ENDBRANCH   8  26
TORSDOF 4
ENDMDL
MODEL 2
REMARK VINA RESULT: -7.482407371      2.724      7.479
REMARK  4 active torsions:
REMARK  status: ('A' for Active; 'I' for Inactive)
REMARK       I    between atoms: C1_2  and  N1_3 
REMARK    1  A    between atoms: C1_2  and  C15_23 
REMARK    2  A    between atoms: C2_5  and  C3_6 
REMARK    3  A    between atoms: C7_13  and  C8_14 
REMARK    4  A    between atoms: C8_14  and  O4_15 
ROOT
HETATM    1  C3  UNL     1      -1.556   5.060  12.866  1.00  0.00     0.172 C 
HETATM    2  C4  UNL     1      -2.259   6.145  13.618  1.00  0.00     0.112 C 
HETATM    3  S1  UNL     1      -3.577   5.474  14.628  1.00  0.00    -0.155 SA
HETATM    4  C5  UNL     1      -3.413   3.694  14.907  1.00  0.00     0.117 C 
HETATM    5  C6  UNL     1      -2.412   3.168  13.894  1.00  0.00     0.276 C 
HETATM    6  O2  UNL     1      -1.329   4.001  13.741  1.00  0.00    -0.349 OA
HETATM    7  O3  UNL     1      -3.109   3.063  12.702  1.00  0.00    -0.352 OA
HETATM    8  C7  UNL     1      -4.426   2.849  12.984  1.00  0.00     0.161 C 
HETATM    9  C9  UNL     1      -4.661   2.947  14.466  1.00  0.00     0.022 C 
HETATM   10  C10 UNL     1      -5.885   3.733  14.776  1.00  0.00    -0.017 C 
HETATM   11  C11 UNL     1      -6.660   3.390  15.775  1.00  0.00    -0.030 C 
HETATM   12  C12 UNL     1      -6.480   2.252  16.703  1.00  0.00     0.027 C 
HETATM   13  C13 UNL     1      -5.037   1.806  16.630  1.00  0.00     0.005 C 
HETATM   14  C14 UNL     1      -4.675   1.620  15.171  1.00  0.00     0.018 C 
ENDROOT
BRANCH   1  15
HETATM   15  C2  UNL     1      -0.299   5.529  12.226  1.00  0.00     0.096 C 
HETATM   16  N1  UNL     1       0.817   4.935  12.329  1.00  0.00    -0.336 N 
HETATM   17  C1  UNL     1       1.970   5.423  11.704  1.00  0.00     0.251 C 
ATOM     18  H1  UNL     1       0.875   4.080  12.882  1.00  0.00     0.168 HD
HETATM   19  O1  UNL     1       2.636   4.637  10.983  1.00  0.00    -0.270 OA
BRANCH  17  20
HETATM   20  C15 UNL     1       2.471   6.810  11.827  1.00  0.00     0.224 C 
HETATM   21  O5  UNL     1       1.650   7.660  12.569  1.00  0.00    -0.375 OA
HETATM   22  C16 UNL     1       2.746   8.212  13.237  1.00  0.00     0.181 C 
HETATM   23  C17 UNL     1       3.550   7.054  12.791  1.00  0.00     0.016 A 
HETATM   24  C18 UNL     1       4.964   7.000  12.583  1.00  0.00     0.016 A 
HETATM   25  C19 UNL     1       4.236   6.100  13.613  1.00  0.00     0.016 A 
ENDBRANCH  17  20
ENDBRANCH   1  15
BRANCH   8  26
HETATM   26  C8  UNL     1      -4.888   1.557  12.357  1.00  0.00     0.197 C 
BRANCH  26  27
HETATM   27  O4  UNL     1      -5.797   1.787  11.340  1.00  0.00    -0.398 OA
ATOM     28  H4  UNL     1      -5.594   1.268  10.570  1.00  0.00     0.209 HD
ENDBRANCH  26  27
ENDBRANCH   8  26
TORSDOF 4
ENDMDL
MODEL 3
REMARK VINA RESULT: -7.405534826      2.946      7.155
REMARK  4 active torsions:
REMARK  status: ('A' for Active; 'I' for Inactive)
REMARK       I    between atoms: C1_2  and  N1_3 
REMARK    1  A    between atoms: C1_2  and  C15_23 
REMARK    2  A    between atoms: C2_5  and  C3_6 
REMARK    3  A    between atoms: C7_13  and  C8_14 
REMARK    4  A    between atoms: C8_14  and  O4_15 
ROOT
HETATM    1  C3  UNL     1      -1.206   4.591  11.772  1.00  0.00     0.172 C 
HETATM    2  C4  UNL     1      -1.687   5.811  12.493  1.00  0.00     0.112 C 
HETATM    3  S1  UNL     1      -3.032   5.408  13.605  1.00  0.00    -0.155 SA
HETATM    4  C5  UNL     1      -3.130   3.641  13.980  1.00  0.00     0.117 C 
HETATM    5  C6  UNL     1      -2.283   2.913  12.952  1.00  0.00     0.276 C 
HETATM    6  O2  UNL     1      -1.095   3.556  12.697  1.00  0.00    -0.349 OA
HETATM    7  O3  UNL     1      -3.056   2.860  11.804  1.00  0.00    -0.352 OA
HETATM    8  C7  UNL     1      -4.372   2.871  12.163  1.00  0.00     0.161 C 
HETATM    9  C9  UNL     1      -4.503   3.079  13.647  1.00  0.00     0.022 C 
HETATM   10  C10 UNL     1      -5.570   4.063  13.969  1.00  0.00    -0.017 C 
HETATM   11  C11 UNL     1      -6.329   3.898  15.024  1.00  0.00    -0.030 C 
HETATM   12  C12 UNL     1      -6.274   2.794  16.007  1.00  0.00     0.027 C 
HETATM   13  C13 UNL     1      -4.925   2.123  15.889  1.00  0.00     0.005 C 
HETATM   14  C14 UNL     1      -4.681   1.808  14.428  1.00  0.00     0.018 C 
ENDROOT
BRANCH   1  15
HETATM   15  C2  UNL     1       0.069   4.823  11.045  1.00  0.00     0.096 C 
HETATM   16  N1  UNL     1       1.056   4.026  11.066  1.00  0.00    -0.336 N 
HETATM   17  C1  UNL     1       2.234   4.296  10.360  1.00  0.00     0.251 C 
ATOM     18  H1  UNL     1       0.988   3.166  11.610  1.00  0.00     0.168 HD
HETATM   19  O1  UNL     1       2.685   3.409   9.591  1.00  0.00    -0.270 OA
BRANCH  17  20
HETATM   20  C15 UNL     1       2.998   5.559  10.451  1.00  0.00     0.224 C 
HETATM   21  O5  UNL     1       2.220   6.695  10.680  1.00  0.00    -0.375 OA
HETATM   22  C16 UNL     1       3.126   7.184  11.623  1.00  0.00     0.181 C 
HETATM   23  C17 UNL     1       3.711   5.828  11.704  1.00  0.00     0.016 A 
HETATM   24  C18 UNL     1       5.049   5.474  12.066  1.00  0.00     0.016 A 
HETATM   25  C19 UNL     1       3.811   4.990  12.864  1.00  0.00     0.016 A 
ENDBRANCH  17  20
ENDBRANCH   1  15
BRANCH   8  26
HETATM   26  C8  UNL     1      -5.064   1.638  11.637  1.00  0.00     0.197 C 
BRANCH  26  27
HETATM   27  O4  UNL     1      -4.793   1.442  10.294  1.00  0.00    -0.398 OA
ATOM     28  H4  UNL     1      -5.463   0.911   9.880  1.00  0.00     0.209 HD
ENDBRANCH  26  27
ENDBRANCH   8  26
TORSDOF 4
ENDMDL
MODEL 4
REMARK VINA RESULT: -7.335970433      3.818      7.241
REMARK  4 active torsions:
REMARK  status: ('A' for Active; 'I' for Inactive)
REMARK       I    between atoms: C1_2  and  N1_3 
REMARK    1  A    between atoms: C1_2  and  C15_23 
REMARK    2  A    between atoms: C2_5  and  C3_6 
REMARK    3  A    between atoms: C7_13  and  C8_14 
REMARK    4  A    between atoms: C8_14  and  O4_15 
ROOT
HETATM    1  C3  UNL     1      -1.165   4.014  10.735  1.00  0.00     0.172 C 
HETATM    2  C4  UNL     1      -1.523   5.314  11.382  1.00  0.00     0.112 C 
HETATM    3  S1  UNL     1      -2.750   5.075  12.665  1.00  0.00    -0.155 SA
HETATM    4  C5  UNL     1      -2.865   3.355  13.216  1.00  0.00     0.117 C 
HETATM    5  C6  UNL     1      -2.162   2.500  12.178  1.00  0.00     0.276 C 
HETATM    6  O2  UNL     1      -0.988   3.063  11.738  1.00  0.00    -0.349 OA
HETATM    7  O3  UNL     1      -3.058   2.374  11.129  1.00  0.00    -0.352 OA
HETATM    8  C7  UNL     1      -4.325   2.476  11.624  1.00  0.00     0.161 C 
HETATM    9  C9  UNL     1      -4.284   2.825  13.086  1.00  0.00     0.022 C 
HETATM   10  C10 UNL     1      -5.276   3.881  13.425  1.00  0.00    -0.017 C 
HETATM   11  C11 UNL     1      -5.920   3.846  14.565  1.00  0.00    -0.030 C 
HETATM   12  C12 UNL     1      -5.794   2.836  15.638  1.00  0.00     0.027 C 
HETATM   13  C13 UNL     1      -4.489   2.099  15.442  1.00  0.00     0.005 C 
HETATM   14  C14 UNL     1      -4.418   1.641  14.001  1.00  0.00     0.018 C 
ENDROOT
BRANCH   1  15
HETATM   15  C2  UNL     1       0.029   4.121   9.857  1.00  0.00     0.096 C 
HETATM   16  N1  UNL     1       1.225   4.001  10.263  1.00  0.00    -0.336 N 
HETATM   17  C1  UNL     1       2.313   4.112   9.390  1.00  0.00     0.251 C 
ATOM     18  H1  UNL     1       1.398   3.817  11.252  1.00  0.00     0.168 HD
HETATM   19  O1  UNL     1       3.172   3.193   9.387  1.00  0.00    -0.270 OA
BRANCH  17  20
HETATM   20  C15 UNL     1       2.533   5.241   8.460  1.00  0.00     0.224 C 
HETATM   21  O5  UNL     1       3.853   5.395   8.035  1.00  0.00    -0.375 OA
HETATM   22  C16 UNL     1       3.452   5.625   6.717  1.00  0.00     0.181 C 
HETATM   23  C17 UNL     1       2.133   5.052   7.061  1.00  0.00     0.016 A 
HETATM   24  C18 UNL     1       0.872   5.330   6.446  1.00  0.00     0.016 A 
HETATM   25  C19 UNL     1       1.496   3.911   6.468  1.00  0.00     0.016 A 
ENDBRANCH  17  20
ENDBRANCH   1  15
BRANCH   8  26
HETATM   26  C8  UNL     1      -5.111   1.231  11.296  1.00  0.00     0.197 C 
BRANCH  26  27
HETATM   27  O4  UNL     1      -4.739   0.709  10.069  1.00  0.00    -0.398 OA
ATOM     28  H4  UNL     1      -5.232  -0.077   9.864  1.00  0.00     0.209 HD
ENDBRANCH  26  27
ENDBRANCH   8  26
TORSDOF 4
ENDMDL
MODEL 5
REMARK VINA RESULT: -7.327924223      1.401      1.798
REMARK  4 active torsions:
REMARK  status: ('A' for Active; 'I' for Inactive)
REMARK       I    between atoms: C1_2  and  N1_3 
REMARK    1  A    between atoms: C1_2  and  C15_23 
REMARK    2  A    between atoms: C2_5  and  C3_6 
REMARK    3  A    between atoms: C7_13  and  C8_14 
REMARK    4  A    between atoms: C8_14  and  O4_15 
ROOT
HETATM    1  C3  UNL     1      -2.865   5.153  13.188  1.00  0.00     0.172 C 
HETATM    2  C4  UNL     1      -3.473   5.565  14.492  1.00  0.00     0.112 C 
HETATM    3  S1  UNL     1      -3.202   7.308  14.804  1.00  0.00    -0.155 SA
HETATM    4  C5  UNL     1      -2.757   8.228  13.311  1.00  0.00     0.117 C 
HETATM    5  C6  UNL     1      -2.356   7.213  12.257  1.00  0.00     0.276 C 
HETATM    6  O2  UNL     1      -3.186   6.117  12.236  1.00  0.00    -0.349 OA
HETATM    7  O3  UNL     1      -1.064   6.830  12.580  1.00  0.00    -0.352 OA
HETATM    8  C7  UNL     1      -0.455   7.861  13.234  1.00  0.00     0.161 C 
HETATM    9  C9  UNL     1      -1.441   8.968  13.488  1.00  0.00     0.022 C 
HETATM   10  C10 UNL     1      -1.317   9.504  14.870  1.00  0.00    -0.017 C 
HETATM   11  C11 UNL     1      -1.473  10.784  15.103  1.00  0.00    -0.030 C 
HETATM   12  C12 UNL     1      -1.773  11.846  14.118  1.00  0.00     0.027 C 
HETATM   13  C13 UNL     1      -2.329  11.194  12.873  1.00  0.00     0.005 C 
HETATM   14  C14 UNL     1      -1.394  10.073  12.471  1.00  0.00     0.018 C 
ENDROOT
BRANCH   1  15
HETATM   15  C2  UNL     1      -3.287   3.793  12.764  1.00  0.00     0.096 C 
HETATM   16  N1  UNL     1      -4.429   3.295  13.003  1.00  0.00    -0.336 N 
HETATM   17  C1  UNL     1      -4.772   2.007  12.578  1.00  0.00     0.251 C 
ATOM     18  H1  UNL     1      -5.114   3.848  13.518  1.00  0.00     0.168 HD
HETATM   19  O1  UNL     1      -5.839   1.857  11.929  1.00  0.00    -0.270 OA
BRANCH  17  20
HETATM   20  C15 UNL     1      -3.968   0.792  12.840  1.00  0.00     0.224 C 
HETATM   21  O5  UNL     1      -4.693  -0.400  12.824  1.00  0.00    -0.375 OA
HETATM   22  C16 UNL     1      -3.699  -1.050  12.089  1.00  0.00     0.181 C 
HETATM   23  C17 UNL     1      -3.147   0.276  11.739  1.00  0.00     0.016 A 
HETATM   24  C18 UNL     1      -1.794   0.599  11.404  1.00  0.00     0.016 A 
HETATM   25  C19 UNL     1      -2.975   0.831  10.427  1.00  0.00     0.016 A 
ENDBRANCH  17  20
ENDBRANCH   1  15
BRANCH   8  26
HETATM   26  C8  UNL     1       0.789   8.283  12.493  1.00  0.00     0.197 C 
BRANCH  26  27
HETATM   27  O4  UNL     1       1.856   8.457  13.357  1.00  0.00    -0.398 OA
ATOM     28  H4  UNL     1       2.657   8.098  12.993  1.00  0.00     0.209 HD
ENDBRANCH  26  27
ENDBRANCH   8  26
TORSDOF 4
ENDMDL
