MODEL 1
REMARK VINA RESULT: -6.730166655      0.000      0.000
REMARK  8 active torsions:
REMARK  status: ('A' for Active; 'I' for Inactive)
REMARK    1  A    between atoms: C2_2  and  C3_3 
REMARK    2  A    between atoms: C3_3  and  C4_4 
REMARK    3  A    between atoms: C4_4  and  N1_5 
REMARK    4  A    between atoms: C6_7  and  C7_8 
REMARK       I    between atoms: C7_8  and  N2_10 
REMARK    5  A    between atoms: C9_12  and  O2_13 
REMARK    6  A    between atoms: C16_21  and  C17_22 
REMARK    7  A    between atoms: C17_22  and  O4_23 
REMARK    8  A    between atoms: N3_25  and  O5_27 
ROOT
HETATM    1  N1  UNL     1      -5.980   4.574  15.040  1.00  0.00    -0.411 N 
HETATM    2  C5  UNL     1      -4.684   5.143  14.983  1.00  0.00     0.131 C 
HETATM    3  C6  UNL     1      -3.765   4.168  14.239  1.00  0.00     0.096 C 
HETATM    4  C15 UNL     1      -3.635   2.994  15.224  1.00  0.00     0.030 C 
HETATM    5  C16 UNL     1      -5.004   2.301  15.159  1.00  0.00     0.080 C 
HETATM    6  C18 UNL     1      -6.083   3.257  15.534  1.00  0.00     0.129 C 
ENDROOT
BRANCH   3   7
HETATM    7  C7  UNL     1      -2.494   4.785  13.894  1.00  0.00     0.226 C 
HETATM    8  O1  UNL     1      -1.984   5.626  14.673  1.00  0.00    -0.273 OA
HETATM    9  N2  UNL     1      -1.820   4.464  12.704  1.00  0.00    -0.342 N 
HETATM   10  C8  UNL     1      -0.554   5.016  12.269  1.00  0.00     0.161 C 
HETATM   11  C14 UNL     1      -2.252   3.538  11.654  1.00  0.00     0.120 C 
HETATM   12  C9  UNL     1      -0.596   4.969  10.783  1.00  0.00     0.169 C 
HETATM   13  C11 UNL     1      -1.885   4.323  10.399  1.00  0.00     0.174 C 
HETATM   14  O3  UNL     1      -1.729   3.362   9.403  1.00  0.00    -0.381 OA
HETATM   15  C12 UNL     1      -1.223   2.213   9.992  1.00  0.00     0.170 C 
HETATM   16  C13 UNL     1      -1.342   2.353  11.490  1.00  0.00     0.054 C 
BRANCH  12  17
HETATM   17  O2  UNL     1      -0.441   6.230  10.199  1.00  0.00    -0.386 OA
HETATM   18  C10 UNL     1      -1.710   6.752   9.981  1.00  0.00     0.202 C 
ENDBRANCH  12  17
ENDBRANCH   3   7
BRANCH   1  19
HETATM   19  C4  UNL     1      -6.921   4.991  14.059  1.00  0.00     0.117 C 
BRANCH  19  20
HETATM   20  C3  UNL     1      -6.518   6.344  13.499  1.00  0.00     0.019 C 
BRANCH  20  21
HETATM   21  C2  UNL     1      -7.715   7.100  12.966  1.00  0.00    -0.003 C 
HETATM   22  C1  UNL     1      -7.208   7.975  11.829  1.00  0.00     0.005 C 
ENDBRANCH  20  21
ENDBRANCH  19  20
ENDBRANCH   1  19
BRANCH   5  23
HETATM   23  C17 UNL     1      -4.961   1.221  16.177  1.00  0.00     0.141 C 
HETATM   24  N3  UNL     1      -4.766  -0.001  15.855  1.00  0.00    -0.251 N 
ATOM     25  H3  UNL     1      -4.741  -0.728  16.570  1.00  0.00     0.196 HD
BRANCH  23  26
HETATM   26  O4  UNL     1      -5.138   1.546  17.519  1.00  0.00    -0.348 OA
ATOM     27  H4  UNL     1      -5.900   1.214  17.980  1.00  0.00     0.219 HD
ENDBRANCH  23  26
BRANCH  24  28
HETATM   28  O5  UNL     1      -4.592  -0.317  14.531  1.00  0.00    -0.288 OA
ATOM     29  H5  UNL     1      -5.194  -0.929  14.122  1.00  0.00     0.244 HD
ENDBRANCH  24  28
ENDBRANCH   5  23
TORSDOF 8
ENDMDL
MODEL 2
REMARK VINA RESULT: -6.665619089      3.493      5.044
REMARK  8 active torsions:
REMARK  status: ('A' for Active; 'I' for Inactive)
REMARK    1  A    between atoms: C2_2  and  C3_3 
REMARK    2  A    between atoms: C3_3  and  C4_4 
REMARK    3  A    between atoms: C4_4  and  N1_5 
REMARK    4  A    between atoms: C6_7  and  C7_8 
REMARK       I    between atoms: C7_8  and  N2_10 
REMARK    5  A    between atoms: C9_12  and  O2_13 
REMARK    6  A    between atoms: C16_21  and  C17_22 
REMARK    7  A    between atoms: C17_22  and  O4_23 
REMARK    8  A    between atoms: N3_25  and  O5_27 
ROOT
HETATM    1  N1  UNL     1      -4.409   3.181  14.031  1.00  0.00    -0.411 N 
HETATM    2  C5  UNL     1      -3.925   4.380  13.454  1.00  0.00     0.131 C 
HETATM    3  C6  UNL     1      -4.366   4.417  11.987  1.00  0.00     0.096 C 
HETATM    4  C15 UNL     1      -3.523   3.303  11.343  1.00  0.00     0.030 C 
HETATM    5  C16 UNL     1      -4.159   2.006  11.865  1.00  0.00     0.080 C 
HETATM    6  C18 UNL     1      -4.120   1.978  13.354  1.00  0.00     0.129 C 
ENDROOT
BRANCH   3   7
HETATM    7  C7  UNL     1      -4.152   5.728  11.395  1.00  0.00     0.226 C 
HETATM    8  O1  UNL     1      -3.454   6.574  12.003  1.00  0.00    -0.273 OA
HETATM    9  N2  UNL     1      -4.712   6.074  10.152  1.00  0.00    -0.342 N 
HETATM   10  C8  UNL     1      -4.558   7.345   9.476  1.00  0.00     0.161 C 
HETATM   11  C14 UNL     1      -5.572   5.250   9.299  1.00  0.00     0.120 C 
HETATM   12  C9  UNL     1      -5.794   7.508   8.664  1.00  0.00     0.169 C 
HETATM   13  C11 UNL     1      -6.612   6.273   8.853  1.00  0.00     0.174 C 
HETATM   14  O3  UNL     1      -7.119   5.776   7.656  1.00  0.00    -0.381 OA
HETATM   15  C12 UNL     1      -6.095   5.108   7.001  1.00  0.00     0.170 C 
HETATM   16  C13 UNL     1      -4.953   4.917   7.970  1.00  0.00     0.054 C 
BRANCH  12  17
HETATM   17  O2  UNL     1      -6.504   8.668   8.989  1.00  0.00    -0.386 OA
HETATM   18  C10 UNL     1      -7.439   8.331   9.961  1.00  0.00     0.202 C 
ENDBRANCH  12  17
ENDBRANCH   3   7
BRANCH   1  19
HETATM   19  C4  UNL     1      -5.623   3.253  14.767  1.00  0.00     0.117 C 
BRANCH  19  20
HETATM   20  C3  UNL     1      -5.589   2.263  15.918  1.00  0.00     0.019 C 
BRANCH  20  21
HETATM   21  C2  UNL     1      -6.867   2.309  16.725  1.00  0.00    -0.003 C 
HETATM   22  C1  UNL     1      -6.967   0.981  17.463  1.00  0.00     0.005 C 
ENDBRANCH  20  21
ENDBRANCH  19  20
ENDBRANCH   1  19
BRANCH   5  23
HETATM   23  C17 UNL     1      -3.308   0.902  11.354  1.00  0.00     0.141 C 
HETATM   24  N3  UNL     1      -3.735   0.073  10.479  1.00  0.00    -0.251 N 
ATOM     25  H3  UNL     1      -3.135  -0.679  10.140  1.00  0.00     0.196 HD
BRANCH  23  26
HETATM   26  O4  UNL     1      -2.012   0.764  11.840  1.00  0.00    -0.348 OA
ATOM     27  H4  UNL     1      -1.526  -0.029  11.645  1.00  0.00     0.219 HD
ENDBRANCH  23  26
BRANCH  24  28
HETATM   28  O5  UNL     1      -5.015   0.213  10.002  1.00  0.00    -0.288 OA
ATOM     29  H5  UNL     1      -5.676  -0.414  10.271  1.00  0.00     0.244 HD
ENDBRANCH  24  28
ENDBRANCH   5  23
TORSDOF 8
ENDMDL
MODEL 3
REMARK VINA RESULT: -6.663381478      2.868      4.971
REMARK  8 active torsions:
REMARK  status: ('A' for Active; 'I' for Inactive)
REMARK    1  A    between atoms: C2_2  and  C3_3 
REMARK    2  A    between atoms: C3_3  and  C4_4 
REMARK    3  A    between atoms: C4_4  and  N1_5 
REMARK    4  A    between atoms: C6_7  and  C7_8 
REMARK       I    between atoms: C7_8  and  N2_10 
REMARK    5  A    between atoms: C9_12  and  O2_13 
REMARK    6  A    between atoms: C16_21  and  C17_22 
REMARK    7  A    between atoms: C17_22  and  O4_23 
REMARK    8  A    between atoms: N3_25  and  O5_27 
ROOT
HETATM    1  N1  UNL     1      -4.168   1.689  12.319  1.00  0.00    -0.411 N 
HETATM    2  C5  UNL     1      -4.638   2.924  11.810  1.00  0.00     0.131 C 
HETATM    3  C6  UNL     1      -4.180   4.038  12.757  1.00  0.00     0.096 C 
HETATM    4  C15 UNL     1      -5.021   3.787  14.021  1.00  0.00     0.030 C 
HETATM    5  C16 UNL     1      -4.399   2.526  14.638  1.00  0.00     0.080 C 
HETATM    6  C18 UNL     1      -4.456   1.397  13.668  1.00  0.00     0.129 C 
ENDROOT
BRANCH   3   7
HETATM    7  C7  UNL     1      -4.379   5.355  12.174  1.00  0.00     0.226 C 
HETATM    8  O1  UNL     1      -5.180   5.493  11.220  1.00  0.00    -0.273 OA
HETATM    9  N2  UNL     1      -3.691   6.483  12.654  1.00  0.00    -0.342 N 
HETATM   10  C8  UNL     1      -3.818   7.834  12.148  1.00  0.00     0.161 C 
HETATM   11  C14 UNL     1      -2.699   6.534  13.731  1.00  0.00     0.120 C 
HETATM   12  C9  UNL     1      -2.502   8.476  12.413  1.00  0.00     0.169 C 
HETATM   13  C11 UNL     1      -1.660   7.475  13.132  1.00  0.00     0.174 C 
HETATM   14  O3  UNL     1      -0.992   8.022  14.225  1.00  0.00    -0.381 OA
HETATM   15  C12 UNL     1      -1.900   8.141  15.266  1.00  0.00     0.170 C 
HETATM   16  C13 UNL     1      -3.140   7.356  14.911  1.00  0.00     0.054 C 
BRANCH  12  17
HETATM   17  O2  UNL     1      -1.888   8.946  11.248  1.00  0.00    -0.386 OA
HETATM   18  C10 UNL     1      -1.523  10.269  11.467  1.00  0.00     0.202 C 
ENDBRANCH  12  17
ENDBRANCH   3   7
BRANCH   1  19
HETATM   19  C4  UNL     1      -2.962   1.172  11.771  1.00  0.00     0.117 C 
BRANCH  19  20
HETATM   20  C3  UNL     1      -3.279   0.080  10.763  1.00  0.00     0.019 C 
BRANCH  20  21
HETATM   21  C2  UNL     1      -4.013  -1.073  11.411  1.00  0.00    -0.003 C 
HETATM   22  C1  UNL     1      -3.037  -2.240  11.460  1.00  0.00     0.005 C 
ENDBRANCH  20  21
ENDBRANCH  19  20
ENDBRANCH   1  19
BRANCH   5  23
HETATM   23  C17 UNL     1      -5.249   2.184  15.805  1.00  0.00     0.141 C 
HETATM   24  N3  UNL     1      -4.877   1.331  16.683  1.00  0.00    -0.251 N 
ATOM     25  H3  UNL     1      -5.477   1.109  17.478  1.00  0.00     0.196 HD
BRANCH  23  26
HETATM   26  O4  UNL     1      -6.486   2.806  15.950  1.00  0.00    -0.348 OA
ATOM     27  H4  UNL     1      -6.597   3.695  15.634  1.00  0.00     0.219 HD
ENDBRANCH  23  26
BRANCH  24  28
HETATM   28  O5  UNL     1      -3.657   0.720  16.537  1.00  0.00    -0.288 OA
ATOM     29  H5  UNL     1      -3.582  -0.208  16.732  1.00  0.00     0.244 HD
ENDBRANCH  24  28
ENDBRANCH   5  23
TORSDOF 8
ENDMDL
MODEL 4
REMARK VINA RESULT: -6.647639618      1.721      2.221
REMARK  8 active torsions:
REMARK  status: ('A' for Active; 'I' for Inactive)
REMARK    1  A    between atoms: C2_2  and  C3_3 
REMARK    2  A    between atoms: C3_3  and  C4_4 
REMARK    3  A    between atoms: C4_4  and  N1_5 
REMARK    4  A    between atoms: C6_7  and  C7_8 
REMARK       I    between atoms: C7_8  and  N2_10 
REMARK    5  A    between atoms: C9_12  and  O2_13 
REMARK    6  A    between atoms: C16_21  and  C17_22 
REMARK    7  A    between atoms: C17_22  and  O4_23 
REMARK    8  A    between atoms: N3_25  and  O5_27 
ROOT
HETATM    1  N1  UNL     1      -6.061   4.758  15.055  1.00  0.00    -0.411 N 
HETATM    2  C5  UNL     1      -4.695   4.737  14.684  1.00  0.00     0.131 C 
HETATM    3  C6  UNL     1      -4.370   3.345  14.130  1.00  0.00     0.096 C 
HETATM    4  C15 UNL     1      -4.453   2.448  15.376  1.00  0.00     0.030 C 
HETATM    5  C16 UNL     1      -5.957   2.362  15.674  1.00  0.00     0.080 C 
HETATM    6  C18 UNL     1      -6.514   3.725  15.901  1.00  0.00     0.129 C 
ENDROOT
BRANCH   3   7
HETATM    7  C7  UNL     1      -3.072   3.317  13.475  1.00  0.00     0.226 C 
HETATM    8  O1  UNL     1      -2.192   4.146  13.811  1.00  0.00    -0.273 OA
HETATM    9  N2  UNL     1      -2.776   2.382  12.468  1.00  0.00    -0.342 N 
HETATM   10  C8  UNL     1      -1.520   2.268  11.758  1.00  0.00     0.161 C 
HETATM   11  C14 UNL     1      -3.663   1.356  11.913  1.00  0.00     0.120 C 
HETATM   12  C9  UNL     1      -1.874   1.715  10.422  1.00  0.00     0.169 C 
HETATM   13  C11 UNL     1      -3.346   1.465  10.425  1.00  0.00     0.174 C 
HETATM   14  O3  UNL     1      -3.682   0.224   9.891  1.00  0.00    -0.381 OA
HETATM   15  C12 UNL     1      -3.424  -0.740  10.853  1.00  0.00     0.170 C 
HETATM   16  C13 UNL     1      -3.190  -0.047  12.174  1.00  0.00     0.054 C 
BRANCH  12  17
HETATM   17  O2  UNL     1      -1.481   2.549   9.371  1.00  0.00    -0.386 OA
HETATM   18  C10 UNL     1      -0.656   3.534   9.902  1.00  0.00     0.202 C 
ENDBRANCH  12  17
ENDBRANCH   3   7
BRANCH   1  19
HETATM   19  C4  UNL     1      -6.983   5.304  14.121  1.00  0.00     0.117 C 
BRANCH  19  20
HETATM   20  C3  UNL     1      -6.326   6.433  13.346  1.00  0.00     0.019 C 
BRANCH  20  21
HETATM   21  C2  UNL     1      -7.354   7.291  12.642  1.00  0.00    -0.003 C 
HETATM   22  C1  UNL     1      -6.613   8.056  11.554  1.00  0.00     0.005 C 
ENDBRANCH  20  21
ENDBRANCH  19  20
ENDBRANCH   1  19
BRANCH   5  23
HETATM   23  C17 UNL     1      -6.078   1.591  16.936  1.00  0.00     0.141 C 
HETATM   24  N3  UNL     1      -5.704   0.370  17.018  1.00  0.00    -0.251 N 
ATOM     25  H3  UNL     1      -5.796  -0.143  17.895  1.00  0.00     0.196 HD
BRANCH  23  26
HETATM   26  O4  UNL     1      -6.613   2.210  18.061  1.00  0.00    -0.348 OA
ATOM     27  H4  UNL     1      -7.549   2.372  18.101  1.00  0.00     0.219 HD
ENDBRANCH  23  26
BRANCH  24  28
HETATM   28  O5  UNL     1      -5.177  -0.237  15.906  1.00  0.00    -0.288 OA
ATOM     29  H5  UNL     1      -4.301   0.003  15.624  1.00  0.00     0.244 HD
ENDBRANCH  24  28
ENDBRANCH   5  23
TORSDOF 8
ENDMDL
MODEL 5
REMARK VINA RESULT: -6.629266742      2.247      3.432
REMARK  8 active torsions:
REMARK  status: ('A' for Active; 'I' for Inactive)
REMARK    1  A    between atoms: C2_2  and  C3_3 
REMARK    2  A    between atoms: C3_3  and  C4_4 
REMARK    3  A    between atoms: C4_4  and  N1_5 
REMARK    4  A    between atoms: C6_7  and  C7_8 
REMARK       I    between atoms: C7_8  and  N2_10 
REMARK    5  A    between atoms: C9_12  and  O2_13 
REMARK    6  A    between atoms: C16_21  and  C17_22 
REMARK    7  A    between atoms: C17_22  and  O4_23 
REMARK    8  A    between atoms: N3_25  and  O5_27 
ROOT
HETATM    1  N1  UNL     1      -4.623   3.100  12.111  1.00  0.00    -0.411 N 
HETATM    2  C5  UNL     1      -3.937   4.321  12.319  1.00  0.00     0.131 C 
HETATM    3  C6  UNL     1      -2.839   4.083  13.361  1.00  0.00     0.096 C 
HETATM    4  C15 UNL     1      -3.635   3.853  14.657  1.00  0.00     0.030 C 
HETATM    5  C16 UNL     1      -4.251   2.458  14.474  1.00  0.00     0.080 C 
HETATM    6  C18 UNL     1      -5.106   2.431  13.254  1.00  0.00     0.129 C 
ENDROOT
BRANCH   3   7
HETATM    7  C7  UNL     1      -1.914   5.202  13.433  1.00  0.00     0.226 C 
HETATM    8  O1  UNL     1      -2.004   6.017  14.383  1.00  0.00    -0.273 OA
HETATM    9  N2  UNL     1      -0.919   5.398  12.460  1.00  0.00    -0.342 N 
HETATM   10  C8  UNL     1       0.050   6.474  12.441  1.00  0.00     0.161 C 
HETATM   11  C14 UNL     1      -0.664   4.587  11.267  1.00  0.00     0.120 C 
HETATM   12  C9  UNL     1       0.368   6.688  11.003  1.00  0.00     0.169 C 
HETATM   13  C11 UNL     1      -0.397   5.669  10.226  1.00  0.00     0.174 C 
HETATM   14  O3  UNL     1       0.375   5.049   9.247  1.00  0.00    -0.381 OA
HETATM   15  C12 UNL     1       1.178   4.105   9.870  1.00  0.00     0.170 C 
HETATM   16  C13 UNL     1       0.678   3.908  11.280  1.00  0.00     0.054 C 
BRANCH  12  17
HETATM   17  O2  UNL     1       0.093   7.992  10.579  1.00  0.00    -0.386 OA
HETATM   18  C10 UNL     1      -1.214   8.017  10.110  1.00  0.00     0.202 C 
ENDBRANCH  12  17
ENDBRANCH   3   7
BRANCH   1  19
HETATM   19  C4  UNL     1      -4.230   2.311  10.996  1.00  0.00     0.117 C 
BRANCH  19  20
HETATM   20  C3  UNL     1      -4.557   0.851  11.256  1.00  0.00     0.019 C 
BRANCH  20  21
HETATM   21  C2  UNL     1      -3.349  -0.033  11.041  1.00  0.00    -0.003 C 
HETATM   22  C1  UNL     1      -2.122   0.844  11.250  1.00  0.00     0.005 C 
ENDBRANCH  20  21
ENDBRANCH  19  20
ENDBRANCH   1  19
BRANCH   5  23
HETATM   23  C17 UNL     1      -5.118   2.239  15.659  1.00  0.00     0.141 C 
HETATM   24  N3  UNL     1      -4.819   1.386  16.564  1.00  0.00    -0.251 N 
ATOM     25  H3  UNL     1      -5.429   1.250  17.370  1.00  0.00     0.196 HD
BRANCH  23  26
HETATM   26  O4  UNL     1      -6.289   2.979  15.789  1.00  0.00    -0.348 OA
ATOM     27  H4  UNL     1      -6.548   3.290  16.649  1.00  0.00     0.219 HD
ENDBRANCH  23  26
BRANCH  24  28
HETATM   28  O5  UNL     1      -3.663   0.658  16.432  1.00  0.00    -0.288 OA
ATOM     29  H5  UNL     1      -3.688  -0.157  15.944  1.00  0.00     0.244 HD
ENDBRANCH  24  28
ENDBRANCH   5  23
TORSDOF 8
ENDMDL
