MODEL 1
REMARK VINA RESULT: -8.549917587      0.000      0.000
REMARK  7 active torsions:
REMARK  status: ('A' for Active; 'I' for Inactive)
REMARK    1  A    between atoms: N1_2  and  C2_3 
REMARK    2  A    between atoms: N1_2  and  C7_11 
REMARK    3  A    between atoms: C9_13  and  N3_14 
REMARK       I    between atoms: N3_14  and  C10_16 
REMARK    4  A    between atoms: C10_16  and  C11_18 
REMARK    5  A    between atoms: C11_18  and  N4_19 
REMARK    6  A    between atoms: N4_19  and  N5_20 
REMARK    7  A    between atoms: C13_25  and  C14_26 
ROOT
HETATM    1  C7  UNL     1      -4.032   2.930  13.638  1.00  0.00     0.116 C 
HETATM    2  C8  UNL     1      -4.627   1.851  12.796  1.00  0.00     0.055 C 
HETATM    3  C9  UNL     1      -3.767   1.906  11.549  1.00  0.00     0.118 C 
HETATM    4  C12 UNL     1      -2.989   3.213  11.610  1.00  0.00     0.182 C 
HETATM    5  O3  UNL     1      -2.901   3.866  10.414  1.00  0.00    -0.342 OA
HETATM    6  C13 UNL     1      -4.074   4.403   9.940  1.00  0.00     0.359 C 
HETATM    7  O5  UNL     1      -4.629   5.192  10.950  1.00  0.00    -0.200 OA
HETATM    8  O6  UNL     1      -4.944   4.389  11.934  1.00  0.00    -0.228 OA
HETATM    9  C15 UNL     1      -3.791   4.018  12.654  1.00  0.00     0.214 C 
ENDROOT
BRANCH   1  10
HETATM   10  N1  UNL     1      -4.668   3.248  14.837  1.00  0.00    -0.397 N 
HETATM   11  C1  UNL     1      -4.393   4.510  15.406  1.00  0.00     0.144 C 
BRANCH  10  12
HETATM   12  C2  UNL     1      -5.420   2.342  15.564  1.00  0.00     0.171 C 
HETATM   13  C3  UNL     1      -6.465   3.061  16.435  1.00  0.00     0.036 C 
HETATM   14  C4  UNL     1      -7.435   2.065  17.029  1.00  0.00     0.022 C 
HETATM   15  C5  UNL     1      -6.860   0.683  17.175  1.00  0.00     0.122 C 
HETATM   16  N2  UNL     1      -5.450   0.824  17.508  1.00  0.00    -0.359 N 
HETATM   17  C6  UNL     1      -4.645   1.498  16.539  1.00  0.00     0.240 C 
ATOM     18  H2  UNL     1      -5.060   0.464  18.379  1.00  0.00     0.162 HD
HETATM   19  O1  UNL     1      -3.401   1.379  16.525  1.00  0.00    -0.271 OA
ENDBRANCH  10  12
ENDBRANCH   1  10
BRANCH   3  20
HETATM   20  N3  UNL     1      -2.823   0.808  11.573  1.00  0.00    -0.348 N 
HETATM   21  C10 UNL     1      -3.268  -0.536  11.355  1.00  0.00     0.272 C 
HETATM   22  O2  UNL     1      -4.475  -0.749  11.143  1.00  0.00    -0.266 OA
ATOM     23  H3  UNL     1      -1.834   0.993  11.746  1.00  0.00     0.163 HD
BRANCH  21  24
HETATM   24  C11 UNL     1      -2.334  -1.645  11.377  1.00  0.00     0.282 C 
BRANCH  24  25
HETATM   25  N4  UNL     1      -2.789  -2.809  11.464  1.00  0.00    -0.340 NA
BRANCH  25  26
HETATM   26  N5  UNL     1      -2.961  -4.025  11.440  1.00  0.00    -0.281 N 
ATOM     27  H52 UNL     1      -3.777  -3.944  10.833  1.00  0.00     0.191 HD
ATOM     28  H51 UNL     1      -2.900  -5.034  11.571  1.00  0.00     0.191 HD
ENDBRANCH  25  26
ENDBRANCH  24  25
ENDBRANCH  21  24
ENDBRANCH   3  20
BRANCH   6  29
HETATM   29  C14 UNL     1      -3.845   5.158   8.706  1.00  0.00     0.294 C 
HETATM   30  O4  UNL     1      -4.041   4.679   7.607  1.00  0.00    -0.302 OA
ENDBRANCH   6  29
TORSDOF 7
ENDMDL
MODEL 2
REMARK VINA RESULT: -7.501885513      2.688      6.216
REMARK  7 active torsions:
REMARK  status: ('A' for Active; 'I' for Inactive)
REMARK    1  A    between atoms: N1_2  and  C2_3 
REMARK    2  A    between atoms: N1_2  and  C7_11 
REMARK    3  A    between atoms: C9_13  and  N3_14 
REMARK       I    between atoms: N3_14  and  C10_16 
REMARK    4  A    between atoms: C10_16  and  C11_18 
REMARK    5  A    between atoms: C11_18  and  N4_19 
REMARK    6  A    between atoms: N4_19  and  N5_20 
REMARK    7  A    between atoms: C13_25  and  C14_26 
ROOT
HETATM    1  C7  UNL     1      -3.500   3.092  11.334  1.00  0.00     0.116 C 
HETATM    2  C8  UNL     1      -4.819   2.782  11.956  1.00  0.00     0.055 C 
HETATM    3  C9  UNL     1      -4.501   1.559  12.793  1.00  0.00     0.118 C 
HETATM    4  C12 UNL     1      -3.143   1.051  12.327  1.00  0.00     0.182 C 
HETATM    5  O3  UNL     1      -3.061  -0.308  12.226  1.00  0.00    -0.342 OA
HETATM    6  C13 UNL     1      -3.797  -0.876  11.213  1.00  0.00     0.359 C 
HETATM    7  O5  UNL     1      -3.473  -0.222  10.023  1.00  0.00    -0.200 OA
HETATM    8  O6  UNL     1      -3.878   1.017  10.144  1.00  0.00    -0.228 OA
HETATM    9  C15 UNL     1      -2.989   1.747  10.959  1.00  0.00     0.214 C 
ENDROOT
BRANCH   1  10
HETATM   10  N1  UNL     1      -3.449   4.109  10.382  1.00  0.00    -0.397 N 
HETATM   11  C1  UNL     1      -2.311   4.168   9.550  1.00  0.00     0.144 C 
BRANCH  10  12
HETATM   12  C2  UNL     1      -4.371   5.140  10.319  1.00  0.00     0.171 C 
HETATM   13  C3  UNL     1      -4.488   5.693   8.889  1.00  0.00     0.036 C 
HETATM   14  C4  UNL     1      -5.663   6.639   8.781  1.00  0.00     0.022 C 
HETATM   15  C5  UNL     1      -6.032   7.287  10.087  1.00  0.00     0.122 C 
HETATM   16  N2  UNL     1      -4.802   7.515  10.831  1.00  0.00    -0.359 N 
HETATM   17  C6  UNL     1      -4.045   6.347  11.156  1.00  0.00     0.240 C 
ATOM     18  H2  UNL     1      -4.498   8.450  11.102  1.00  0.00     0.162 HD
HETATM   19  O1  UNL     1      -3.188   6.355  12.066  1.00  0.00    -0.271 OA
ENDBRANCH  10  12
ENDBRANCH   1  10
BRANCH   3  20
HETATM   20  N3  UNL     1      -4.393   1.949  14.183  1.00  0.00    -0.348 N 
HETATM   21  C10 UNL     1      -4.634   0.994  15.224  1.00  0.00     0.272 C 
HETATM   22  O2  UNL     1      -4.935  -0.173  14.921  1.00  0.00    -0.266 OA
ATOM     23  H3  UNL     1      -4.144   2.909  14.424  1.00  0.00     0.163 HD
BRANCH  21  24
HETATM   24  C11 UNL     1      -4.530   1.371  16.621  1.00  0.00     0.282 C 
BRANCH  24  25
HETATM   25  N4  UNL     1      -5.187   0.720  17.466  1.00  0.00    -0.340 NA
BRANCH  25  26
HETATM   26  N5  UNL     1      -5.950  -0.047  18.047  1.00  0.00    -0.281 N 
ATOM     27  H52 UNL     1      -5.825  -0.776  17.345  1.00  0.00     0.191 HD
ATOM     28  H51 UNL     1      -6.602  -0.492  18.693  1.00  0.00     0.191 HD
ENDBRANCH  25  26
ENDBRANCH  24  25
ENDBRANCH  21  24
ENDBRANCH   3  20
BRANCH   6  29
HETATM   29  C14 UNL     1      -3.560  -2.320  11.138  1.00  0.00     0.294 C 
HETATM   30  O4  UNL     1      -2.534  -2.830  11.541  1.00  0.00    -0.302 OA
ENDBRANCH   6  29
TORSDOF 7
ENDMDL
MODEL 3
REMARK VINA RESULT: -7.448646977      2.625      4.414
REMARK  7 active torsions:
REMARK  status: ('A' for Active; 'I' for Inactive)
REMARK    1  A    between atoms: N1_2  and  C2_3 
REMARK    2  A    between atoms: N1_2  and  C7_11 
REMARK    3  A    between atoms: C9_13  and  N3_14 
REMARK       I    between atoms: N3_14  and  C10_16 
REMARK    4  A    between atoms: C10_16  and  C11_18 
REMARK    5  A    between atoms: C11_18  and  N4_19 
REMARK    6  A    between atoms: N4_19  and  N5_20 
REMARK    7  A    between atoms: C13_25  and  C14_26 
ROOT
HETATM    1  C7  UNL     1      -4.651   3.164  13.385  1.00  0.00     0.116 C 
HETATM    2  C8  UNL     1      -3.263   3.386  12.884  1.00  0.00     0.055 C 
HETATM    3  C9  UNL     1      -3.321   2.776  11.498  1.00  0.00     0.118 C 
HETATM    4  C12 UNL     1      -4.598   1.950  11.435  1.00  0.00     0.182 C 
HETATM    5  O3  UNL     1      -4.455   0.749  10.801  1.00  0.00    -0.342 OA
HETATM    6  C13 UNL     1      -3.695  -0.187  11.461  1.00  0.00     0.359 C 
HETATM    7  O5  UNL     1      -4.194  -0.314  12.759  1.00  0.00    -0.200 OA
HETATM    8  O6  UNL     1      -3.998   0.832  13.359  1.00  0.00    -0.228 OA
HETATM    9  C15 UNL     1      -4.947   1.781  12.929  1.00  0.00     0.214 C 
ENDROOT
BRANCH   1  10
HETATM   10  N1  UNL     1      -4.928   3.500  14.710  1.00  0.00    -0.397 N 
HETATM   11  C1  UNL     1      -4.329   4.668  15.226  1.00  0.00     0.144 C 
BRANCH  10  12
HETATM   12  C2  UNL     1      -5.624   2.673  15.575  1.00  0.00     0.171 C 
HETATM   13  C3  UNL     1      -6.534   3.488  16.509  1.00  0.00     0.036 C 
HETATM   14  C4  UNL     1      -7.466   2.573  17.272  1.00  0.00     0.022 C 
HETATM   15  C5  UNL     1      -6.929   1.178  17.442  1.00  0.00     0.122 C 
HETATM   16  N2  UNL     1      -5.485   1.277  17.604  1.00  0.00    -0.359 N 
HETATM   17  C6  UNL     1      -4.774   1.856  16.508  1.00  0.00     0.240 C 
ATOM     18  H2  UNL     1      -5.011   0.954  18.447  1.00  0.00     0.162 HD
HETATM   19  O1  UNL     1      -3.545   1.682  16.362  1.00  0.00    -0.271 OA
ENDBRANCH  10  12
ENDBRANCH   1  10
BRANCH   3  20
HETATM   20  N3  UNL     1      -3.411   3.836  10.515  1.00  0.00    -0.348 N 
HETATM   21  C10 UNL     1      -2.502   3.877   9.408  1.00  0.00     0.272 C 
HETATM   22  O2  UNL     1      -1.636   2.991   9.299  1.00  0.00    -0.266 OA
ATOM     23  H3  UNL     1      -4.126   4.557  10.611  1.00  0.00     0.163 HD
BRANCH  21  24
HETATM   24  C11 UNL     1      -2.580   4.932   8.417  1.00  0.00     0.282 C 
BRANCH  24  25
HETATM   25  N4  UNL     1      -3.560   4.948   7.635  1.00  0.00    -0.340 NA
BRANCH  25  26
HETATM   26  N5  UNL     1      -4.675   5.017   7.125  1.00  0.00    -0.281 N 
ATOM     27  H52 UNL     1      -5.069   5.484   7.941  1.00  0.00     0.191 HD
ATOM     28  H51 UNL     1      -5.485   4.958   6.509  1.00  0.00     0.191 HD
ENDBRANCH  25  26
ENDBRANCH  24  25
ENDBRANCH  21  24
ENDBRANCH   3  20
BRANCH   6  29
HETATM   29  C14 UNL     1      -3.688  -1.461  10.739  1.00  0.00     0.294 C 
HETATM   30  O4  UNL     1      -3.182  -2.465  11.199  1.00  0.00    -0.302 OA
ENDBRANCH   6  29
TORSDOF 7
ENDMDL
MODEL 4
REMARK VINA RESULT: -7.125886445      2.735      6.690
REMARK  7 active torsions:
REMARK  status: ('A' for Active; 'I' for Inactive)
REMARK    1  A    between atoms: N1_2  and  C2_3 
REMARK    2  A    between atoms: N1_2  and  C7_11 
REMARK    3  A    between atoms: C9_13  and  N3_14 
REMARK       I    between atoms: N3_14  and  C10_16 
REMARK    4  A    between atoms: C10_16  and  C11_18 
REMARK    5  A    between atoms: C11_18  and  N4_19 
REMARK    6  A    between atoms: N4_19  and  N5_20 
REMARK    7  A    between atoms: C13_25  and  C14_26 
ROOT
HETATM    1  C7  UNL     1      -3.285   3.256  11.458  1.00  0.00     0.116 C 
HETATM    2  C8  UNL     1      -4.650   3.030  12.014  1.00  0.00     0.055 C 
HETATM    3  C9  UNL     1      -4.460   1.765  12.827  1.00  0.00     0.118 C 
HETATM    4  C12 UNL     1      -3.124   1.169  12.405  1.00  0.00     0.182 C 
HETATM    5  O3  UNL     1      -3.138  -0.189  12.267  1.00  0.00    -0.342 OA
HETATM    6  C13 UNL     1      -3.868  -0.674  11.208  1.00  0.00     0.359 C 
HETATM    7  O5  UNL     1      -3.445  -0.014  10.052  1.00  0.00    -0.200 OA
HETATM    8  O6  UNL     1      -3.762   1.247  10.192  1.00  0.00    -0.228 OA
HETATM    9  C15 UNL     1      -2.859   1.887  11.065  1.00  0.00     0.214 C 
ENDROOT
BRANCH   1  10
HETATM   10  N1  UNL     1      -3.117   4.292  10.539  1.00  0.00    -0.397 N 
HETATM   11  C1  UNL     1      -4.219   4.624   9.723  1.00  0.00     0.144 C 
BRANCH  10  12
HETATM   12  C2  UNL     1      -1.897   4.893  10.283  1.00  0.00     0.171 C 
HETATM   13  C3  UNL     1      -2.051   6.415  10.125  1.00  0.00     0.036 C 
HETATM   14  C4  UNL     1      -0.696   7.085  10.095  1.00  0.00     0.022 C 
HETATM   15  C5  UNL     1       0.407   6.183   9.613  1.00  0.00     0.122 C 
HETATM   16  N2  UNL     1      -0.152   5.309   8.590  1.00  0.00    -0.359 N 
HETATM   17  C6  UNL     1      -1.218   4.457   9.014  1.00  0.00     0.240 C 
ATOM     18  H2  UNL     1       0.196   5.306   7.632  1.00  0.00     0.162 HD
HETATM   19  O1  UNL     1      -1.539   3.439   8.364  1.00  0.00    -0.271 OA
ENDBRANCH  10  12
ENDBRANCH   1  10
BRANCH   3  20
HETATM   20  N3  UNL     1      -4.386   2.109  14.232  1.00  0.00    -0.348 N 
HETATM   21  C10 UNL     1      -4.643   1.119  15.235  1.00  0.00     0.272 C 
HETATM   22  O2  UNL     1      -4.929  -0.040  14.886  1.00  0.00    -0.266 OA
ATOM     23  H3  UNL     1      -4.148   3.062  14.509  1.00  0.00     0.163 HD
BRANCH  21  24
HETATM   24  C11 UNL     1      -4.573   1.450  16.645  1.00  0.00     0.282 C 
BRANCH  24  25
HETATM   25  N4  UNL     1      -5.216   0.745  17.458  1.00  0.00    -0.340 NA
BRANCH  25  26
HETATM   26  N5  UNL     1      -5.976  -0.052  18.001  1.00  0.00    -0.281 N 
ATOM     27  H52 UNL     1      -6.685   0.061  17.277  1.00  0.00     0.191 HD
ATOM     28  H51 UNL     1      -6.420  -0.729  18.621  1.00  0.00     0.191 HD
ENDBRANCH  25  26
ENDBRANCH  24  25
ENDBRANCH  21  24
ENDBRANCH   3  20
BRANCH   6  29
HETATM   29  C14 UNL     1      -3.735  -2.129  11.100  1.00  0.00     0.294 C 
HETATM   30  O4  UNL     1      -2.737  -2.717  11.465  1.00  0.00    -0.302 OA
ENDBRANCH   6  29
TORSDOF 7
ENDMDL
MODEL 5
REMARK VINA RESULT: -7.092203148      2.716      3.683
REMARK  7 active torsions:
REMARK  status: ('A' for Active; 'I' for Inactive)
REMARK    1  A    between atoms: N1_2  and  C2_3 
REMARK    2  A    between atoms: N1_2  and  C7_11 
REMARK    3  A    between atoms: C9_13  and  N3_14 
REMARK       I    between atoms: N3_14  and  C10_16 
REMARK    4  A    between atoms: C10_16  and  C11_18 
REMARK    5  A    between atoms: C11_18  and  N4_19 
REMARK    6  A    between atoms: N4_19  and  N5_20 
REMARK    7  A    between atoms: C13_25  and  C14_26 
ROOT
HETATM    1  C7  UNL     1      -3.627   4.299  12.056  1.00  0.00     0.116 C 
HETATM    2  C8  UNL     1      -3.911   3.277  11.008  1.00  0.00     0.055 C 
HETATM    3  C9  UNL     1      -2.669   2.409  11.061  1.00  0.00     0.118 C 
HETATM    4  C12 UNL     1      -1.629   3.181  11.862  1.00  0.00     0.182 C 
HETATM    5  O3  UNL     1      -0.366   3.111  11.349  1.00  0.00    -0.342 OA
HETATM    6  C13 UNL     1      -0.167   3.769  10.159  1.00  0.00     0.359 C 
HETATM    7  O5  UNL     1      -0.621   5.082  10.310  1.00  0.00    -0.200 OA
HETATM    8  O6  UNL     1      -1.913   5.021  10.504  1.00  0.00    -0.228 OA
HETATM    9  C15 UNL     1      -2.193   4.617  11.825  1.00  0.00     0.214 C 
ENDROOT
BRANCH   1  10
HETATM   10  N1  UNL     1      -4.525   5.357  12.198  1.00  0.00    -0.397 N 
HETATM   11  C1  UNL     1      -4.779   6.153  11.062  1.00  0.00     0.144 C 
BRANCH  10  12
HETATM   12  C2  UNL     1      -5.049   5.752  13.417  1.00  0.00     0.171 C 
HETATM   13  C3  UNL     1      -3.932   6.066  14.426  1.00  0.00     0.036 C 
HETATM   14  C4  UNL     1      -4.502   6.728  15.660  1.00  0.00     0.022 C 
HETATM   15  C5  UNL     1      -5.944   6.384  15.911  1.00  0.00     0.122 C 
HETATM   16  N2  UNL     1      -6.149   5.004  15.495  1.00  0.00    -0.359 N 
HETATM   17  C6  UNL     1      -5.899   4.726  14.116  1.00  0.00     0.240 C 
ATOM     18  H2  UNL     1      -6.451   4.280  16.147  1.00  0.00     0.162 HD
HETATM   19  O1  UNL     1      -6.361   3.707  13.560  1.00  0.00    -0.271 OA
ENDBRANCH  10  12
ENDBRANCH   1  10
BRANCH   3  20
HETATM   20  N3  UNL     1      -2.975   1.182  11.766  1.00  0.00    -0.348 N 
HETATM   21  C10 UNL     1      -3.501   0.052  11.060  1.00  0.00     0.272 C 
HETATM   22  O2  UNL     1      -3.689   0.136   9.833  1.00  0.00    -0.266 OA
ATOM     23  H3  UNL     1      -2.815   1.122  12.772  1.00  0.00     0.163 HD
BRANCH  21  24
HETATM   24  C11 UNL     1      -3.812  -1.182  11.753  1.00  0.00     0.282 C 
BRANCH  24  25
HETATM   25  N4  UNL     1      -3.205  -2.226  11.419  1.00  0.00    -0.340 NA
BRANCH  25  26
HETATM   26  N5  UNL     1      -2.718  -3.352  11.357  1.00  0.00    -0.281 N 
ATOM     27  H52 UNL     1      -3.626  -3.801  11.477  1.00  0.00     0.191 HD
ATOM     28  H51 UNL     1      -2.098  -4.158  11.277  1.00  0.00     0.191 HD
ENDBRANCH  25  26
ENDBRANCH  24  25
ENDBRANCH  21  24
ENDBRANCH   3  20
BRANCH   6  29
HETATM   29  C14 UNL     1       1.239   3.708   9.753  1.00  0.00     0.294 C 
HETATM   30  O4  UNL     1       2.146   3.692  10.561  1.00  0.00    -0.302 OA
ENDBRANCH   6  29
TORSDOF 7
ENDMDL
