MODEL 1
REMARK VINA RESULT: -6.938258043      0.000      0.000
REMARK  6 active torsions:
REMARK  status: ('A' for Active; 'I' for Inactive)
REMARK    1  A    between atoms: C4_4  and  N1_5 
REMARK    2  A    between atoms: C9_13  and  S1_14 
REMARK    3  A    between atoms: C11_18  and  N4_19 
REMARK    4  A    between atoms: N4_19  and  N5_21 
REMARK    5  A    between atoms: N5_21  and  C12_23 
REMARK    6  A    between atoms: C12_23  and  N6_25 
ROOT
HETATM    1  C1  UNL     1      -0.888   5.959  12.397  1.00  0.00     0.103 C 
HETATM    2  C2  UNL     1      -1.249   4.823  12.105  1.00  0.00    -0.141 C 
HETATM    3  C3  UNL     1      -1.695   3.496  11.784  1.00  0.00     0.094 A 
HETATM    4  C4  UNL     1      -1.243   2.883  10.646  1.00  0.00     0.127 A 
HETATM    5  N2  UNL     1      -1.691   1.625  10.368  1.00  0.00    -0.322 N 
ATOM      6  H2  UNL     1      -1.364   1.154   9.525  1.00  0.00     0.169 HD
HETATM    7  C9  UNL     1      -2.555   0.992  11.183  1.00  0.00     0.147 A 
HETATM    8  N3  UNL     1      -2.979   1.615  12.286  1.00  0.00    -0.321 N 
ATOM      9  H3  UNL     1      -3.632   1.121  12.894  1.00  0.00     0.169 HD
HETATM   10  C11 UNL     1      -2.597   2.848  12.644  1.00  0.00     0.143 A 
ENDROOT
BRANCH   4  11
HETATM   11  N1  UNL     1      -0.336   3.531   9.789  1.00  0.00    -0.362 N 
HETATM   12  C5  UNL     1      -0.827   4.244   8.616  1.00  0.00     0.150 C 
HETATM   13  C6  UNL     1      -0.261   5.659   8.658  1.00  0.00     0.187 C 
HETATM   14  O1  UNL     1       1.131   5.512   8.535  1.00  0.00    -0.388 OA
HETATM   15  C7  UNL     1       1.619   4.999   9.732  1.00  0.00     0.187 C 
HETATM   16  C8  UNL     1       1.106   3.571   9.971  1.00  0.00     0.150 C 
ENDBRANCH   4  11
BRANCH  10  17
HETATM   17  N4  UNL     1      -2.994   3.461  13.699  1.00  0.00    -0.282 N 
ATOM     18  H4  UNL     1      -2.988   4.480  13.678  1.00  0.00     0.188 HD
BRANCH  17  19
HETATM   19  N5  UNL     1      -3.424   2.858  14.854  1.00  0.00    -0.275 N 
ATOM     20  H5  UNL     1      -2.796   2.246  15.374  1.00  0.00     0.189 HD
BRANCH  19  21
HETATM   21  C12 UNL     1      -4.756   3.087  15.329  1.00  0.00     0.188 C 
HETATM   22  S2  UNL     1      -5.630   4.296  14.665  1.00  0.00    -0.039 SA
BRANCH  21  23
HETATM   23  N6  UNL     1      -5.328   2.293  16.353  1.00  0.00    -0.353 N 
HETATM   24  C13 UNL     1      -6.534   2.738  17.010  1.00  0.00     0.151 C 
HETATM   25  C14 UNL     1      -7.596   1.654  16.822  1.00  0.00     0.187 C 
HETATM   26  O2  UNL     1      -7.056   0.383  16.852  1.00  0.00    -0.388 OA
HETATM   27  C15 UNL     1      -5.856   0.289  17.521  1.00  0.00     0.187 C 
HETATM   28  C16 UNL     1      -4.743   1.035  16.775  1.00  0.00     0.151 C 
ENDBRANCH  21  23
ENDBRANCH  19  21
ENDBRANCH  17  19
ENDBRANCH  10  17
BRANCH   7  29
HETATM   29  S1  UNL     1      -3.122  -0.673  10.775  1.00  0.00    -0.098 SA
HETATM   30  C10 UNL     1      -4.464  -1.130  11.891  1.00  0.00     0.099 C 
ENDBRANCH   7  29
TORSDOF 6
ENDMDL
MODEL 2
REMARK VINA RESULT: -6.801265116      1.273      1.696
REMARK  6 active torsions:
REMARK  status: ('A' for Active; 'I' for Inactive)
REMARK    1  A    between atoms: C4_4  and  N1_5 
REMARK    2  A    between atoms: C9_13  and  S1_14 
REMARK    3  A    between atoms: C11_18  and  N4_19 
REMARK    4  A    between atoms: N4_19  and  N5_21 
REMARK    5  A    between atoms: N5_21  and  C12_23 
REMARK    6  A    between atoms: C12_23  and  N6_25 
ROOT
HETATM    1  C1  UNL     1       0.767   6.156  11.885  1.00  0.00     0.103 C 
HETATM    2  C2  UNL     1       0.128   5.127  11.693  1.00  0.00    -0.141 C 
HETATM    3  C3  UNL     1      -0.639   3.929  11.493  1.00  0.00     0.094 A 
HETATM    4  C4  UNL     1      -0.515   3.230  10.321  1.00  0.00     0.127 A 
HETATM    5  N2  UNL     1      -1.262   2.100  10.161  1.00  0.00    -0.322 N 
ATOM      6  H2  UNL     1      -1.181   1.567   9.295  1.00  0.00     0.169 HD
HETATM    7  C9  UNL     1      -2.104   1.673  11.120  1.00  0.00     0.147 A 
HETATM    8  N3  UNL     1      -2.203   2.376  12.253  1.00  0.00    -0.321 N 
ATOM      9  H3  UNL     1      -2.844   2.038  12.971  1.00  0.00     0.169 HD
HETATM   10  C11 UNL     1      -1.513   3.496  12.503  1.00  0.00     0.143 A 
ENDROOT
BRANCH   4  11
HETATM   11  N1  UNL     1       0.364   3.663   9.313  1.00  0.00    -0.362 N 
HETATM   12  C5  UNL     1      -0.156   4.372   8.150  1.00  0.00     0.150 C 
HETATM   13  C6  UNL     1       0.627   5.672   8.008  1.00  0.00     0.187 C 
HETATM   14  O1  UNL     1       1.951   5.288   7.735  1.00  0.00    -0.388 OA
HETATM   15  C7  UNL     1       2.503   4.777   8.904  1.00  0.00     0.187 C 
HETATM   16  C8  UNL     1       1.806   3.472   9.320  1.00  0.00     0.150 C 
ENDBRANCH   4  11
BRANCH  10  17
HETATM   17  N4  UNL     1      -1.597   4.182  13.584  1.00  0.00    -0.282 N 
ATOM     18  H4  UNL     1      -1.092   5.068  13.616  1.00  0.00     0.188 HD
BRANCH  17  19
HETATM   19  N5  UNL     1      -2.309   3.823  14.700  1.00  0.00    -0.275 N 
ATOM     20  H5  UNL     1      -1.860   3.281  15.438  1.00  0.00     0.189 HD
BRANCH  19  21
HETATM   21  C12 UNL     1      -3.681   4.211  14.830  1.00  0.00     0.188 C 
HETATM   22  S2  UNL     1      -4.090   5.765  14.541  1.00  0.00    -0.039 SA
BRANCH  21  23
HETATM   23  N6  UNL     1      -4.685   3.282  15.199  1.00  0.00    -0.353 N 
HETATM   24  C13 UNL     1      -4.443   1.868  15.036  1.00  0.00     0.151 C 
HETATM   25  C14 UNL     1      -4.597   1.206  16.407  1.00  0.00     0.187 C 
HETATM   26  O2  UNL     1      -5.592   1.794  17.161  1.00  0.00    -0.388 OA
HETATM   27  C15 UNL     1      -6.549   2.458  16.427  1.00  0.00     0.187 C 
HETATM   28  C16 UNL     1      -5.964   3.699  15.741  1.00  0.00     0.151 C 
ENDBRANCH  21  23
ENDBRANCH  19  21
ENDBRANCH  17  19
ENDBRANCH  10  17
BRANCH   7  29
HETATM   29  S1  UNL     1      -3.074   0.172  10.865  1.00  0.00    -0.098 SA
HETATM   30  C10 UNL     1      -4.790   0.494  11.317  1.00  0.00     0.099 C 
ENDBRANCH   7  29
TORSDOF 6
ENDMDL
MODEL 3
REMARK VINA RESULT: -6.796088359      2.013      3.614
REMARK  6 active torsions:
REMARK  status: ('A' for Active; 'I' for Inactive)
REMARK    1  A    between atoms: C4_4  and  N1_5 
REMARK    2  A    between atoms: C9_13  and  S1_14 
REMARK    3  A    between atoms: C11_18  and  N4_19 
REMARK    4  A    between atoms: N4_19  and  N5_21 
REMARK    5  A    between atoms: N5_21  and  C12_23 
REMARK    6  A    between atoms: C12_23  and  N6_25 
ROOT
HETATM    1  C1  UNL     1      -1.973   1.587  11.029  1.00  0.00     0.103 C 
HETATM    2  C2  UNL     1      -1.953   2.676  11.593  1.00  0.00    -0.141 C 
HETATM    3  C3  UNL     1      -1.941   3.938  12.280  1.00  0.00     0.094 A 
HETATM    4  C4  UNL     1      -1.254   4.996  11.746  1.00  0.00     0.127 A 
HETATM    5  N2  UNL     1      -1.257   6.178  12.427  1.00  0.00    -0.322 N 
ATOM      6  H2  UNL     1      -0.752   6.976  12.042  1.00  0.00     0.169 HD
HETATM    7  C9  UNL     1      -1.914   6.314  13.594  1.00  0.00     0.147 A 
HETATM    8  N3  UNL     1      -2.575   5.264  14.090  1.00  0.00    -0.321 N 
ATOM      9  H3  UNL     1      -3.069   5.384  14.974  1.00  0.00     0.169 HD
HETATM   10  C11 UNL     1      -2.630   4.065  13.497  1.00  0.00     0.143 A 
ENDROOT
BRANCH   4  11
HETATM   11  N1  UNL     1      -0.568   4.869  10.525  1.00  0.00    -0.362 N 
HETATM   12  C5  UNL     1       0.876   4.664  10.520  1.00  0.00     0.150 C 
HETATM   13  C6  UNL     1       1.169   3.432   9.672  1.00  0.00     0.187 C 
HETATM   14  O1  UNL     1       0.766   3.767   8.367  1.00  0.00    -0.388 OA
HETATM   15  C7  UNL     1      -0.624   3.782   8.335  1.00  0.00     0.187 C 
HETATM   16  C8  UNL     1      -1.185   4.914   9.209  1.00  0.00     0.150 C 
ENDBRANCH   4  11
BRANCH  10  17
HETATM   17  N4  UNL     1      -3.260   3.047  13.959  1.00  0.00    -0.282 N 
ATOM     18  H4  UNL     1      -2.703   2.308  14.390  1.00  0.00     0.188 HD
BRANCH  17  19
HETATM   19  N5  UNL     1      -4.619   2.869  13.922  1.00  0.00    -0.275 N 
ATOM     20  H5  UNL     1      -5.057   2.461  13.096  1.00  0.00     0.189 HD
BRANCH  19  21
HETATM   21  C12 UNL     1      -5.424   3.255  15.042  1.00  0.00     0.188 C 
HETATM   22  S2  UNL     1      -6.096   4.743  15.052  1.00  0.00    -0.039 SA
BRANCH  21  23
HETATM   23  N6  UNL     1      -5.649   2.380  16.133  1.00  0.00    -0.353 N 
HETATM   24  C13 UNL     1      -6.744   2.636  17.039  1.00  0.00     0.151 C 
HETATM   25  C14 UNL     1      -7.653   1.406  17.033  1.00  0.00     0.187 C 
HETATM   26  O2  UNL     1      -6.939   0.231  16.908  1.00  0.00    -0.388 OA
HETATM   27  C15 UNL     1      -5.626   0.314  17.313  1.00  0.00     0.187 C 
HETATM   28  C16 UNL     1      -4.812   1.222  16.382  1.00  0.00     0.151 C 
ENDBRANCH  21  23
ENDBRANCH  19  21
ENDBRANCH  17  19
ENDBRANCH  10  17
BRANCH   7  29
HETATM   29  S1  UNL     1      -1.891   7.898  14.461  1.00  0.00    -0.098 SA
HETATM   30  C10 UNL     1      -3.267   7.952  15.626  1.00  0.00     0.099 C 
ENDBRANCH   7  29
TORSDOF 6
ENDMDL
MODEL 4
REMARK VINA RESULT: -6.777592264      1.879      3.273
REMARK  6 active torsions:
REMARK  status: ('A' for Active; 'I' for Inactive)
REMARK    1  A    between atoms: C4_4  and  N1_5 
REMARK    2  A    between atoms: C9_13  and  S1_14 
REMARK    3  A    between atoms: C11_18  and  N4_19 
REMARK    4  A    between atoms: N4_19  and  N5_21 
REMARK    5  A    between atoms: N5_21  and  C12_23 
REMARK    6  A    between atoms: C12_23  and  N6_25 
ROOT
HETATM    1  C1  UNL     1      -2.015   0.729  11.177  1.00  0.00     0.103 C 
HETATM    2  C2  UNL     1      -2.009   1.917  11.485  1.00  0.00    -0.141 C 
HETATM    3  C3  UNL     1      -2.015   3.299  11.873  1.00  0.00     0.094 A 
HETATM    4  C4  UNL     1      -1.309   4.215  11.139  1.00  0.00     0.127 A 
HETATM    5  N2  UNL     1      -1.331   5.519  11.540  1.00  0.00    -0.322 N 
ATOM      6  H2  UNL     1      -0.811   6.214  11.004  1.00  0.00     0.169 HD
HETATM    7  C9  UNL     1      -2.024   5.909  12.626  1.00  0.00     0.147 A 
HETATM    8  N3  UNL     1      -2.703   4.992  13.322  1.00  0.00    -0.321 N 
ATOM      9  H3  UNL     1      -3.224   5.304  14.142  1.00  0.00     0.169 HD
HETATM   10  C11 UNL     1      -2.742   3.691  13.010  1.00  0.00     0.143 A 
ENDROOT
BRANCH   4  11
HETATM   11  N1  UNL     1      -0.585   3.823  10.001  1.00  0.00    -0.362 N 
HETATM   12  C5  UNL     1      -1.237   3.800   8.697  1.00  0.00     0.150 C 
HETATM   13  C6  UNL     1      -0.384   4.617   7.733  1.00  0.00     0.187 C 
HETATM   14  O1  UNL     1       0.835   3.925   7.629  1.00  0.00    -0.388 OA
HETATM   15  C7  UNL     1       1.536   4.104   8.816  1.00  0.00     0.187 C 
HETATM   16  C8  UNL     1       0.814   3.428   9.992  1.00  0.00     0.150 C 
ENDBRANCH   4  11
BRANCH  10  17
HETATM   17  N4  UNL     1      -3.390   2.798  13.667  1.00  0.00    -0.282 N 
ATOM     18  H4  UNL     1      -2.843   2.098  14.167  1.00  0.00     0.188 HD
BRANCH  17  19
HETATM   19  N5  UNL     1      -4.756   2.708  13.751  1.00  0.00    -0.275 N 
ATOM     20  H5  UNL     1      -5.289   2.309  12.979  1.00  0.00     0.189 HD
BRANCH  19  21
HETATM   21  C12 UNL     1      -5.433   3.173  14.923  1.00  0.00     0.188 C 
HETATM   22  S2  UNL     1      -5.970   4.715  14.962  1.00  0.00    -0.039 SA
BRANCH  21  23
HETATM   23  N6  UNL     1      -5.649   2.332  16.042  1.00  0.00    -0.353 N 
HETATM   24  C13 UNL     1      -6.730   2.620  16.954  1.00  0.00     0.151 C 
HETATM   25  C14 UNL     1      -7.647   1.396  16.996  1.00  0.00     0.187 C 
HETATM   26  O2  UNL     1      -6.942   0.213  16.896  1.00  0.00    -0.388 OA
HETATM   27  C15 UNL     1      -5.623   0.300  17.280  1.00  0.00     0.187 C 
HETATM   28  C16 UNL     1      -4.816   1.176  16.313  1.00  0.00     0.151 C 
ENDBRANCH  21  23
ENDBRANCH  19  21
ENDBRANCH  17  19
ENDBRANCH  10  17
BRANCH   7  29
HETATM   29  S1  UNL     1      -2.024   7.645  13.120  1.00  0.00    -0.098 SA
HETATM   30  C10 UNL     1      -2.654   7.780  14.805  1.00  0.00     0.099 C 
ENDBRANCH   7  29
TORSDOF 6
ENDMDL
MODEL 5
REMARK VINA RESULT: -6.715038063      0.861      1.287
REMARK  6 active torsions:
REMARK  status: ('A' for Active; 'I' for Inactive)
REMARK    1  A    between atoms: C4_4  and  N1_5 
REMARK    2  A    between atoms: C9_13  and  S1_14 
REMARK    3  A    between atoms: C11_18  and  N4_19 
REMARK    4  A    between atoms: N4_19  and  N5_21 
REMARK    5  A    between atoms: N5_21  and  C12_23 
REMARK    6  A    between atoms: C12_23  and  N6_25 
ROOT
HETATM    1  C1  UNL     1      -1.294   6.704  13.288  1.00  0.00     0.103 C 
HETATM    2  C2  UNL     1      -1.527   5.567  12.890  1.00  0.00    -0.141 C 
HETATM    3  C3  UNL     1      -1.825   4.236  12.440  1.00  0.00     0.094 A 
HETATM    4  C4  UNL     1      -1.133   3.703  11.385  1.00  0.00     0.127 A 
HETATM    5  N2  UNL     1      -1.446   2.438  10.980  1.00  0.00    -0.322 N 
ATOM      6  H2  UNL     1      -0.940   2.026  10.197  1.00  0.00     0.169 HD
HETATM    7  C9  UNL     1      -2.408   1.723  11.592  1.00  0.00     0.147 A 
HETATM    8  N3  UNL     1      -3.066   2.270  12.619  1.00  0.00    -0.321 N 
ATOM      9  H3  UNL     1      -3.791   1.714  13.073  1.00  0.00     0.169 HD
HETATM   10  C11 UNL     1      -2.832   3.502  13.089  1.00  0.00     0.143 A 
ENDROOT
BRANCH   4  11
HETATM   11  N1  UNL     1      -0.123   4.438  10.741  1.00  0.00    -0.362 N 
HETATM   12  C5  UNL     1       1.270   4.259  11.134  1.00  0.00     0.150 C 
HETATM   13  C6  UNL     1       2.074   3.948   9.877  1.00  0.00     0.187 C 
HETATM   14  O1  UNL     1       1.985   5.101   9.078  1.00  0.00    -0.388 OA
HETATM   15  C7  UNL     1       0.698   5.167   8.556  1.00  0.00     0.187 C 
HETATM   16  C8  UNL     1      -0.338   5.394   9.667  1.00  0.00     0.150 C 
ENDBRANCH   4  11
BRANCH  10  17
HETATM   17  N4  UNL     1      -3.454   4.042  14.073  1.00  0.00    -0.282 N 
ATOM     18  H4  UNL     1      -3.715   5.023  13.979  1.00  0.00     0.188 HD
BRANCH  17  19
HETATM   19  N5  UNL     1      -3.797   3.408  15.240  1.00  0.00    -0.275 N 
ATOM     20  H5  UNL     1      -3.073   2.997  15.829  1.00  0.00     0.189 HD
BRANCH  19  21
HETATM   21  C12 UNL     1      -5.172   3.323  15.632  1.00  0.00     0.188 C 
HETATM   22  S2  UNL     1      -6.246   4.353  14.961  1.00  0.00    -0.039 SA
BRANCH  21  23
HETATM   23  N6  UNL     1      -5.617   2.371  16.581  1.00  0.00    -0.353 N 
HETATM   24  C13 UNL     1      -6.867   2.583  17.273  1.00  0.00     0.151 C 
HETATM   25  C14 UNL     1      -7.770   1.382  16.987  1.00  0.00     0.187 C 
HETATM   26  O2  UNL     1      -7.059   0.202  16.907  1.00  0.00    -0.388 OA
HETATM   27  C15 UNL     1      -5.850   0.218  17.567  1.00  0.00     0.187 C 
HETATM   28  C16 UNL     1      -4.859   1.175  16.893  1.00  0.00     0.151 C 
ENDBRANCH  21  23
ENDBRANCH  19  21
ENDBRANCH  17  19
ENDBRANCH  10  17
BRANCH   7  29
HETATM   29  S1  UNL     1      -2.789   0.053  11.022  1.00  0.00    -0.098 SA
HETATM   30  C10 UNL     1      -4.258  -0.544  11.883  1.00  0.00     0.099 C 
ENDBRANCH   7  29
TORSDOF 6
ENDMDL
