MODEL 1
REMARK VINA RESULT: -7.351798424      0.000      0.000
REMARK  7 active torsions:
REMARK  status: ('A' for Active; 'I' for Inactive)
REMARK    1  A    between atoms: N1_1  and  C1_5 
REMARK    2  A    between atoms: C4_8  and  C5_9 
REMARK    3  A    between atoms: C5_9  and  O1_10 
REMARK    4  A    between atoms: C5_9  and  N2_12 
REMARK    5  A    between atoms: N3_15  and  C8_16 
REMARK    6  A    between atoms: C8_16  and  C9_17 
REMARK       I    between atoms: C9_17  and  N4_19 
REMARK    7  A    between atoms: N4_19  and  C10_21 
ROOT
HETATM    1  N2  UNL     1      -2.112   4.644  11.918  1.00  0.00    -0.362 N 
HETATM    2  C6  UNL     1      -1.489   5.436  10.908  1.00  0.00     0.154 C 
HETATM    3  C7  UNL     1      -2.392   6.647  10.700  1.00  0.00     0.293 C 
HETATM    4  N3  UNL     1      -2.254   7.500  11.882  1.00  0.00     0.100 N 
HETATM    5  C18 UNL     1      -2.618   6.771  13.056  1.00  0.00     0.293 C 
HETATM    6  C19 UNL     1      -2.977   5.339  12.851  1.00  0.00     0.154 C 
ENDROOT
BRANCH   4   7
HETATM    7  C8  UNL     1      -3.078   8.698  11.708  1.00  0.00     0.374 C 
BRANCH   7   8
HETATM    8  C9  UNL     1      -3.930   8.590  10.499  1.00  0.00     0.246 C 
HETATM    9  O2  UNL     1      -3.551   9.104   9.403  1.00  0.00    -0.272 OA
HETATM   10  N4  UNL     1      -5.175   7.910  10.572  1.00  0.00    -0.353 N 
ATOM     11  H4  UNL     1      -5.488   7.494  11.450  1.00  0.00     0.163 HD
BRANCH  10  12
HETATM   12  C10 UNL     1      -5.985   7.816   9.394  1.00  0.00     0.107 C 
HETATM   13  C11 UNL     1      -7.454   7.577   9.709  1.00  0.00     0.015 A 
HETATM   14  C12 UNL     1      -8.355   7.650   8.540  1.00  0.00     0.013 A 
HETATM   15  C13 UNL     1      -7.502   6.467   8.637  1.00  0.00     0.012 A 
HETATM   16  C14 UNL     1      -5.993   6.551   8.626  1.00  0.00     0.074 C 
HETATM   17  C15 UNL     1      -5.409   6.596   7.233  1.00  0.00     0.049 C 
HETATM   18  C17 UNL     1      -5.381   5.356   9.196  1.00  0.00     0.270 C 
HETATM   19  C16 UNL     1      -5.357   5.108   6.908  1.00  0.00     0.180 C 
HETATM   20  O3  UNL     1      -4.822   4.618   8.141  1.00  0.00    -0.321 OA
HETATM   21  O4  UNL     1      -5.285   4.923  10.381  1.00  0.00    -0.264 OA
ENDBRANCH  10  12
ENDBRANCH   7   8
ENDBRANCH   4   7
BRANCH   1  22
HETATM   22  C5  UNL     1      -1.929   3.261  12.041  1.00  0.00     0.117 C 
BRANCH  22  23
HETATM   23  C4  UNL     1      -2.767   2.192  11.484  1.00  0.00     0.060 C 
HETATM   24  C3  UNL     1      -4.083   2.142  12.223  1.00  0.00     0.015 C 
HETATM   25  C2  UNL     1      -5.053   1.249  11.419  1.00  0.00     0.033 C 
HETATM   26  C1  UNL     1      -4.421  -0.074  11.110  1.00  0.00     0.183 C 
HETATM   27  C21 UNL     1      -3.064  -0.268  11.769  1.00  0.00     0.033 C 
HETATM   28  C20 UNL     1      -2.122   0.854  11.358  1.00  0.00     0.015 C 
BRANCH  26  29
HETATM   29  N1  UNL     1      -4.237  -0.221   9.678  1.00  0.00    -0.075 N 
ATOM     30  H13 UNL     1      -4.994   0.214   9.151  1.00  0.00     0.274 HD
ATOM     31  H12 UNL     1      -3.466   0.350   9.332  1.00  0.00     0.274 HD
ATOM     32  H11 UNL     1      -4.121  -1.205   9.436  1.00  0.00     0.274 HD
ENDBRANCH  26  29
ENDBRANCH  22  23
BRANCH  22  33
HETATM   33  O1  UNL     1      -0.885   2.897  12.737  1.00  0.00    -0.349 OA
ATOM     34  H1  UNL     1      -0.039   3.218  12.448  1.00  0.00     0.219 HD
ENDBRANCH  22  33
ENDBRANCH   1  22
TORSDOF 7
ENDMDL
MODEL 2
REMARK VINA RESULT: -7.335317527      3.451      9.039
REMARK  7 active torsions:
REMARK  status: ('A' for Active; 'I' for Inactive)
REMARK    1  A    between atoms: N1_1  and  C1_5 
REMARK    2  A    between atoms: C4_8  and  C5_9 
REMARK    3  A    between atoms: C5_9  and  O1_10 
REMARK    4  A    between atoms: C5_9  and  N2_12 
REMARK    5  A    between atoms: N3_15  and  C8_16 
REMARK    6  A    between atoms: C8_16  and  C9_17 
REMARK       I    between atoms: C9_17  and  N4_19 
REMARK    7  A    between atoms: N4_19  and  C10_21 
ROOT
HETATM    1  N2  UNL     1      -7.365   9.156   7.838  1.00  0.00    -0.362 N 
HETATM    2  C6  UNL     1      -8.160   8.378   8.732  1.00  0.00     0.154 C 
HETATM    3  C7  UNL     1      -7.728   6.929   8.532  1.00  0.00     0.293 C 
HETATM    4  N3  UNL     1      -6.392   6.789   9.115  1.00  0.00     0.100 N 
HETATM    5  C18 UNL     1      -5.486   7.696   8.483  1.00  0.00     0.293 C 
HETATM    6  C19 UNL     1      -6.079   8.605   7.461  1.00  0.00     0.154 C 
ENDROOT
BRANCH   4   7
HETATM    7  C8  UNL     1      -5.953   5.399   8.979  1.00  0.00     0.374 C 
BRANCH   7   8
HETATM    8  C9  UNL     1      -5.106   4.991  10.126  1.00  0.00     0.246 C 
HETATM    9  O2  UNL     1      -5.188   5.609  11.231  1.00  0.00    -0.272 OA
HETATM   10  N4  UNL     1      -4.200   3.906   9.983  1.00  0.00    -0.353 N 
ATOM     11  H4  UNL     1      -4.128   3.405   9.098  1.00  0.00     0.163 HD
BRANCH  10  12
HETATM   12  C10 UNL     1      -3.390   3.527  11.102  1.00  0.00     0.107 C 
HETATM   13  C11 UNL     1      -2.010   3.037  10.688  1.00  0.00     0.015 A 
HETATM   14  C12 UNL     1      -1.078   2.803  11.810  1.00  0.00     0.013 A 
HETATM   15  C13 UNL     1      -2.154   1.830  11.640  1.00  0.00     0.012 A 
HETATM   16  C14 UNL     1      -3.614   2.210  11.738  1.00  0.00     0.074 C 
HETATM   17  C15 UNL     1      -4.134   2.218  13.157  1.00  0.00     0.049 C 
HETATM   18  C17 UNL     1      -4.473   1.228  11.084  1.00  0.00     0.270 C 
HETATM   19  C16 UNL     1      -4.475   0.743  13.334  1.00  0.00     0.180 C 
HETATM   20  O3  UNL     1      -5.136   0.505  12.088  1.00  0.00    -0.321 OA
HETATM   21  O4  UNL     1      -4.691   0.953   9.868  1.00  0.00    -0.264 OA
ENDBRANCH  10  12
ENDBRANCH   7   8
ENDBRANCH   4   7
BRANCH   1  22
HETATM   22  C5  UNL     1      -7.767  10.395   7.323  1.00  0.00     0.117 C 
BRANCH  22  23
HETATM   23  C4  UNL     1      -9.130  10.932   7.238  1.00  0.00     0.060 C 
HETATM   24  C3  UNL     1      -9.685  10.690   5.854  1.00  0.00     0.015 C 
HETATM   25  C2  UNL     1     -11.205  10.963   5.890  1.00  0.00     0.033 C 
HETATM   26  C1  UNL     1     -11.488  12.307   6.488  1.00  0.00     0.183 C 
HETATM   27  C21 UNL     1     -10.235  13.120   6.776  1.00  0.00     0.033 C 
HETATM   28  C20 UNL     1      -9.309  12.339   7.697  1.00  0.00     0.015 C 
BRANCH  26  29
HETATM   29  N1  UNL     1     -12.211  12.159   7.737  1.00  0.00    -0.075 N 
ATOM     30  H13 UNL     1     -13.149  12.557   7.683  1.00  0.00     0.274 HD
ATOM     31  H12 UNL     1     -12.470  11.189   7.915  1.00  0.00     0.274 HD
ATOM     32  H11 UNL     1     -11.672  12.557   8.506  1.00  0.00     0.274 HD
ENDBRANCH  26  29
ENDBRANCH  22  23
BRANCH  22  33
HETATM   33  O1  UNL     1      -6.801  11.150   6.870  1.00  0.00    -0.349 OA
ATOM     34  H1  UNL     1      -5.929  10.773   6.854  1.00  0.00     0.219 HD
ENDBRANCH  22  33
ENDBRANCH   1  22
TORSDOF 7
ENDMDL
MODEL 3
REMARK VINA RESULT: -7.268907519      3.548      9.055
REMARK  7 active torsions:
REMARK  status: ('A' for Active; 'I' for Inactive)
REMARK    1  A    between atoms: N1_1  and  C1_5 
REMARK    2  A    between atoms: C4_8  and  C5_9 
REMARK    3  A    between atoms: C5_9  and  O1_10 
REMARK    4  A    between atoms: C5_9  and  N2_12 
REMARK    5  A    between atoms: N3_15  and  C8_16 
REMARK    6  A    between atoms: C8_16  and  C9_17 
REMARK       I    between atoms: C9_17  and  N4_19 
REMARK    7  A    between atoms: N4_19  and  C10_21 
ROOT
HETATM    1  N2  UNL     1      -7.878   8.987   7.711  1.00  0.00    -0.362 N 
HETATM    2  C6  UNL     1      -8.418   8.118   8.706  1.00  0.00     0.154 C 
HETATM    3  C7  UNL     1      -7.778   6.755   8.470  1.00  0.00     0.293 C 
HETATM    4  N3  UNL     1      -6.377   6.853   8.883  1.00  0.00     0.100 N 
HETATM    5  C18 UNL     1      -5.718   7.876   8.133  1.00  0.00     0.293 C 
HETATM    6  C19 UNL     1      -6.573   8.643   7.183  1.00  0.00     0.154 C 
ENDROOT
BRANCH   4   7
HETATM    7  C8  UNL     1      -5.732   5.551   8.710  1.00  0.00     0.374 C 
BRANCH   7   8
HETATM    8  C9  UNL     1      -4.899   5.205   9.886  1.00  0.00     0.246 C 
HETATM    9  O2  UNL     1      -4.594   6.097  10.736  1.00  0.00    -0.272 OA
HETATM   10  N4  UNL     1      -4.440   3.872  10.058  1.00  0.00    -0.353 N 
ATOM     11  H4  UNL     1      -4.680   3.150   9.380  1.00  0.00     0.163 HD
BRANCH  10  12
HETATM   12  C10 UNL     1      -3.636   3.558  11.201  1.00  0.00     0.107 C 
HETATM   13  C11 UNL     1      -2.200   3.213  10.831  1.00  0.00     0.015 A 
HETATM   14  C12 UNL     1      -1.288   3.055  11.984  1.00  0.00     0.013 A 
HETATM   15  C13 UNL     1      -2.257   1.983  11.763  1.00  0.00     0.012 A 
HETATM   16  C14 UNL     1      -3.749   2.215  11.814  1.00  0.00     0.074 C 
HETATM   17  C15 UNL     1      -4.316   2.150  13.213  1.00  0.00     0.049 C 
HETATM   18  C17 UNL     1      -4.483   1.164  11.118  1.00  0.00     0.270 C 
HETATM   19  C16 UNL     1      -4.515   0.647  13.360  1.00  0.00     0.180 C 
HETATM   20  O3  UNL     1      -5.106   0.363  12.089  1.00  0.00    -0.321 OA
HETATM   21  O4  UNL     1      -4.631   0.887   9.892  1.00  0.00    -0.264 OA
ENDBRANCH  10  12
ENDBRANCH   7   8
ENDBRANCH   4   7
BRANCH   1  22
HETATM   22  C5  UNL     1      -8.540  10.127   7.236  1.00  0.00     0.117 C 
BRANCH  22  23
HETATM   23  C4  UNL     1      -8.975  11.298   8.007  1.00  0.00     0.060 C 
HETATM   24  C3  UNL     1      -9.688  12.269   7.097  1.00  0.00     0.015 C 
HETATM   25  C2  UNL     1     -10.408  13.314   7.976  1.00  0.00     0.033 C 
HETATM   26  C1  UNL     1      -9.460  13.915   8.968  1.00  0.00     0.183 C 
HETATM   27  C21 UNL     1      -8.019  13.468   8.779  1.00  0.00     0.033 C 
HETATM   28  C20 UNL     1      -7.932  11.951   8.849  1.00  0.00     0.015 C 
BRANCH  26  29
HETATM   29  N1  UNL     1      -9.855  13.563  10.319  1.00  0.00    -0.075 N 
ATOM     30  H13 UNL     1     -10.448  14.278  10.740  1.00  0.00     0.274 HD
ATOM     31  H12 UNL     1     -10.519  12.789  10.332  1.00  0.00     0.274 HD
ATOM     32  H11 UNL     1      -9.031  13.367  10.887  1.00  0.00     0.274 HD
ENDBRANCH  26  29
ENDBRANCH  22  23
BRANCH  22  33
HETATM   33  O1  UNL     1      -8.791  10.132   5.954  1.00  0.00    -0.349 OA
ATOM     34  H1  UNL     1      -8.774   9.295   5.507  1.00  0.00     0.219 HD
ENDBRANCH  22  33
ENDBRANCH   1  22
TORSDOF 7
ENDMDL
MODEL 4
REMARK VINA RESULT: -7.247427494      3.502      8.794
REMARK  7 active torsions:
REMARK  status: ('A' for Active; 'I' for Inactive)
REMARK    1  A    between atoms: N1_1  and  C1_5 
REMARK    2  A    between atoms: C4_8  and  C5_9 
REMARK    3  A    between atoms: C5_9  and  O1_10 
REMARK    4  A    between atoms: C5_9  and  N2_12 
REMARK    5  A    between atoms: N3_15  and  C8_16 
REMARK    6  A    between atoms: C8_16  and  C9_17 
REMARK       I    between atoms: C9_17  and  N4_19 
REMARK    7  A    between atoms: N4_19  and  C10_21 
ROOT
HETATM    1  N2  UNL     1      -7.517   9.171   8.608  1.00  0.00    -0.362 N 
HETATM    2  C6  UNL     1      -8.019   7.989   9.231  1.00  0.00     0.154 C 
HETATM    3  C7  UNL     1      -6.835   7.355   9.953  1.00  0.00     0.293 C 
HETATM    4  N3  UNL     1      -6.527   8.199  11.109  1.00  0.00     0.100 N 
HETATM    5  C18 UNL     1      -6.225   9.528  10.677  1.00  0.00     0.293 C 
HETATM    6  C19 UNL     1      -6.351   9.783   9.214  1.00  0.00     0.154 C 
ENDROOT
BRANCH   4   7
HETATM    7  C8  UNL     1      -5.417   7.605  11.856  1.00  0.00     0.374 C 
BRANCH   7   8
HETATM    8  C9  UNL     1      -5.837   6.354  12.533  1.00  0.00     0.246 C 
HETATM    9  O2  UNL     1      -7.017   6.238  12.984  1.00  0.00    -0.272 OA
HETATM   10  N4  UNL     1      -4.912   5.285  12.676  1.00  0.00    -0.353 N 
ATOM     11  H4  UNL     1      -3.962   5.371  12.317  1.00  0.00     0.163 HD
BRANCH  10  12
HETATM   12  C10 UNL     1      -5.336   4.085  13.334  1.00  0.00     0.107 C 
HETATM   13  C11 UNL     1      -5.108   4.128  14.838  1.00  0.00     0.015 A 
HETATM   14  C12 UNL     1      -5.689   2.991  15.582  1.00  0.00     0.013 A 
HETATM   15  C13 UNL     1      -4.497   2.711  14.784  1.00  0.00     0.012 A 
HETATM   16  C14 UNL     1      -4.464   2.891  13.284  1.00  0.00     0.074 C 
HETATM   17  C15 UNL     1      -4.991   1.693  12.528  1.00  0.00     0.049 C 
HETATM   18  C17 UNL     1      -3.099   3.015  12.784  1.00  0.00     0.270 C 
HETATM   19  C16 UNL     1      -3.739   0.825  12.480  1.00  0.00     0.180 C 
HETATM   20  O3  UNL     1      -2.778   1.820  12.120  1.00  0.00    -0.321 OA
HETATM   21  O4  UNL     1      -2.241   3.942  12.851  1.00  0.00    -0.264 OA
ENDBRANCH  10  12
ENDBRANCH   7   8
ENDBRANCH   4   7
BRANCH   1  22
HETATM   22  C5  UNL     1      -8.088   9.747   7.466  1.00  0.00     0.117 C 
BRANCH  22  23
HETATM   23  C4  UNL     1      -9.352  10.488   7.371  1.00  0.00     0.060 C 
HETATM   24  C3  UNL     1      -9.780  10.577   5.926  1.00  0.00     0.015 C 
HETATM   25  C2  UNL     1     -11.246  11.062   5.887  1.00  0.00     0.033 C 
HETATM   26  C1  UNL     1     -11.413  12.308   6.702  1.00  0.00     0.183 C 
HETATM   27  C21 UNL     1     -10.103  12.862   7.240  1.00  0.00     0.033 C 
HETATM   28  C20 UNL     1      -9.393  11.803   8.070  1.00  0.00     0.015 C 
BRANCH  26  29
HETATM   29  N1  UNL     1     -12.280  12.054   7.837  1.00  0.00    -0.075 N 
ATOM     30  H13 UNL     1     -13.139  12.603   7.790  1.00  0.00     0.274 HD
ATOM     31  H12 UNL     1     -12.695  11.123   7.799  1.00  0.00     0.274 HD
ATOM     32  H11 UNL     1     -11.775  12.210   8.710  1.00  0.00     0.274 HD
ENDBRANCH  26  29
ENDBRANCH  22  23
BRANCH  22  33
HETATM   33  O1  UNL     1      -7.402   9.598   6.364  1.00  0.00    -0.349 OA
ATOM     34  H1  UNL     1      -7.828   9.846   5.552  1.00  0.00     0.219 HD
ENDBRANCH  22  33
ENDBRANCH   1  22
TORSDOF 7
ENDMDL
MODEL 5
REMARK VINA RESULT: -7.061849813      2.764      7.130
REMARK  7 active torsions:
REMARK  status: ('A' for Active; 'I' for Inactive)
REMARK    1  A    between atoms: N1_1  and  C1_5 
REMARK    2  A    between atoms: C4_8  and  C5_9 
REMARK    3  A    between atoms: C5_9  and  O1_10 
REMARK    4  A    between atoms: C5_9  and  N2_12 
REMARK    5  A    between atoms: N3_15  and  C8_16 
REMARK    6  A    between atoms: C8_16  and  C9_17 
REMARK       I    between atoms: C9_17  and  N4_19 
REMARK    7  A    between atoms: N4_19  and  C10_21 
ROOT
HETATM    1  N2  UNL     1      -5.909   6.701  12.699  1.00  0.00    -0.362 N 
HETATM    2  C6  UNL     1      -7.133   6.377  13.358  1.00  0.00     0.154 C 
HETATM    3  C7  UNL     1      -6.982   4.942  13.849  1.00  0.00     0.293 C 
HETATM    4  N3  UNL     1      -6.035   4.961  14.965  1.00  0.00     0.100 N 
HETATM    5  C18 UNL     1      -4.783   5.500  14.534  1.00  0.00     0.293 C 
HETATM    6  C19 UNL     1      -4.729   5.975  13.122  1.00  0.00     0.154 C 
ENDROOT
BRANCH   4   7
HETATM    7  C8  UNL     1      -5.889   3.604  15.495  1.00  0.00     0.374 C 
BRANCH   7   8
HETATM    8  C9  UNL     1      -4.699   2.931  14.921  1.00  0.00     0.246 C 
HETATM    9  O2  UNL     1      -3.625   2.851  15.593  1.00  0.00    -0.272 OA
HETATM   10  N4  UNL     1      -4.763   2.376  13.615  1.00  0.00    -0.353 N 
ATOM     11  H4  UNL     1      -5.622   2.437  13.068  1.00  0.00     0.163 HD
BRANCH  10  12
HETATM   12  C10 UNL     1      -3.603   1.730  13.078  1.00  0.00     0.107 C 
HETATM   13  C11 UNL     1      -2.792   2.642  12.169  1.00  0.00     0.015 A 
HETATM   14  C12 UNL     1      -1.495   2.082  11.733  1.00  0.00     0.013 A 
HETATM   15  C13 UNL     1      -2.694   1.511  11.123  1.00  0.00     0.012 A 
HETATM   16  C14 UNL     1      -3.759   0.807  11.932  1.00  0.00     0.074 C 
HETATM   17  C15 UNL     1      -3.451  -0.651  12.184  1.00  0.00     0.049 C 
HETATM   18  C17 UNL     1      -5.031   0.751  11.218  1.00  0.00     0.270 C 
HETATM   19  C16 UNL     1      -3.978  -1.271  10.896  1.00  0.00     0.180 C 
HETATM   20  O3  UNL     1      -5.223  -0.574  10.793  1.00  0.00    -0.321 OA
HETATM   21  O4  UNL     1      -5.903   1.627  10.948  1.00  0.00    -0.264 OA
ENDBRANCH  10  12
ENDBRANCH   7   8
ENDBRANCH   4   7
BRANCH   1  22
HETATM   22  C5  UNL     1      -5.805   7.666  11.689  1.00  0.00     0.117 C 
BRANCH  22  23
HETATM   23  C4  UNL     1      -6.708   7.874  10.550  1.00  0.00     0.060 C 
HETATM   24  C3  UNL     1      -6.551   6.739   9.566  1.00  0.00     0.015 C 
HETATM   25  C2  UNL     1      -7.722   6.808   8.561  1.00  0.00     0.033 C 
HETATM   26  C1  UNL     1      -7.834   8.181   7.972  1.00  0.00     0.183 C 
HETATM   27  C21 UNL     1      -6.706   9.113   8.386  1.00  0.00     0.033 C 
HETATM   28  C20 UNL     1      -6.647   9.215   9.903  1.00  0.00     0.015 C 
BRANCH  26  29
HETATM   29  N1  UNL     1      -9.084   8.800   8.372  1.00  0.00    -0.075 N 
ATOM     30  H13 UNL     1      -9.883   8.390   7.888  1.00  0.00     0.274 HD
ATOM     31  H12 UNL     1      -9.343   8.552   9.327  1.00  0.00     0.274 HD
ATOM     32  H11 UNL     1      -9.036   9.810   8.240  1.00  0.00     0.274 HD
ENDBRANCH  26  29
ENDBRANCH  22  23
BRANCH  22  33
HETATM   33  O1  UNL     1      -4.778   8.468  11.787  1.00  0.00    -0.349 OA
ATOM     34  H1  UNL     1      -3.919   8.090  11.640  1.00  0.00     0.219 HD
ENDBRANCH  22  33
ENDBRANCH   1  22
TORSDOF 7
ENDMDL
