MODEL 1
REMARK VINA RESULT: -7.607833911      0.000      0.000
REMARK  5 active torsions:
REMARK  status: ('A' for Active; 'I' for Inactive)
REMARK    1  A    between atoms: C3_5  and  C4_7 
REMARK    2  A    between atoms: C10_13  and  N3_14 
REMARK       I    between atoms: N3_14  and  C11_16 
REMARK    3  A    between atoms: C11_16  and  C12_18 
REMARK       I    between atoms: N4_23  and  C16_24 
REMARK    4  A    between atoms: C16_24  and  O4_26 
REMARK    5  A    between atoms: O4_26  and  C17_27 
ROOT
HETATM    1  C1  UNL     1       2.666   4.454  10.508  1.00  0.00     0.037 C 
HETATM    2  C2  UNL     1       1.519   4.083  10.610  1.00  0.00     0.000 C 
HETATM    3  N1  UNL     1       0.217   3.650  10.748  1.00  0.00    -0.307 N 
ATOM      4  H1  UNL     1      -0.108   2.835  10.228  1.00  0.00     0.177 HD
HETATM    5  C3  UNL     1      -0.586   4.274  11.530  1.00  0.00     0.111 C 
HETATM    6  N2  UNL     1      -0.110   5.404  12.240  1.00  0.00    -0.086 NA
ENDROOT
BRANCH   5   7
HETATM    7  C4  UNL     1      -2.015   3.832  11.707  1.00  0.00     0.035 C 
HETATM    8  C5  UNL     1      -2.115   2.428  11.208  1.00  0.00     0.024 C 
HETATM    9  C6  UNL     1      -3.503   1.965  10.949  1.00  0.00    -0.003 C 
HETATM   10  C7  UNL     1      -3.986   1.237  12.214  1.00  0.00     0.031 C 
HETATM   11  C9  UNL     1      -4.569   2.974  11.222  1.00  0.00     0.035 C 
HETATM   12  C8  UNL     1      -4.514   2.611  12.652  1.00  0.00     0.096 C 
HETATM   13  N4  UNL     1      -3.557   3.319  13.461  1.00  0.00    -0.322 N 
HETATM   14  C16 UNL     1      -3.897   3.330  14.844  1.00  0.00     0.363 C 
HETATM   15  C20 UNL     1      -2.343   4.009  13.154  1.00  0.00     0.145 C 
HETATM   16  O3  UNL     1      -3.148   3.911  15.646  1.00  0.00    -0.238 OA
HETATM   17  C10 UNL     1      -4.305   4.367  10.846  1.00  0.00     0.092 C 
HETATM   18  C15 UNL     1      -2.868   4.800  10.923  1.00  0.00     0.044 C 
BRANCH  14  19
HETATM   19  O4  UNL     1      -5.043   2.709  15.331  1.00  0.00    -0.294 OA
BRANCH  19  20
HETATM   20  C17 UNL     1      -4.915   1.732  16.343  1.00  0.00     0.181 C 
HETATM   21  C18 UNL     1      -6.259   1.157  16.720  1.00  0.00     0.202 C 
HETATM   22  O5  UNL     1      -5.655  -0.104  16.760  1.00  0.00    -0.386 OA
HETATM   23  C19 UNL     1      -4.750   0.323  15.820  1.00  0.00     0.202 C 
ENDBRANCH  19  20
ENDBRANCH  14  19
BRANCH  17  24
HETATM   24  N3  UNL     1      -4.744   4.581   9.478  1.00  0.00    -0.356 N 
HETATM   25  C11 UNL     1      -5.756   5.501   9.125  1.00  0.00     0.226 C 
HETATM   26  O1  UNL     1      -6.300   6.165  10.044  1.00  0.00    -0.273 OA
ATOM     27  H3  UNL     1      -4.299   4.040   8.736  1.00  0.00     0.162 HD
BRANCH  25  28
HETATM   28  C12 UNL     1      -6.176   5.694   7.736  1.00  0.00     0.125 C 
HETATM   29  C13 UNL     1      -5.453   6.782   6.977  1.00  0.00     0.183 C 
HETATM   30  O2  UNL     1      -5.480   5.961   5.847  1.00  0.00    -0.389 OA
HETATM   31  C14 UNL     1      -5.445   4.858   6.726  1.00  0.00     0.183 C 
ENDBRANCH  25  28
ENDBRANCH  17  24
ENDBRANCH   5   7
TORSDOF 5
ENDMDL
MODEL 2
REMARK VINA RESULT: -7.437434542      3.859      6.699
REMARK  5 active torsions:
REMARK  status: ('A' for Active; 'I' for Inactive)
REMARK    1  A    between atoms: C3_5  and  C4_7 
REMARK    2  A    between atoms: C10_13  and  N3_14 
REMARK       I    between atoms: N3_14  and  C11_16 
REMARK    3  A    between atoms: C11_16  and  C12_18 
REMARK       I    between atoms: N4_23  and  C16_24 
REMARK    4  A    between atoms: C16_24  and  O4_26 
REMARK    5  A    between atoms: O4_26  and  C17_27 
ROOT
HETATM    1  C1  UNL     1      -8.231   8.509   8.647  1.00  0.00     0.037 C 
HETATM    2  C2  UNL     1      -7.637   7.762   9.389  1.00  0.00     0.000 C 
HETATM    3  N1  UNL     1      -6.938   6.916  10.226  1.00  0.00    -0.307 N 
ATOM      4  H1  UNL     1      -6.923   5.914  10.041  1.00  0.00     0.177 HD
HETATM    5  C3  UNL     1      -6.307   7.392  11.236  1.00  0.00     0.111 C 
HETATM    6  N2  UNL     1      -6.344   8.789  11.470  1.00  0.00    -0.086 NA
ENDROOT
BRANCH   5   7
HETATM    7  C4  UNL     1      -5.532   6.501  12.172  1.00  0.00     0.035 C 
HETATM    8  C5  UNL     1      -6.427   6.172  13.321  1.00  0.00     0.024 C 
HETATM    9  C6  UNL     1      -5.723   5.630  14.513  1.00  0.00    -0.003 C 
HETATM   10  C7  UNL     1      -5.775   4.096  14.415  1.00  0.00     0.031 C 
HETATM   11  C9  UNL     1      -4.242   5.507  14.371  1.00  0.00     0.035 C 
HETATM   12  C8  UNL     1      -4.439   4.223  13.670  1.00  0.00     0.096 C 
HETATM   13  N4  UNL     1      -4.625   4.289  12.244  1.00  0.00    -0.322 N 
HETATM   14  C16 UNL     1      -4.283   3.077  11.580  1.00  0.00     0.363 C 
HETATM   15  C20 UNL     1      -5.084   5.323  11.368  1.00  0.00     0.145 C 
HETATM   16  O3  UNL     1      -4.401   3.009  10.346  1.00  0.00    -0.238 OA
HETATM   17  C10 UNL     1      -3.530   6.582  13.672  1.00  0.00     0.092 C 
HETATM   18  C15 UNL     1      -4.301   7.271  12.582  1.00  0.00     0.044 C 
BRANCH  14  19
HETATM   19  O4  UNL     1      -3.819   1.961  12.269  1.00  0.00    -0.294 OA
BRANCH  19  20
HETATM   20  C17 UNL     1      -4.601   0.784  12.273  1.00  0.00     0.181 C 
HETATM   21  C18 UNL     1      -3.891  -0.347  11.569  1.00  0.00     0.202 C 
HETATM   22  O5  UNL     1      -4.334  -1.196  12.589  1.00  0.00    -0.386 OA
HETATM   23  C19 UNL     1      -4.334  -0.127  13.450  1.00  0.00     0.202 C 
ENDBRANCH  19  20
ENDBRANCH  14  19
BRANCH  17  24
HETATM   24  N3  UNL     1      -3.145   7.600  14.634  1.00  0.00    -0.356 N 
HETATM   25  C11 UNL     1      -1.875   8.221  14.636  1.00  0.00     0.226 C 
HETATM   26  O1  UNL     1      -1.043   7.872  13.761  1.00  0.00    -0.273 OA
ATOM     27  H3  UNL     1      -3.823   7.879  15.342  1.00  0.00     0.162 HD
BRANCH  25  28
HETATM   28  C12 UNL     1      -1.517   9.245  15.620  1.00  0.00     0.125 C 
HETATM   29  C13 UNL     1      -0.078   9.704  15.596  1.00  0.00     0.183 C 
HETATM   30  O2  UNL     1      -0.525  11.001  15.853  1.00  0.00    -0.389 OA
HETATM   31  C14 UNL     1      -1.709  10.663  15.165  1.00  0.00     0.183 C 
ENDBRANCH  25  28
ENDBRANCH  17  24
ENDBRANCH   5   7
TORSDOF 5
ENDMDL
MODEL 3
REMARK VINA RESULT: -7.348142696      2.894      6.055
REMARK  5 active torsions:
REMARK  status: ('A' for Active; 'I' for Inactive)
REMARK    1  A    between atoms: C3_5  and  C4_7 
REMARK    2  A    between atoms: C10_13  and  N3_14 
REMARK       I    between atoms: N3_14  and  C11_16 
REMARK    3  A    between atoms: C11_16  and  C12_18 
REMARK       I    between atoms: N4_23  and  C16_24 
REMARK    4  A    between atoms: C16_24  and  O4_26 
REMARK    5  A    between atoms: O4_26  and  C17_27 
ROOT
HETATM    1  C1  UNL     1      -5.662   1.196  17.029  1.00  0.00     0.037 C 
HETATM    2  C2  UNL     1      -5.031   1.899  16.274  1.00  0.00     0.000 C 
HETATM    3  N1  UNL     1      -4.324   2.693  15.394  1.00  0.00    -0.307 N 
ATOM      4  H1  UNL     1      -3.358   2.464  15.165  1.00  0.00     0.177 HD
HETATM    5  C3  UNL     1      -4.883   3.720  14.866  1.00  0.00     0.111 C 
HETATM    6  N2  UNL     1      -6.228   4.016  15.203  1.00  0.00    -0.086 NA
ENDROOT
BRANCH   5   7
HETATM    7  C4  UNL     1      -4.144   4.610  13.901  1.00  0.00     0.035 C 
HETATM    8  C5  UNL     1      -3.711   5.824  14.654  1.00  0.00     0.024 C 
HETATM    9  C6  UNL     1      -3.312   6.970  13.795  1.00  0.00    -0.003 C 
HETATM   10  C7  UNL     1      -1.786   6.897  13.616  1.00  0.00     0.031 C 
HETATM   11  C9  UNL     1      -3.413   6.724  12.325  1.00  0.00     0.035 C 
HETATM   12  C8  UNL     1      -2.097   6.056  12.370  1.00  0.00     0.096 C 
HETATM   13  N4  UNL     1      -2.099   4.646  12.662  1.00  0.00    -0.322 N 
HETATM   14  C16 UNL     1      -0.937   3.977  12.183  1.00  0.00     0.363 C 
HETATM   15  C20 UNL     1      -3.030   3.792  13.333  1.00  0.00     0.145 C 
HETATM   16  O3  UNL     1      -0.822   2.755  12.373  1.00  0.00    -0.238 OA
HETATM   17  C10 UNL     1      -4.567   5.962  11.837  1.00  0.00     0.092 C 
HETATM   18  C15 UNL     1      -5.103   4.920  12.778  1.00  0.00     0.044 C 
BRANCH  14  19
HETATM   19  O4  UNL     1       0.078   4.645  11.506  1.00  0.00    -0.294 OA
BRANCH  19  20
HETATM   20  C17 UNL     1       1.354   4.046  11.421  1.00  0.00     0.181 C 
HETATM   21  C18 UNL     1       1.959   4.240  10.051  1.00  0.00     0.202 C 
HETATM   22  O5  UNL     1       3.180   4.502  10.680  1.00  0.00    -0.386 OA
HETATM   23  C19 UNL     1       2.494   4.977  11.769  1.00  0.00     0.202 C 
ENDBRANCH  19  20
ENDBRANCH  14  19
BRANCH  17  24
HETATM   24  N3  UNL     1      -5.655   6.879  11.548  1.00  0.00    -0.356 N 
HETATM   25  C11 UNL     1      -6.460   6.785  10.391  1.00  0.00     0.226 C 
HETATM   26  O1  UNL     1      -6.218   5.859   9.575  1.00  0.00    -0.273 OA
ATOM     27  H3  UNL     1      -5.846   7.629  12.213  1.00  0.00     0.162 HD
BRANCH  25  28
HETATM   28  C12 UNL     1      -7.550   7.726  10.129  1.00  0.00     0.125 C 
HETATM   29  C13 UNL     1      -7.156   9.010   9.436  1.00  0.00     0.183 C 
HETATM   30  O2  UNL     1      -8.347   8.940   8.709  1.00  0.00    -0.389 OA
HETATM   31  C14 UNL     1      -8.258   7.537   8.818  1.00  0.00     0.183 C 
ENDBRANCH  25  28
ENDBRANCH  17  24
ENDBRANCH   5   7
TORSDOF 5
ENDMDL
MODEL 4
REMARK VINA RESULT: -7.206729962      2.790      4.007
REMARK  5 active torsions:
REMARK  status: ('A' for Active; 'I' for Inactive)
REMARK    1  A    between atoms: C3_5  and  C4_7 
REMARK    2  A    between atoms: C10_13  and  N3_14 
REMARK       I    between atoms: N3_14  and  C11_16 
REMARK    3  A    between atoms: C11_16  and  C12_18 
REMARK       I    between atoms: N4_23  and  C16_24 
REMARK    4  A    between atoms: C16_24  and  O4_26 
REMARK    5  A    between atoms: O4_26  and  C17_27 
ROOT
HETATM    1  C1  UNL     1      -1.692   8.804  16.096  1.00  0.00     0.037 C 
HETATM    2  C2  UNL     1      -1.988   8.128  15.138  1.00  0.00     0.000 C 
HETATM    3  N1  UNL     1      -2.316   7.337  14.056  1.00  0.00    -0.307 N 
ATOM      4  H1  UNL     1      -1.743   7.361  13.214  1.00  0.00     0.177 HD
HETATM    5  C3  UNL     1      -3.344   6.571  14.111  1.00  0.00     0.111 C 
HETATM    6  N2  UNL     1      -4.124   6.556  15.294  1.00  0.00    -0.086 NA
ENDROOT
BRANCH   5   7
HETATM    7  C4  UNL     1      -3.734   5.693  12.951  1.00  0.00     0.035 C 
HETATM    8  C5  UNL     1      -2.520   5.504  12.103  1.00  0.00     0.024 C 
HETATM    9  C6  UNL     1      -2.798   4.996  10.734  1.00  0.00    -0.003 C 
HETATM   10  C7  UNL     1      -2.646   3.467  10.776  1.00  0.00     0.031 C 
HETATM   11  C9  UNL     1      -4.240   4.762  10.428  1.00  0.00     0.035 C 
HETATM   12  C8  UNL     1      -4.147   3.451  11.099  1.00  0.00     0.096 C 
HETATM   13  N4  UNL     1      -4.388   3.433  12.518  1.00  0.00    -0.322 N 
HETATM   14  C16 UNL     1      -4.803   2.159  12.997  1.00  0.00     0.363 C 
HETATM   15  C20 UNL     1      -4.294   4.436  13.534  1.00  0.00     0.145 C 
HETATM   16  O3  UNL     1      -5.044   2.016  14.208  1.00  0.00    -0.238 OA
HETATM   17  C10 UNL     1      -5.214   5.736  10.932  1.00  0.00     0.092 C 
HETATM   18  C15 UNL     1      -4.855   6.401  12.230  1.00  0.00     0.044 C 
BRANCH  14  19
HETATM   19  O4  UNL     1      -4.951   1.062  12.154  1.00  0.00    -0.294 OA
BRANCH  19  20
HETATM   20  C17 UNL     1      -4.198  -0.106  12.412  1.00  0.00     0.181 C 
HETATM   21  C18 UNL     1      -4.629  -1.243  11.516  1.00  0.00     0.202 C 
HETATM   22  O5  UNL     1      -3.277  -1.563  11.354  1.00  0.00    -0.386 OA
HETATM   23  C19 UNL     1      -2.961  -0.242  11.554  1.00  0.00     0.202 C 
ENDBRANCH  19  20
ENDBRANCH  14  19
BRANCH  17  24
HETATM   24  N3  UNL     1      -5.389   6.787   9.945  1.00  0.00    -0.356 N 
HETATM   25  C11 UNL     1      -6.416   6.772   8.973  1.00  0.00     0.226 C 
HETATM   26  O1  UNL     1      -7.213   5.800   8.968  1.00  0.00    -0.273 OA
ATOM     27  H3  UNL     1      -4.740   7.573   9.954  1.00  0.00     0.162 HD
BRANCH  25  28
HETATM   28  C12 UNL     1      -6.566   7.848   7.992  1.00  0.00     0.125 C 
HETATM   29  C13 UNL     1      -7.882   8.591   8.028  1.00  0.00     0.183 C 
HETATM   30  O2  UNL     1      -7.181   9.770   7.764  1.00  0.00    -0.389 OA
HETATM   31  C14 UNL     1      -6.086   9.197   8.443  1.00  0.00     0.183 C 
ENDBRANCH  25  28
ENDBRANCH  17  24
ENDBRANCH   5   7
TORSDOF 5
ENDMDL
MODEL 5
REMARK VINA RESULT: -7.102065166      3.310      5.732
REMARK  5 active torsions:
REMARK  status: ('A' for Active; 'I' for Inactive)
REMARK    1  A    between atoms: C3_5  and  C4_7 
REMARK    2  A    between atoms: C10_13  and  N3_14 
REMARK       I    between atoms: N3_14  and  C11_16 
REMARK    3  A    between atoms: C11_16  and  C12_18 
REMARK       I    between atoms: N4_23  and  C16_24 
REMARK    4  A    between atoms: C16_24  and  O4_26 
REMARK    5  A    between atoms: O4_26  and  C17_27 
ROOT
HETATM    1  C1  UNL     1      -5.084   4.998   7.050  1.00  0.00     0.037 C 
HETATM    2  C2  UNL     1      -5.158   5.184   8.243  1.00  0.00     0.000 C 
HETATM    3  N1  UNL     1      -5.249   5.373   9.606  1.00  0.00    -0.307 N 
ATOM      4  H1  UNL     1      -6.059   5.850  10.002  1.00  0.00     0.177 HD
HETATM    5  C3  UNL     1      -4.315   4.949  10.376  1.00  0.00     0.111 C 
HETATM    6  N2  UNL     1      -3.200   4.289   9.800  1.00  0.00    -0.086 NA
ENDROOT
BRANCH   5   7
HETATM    7  C4  UNL     1      -4.379   5.137  11.869  1.00  0.00     0.035 C 
HETATM    8  C5  UNL     1      -5.685   5.790  12.183  1.00  0.00     0.024 C 
HETATM    9  C6  UNL     1      -5.760   6.394  13.539  1.00  0.00    -0.003 C 
HETATM   10  C7  UNL     1      -6.394   5.348  14.471  1.00  0.00     0.031 C 
HETATM   11  C9  UNL     1      -4.522   6.257  14.362  1.00  0.00     0.035 C 
HETATM   12  C8  UNL     1      -4.952   4.896  14.740  1.00  0.00     0.096 C 
HETATM   13  N4  UNL     1      -4.553   3.827  13.862  1.00  0.00    -0.322 N 
HETATM   14  C16 UNL     1      -4.518   2.559  14.509  1.00  0.00     0.363 C 
HETATM   15  C20 UNL     1      -4.189   3.786  12.480  1.00  0.00     0.145 C 
HETATM   16  O3  UNL     1      -4.188   1.555  13.855  1.00  0.00    -0.238 OA
HETATM   17  C10 UNL     1      -3.230   6.418  13.688  1.00  0.00     0.092 C 
HETATM   18  C15 UNL     1      -3.189   5.983  12.250  1.00  0.00     0.044 C 
BRANCH  14  19
HETATM   19  O4  UNL     1      -4.842   2.403  15.853  1.00  0.00    -0.294 OA
BRANCH  19  20
HETATM   20  C17 UNL     1      -6.000   1.672  16.198  1.00  0.00     0.181 C 
HETATM   21  C18 UNL     1      -5.803   0.911  17.487  1.00  0.00     0.202 C 
HETATM   22  O5  UNL     1      -7.098   1.291  17.854  1.00  0.00    -0.386 OA
HETATM   23  C19 UNL     1      -6.958   2.425  17.093  1.00  0.00     0.202 C 
ENDBRANCH  19  20
ENDBRANCH  14  19
BRANCH  17  24
HETATM   24  N3  UNL     1      -2.848   7.819  13.723  1.00  0.00    -0.356 N 
HETATM   25  C11 UNL     1      -2.078   8.385  14.764  1.00  0.00     0.226 C 
HETATM   26  O1  UNL     1      -1.709   7.635  15.703  1.00  0.00    -0.273 OA
ATOM     27  H3  UNL     1      -3.150   8.423  12.959  1.00  0.00     0.162 HD
BRANCH  25  28
HETATM   28  C12 UNL     1      -1.709   9.802  14.770  1.00  0.00     0.125 C 
HETATM   29  C13 UNL     1      -0.919  10.269  15.970  1.00  0.00     0.183 C 
HETATM   30  O2  UNL     1      -0.171  11.082  15.115  1.00  0.00    -0.389 OA
HETATM   31  C14 UNL     1      -0.402  10.125  14.106  1.00  0.00     0.183 C 
ENDBRANCH  25  28
ENDBRANCH  17  24
ENDBRANCH   5   7
TORSDOF 5
ENDMDL
