MODEL 1
REMARK VINA RESULT: -6.722250612      0.000      0.000
REMARK  6 active torsions:
REMARK  status: ('A' for Active; 'I' for Inactive)
REMARK    1  A    between atoms: C5_9  and  N3_10 
REMARK    2  A    between atoms: N3_10  and  C6_12 
REMARK    3  A    between atoms: C7_15  and  C8_16 
REMARK    4  A    between atoms: C8_16  and  N5_17 
REMARK    5  A    between atoms: N6_20  and  C11_21 
REMARK    6  A    between atoms: C11_21  and  C12_22 
ROOT
HETATM    1  C6  UNL     1      -4.312   7.532  10.221  1.00  0.00     0.704 A 
HETATM    2  N4  UNL     1      -3.864   6.321  10.590  1.00  0.00    -0.168 N 
ATOM      3  H4  UNL     1      -3.846   5.495   9.992  1.00  0.00     0.186 HD
HETATM    4  C7  UNL     1      -3.443   6.360  11.866  1.00  0.00     0.190 A 
HETATM    5  O1  UNL     1      -3.642   7.598  12.256  1.00  0.00    -0.207 OA
HETATM    6  N7  UNL     1      -4.155   8.314  11.304  1.00  0.00    -0.089 N 
ATOM      7  H7  UNL     1      -4.399   9.303  11.366  1.00  0.00     0.213 HD
ENDROOT
BRANCH   1   8
HETATM    8  N3  UNL     1      -4.801   7.876   9.055  1.00  0.00    -0.186 N 
ATOM      9  H3  UNL     1      -4.485   8.742   8.618  1.00  0.00     0.184 HD
BRANCH   8  10
HETATM   10  C5  UNL     1      -5.756   7.076   8.387  1.00  0.00     0.096 A 
HETATM   11  C2  UNL     1      -7.128   7.063   8.655  1.00  0.00     0.051 A 
HETATM   12  C1  UNL     1      -7.834   7.881   9.683  1.00  0.00     0.072 C 
HETATM   13  N1  UNL     1      -7.636   6.166   7.791  1.00  0.00    -0.303 N 
HETATM   14  N2  UNL     1      -6.682   5.652   7.040  1.00  0.00    -0.303 N 
ATOM     15  H1  UNL     1      -8.622   5.918   7.726  1.00  0.00     0.186 HD
HETATM   16  C3  UNL     1      -5.486   6.182   7.366  1.00  0.00     0.051 A 
ATOM     17  H2  UNL     1      -6.828   4.951   6.312  1.00  0.00     0.186 HD
HETATM   18  C4  UNL     1      -4.143   5.878   6.762  1.00  0.00     0.072 C 
ENDBRANCH   8  10
ENDBRANCH   1   8
BRANCH   4  19
HETATM   19  C8  UNL     1      -2.868   5.219  12.660  1.00  0.00     0.359 C 
BRANCH  19  20
HETATM   20  N5  UNL     1      -3.925   4.436  13.220  1.00  0.00     0.099 N 
HETATM   21  C9  UNL     1      -4.007   4.656  14.628  1.00  0.00     0.303 C 
HETATM   22  C10 UNL     1      -3.623   3.387  15.355  1.00  0.00     0.302 C 
HETATM   23  N6  UNL     1      -4.515   2.289  15.068  1.00  0.00     0.092 N 
HETATM   24  C15 UNL     1      -4.736   2.205  13.661  1.00  0.00     0.302 C 
HETATM   25  C16 UNL     1      -3.728   3.053  12.901  1.00  0.00     0.303 C 
BRANCH  23  26
HETATM   26  C11 UNL     1      -5.699   2.453  15.851  1.00  0.00     0.277 C 
BRANCH  26  27
HETATM   27  C12 UNL     1      -5.921   1.336  16.841  1.00  0.00     0.014 A 
HETATM   28  C13 UNL     1      -7.389   1.196  17.253  1.00  0.00     0.007 A 
HETATM   29  C14 UNL     1      -6.299   1.572  18.232  1.00  0.00     0.007 A 
ENDBRANCH  26  27
ENDBRANCH  23  26
ENDBRANCH  19  20
ENDBRANCH   4  19
TORSDOF 6
ENDMDL
MODEL 2
REMARK VINA RESULT: -6.713440011      0.093      1.661
REMARK  6 active torsions:
REMARK  status: ('A' for Active; 'I' for Inactive)
REMARK    1  A    between atoms: C5_9  and  N3_10 
REMARK    2  A    between atoms: N3_10  and  C6_12 
REMARK    3  A    between atoms: C7_15  and  C8_16 
REMARK    4  A    between atoms: C8_16  and  N5_17 
REMARK    5  A    between atoms: N6_20  and  C11_21 
REMARK    6  A    between atoms: C11_21  and  C12_22 
ROOT
HETATM    1  C6  UNL     1      -4.293   7.583  10.201  1.00  0.00     0.704 A 
HETATM    2  N4  UNL     1      -3.848   6.378  10.590  1.00  0.00    -0.168 N 
ATOM      3  H4  UNL     1      -3.825   5.543  10.004  1.00  0.00     0.186 HD
HETATM    4  C7  UNL     1      -3.437   6.436  11.869  1.00  0.00     0.190 A 
HETATM    5  O1  UNL     1      -3.639   7.679  12.239  1.00  0.00    -0.207 OA
HETATM    6  N7  UNL     1      -4.144   8.381  11.273  1.00  0.00    -0.089 N 
ATOM      7  H7  UNL     1      -4.388   9.371  11.319  1.00  0.00     0.213 HD
ENDROOT
BRANCH   1   8
HETATM    8  N3  UNL     1      -4.772   7.910   9.025  1.00  0.00    -0.186 N 
ATOM      9  H3  UNL     1      -4.475   8.785   8.592  1.00  0.00     0.184 HD
BRANCH   8  10
HETATM   10  C5  UNL     1      -5.691   7.081   8.344  1.00  0.00     0.096 A 
HETATM   11  C2  UNL     1      -5.367   6.192   7.315  1.00  0.00     0.051 A 
HETATM   12  C1  UNL     1      -4.008   5.955   6.747  1.00  0.00     0.072 C 
HETATM   13  N1  UNL     1      -6.538   5.624   6.974  1.00  0.00    -0.303 N 
HETATM   14  N2  UNL     1      -7.520   6.102   7.713  1.00  0.00    -0.303 N 
ATOM     15  H1  UNL     1      -6.651   4.921   6.244  1.00  0.00     0.186 HD
HETATM   16  C3  UNL     1      -7.051   7.015   8.587  1.00  0.00     0.051 A 
ATOM     17  H2  UNL     1      -8.497   5.819   7.635  1.00  0.00     0.186 HD
HETATM   18  C4  UNL     1      -7.826   7.800   9.609  1.00  0.00     0.072 C 
ENDBRANCH   8  10
ENDBRANCH   1   8
BRANCH   4  19
HETATM   19  C8  UNL     1      -2.869   5.306  12.684  1.00  0.00     0.359 C 
BRANCH  19  20
HETATM   20  N5  UNL     1      -3.930   4.524  13.237  1.00  0.00     0.099 N 
HETATM   21  C9  UNL     1      -4.000   4.719  14.650  1.00  0.00     0.303 C 
HETATM   22  C10 UNL     1      -3.625   3.432  15.350  1.00  0.00     0.302 C 
HETATM   23  N6  UNL     1      -4.530   2.349  15.049  1.00  0.00     0.092 N 
HETATM   24  C15 UNL     1      -4.762   2.294  13.641  1.00  0.00     0.302 C 
HETATM   25  C16 UNL     1      -3.750   3.146  12.891  1.00  0.00     0.303 C 
BRANCH  23  26
HETATM   26  C11 UNL     1      -5.708   2.510  15.843  1.00  0.00     0.277 C 
BRANCH  26  27
HETATM   27  C12 UNL     1      -5.918   1.394  16.835  1.00  0.00     0.014 A 
HETATM   28  C13 UNL     1      -7.391   1.204  17.207  1.00  0.00     0.007 A 
HETATM   29  C14 UNL     1      -6.344   1.627  18.213  1.00  0.00     0.007 A 
ENDBRANCH  26  27
ENDBRANCH  23  26
ENDBRANCH  19  20
ENDBRANCH   4  19
TORSDOF 6
ENDMDL
MODEL 3
REMARK VINA RESULT: -6.658211366      1.444      1.554
REMARK  6 active torsions:
REMARK  status: ('A' for Active; 'I' for Inactive)
REMARK    1  A    between atoms: C5_9  and  N3_10 
REMARK    2  A    between atoms: N3_10  and  C6_12 
REMARK    3  A    between atoms: C7_15  and  C8_16 
REMARK    4  A    between atoms: C8_16  and  N5_17 
REMARK    5  A    between atoms: N6_20  and  C11_21 
REMARK    6  A    between atoms: C11_21  and  C12_22 
ROOT
HETATM    1  C6  UNL     1      -5.550   6.083   9.517  1.00  0.00     0.704 A 
HETATM    2  N4  UNL     1      -4.979   4.975  10.018  1.00  0.00    -0.168 N 
ATOM      3  H4  UNL     1      -5.115   4.031   9.657  1.00  0.00     0.186 HD
HETATM    4  C7  UNL     1      -4.201   5.298  11.066  1.00  0.00     0.190 A 
HETATM    5  O1  UNL     1      -4.311   6.600  11.187  1.00  0.00    -0.207 OA
HETATM    6  N7  UNL     1      -5.102   7.092  10.285  1.00  0.00    -0.089 N 
ATOM      7  H7  UNL     1      -5.344   8.077  10.176  1.00  0.00     0.213 HD
ENDROOT
BRANCH   1   8
HETATM    8  N3  UNL     1      -6.370   6.161   8.497  1.00  0.00    -0.186 N 
ATOM      9  H3  UNL     1      -6.940   5.351   8.254  1.00  0.00     0.184 HD
BRANCH   8  10
HETATM   10  C5  UNL     1      -6.483   7.341   7.727  1.00  0.00     0.096 A 
HETATM   11  C2  UNL     1      -7.527   8.266   7.816  1.00  0.00     0.051 A 
HETATM   12  C1  UNL     1      -8.705   8.185   8.727  1.00  0.00     0.072 C 
HETATM   13  N1  UNL     1      -7.220   9.213   6.911  1.00  0.00    -0.303 N 
HETATM   14  N2  UNL     1      -6.088   8.925   6.300  1.00  0.00    -0.303 N 
ATOM     15  H1  UNL     1      -7.786  10.041   6.723  1.00  0.00     0.186 HD
HETATM   16  C3  UNL     1      -5.581   7.767   6.769  1.00  0.00     0.051 A 
ATOM     17  H2  UNL     1      -5.656   9.497   5.575  1.00  0.00     0.186 HD
HETATM   18  C4  UNL     1      -4.313   7.075   6.350  1.00  0.00     0.072 C 
ENDBRANCH   8  10
ENDBRANCH   1   8
BRANCH   4  19
HETATM   19  C8  UNL     1      -3.387   4.354  11.907  1.00  0.00     0.359 C 
BRANCH  19  20
HETATM   20  N5  UNL     1      -4.248   3.590  12.753  1.00  0.00     0.099 N 
HETATM   21  C9  UNL     1      -4.489   4.294  13.972  1.00  0.00     0.303 C 
HETATM   22  C10 UNL     1      -3.852   3.541  15.118  1.00  0.00     0.302 C 
HETATM   23  N6  UNL     1      -4.410   2.222  15.299  1.00  0.00     0.092 N 
HETATM   24  C15 UNL     1      -4.495   1.560  14.037  1.00  0.00     0.302 C 
HETATM   25  C16 UNL     1      -3.682   2.294  12.982  1.00  0.00     0.303 C 
BRANCH  23  26
HETATM   26  C11 UNL     1      -5.653   2.349  15.993  1.00  0.00     0.277 C 
BRANCH  26  27
HETATM   27  C12 UNL     1      -5.905   1.235  16.977  1.00  0.00     0.014 A 
HETATM   28  C13 UNL     1      -7.381   1.117  17.370  1.00  0.00     0.007 A 
HETATM   29  C14 UNL     1      -6.298   1.473  18.363  1.00  0.00     0.007 A 
ENDBRANCH  26  27
ENDBRANCH  23  26
ENDBRANCH  19  20
ENDBRANCH   4  19
TORSDOF 6
ENDMDL
MODEL 4
REMARK VINA RESULT: -6.643988102      1.121      1.281
REMARK  6 active torsions:
REMARK  status: ('A' for Active; 'I' for Inactive)
REMARK    1  A    between atoms: C5_9  and  N3_10 
REMARK    2  A    between atoms: N3_10  and  C6_12 
REMARK    3  A    between atoms: C7_15  and  C8_16 
REMARK    4  A    between atoms: C8_16  and  N5_17 
REMARK    5  A    between atoms: N6_20  and  C11_21 
REMARK    6  A    between atoms: C11_21  and  C12_22 
ROOT
HETATM    1  C6  UNL     1      -3.324   6.325   9.862  1.00  0.00     0.704 A 
HETATM    2  N4  UNL     1      -3.494   6.164  11.185  1.00  0.00    -0.168 N 
ATOM      3  H4  UNL     1      -4.207   6.630  11.746  1.00  0.00     0.186 HD
HETATM    4  C7  UNL     1      -2.583   5.296  11.659  1.00  0.00     0.190 A 
HETATM    5  O1  UNL     1      -1.870   4.941  10.615  1.00  0.00    -0.207 OA
HETATM    6  N7  UNL     1      -2.286   5.534   9.538  1.00  0.00    -0.089 N 
ATOM      7  H7  UNL     1      -1.892   5.420   8.604  1.00  0.00     0.213 HD
ENDROOT
BRANCH   1   8
HETATM    8  N3  UNL     1      -4.022   7.092   9.061  1.00  0.00    -0.186 N 
ATOM      9  H3  UNL     1      -3.791   8.084   8.995  1.00  0.00     0.184 HD
BRANCH   8  10
HETATM   10  C5  UNL     1      -5.085   6.578   8.285  1.00  0.00     0.096 A 
HETATM   11  C2  UNL     1      -6.437   6.620   8.639  1.00  0.00     0.051 A 
HETATM   12  C1  UNL     1      -7.005   7.207   9.887  1.00  0.00     0.072 C 
HETATM   13  N1  UNL     1      -7.076   6.023   7.616  1.00  0.00    -0.303 N 
HETATM   14  N2  UNL     1      -6.218   5.636   6.694  1.00  0.00    -0.303 N 
ATOM     15  H1  UNL     1      -8.085   5.889   7.562  1.00  0.00     0.186 HD
HETATM   16  C3  UNL     1      -4.959   5.955   7.056  1.00  0.00     0.051 A 
ATOM     17  H2  UNL     1      -6.470   5.160   5.827  1.00  0.00     0.186 HD
HETATM   18  C4  UNL     1      -3.685   5.697   6.300  1.00  0.00     0.072 C 
ENDBRANCH   8  10
ENDBRANCH   1   8
BRANCH   4  19
HETATM   19  C8  UNL     1      -2.429   4.841  13.084  1.00  0.00     0.359 C 
BRANCH  19  20
HETATM   20  N5  UNL     1      -3.617   4.170  13.511  1.00  0.00     0.099 N 
HETATM   21  C9  UNL     1      -3.736   4.238  14.932  1.00  0.00     0.303 C 
HETATM   22  C10 UNL     1      -3.582   2.850  15.513  1.00  0.00     0.302 C 
HETATM   23  N6  UNL     1      -4.611   1.942  15.067  1.00  0.00     0.092 N 
HETATM   24  C15 UNL     1      -4.771   2.054  13.653  1.00  0.00     0.302 C 
HETATM   25  C16 UNL     1      -3.611   2.819  13.034  1.00  0.00     0.303 C 
BRANCH  23  26
HETATM   26  C11 UNL     1      -5.796   2.194  15.825  1.00  0.00     0.277 C 
BRANCH  26  27
HETATM   27  C12 UNL     1      -6.017   1.201  16.938  1.00  0.00     0.014 A 
HETATM   28  C13 UNL     1      -7.479   1.137  17.390  1.00  0.00     0.007 A 
HETATM   29  C14 UNL     1      -6.363   1.599  18.300  1.00  0.00     0.007 A 
ENDBRANCH  26  27
ENDBRANCH  23  26
ENDBRANCH  19  20
ENDBRANCH   4  19
TORSDOF 6
ENDMDL
MODEL 5
REMARK VINA RESULT: -6.539256134      1.816      2.505
REMARK  6 active torsions:
REMARK  status: ('A' for Active; 'I' for Inactive)
REMARK    1  A    between atoms: C5_9  and  N3_10 
REMARK    2  A    between atoms: N3_10  and  C6_12 
REMARK    3  A    between atoms: C7_15  and  C8_16 
REMARK    4  A    between atoms: C8_16  and  N5_17 
REMARK    5  A    between atoms: N6_20  and  C11_21 
REMARK    6  A    between atoms: C11_21  and  C12_22 
ROOT
HETATM    1  C6  UNL     1      -5.471   6.048   9.574  1.00  0.00     0.704 A 
HETATM    2  N4  UNL     1      -5.009   5.722  10.792  1.00  0.00    -0.168 N 
ATOM      3  H4  UNL     1      -5.340   6.121  11.671  1.00  0.00     0.186 HD
HETATM    4  C7  UNL     1      -4.046   4.791  10.680  1.00  0.00     0.190 A 
HETATM    5  O1  UNL     1      -3.935   4.564   9.392  1.00  0.00    -0.207 OA
HETATM    6  N7  UNL     1      -4.765   5.293   8.713  1.00  0.00    -0.089 N 
ATOM      7  H7  UNL     1      -4.866   5.294   7.698  1.00  0.00     0.213 HD
ENDROOT
BRANCH   1   8
HETATM    8  N3  UNL     1      -6.408   6.918   9.287  1.00  0.00    -0.186 N 
ATOM      9  H3  UNL     1      -7.223   6.615   8.753  1.00  0.00     0.184 HD
BRANCH   8  10
HETATM   10  C5  UNL     1      -6.315   8.267   9.698  1.00  0.00     0.096 A 
HETATM   11  C2  UNL     1      -6.859   8.792  10.874  1.00  0.00     0.051 A 
HETATM   12  C1  UNL     1      -7.630   8.038  11.904  1.00  0.00     0.072 C 
HETATM   13  N1  UNL     1      -6.528  10.096  10.850  1.00  0.00    -0.303 N 
HETATM   14  N2  UNL     1      -5.838  10.381   9.764  1.00  0.00    -0.303 N 
ATOM     15  H1  UNL     1      -6.777  10.771  11.572  1.00  0.00     0.186 HD
HETATM   16  C3  UNL     1      -5.674   9.279   9.006  1.00  0.00     0.051 A 
ATOM     17  H2  UNL     1      -5.479  11.307   9.529  1.00  0.00     0.186 HD
HETATM   18  C4  UNL     1      -4.953   9.158   7.692  1.00  0.00     0.072 C 
ENDBRANCH   8  10
ENDBRANCH   1   8
BRANCH   4  19
HETATM   19  C8  UNL     1      -3.273   4.156  11.804  1.00  0.00     0.359 C 
BRANCH  19  20
HETATM   20  N5  UNL     1      -4.166   3.468  12.681  1.00  0.00     0.099 N 
HETATM   21  C9  UNL     1      -4.350   4.217  13.883  1.00  0.00     0.303 C 
HETATM   22  C10 UNL     1      -3.742   3.459  15.041  1.00  0.00     0.302 C 
HETATM   23  N6  UNL     1      -4.374   2.182  15.265  1.00  0.00     0.092 N 
HETATM   24  C15 UNL     1      -4.515   1.492  14.024  1.00  0.00     0.302 C 
HETATM   25  C16 UNL     1      -3.674   2.147  12.939  1.00  0.00     0.303 C 
BRANCH  23  26
HETATM   26  C11 UNL     1      -5.598   2.400  15.970  1.00  0.00     0.277 C 
BRANCH  26  27
HETATM   27  C12 UNL     1      -5.915   1.316  16.969  1.00  0.00     0.014 A 
HETATM   28  C13 UNL     1      -7.416   1.188  17.245  1.00  0.00     0.007 A 
HETATM   29  C14 UNL     1      -6.422   1.595  18.310  1.00  0.00     0.007 A 
ENDBRANCH  26  27
ENDBRANCH  23  26
ENDBRANCH  19  20
ENDBRANCH   4  19
TORSDOF 6
ENDMDL
