MODEL 1
REMARK VINA RESULT: -6.762565508      0.000      0.000
REMARK  10 active torsions:
REMARK  status: ('A' for Active; 'I' for Inactive)
REMARK    1  A    between atoms: C2_2  and  C4_4 
REMARK    2  A    between atoms: C4_4  and  C5_5 
REMARK    3  A    between atoms: C5_5  and  C6_6 
REMARK    4  A    between atoms: C6_6  and  C7_7 
REMARK    5  A    between atoms: C8_8  and  O1_9 
REMARK    6  A    between atoms: C9_11  and  O2_12 
REMARK    7  A    between atoms: C13_17  and  S1_18 
REMARK    8  A    between atoms: S1_18  and  C14_19 
REMARK    9  A    between atoms: C15_23  and  N2_24 
REMARK   10  A    between atoms: C16_28  and  O3_29 
ROOT
HETATM    1  C7  UNL     1       4.994  -5.792  38.003  1.00  0.00     0.031 C 
HETATM    2  C8  UNL     1       3.815  -4.888  38.000  1.00  0.00     0.152 C 
HETATM    3  C9  UNL     1       3.094  -4.822  36.649  1.00  0.00     0.147 C 
HETATM    4  C10 UNL     1       4.135  -4.822  35.586  1.00  0.00     0.039 C 
HETATM    5  C11 UNL     1       4.693  -6.235  35.529  1.00  0.00    -0.002 C 
HETATM    6  C12 UNL     1       3.665  -7.106  34.849  1.00  0.00     0.011 C 
HETATM    7  C13 UNL     1       5.090  -6.770  36.884  1.00  0.00     0.061 C 
ENDROOT
BRANCH   7   8
HETATM    8  S1  UNL     1       6.823  -7.331  36.687  1.00  0.00    -0.103 SA
BRANCH   8   9
HETATM    9  C14 UNL     1       7.062  -8.083  35.055  1.00  0.00     0.450 C 
HETATM   10  N1  UNL     1       8.246  -7.582  34.415  1.00  0.00    -0.004 N 
HETATM   11  C15 UNL     1       9.283  -8.499  34.775  1.00  0.00     0.439 C 
ATOM     12  H12 UNL     1       8.146  -7.448  33.409  1.00  0.00     0.283 HD
ATOM     13  H11 UNL     1       8.458  -6.611  34.643  1.00  0.00     0.283 HD
HETATM   14  C16 UNL     1       8.611  -9.803  35.054  1.00  0.00     0.380 C 
HETATM   15  N3  UNL     1       7.228  -9.492  35.111  1.00  0.00    -0.007 N 
ATOM     16  H32 UNL     1       6.772  -9.903  35.925  1.00  0.00     0.283 HD
ATOM     17  H31 UNL     1       6.693  -9.974  34.388  1.00  0.00     0.283 HD
BRANCH  11  18
HETATM   18  N2  UNL     1      10.170  -8.698  33.631  1.00  0.00    -0.046 N 
ATOM     19  H23 UNL     1       9.759  -9.308  32.925  1.00  0.00     0.277 HD
ATOM     20  H22 UNL     1      10.260  -7.857  33.061  1.00  0.00     0.277 HD
ATOM     21  H21 UNL     1      11.073  -9.041  33.960  1.00  0.00     0.277 HD
ENDBRANCH  11  18
BRANCH  14  22
HETATM   22  O3  UNL     1       8.804 -10.746  34.044  1.00  0.00    -0.367 OA
ATOM     23  H3  UNL     1       8.034 -10.876  33.503  1.00  0.00     0.212 HD
ENDBRANCH  14  22
ENDBRANCH   8   9
ENDBRANCH   7   8
BRANCH   1  24
HETATM   24  C6  UNL     1       5.053  -6.516  39.305  1.00  0.00     0.008 C 
BRANCH  24  25
HETATM   25  C5  UNL     1       4.831  -7.986  39.264  1.00  0.00     0.001 C 
BRANCH  25  26
HETATM   26  C4  UNL     1       3.567  -8.407  39.965  1.00  0.00     0.004 C 
BRANCH  26  27
HETATM   27  C2  UNL     1       2.874  -9.584  39.345  1.00  0.00    -0.023 C 
HETATM   28  C1  UNL     1       3.238  -9.550  37.853  1.00  0.00     0.009 C 
HETATM   29  C3  UNL     1       1.394  -9.612  39.522  1.00  0.00     0.009 C 
ENDBRANCH  26  27
ENDBRANCH  25  26
ENDBRANCH  24  25
ENDBRANCH   1  24
BRANCH   2  30
HETATM   30  O1  UNL     1       2.780  -5.309  38.871  1.00  0.00    -0.393 OA
ATOM     31  H1  UNL     1       2.709  -4.781  39.658  1.00  0.00     0.210 HD
ENDBRANCH   2  30
BRANCH   3  32
HETATM   32  O2  UNL     1       2.252  -3.735  36.635  1.00  0.00    -0.393 OA
ATOM     33  H2  UNL     1       1.636  -3.823  35.917  1.00  0.00     0.210 HD
ENDBRANCH   3  32
TORSDOF 10
ENDMDL
MODEL 2
REMARK VINA RESULT: -6.753619872      2.936      5.717
REMARK  10 active torsions:
REMARK  status: ('A' for Active; 'I' for Inactive)
REMARK    1  A    between atoms: C2_2  and  C4_4 
REMARK    2  A    between atoms: C4_4  and  C5_5 
REMARK    3  A    between atoms: C5_5  and  C6_6 
REMARK    4  A    between atoms: C6_6  and  C7_7 
REMARK    5  A    between atoms: C8_8  and  O1_9 
REMARK    6  A    between atoms: C9_11  and  O2_12 
REMARK    7  A    between atoms: C13_17  and  S1_18 
REMARK    8  A    between atoms: S1_18  and  C14_19 
REMARK    9  A    between atoms: C15_23  and  N2_24 
REMARK   10  A    between atoms: C16_28  and  O3_29 
ROOT
HETATM    1  C7  UNL     1       5.483  -8.393  35.066  1.00  0.00     0.031 C 
HETATM    2  C8  UNL     1       6.028  -8.438  33.686  1.00  0.00     0.152 C 
HETATM    3  C9  UNL     1       7.378  -7.726  33.534  1.00  0.00     0.147 C 
HETATM    4  C10 UNL     1       7.326  -6.490  34.360  1.00  0.00     0.039 C 
HETATM    5  C11 UNL     1       7.415  -6.937  35.810  1.00  0.00    -0.002 C 
HETATM    6  C12 UNL     1       8.845  -7.339  36.080  1.00  0.00     0.011 C 
HETATM    7  C13 UNL     1       6.438  -8.037  36.152  1.00  0.00     0.061 C 
ENDROOT
BRANCH   7   8
HETATM    8  S1  UNL     1       5.524  -7.425  37.617  1.00  0.00    -0.103 SA
BRANCH   8   9
HETATM    9  C14 UNL     1       5.391  -5.617  37.569  1.00  0.00     0.450 C 
HETATM   10  N1  UNL     1       4.512  -5.184  36.519  1.00  0.00    -0.004 N 
HETATM   11  C15 UNL     1       3.225  -5.068  37.132  1.00  0.00     0.439 C 
ATOM     12  H12 UNL     1       4.821  -4.335  36.047  1.00  0.00     0.283 HD
ATOM     13  H11 UNL     1       4.524  -5.787  35.697  1.00  0.00     0.283 HD
HETATM   14  C16 UNL     1       3.473  -4.810  38.582  1.00  0.00     0.380 C 
HETATM   15  N3  UNL     1       4.856  -5.067  38.764  1.00  0.00    -0.007 N 
ATOM     16  H32 UNL     1       5.037  -5.657  39.576  1.00  0.00     0.283 HD
ATOM     17  H31 UNL     1       5.366  -4.239  39.071  1.00  0.00     0.283 HD
BRANCH  11  18
HETATM   18  N2  UNL     1       2.535  -3.901  36.590  1.00  0.00    -0.046 N 
ATOM     19  H23 UNL     1       1.598  -3.791  36.977  1.00  0.00     0.277 HD
ATOM     20  H22 UNL     1       2.934  -3.024  36.927  1.00  0.00     0.277 HD
ATOM     21  H21 UNL     1       2.528  -3.955  35.571  1.00  0.00     0.277 HD
ENDBRANCH  11  18
BRANCH  14  22
HETATM   22  O3  UNL     1       3.224  -3.488  38.954  1.00  0.00    -0.367 OA
ATOM     23  H3  UNL     1       3.561  -3.273  39.815  1.00  0.00     0.212 HD
ENDBRANCH  14  22
ENDBRANCH   8   9
ENDBRANCH   7   8
BRANCH   1  24
HETATM   24  C6  UNL     1       4.836  -9.700  35.380  1.00  0.00     0.008 C 
BRANCH  24  25
HETATM   25  C5  UNL     1       3.359  -9.693  35.546  1.00  0.00     0.001 C 
BRANCH  25  26
HETATM   26  C4  UNL     1       2.917 -10.212  36.888  1.00  0.00     0.004 C 
BRANCH  26  27
HETATM   27  C2  UNL     1       1.769 -11.176  36.837  1.00  0.00    -0.023 C 
HETATM   28  C1  UNL     1       1.293 -11.186  35.377  1.00  0.00     0.009 C 
HETATM   29  C3  UNL     1       0.636 -10.860  37.754  1.00  0.00     0.009 C 
ENDBRANCH  26  27
ENDBRANCH  25  26
ENDBRANCH  24  25
ENDBRANCH   1  24
BRANCH   2  30
HETATM   30  O1  UNL     1       6.330  -9.749  33.241  1.00  0.00    -0.393 OA
ATOM     31  H1  UNL     1       7.075  -9.787  32.652  1.00  0.00     0.210 HD
ENDBRANCH   2  30
BRANCH   3  32
HETATM   32  O2  UNL     1       7.636  -7.521  32.199  1.00  0.00    -0.393 OA
ATOM     33  H2  UNL     1       7.564  -6.594  32.004  1.00  0.00     0.210 HD
ENDBRANCH   3  32
TORSDOF 10
ENDMDL
MODEL 3
REMARK VINA RESULT: -6.650757013      2.703      5.779
REMARK  10 active torsions:
REMARK  status: ('A' for Active; 'I' for Inactive)
REMARK    1  A    between atoms: C2_2  and  C4_4 
REMARK    2  A    between atoms: C4_4  and  C5_5 
REMARK    3  A    between atoms: C5_5  and  C6_6 
REMARK    4  A    between atoms: C6_6  and  C7_7 
REMARK    5  A    between atoms: C8_8  and  O1_9 
REMARK    6  A    between atoms: C9_11  and  O2_12 
REMARK    7  A    between atoms: C13_17  and  S1_18 
REMARK    8  A    between atoms: S1_18  and  C14_19 
REMARK    9  A    between atoms: C15_23  and  N2_24 
REMARK   10  A    between atoms: C16_28  and  O3_29 
ROOT
HETATM    1  C7  UNL     1       6.059  -8.654  34.934  1.00  0.00     0.031 C 
HETATM    2  C8  UNL     1       6.742  -9.951  34.691  1.00  0.00     0.152 C 
HETATM    3  C9  UNL     1       8.269  -9.839  34.625  1.00  0.00     0.147 C 
HETATM    4  C10 UNL     1       8.594  -8.586  33.892  1.00  0.00     0.039 C 
HETATM    5  C11 UNL     1       8.276  -7.439  34.838  1.00  0.00    -0.002 C 
HETATM    6  C12 UNL     1       9.367  -7.388  35.880  1.00  0.00     0.011 C 
HETATM    7  C13 UNL     1       6.901  -7.541  35.453  1.00  0.00     0.061 C 
ENDROOT
BRANCH   7   8
HETATM    8  S1  UNL     1       6.100  -5.932  35.102  1.00  0.00    -0.103 SA
BRANCH   8   9
HETATM    9  C14 UNL     1       5.914  -4.971  36.628  1.00  0.00     0.450 C 
HETATM   10  N1  UNL     1       4.548  -4.582  36.839  1.00  0.00    -0.004 N 
HETATM   11  C15 UNL     1       3.985  -5.616  37.651  1.00  0.00     0.439 C 
ATOM     12  H12 UNL     1       4.442  -3.647  37.231  1.00  0.00     0.283 HD
ATOM     13  H11 UNL     1       4.032  -4.408  35.977  1.00  0.00     0.283 HD
HETATM   14  C16 UNL     1       5.121  -6.220  38.408  1.00  0.00     0.380 C 
HETATM   15  N3  UNL     1       6.287  -5.697  37.790  1.00  0.00    -0.007 N 
ATOM     16  H32 UNL     1       6.977  -6.420  37.590  1.00  0.00     0.283 HD
ATOM     17  H31 UNL     1       6.847  -5.137  38.433  1.00  0.00     0.283 HD
BRANCH  11  18
HETATM   18  N2  UNL     1       3.074  -5.022  38.626  1.00  0.00    -0.046 N 
ATOM     19  H23 UNL     1       2.370  -5.685  38.951  1.00  0.00     0.277 HD
ATOM     20  H22 UNL     1       3.529  -4.844  39.522  1.00  0.00     0.277 HD
ATOM     21  H21 UNL     1       2.657  -4.179  38.230  1.00  0.00     0.277 HD
ENDBRANCH  11  18
BRANCH  14  22
HETATM   22  O3  UNL     1       5.140  -5.852  39.754  1.00  0.00    -0.367 OA
ATOM     23  H3  UNL     1       4.288  -5.589  40.082  1.00  0.00     0.212 HD
ENDBRANCH  14  22
ENDBRANCH   8   9
ENDBRANCH   7   8
BRANCH   1  24
HETATM   24  C6  UNL     1       4.903  -8.874  35.851  1.00  0.00     0.008 C 
BRANCH  24  25
HETATM   25  C5  UNL     1       3.546  -8.777  35.252  1.00  0.00     0.001 C 
BRANCH  25  26
HETATM   26  C4  UNL     1       2.817 -10.095  35.235  1.00  0.00     0.004 C 
BRANCH  26  27
HETATM   27  C2  UNL     1       3.088 -10.971  36.422  1.00  0.00    -0.023 C 
HETATM   28  C1  UNL     1       3.297 -12.386  35.862  1.00  0.00     0.009 C 
HETATM   29  C3  UNL     1       2.021 -10.973  37.463  1.00  0.00     0.009 C 
ENDBRANCH  26  27
ENDBRANCH  25  26
ENDBRANCH  24  25
ENDBRANCH   1  24
BRANCH   2  30
HETATM   30  O1  UNL     1       6.555 -10.891  35.735  1.00  0.00    -0.393 OA
ATOM     31  H1  UNL     1       7.293 -11.478  35.851  1.00  0.00     0.210 HD
ENDBRANCH   2  30
BRANCH   3  32
HETATM   32  O2  UNL     1       8.786 -10.986  34.071  1.00  0.00    -0.393 OA
ATOM     33  H2  UNL     1       8.452 -11.086  33.187  1.00  0.00     0.210 HD
ENDBRANCH   3  32
TORSDOF 10
ENDMDL
MODEL 4
REMARK VINA RESULT: -6.616534258      3.413      5.348
REMARK  10 active torsions:
REMARK  status: ('A' for Active; 'I' for Inactive)
REMARK    1  A    between atoms: C2_2  and  C4_4 
REMARK    2  A    between atoms: C4_4  and  C5_5 
REMARK    3  A    between atoms: C5_5  and  C6_6 
REMARK    4  A    between atoms: C6_6  and  C7_7 
REMARK    5  A    between atoms: C8_8  and  O1_9 
REMARK    6  A    between atoms: C9_11  and  O2_12 
REMARK    7  A    between atoms: C13_17  and  S1_18 
REMARK    8  A    between atoms: S1_18  and  C14_19 
REMARK    9  A    between atoms: C15_23  and  N2_24 
REMARK   10  A    between atoms: C16_28  and  O3_29 
ROOT
HETATM    1  C7  UNL     1       5.166  -7.503  35.312  1.00  0.00     0.031 C 
HETATM    2  C8  UNL     1       6.157  -7.771  34.238  1.00  0.00     0.152 C 
HETATM    3  C9  UNL     1       7.273  -6.723  34.154  1.00  0.00     0.147 C 
HETATM    4  C10 UNL     1       6.653  -5.392  34.391  1.00  0.00     0.039 C 
HETATM    5  C11 UNL     1       6.327  -5.326  35.875  1.00  0.00    -0.002 C 
HETATM    6  C12 UNL     1       7.623  -5.116  36.620  1.00  0.00     0.011 C 
HETATM    7  C13 UNL     1       5.572  -6.535  36.369  1.00  0.00     0.061 C 
ENDROOT
BRANCH   7   8
HETATM    8  S1  UNL     1       4.087  -5.862  37.206  1.00  0.00    -0.103 SA
BRANCH   8   9
HETATM    9  C14 UNL     1       4.191  -6.135  38.995  1.00  0.00     0.450 C 
HETATM   10  N1  UNL     1       3.157  -7.022  39.450  1.00  0.00    -0.004 N 
HETATM   11  C15 UNL     1       3.740  -8.327  39.413  1.00  0.00     0.439 C 
ATOM     12  H12 UNL     1       2.769  -6.770  40.358  1.00  0.00     0.283 HD
ATOM     13  H11 UNL     1       2.287  -6.945  38.924  1.00  0.00     0.283 HD
HETATM   14  C16 UNL     1       5.213  -8.133  39.561  1.00  0.00     0.380 C 
HETATM   15  N3  UNL     1       5.412  -6.738  39.396  1.00  0.00    -0.007 N 
ATOM     16  H32 UNL     1       6.176  -6.530  38.753  1.00  0.00     0.283 HD
ATOM     17  H31 UNL     1       5.804  -6.302  40.230  1.00  0.00     0.283 HD
BRANCH  11  18
HETATM   18  N2  UNL     1       3.280  -9.095  40.567  1.00  0.00    -0.046 N 
ATOM     19  H23 UNL     1       2.613  -8.574  41.137  1.00  0.00     0.277 HD
ATOM     20  H22 UNL     1       2.669  -9.867  40.300  1.00  0.00     0.277 HD
ATOM     21  H21 UNL     1       4.086  -9.410  41.107  1.00  0.00     0.277 HD
ENDBRANCH  11  18
BRANCH  14  22
HETATM   22  O3  UNL     1       5.689  -8.494  40.822  1.00  0.00    -0.367 OA
ATOM     23  H3  UNL     1       6.567  -8.857  40.800  1.00  0.00     0.212 HD
ENDBRANCH  14  22
ENDBRANCH   8   9
ENDBRANCH   7   8
BRANCH   1  24
HETATM   24  C6  UNL     1       4.768  -8.794  35.944  1.00  0.00     0.008 C 
BRANCH  24  25
HETATM   25  C5  UNL     1       3.410  -9.306  35.620  1.00  0.00     0.001 C 
BRANCH  25  26
HETATM   26  C4  UNL     1       2.970 -10.417  36.536  1.00  0.00     0.004 C 
BRANCH  26  27
HETATM   27  C2  UNL     1       1.549 -10.857  36.343  1.00  0.00    -0.023 C 
HETATM   28  C1  UNL     1       0.899 -10.808  37.734  1.00  0.00     0.009 C 
HETATM   29  C3  UNL     1       1.382 -12.209  35.736  1.00  0.00     0.009 C 
ENDBRANCH  26  27
ENDBRANCH  25  26
ENDBRANCH  24  25
ENDBRANCH   1  24
BRANCH   2  30
HETATM   30  O1  UNL     1       6.886  -8.970  34.430  1.00  0.00    -0.393 OA
ATOM     31  H1  UNL     1       7.821  -8.833  34.529  1.00  0.00     0.210 HD
ENDBRANCH   2  30
BRANCH   3  32
HETATM   32  O2  UNL     1       7.929  -6.852  32.953  1.00  0.00    -0.393 OA
ATOM     33  H2  UNL     1       7.581  -7.600  32.483  1.00  0.00     0.210 HD
ENDBRANCH   3  32
TORSDOF 10
ENDMDL
MODEL 5
REMARK VINA RESULT: -6.571141922      2.773      6.010
REMARK  10 active torsions:
REMARK  status: ('A' for Active; 'I' for Inactive)
REMARK    1  A    between atoms: C2_2  and  C4_4 
REMARK    2  A    between atoms: C4_4  and  C5_5 
REMARK    3  A    between atoms: C5_5  and  C6_6 
REMARK    4  A    between atoms: C6_6  and  C7_7 
REMARK    5  A    between atoms: C8_8  and  O1_9 
REMARK    6  A    between atoms: C9_11  and  O2_12 
REMARK    7  A    between atoms: C13_17  and  S1_18 
REMARK    8  A    between atoms: S1_18  and  C14_19 
REMARK    9  A    between atoms: C15_23  and  N2_24 
REMARK   10  A    between atoms: C16_28  and  O3_29 
ROOT
HETATM    1  C7  UNL     1       6.948  -9.055  35.265  1.00  0.00     0.031 C 
HETATM    2  C8  UNL     1       8.189  -9.852  35.447  1.00  0.00     0.152 C 
HETATM    3  C9  UNL     1       9.430  -9.000  35.740  1.00  0.00     0.147 C 
HETATM    4  C10 UNL     1       9.348  -7.785  34.886  1.00  0.00     0.039 C 
HETATM    5  C11 UNL     1       8.265  -6.906  35.489  1.00  0.00    -0.002 C 
HETATM    6  C12 UNL     1       8.829  -6.275  36.739  1.00  0.00     0.011 C 
HETATM    7  C13 UNL     1       6.978  -7.649  35.755  1.00  0.00     0.061 C 
ENDROOT
BRANCH   7   8
HETATM    8  S1  UNL     1       5.678  -6.666  34.919  1.00  0.00    -0.103 SA
BRANCH   8   9
HETATM    9  C14 UNL     1       5.456  -5.072  35.754  1.00  0.00     0.450 C 
HETATM   10  N1  UNL     1       4.206  -4.463  35.397  1.00  0.00    -0.004 N 
HETATM   11  C15 UNL     1       3.279  -4.895  36.397  1.00  0.00     0.439 C 
ATOM     12  H12 UNL     1       4.255  -3.450  35.292  1.00  0.00     0.283 HD
ATOM     13  H11 UNL     1       3.906  -4.665  34.443  1.00  0.00     0.283 HD
HETATM   14  C16 UNL     1       4.087  -5.193  37.617  1.00  0.00     0.380 C 
HETATM   15  N3  UNL     1       5.434  -5.183  37.169  1.00  0.00    -0.007 N 
ATOM     16  H32 UNL     1       5.958  -5.993  37.502  1.00  0.00     0.283 HD
ATOM     17  H31 UNL     1       5.987  -4.457  37.624  1.00  0.00     0.283 HD
BRANCH  11  18
HETATM   18  N2  UNL     1       2.375  -3.796  36.726  1.00  0.00    -0.046 N 
ATOM     19  H23 UNL     1       1.448  -4.125  36.995  1.00  0.00     0.277 HD
ATOM     20  H22 UNL     1       2.626  -3.339  37.603  1.00  0.00     0.277 HD
ATOM     21  H21 UNL     1       2.342  -3.140  35.945  1.00  0.00     0.277 HD
ENDBRANCH  11  18
BRANCH  14  22
HETATM   22  O3  UNL     1       3.953  -4.225  38.613  1.00  0.00    -0.367 OA
ATOM     23  H3  UNL     1       4.098  -4.567  39.487  1.00  0.00     0.212 HD
ENDBRANCH  14  22
ENDBRANCH   8   9
ENDBRANCH   7   8
BRANCH   1  24
HETATM   24  C6  UNL     1       5.805  -9.778  35.893  1.00  0.00     0.008 C 
BRANCH  24  25
HETATM   25  C5  UNL     1       4.716 -10.226  34.985  1.00  0.00     0.001 C 
BRANCH  25  26
HETATM   26  C4  UNL     1       3.346  -9.847  35.482  1.00  0.00     0.004 C 
BRANCH  26  27
HETATM   27  C2  UNL     1       2.759 -10.804  36.477  1.00  0.00    -0.023 C 
HETATM   28  C1  UNL     1       1.418 -11.259  35.884  1.00  0.00     0.009 C 
HETATM   29  C3  UNL     1       2.563 -10.249  37.848  1.00  0.00     0.009 C 
ENDBRANCH  26  27
ENDBRANCH  25  26
ENDBRANCH  24  25
ENDBRANCH   1  24
BRANCH   2  30
HETATM   30  O1  UNL     1       8.145 -10.713  36.571  1.00  0.00    -0.393 OA
ATOM     31  H1  UNL     1       8.964 -10.750  37.052  1.00  0.00     0.210 HD
ENDBRANCH   2  30
BRANCH   3  32
HETATM   32  O2  UNL     1      10.559  -9.763  35.557  1.00  0.00    -0.393 OA
ATOM     33  H2  UNL     1      10.866 -10.077  36.399  1.00  0.00     0.210 HD
ENDBRANCH   3  32
TORSDOF 10
ENDMDL
