MODEL 1
REMARK VINA RESULT: -6.837755163      0.000      0.000
REMARK  8 active torsions:
REMARK  status: ('A' for Active; 'I' for Inactive)
REMARK    1  A    between atoms: C2_2  and  C4_4 
REMARK    2  A    between atoms: C4_4  and  S1_8 
REMARK    3  A    between atoms: S1_8  and  S2_11 
REMARK    4  A    between atoms: S2_11  and  C5_12 
REMARK    5  A    between atoms: C5_12  and  C6_13 
REMARK    6  A    between atoms: C6_13  and  O3_14 
REMARK    7  A    between atoms: C8_17  and  O4_18 
REMARK    8  A    between atoms: C11_22  and  O5_23 
ROOT
HETATM    1  C5  UNL     1       1.173   4.095   6.380  1.00  0.00     0.072 C 
HETATM    2  C7  UNL     1      -0.342   4.074   6.119  1.00  0.00     0.058 C 
HETATM    3  C8  UNL     1      -0.743   5.394   5.544  1.00  0.00     0.120 C 
HETATM    4  C9  UNL     1      -0.047   5.728   4.265  1.00  0.00     0.034 C 
HETATM    5  C10 UNL     1       1.409   5.400   4.257  1.00  0.00     0.036 C 
HETATM    6  C11 UNL     1       1.792   4.159   4.972  1.00  0.00     0.140 C 
ENDROOT
BRANCH   1   7
HETATM    7  S2  UNL     1       1.752   2.721   7.184  1.00  0.00    -0.016 SA
BRANCH   7   8
HETATM    8  S1  UNL     1       0.371   1.898   8.470  1.00  0.00     0.242 S 
HETATM    9  O1  UNL     1      -0.541   0.851   7.942  1.00  0.00    -0.210 OA
HETATM   10  O2  UNL     1      -0.302   2.868   9.384  1.00  0.00    -0.210 OA
BRANCH   8  11
HETATM   11  C4  UNL     1       1.586   1.060   9.388  1.00  0.00     0.113 C 
HETATM   12  N1  UNL     1       2.642   0.629   8.818  1.00  0.00    -0.392 N 
ATOM     13  H12 UNL     1       3.355   0.137   9.358  1.00  0.00     0.156 HD
ATOM     14  H11 UNL     1       2.786   0.770   7.819  1.00  0.00     0.156 HD
BRANCH  11  15
HETATM   15  C2  UNL     1       1.375   0.854  10.851  1.00  0.00     0.040 C 
HETATM   16  C1  UNL     1       0.192  -0.045  11.122  1.00  0.00     0.016 C 
HETATM   17  C3  UNL     1       2.594   0.213  11.490  1.00  0.00     0.016 C 
ENDBRANCH  11  15
ENDBRANCH   8  11
ENDBRANCH   7   8
ENDBRANCH   1   7
BRANCH   1  18
HETATM   18  C6  UNL     1       1.537   5.391   7.071  1.00  0.00     0.188 C 
BRANCH  18  19
HETATM   19  O3  UNL     1       1.226   5.414   8.409  1.00  0.00    -0.399 OA
ATOM     20  H3  UNL     1       0.886   6.248   8.711  1.00  0.00     0.209 HD
ENDBRANCH  18  19
ENDBRANCH   1  18
BRANCH   6  21
HETATM   21  O5  UNL     1       3.176   4.150   5.169  1.00  0.00    -0.394 OA
ATOM     22  H5  UNL     1       3.528   3.588   4.488  1.00  0.00     0.210 HD
ENDBRANCH   6  21
BRANCH   3  23
HETATM   23  O4  UNL     1      -2.124   5.333   5.240  1.00  0.00    -0.396 OA
ATOM     24  H4  UNL     1      -2.209   5.148   4.312  1.00  0.00     0.210 HD
ENDBRANCH   3  23
TORSDOF 8
ENDMDL
MODEL 2
REMARK VINA RESULT: -6.741548226      2.236      3.731
REMARK  8 active torsions:
REMARK  status: ('A' for Active; 'I' for Inactive)
REMARK    1  A    between atoms: C2_2  and  C4_4 
REMARK    2  A    between atoms: C4_4  and  S1_8 
REMARK    3  A    between atoms: S1_8  and  S2_11 
REMARK    4  A    between atoms: S2_11  and  C5_12 
REMARK    5  A    between atoms: C5_12  and  C6_13 
REMARK    6  A    between atoms: C6_13  and  O3_14 
REMARK    7  A    between atoms: C8_17  and  O4_18 
REMARK    8  A    between atoms: C11_22  and  O5_23 
ROOT
HETATM    1  C5  UNL     1      -1.565   4.579   6.780  1.00  0.00     0.072 C 
HETATM    2  C7  UNL     1      -1.411   5.851   5.932  1.00  0.00     0.058 C 
HETATM    3  C8  UNL     1      -2.444   6.840   6.367  1.00  0.00     0.120 C 
HETATM    4  C9  UNL     1      -2.343   7.217   7.809  1.00  0.00     0.034 C 
HETATM    5  C10 UNL     1      -2.076   6.069   8.724  1.00  0.00     0.036 C 
HETATM    6  C11 UNL     1      -1.165   5.026   8.198  1.00  0.00     0.140 C 
ENDROOT
BRANCH   1   7
HETATM    7  S2  UNL     1      -0.564   3.301   6.293  1.00  0.00    -0.016 SA
BRANCH   7   8
HETATM    8  S1  UNL     1       1.326   3.404   7.102  1.00  0.00     0.242 S 
HETATM    9  O1  UNL     1       1.597   4.453   8.118  1.00  0.00    -0.210 OA
HETATM   10  O2  UNL     1       2.443   3.213   6.131  1.00  0.00    -0.210 OA
BRANCH   8  11
HETATM   11  C4  UNL     1       1.131   1.919   7.984  1.00  0.00     0.113 C 
HETATM   12  N1  UNL     1       0.024   1.287   7.947  1.00  0.00    -0.392 N 
ATOM     13  H12 UNL     1      -0.090   0.415   8.465  1.00  0.00     0.156 HD
ATOM     14  H11 UNL     1      -0.759   1.645   7.401  1.00  0.00     0.156 HD
BRANCH  11  15
HETATM   15  C2  UNL     1       2.277   1.395   8.783  1.00  0.00     0.040 C 
HETATM   16  C1  UNL     1       1.812   0.754  10.069  1.00  0.00     0.016 C 
HETATM   17  C3  UNL     1       3.049   0.347   8.002  1.00  0.00     0.016 C 
ENDBRANCH  11  15
ENDBRANCH   8  11
ENDBRANCH   7   8
ENDBRANCH   1   7
BRANCH   1  18
HETATM   18  C6  UNL     1      -3.029   4.201   6.844  1.00  0.00     0.188 C 
BRANCH  18  19
HETATM   19  O3  UNL     1      -3.259   2.850   6.745  1.00  0.00    -0.399 OA
ATOM     20  H3  UNL     1      -4.175   2.622   6.641  1.00  0.00     0.209 HD
ENDBRANCH  18  19
ENDBRANCH   1  18
BRANCH   6  21
HETATM   21  O5  UNL     1      -1.265   3.882   8.996  1.00  0.00    -0.394 OA
ATOM     22  H5  UNL     1      -0.423   3.796   9.427  1.00  0.00     0.210 HD
ENDBRANCH   6  21
BRANCH   3  23
HETATM   23  O4  UNL     1      -2.241   8.031   5.630  1.00  0.00    -0.396 OA
ATOM     24  H4  UNL     1      -2.979   8.605   5.797  1.00  0.00     0.210 HD
ENDBRANCH   3  23
TORSDOF 8
ENDMDL
MODEL 3
REMARK VINA RESULT: -6.548156874      1.215      2.066
REMARK  8 active torsions:
REMARK  status: ('A' for Active; 'I' for Inactive)
REMARK    1  A    between atoms: C2_2  and  C4_4 
REMARK    2  A    between atoms: C4_4  and  S1_8 
REMARK    3  A    between atoms: S1_8  and  S2_11 
REMARK    4  A    between atoms: S2_11  and  C5_12 
REMARK    5  A    between atoms: C5_12  and  C6_13 
REMARK    6  A    between atoms: C6_13  and  O3_14 
REMARK    7  A    between atoms: C8_17  and  O4_18 
REMARK    8  A    between atoms: C11_22  and  O5_23 
ROOT
HETATM    1  C5  UNL     1       0.675   4.025   6.244  1.00  0.00     0.072 C 
HETATM    2  C7  UNL     1       1.132   4.083   4.777  1.00  0.00     0.058 C 
HETATM    3  C8  UNL     1       0.226   5.012   4.035  1.00  0.00     0.120 C 
HETATM    4  C9  UNL     1       0.211   6.402   4.582  1.00  0.00     0.034 C 
HETATM    5  C10 UNL     1       0.179   6.472   6.072  1.00  0.00     0.036 C 
HETATM    6  C11 UNL     1       0.968   5.437   6.782  1.00  0.00     0.140 C 
ENDROOT
BRANCH   1   7
HETATM    7  S2  UNL     1       1.509   2.885   7.179  1.00  0.00    -0.016 SA
BRANCH   7   8
HETATM    8  S1  UNL     1       0.297   1.898   8.518  1.00  0.00     0.242 S 
HETATM    9  O1  UNL     1      -0.551   0.790   8.010  1.00  0.00    -0.210 OA
HETATM   10  O2  UNL     1      -0.397   2.772   9.510  1.00  0.00    -0.210 OA
BRANCH   8  11
HETATM   11  C4  UNL     1       1.641   1.145   9.324  1.00  0.00     0.113 C 
HETATM   12  N1  UNL     1       2.683   0.813   8.668  1.00  0.00    -0.392 N 
ATOM     13  H12 UNL     1       3.471   0.371   9.141  1.00  0.00     0.156 HD
ATOM     14  H11 UNL     1       2.740   0.984   7.664  1.00  0.00     0.156 HD
BRANCH  11  15
HETATM   15  C2  UNL     1       1.558   0.894  10.793  1.00  0.00     0.040 C 
HETATM   16  C1  UNL     1       0.419  -0.038  11.134  1.00  0.00     0.016 C 
HETATM   17  C3  UNL     1       2.838   0.264  11.309  1.00  0.00     0.016 C 
ENDBRANCH  11  15
ENDBRANCH   8  11
ENDBRANCH   7   8
ENDBRANCH   1   7
BRANCH   1  18
HETATM   18  C6  UNL     1      -0.827   3.850   6.287  1.00  0.00     0.188 C 
BRANCH  18  19
HETATM   19  O3  UNL     1      -1.265   2.667   5.739  1.00  0.00    -0.399 OA
ATOM     20  H3  UNL     1      -1.285   2.668   4.789  1.00  0.00     0.209 HD
ENDBRANCH  18  19
ENDBRANCH   1  18
BRANCH   6  21
HETATM   21  O5  UNL     1       0.590   5.413   8.128  1.00  0.00    -0.394 OA
ATOM     22  H5  UNL     1       1.156   4.770   8.540  1.00  0.00     0.210 HD
ENDBRANCH   6  21
BRANCH   3  23
HETATM   23  O4  UNL     1       0.704   5.113   2.707  1.00  0.00    -0.396 OA
ATOM     24  H4  UNL     1       0.471   5.974   2.379  1.00  0.00     0.210 HD
ENDBRANCH   3  23
TORSDOF 8
ENDMDL
MODEL 4
REMARK VINA RESULT: -6.529043460      1.130      2.244
REMARK  8 active torsions:
REMARK  status: ('A' for Active; 'I' for Inactive)
REMARK    1  A    between atoms: C2_2  and  C4_4 
REMARK    2  A    between atoms: C4_4  and  S1_8 
REMARK    3  A    between atoms: S1_8  and  S2_11 
REMARK    4  A    between atoms: S2_11  and  C5_12 
REMARK    5  A    between atoms: C5_12  and  C6_13 
REMARK    6  A    between atoms: C6_13  and  O3_14 
REMARK    7  A    between atoms: C8_17  and  O4_18 
REMARK    8  A    between atoms: C11_22  and  O5_23 
ROOT
HETATM    1  C5  UNL     1       1.446   4.489   6.905  1.00  0.00     0.072 C 
HETATM    2  C7  UNL     1       1.441   5.498   8.065  1.00  0.00     0.058 C 
HETATM    3  C8  UNL     1       1.219   6.865   7.504  1.00  0.00     0.120 C 
HETATM    4  C9  UNL     1      -0.064   7.004   6.751  1.00  0.00     0.034 C 
HETATM    5  C10 UNL     1      -0.378   5.848   5.861  1.00  0.00     0.036 C 
HETATM    6  C11 UNL     1      -0.003   4.513   6.385  1.00  0.00     0.140 C 
ENDROOT
BRANCH   1   7
HETATM    7  S2  UNL     1       1.849   2.910   7.368  1.00  0.00    -0.016 SA
BRANCH   7   8
HETATM    8  S1  UNL     1       0.401   2.016   8.525  1.00  0.00     0.242 S 
HETATM    9  O1  UNL     1      -0.502   1.029   7.879  1.00  0.00    -0.210 OA
HETATM   10  O2  UNL     1      -0.298   2.924   9.483  1.00  0.00    -0.210 OA
BRANCH   8  11
HETATM   11  C4  UNL     1       1.561   1.087   9.427  1.00  0.00     0.113 C 
HETATM   12  N1  UNL     1       2.595   0.613   8.851  1.00  0.00    -0.392 N 
ATOM     13  H12 UNL     1       3.277   0.068   9.380  1.00  0.00     0.156 HD
ATOM     14  H11 UNL     1       2.753   0.772   7.856  1.00  0.00     0.156 HD
BRANCH  11  15
HETATM   15  C2  UNL     1       1.330   0.855  10.883  1.00  0.00     0.040 C 
HETATM   16  C1  UNL     1       0.159  -0.069  11.120  1.00  0.00     0.016 C 
HETATM   17  C3  UNL     1       2.549   0.226  11.532  1.00  0.00     0.016 C 
ENDBRANCH  11  15
ENDBRANCH   8  11
ENDBRANCH   7   8
ENDBRANCH   1   7
BRANCH   1  18
HETATM   18  C6  UNL     1       2.315   5.025   5.788  1.00  0.00     0.188 C 
BRANCH  18  19
HETATM   19  O3  UNL     1       2.929   4.047   5.044  1.00  0.00    -0.399 OA
ATOM     20  H3  UNL     1       2.396   3.271   4.914  1.00  0.00     0.209 HD
ENDBRANCH  18  19
ENDBRANCH   1  18
BRANCH   6  21
HETATM   21  O5  UNL     1      -0.043   3.581   5.342  1.00  0.00    -0.394 OA
ATOM     22  H5  UNL     1       0.248   4.050   4.569  1.00  0.00     0.210 HD
ENDBRANCH   6  21
BRANCH   3  23
HETATM   23  O4  UNL     1       1.141   7.771   8.589  1.00  0.00    -0.396 OA
ATOM     24  H4  UNL     1       2.020   7.893   8.929  1.00  0.00     0.210 HD
ENDBRANCH   3  23
TORSDOF 8
ENDMDL
MODEL 5
REMARK VINA RESULT: -6.464377792      2.887      5.878
REMARK  8 active torsions:
REMARK  status: ('A' for Active; 'I' for Inactive)
REMARK    1  A    between atoms: C2_2  and  C4_4 
REMARK    2  A    between atoms: C4_4  and  S1_8 
REMARK    3  A    between atoms: S1_8  and  S2_11 
REMARK    4  A    between atoms: S2_11  and  C5_12 
REMARK    5  A    between atoms: C5_12  and  C6_13 
REMARK    6  A    between atoms: C6_13  and  O3_14 
REMARK    7  A    between atoms: C8_17  and  O4_18 
REMARK    8  A    between atoms: C11_22  and  O5_23 
ROOT
HETATM    1  C5  UNL     1       0.565   3.558   7.661  1.00  0.00     0.072 C 
HETATM    2  C7  UNL     1       0.131   3.032   9.039  1.00  0.00     0.058 C 
HETATM    3  C8  UNL     1       0.239   1.541   9.033  1.00  0.00     0.120 C 
HETATM    4  C9  UNL     1       1.617   1.040   8.747  1.00  0.00     0.034 C 
HETATM    5  C10 UNL     1       2.320   1.774   7.655  1.00  0.00     0.036 C 
HETATM    6  C11 UNL     1       2.069   3.234   7.596  1.00  0.00     0.140 C 
ENDROOT
BRANCH   1   7
HETATM    7  S2  UNL     1       0.343   5.226   7.461  1.00  0.00    -0.016 SA
BRANCH   7   8
HETATM    8  S1  UNL     1      -1.640   5.767   7.350  1.00  0.00     0.242 S 
HETATM    9  O1  UNL     1      -2.042   7.074   7.929  1.00  0.00    -0.210 OA
HETATM   10  O2  UNL     1      -2.614   4.670   7.624  1.00  0.00    -0.210 OA
BRANCH   8  11
HETATM   11  C4  UNL     1      -1.577   6.003   5.629  1.00  0.00     0.113 C 
HETATM   12  N1  UNL     1      -2.652   6.048   4.944  1.00  0.00    -0.392 N 
ATOM     13  H12 UNL     1      -2.614   6.187   3.934  1.00  0.00     0.156 HD
ATOM     14  H11 UNL     1      -3.559   5.946   5.397  1.00  0.00     0.156 HD
BRANCH  11  15
HETATM   15  C2  UNL     1      -0.248   6.152   4.966  1.00  0.00     0.040 C 
HETATM   16  C1  UNL     1      -0.094   5.193   3.809  1.00  0.00     0.016 C 
HETATM   17  C3  UNL     1      -0.067   7.558   4.423  1.00  0.00     0.016 C 
ENDBRANCH  11  15
ENDBRANCH   8  11
ENDBRANCH   7   8
ENDBRANCH   1   7
BRANCH   1  18
HETATM   18  C6  UNL     1      -0.103   2.732   6.584  1.00  0.00     0.188 C 
BRANCH  18  19
HETATM   19  O3  UNL     1      -1.399   2.380   6.877  1.00  0.00    -0.399 OA
ATOM     20  H3  UNL     1      -1.570   1.449   6.801  1.00  0.00     0.209 HD
ENDBRANCH  18  19
ENDBRANCH   1  18
BRANCH   6  21
HETATM   21  O5  UNL     1       2.506   3.727   6.362  1.00  0.00    -0.394 OA
ATOM     22  H5  UNL     1       3.227   4.312   6.562  1.00  0.00     0.210 HD
ENDBRANCH   6  21
BRANCH   3  23
HETATM   23  O4  UNL     1      -0.091   1.078  10.329  1.00  0.00    -0.396 OA
ATOM     24  H4  UNL     1       0.721   0.950  10.806  1.00  0.00     0.210 HD
ENDBRANCH   3  23
TORSDOF 8
ENDMDL
