MODEL 1
REMARK VINA RESULT: -5.740067339      0.000      0.000
REMARK  11 active torsions:
REMARK  status: ('A' for Active; 'I' for Inactive)
REMARK    1  A    between atoms: N1_2  and  C2_4 
REMARK    2  A    between atoms: C3_7  and  N3_8 
REMARK    3  A    between atoms: C4_13  and  N5_14 
REMARK    4  A    between atoms: N5_14  and  C5_16 
REMARK    5  A    between atoms: C5_16  and  C6_17 
REMARK    6  A    between atoms: C6_17  and  C7_18 
REMARK    7  A    between atoms: C7_18  and  N6_19 
REMARK    8  A    between atoms: C9_24  and  C10_25 
REMARK    9  A    between atoms: C15_32  and  C16_33 
REMARK   10  A    between atoms: C17_36  and  N10_37 
REMARK   11  A    between atoms: N11_40  and  N12_41 
ROOT
HETATM    1  N6  UNL     1      -3.639  52.522  26.167  1.00  0.00    -0.203 N 
ATOM      2  H6  UNL     1      -3.013  52.816  25.417  1.00  0.00     0.183 HD
HETATM    3  C8  UNL     1      -4.444  51.667  25.743  1.00  0.00     0.705 A 
HETATM    4  N7  UNL     1      -4.357  51.289  24.414  1.00  0.00    -0.186 N 
ATOM      5  H7  UNL     1      -3.640  51.723  23.832  1.00  0.00     0.184 HD
HETATM    6  C9  UNL     1      -5.167  50.382  23.857  1.00  0.00     0.095 A 
HETATM    7  C15 UNL     1      -6.150  49.769  24.593  1.00  0.00     0.104 A 
HETATM    8  C17 UNL     1      -6.226  50.160  25.930  1.00  0.00     0.156 A 
HETATM    9  N11 UNL     1      -5.401  51.072  26.468  1.00  0.00    -0.076 N 
ENDROOT
BRANCH   1  10
HETATM   10  C7  UNL     1      -3.328  53.196  27.335  1.00  0.00     0.080 C 
BRANCH  10  11
HETATM   11  C6  UNL     1      -2.092  52.617  28.007  1.00  0.00     0.065 C 
BRANCH  11  12
HETATM   12  C5  UNL     1      -1.073  53.658  28.341  1.00  0.00     0.143 C 
BRANCH  12  13
HETATM   13  N5  UNL     1      -1.653  54.975  28.508  1.00  0.00    -0.225 N 
ATOM     14  H5  UNL     1      -2.403  55.120  29.184  1.00  0.00     0.177 HD
BRANCH  13  15
HETATM   15  C4  UNL     1      -1.222  55.965  27.803  1.00  0.00     0.707 A 
HETATM   16  N4  UNL     1       0.078  56.307  27.731  1.00  0.00    -0.022 N 
HETATM   17  C3  UNL     1       0.515  57.341  26.991  1.00  0.00     0.705 A 
ATOM     18  H4  UNL     1       0.759  55.759  28.258  1.00  0.00     0.203 HD
HETATM   19  N2  UNL     1      -0.350  58.085  26.283  1.00  0.00    -0.022 N 
HETATM   20  C2  UNL     1      -1.653  57.762  26.340  1.00  0.00     0.706 A 
ATOM     21  H2  UNL     1      -0.027  58.870  25.718  1.00  0.00     0.203 HD
HETATM   22  N13 UNL     1      -2.087  56.710  27.093  1.00  0.00    -0.022 N 
ATOM     23  H13 UNL     1      -3.082  56.487  27.119  1.00  0.00     0.203 HD
BRANCH  17  24
HETATM   24  N3  UNL     1       1.767  57.654  26.936  1.00  0.00    -0.234 N 
ATOM     25  H32 UNL     1       2.315  57.521  26.085  1.00  0.00     0.174 HD
ATOM     26  H31 UNL     1       2.199  58.043  27.774  1.00  0.00     0.174 HD
ENDBRANCH  17  24
BRANCH  20  27
HETATM   27  N1  UNL     1      -2.480  58.478  25.659  1.00  0.00    -0.229 N 
HETATM   28  C1  UNL     1      -2.308  59.917  25.648  1.00  0.00     0.165 C 
ATOM     29  H1  UNL     1      -3.241  58.040  25.138  1.00  0.00     0.177 HD
ENDBRANCH  20  27
ENDBRANCH  13  15
ENDBRANCH  12  13
ENDBRANCH  11  12
ENDBRANCH  10  11
ENDBRANCH   1  10
BRANCH   9  30
HETATM   30  N12 UNL     1      -5.573  51.392  27.844  1.00  0.00    -0.322 N 
ATOM     31 2H12 UNL     1      -4.748  51.677  28.374  1.00  0.00     0.178 HD
ATOM     32 1H12 UNL     1      -6.494  51.336  28.280  1.00  0.00     0.178 HD
ENDBRANCH   9  30
BRANCH   6  33
HETATM   33  C10 UNL     1      -4.996  50.011  22.437  1.00  0.00     0.060 A 
HETATM   34  C11 UNL     1      -5.434  50.835  21.435  1.00  0.00     0.032 A 
HETATM   35  C12 UNL     1      -5.270  50.484  20.100  1.00  0.00     0.004 A 
HETATM   36  C13 UNL     1      -4.662  49.295  19.796  1.00  0.00     0.017 A 
HETATM   37  C14 UNL     1      -4.232  48.484  20.822  1.00  0.00     0.088 A 
HETATM   38  N8  UNL     1      -4.410  48.864  22.092  1.00  0.00    -0.364 N 
ATOM     39  H8  UNL     1      -4.083  48.245  22.833  1.00  0.00     0.165 HD
ENDBRANCH   6  33
BRANCH   8  40
HETATM   40  N10 UNL     1      -7.141  49.600  26.653  1.00  0.00    -0.383 N 
ATOM     41 2H10 UNL     1      -7.982  49.222  26.216  1.00  0.00     0.157 HD
ATOM     42 1H10 UNL     1      -6.975  49.560  27.658  1.00  0.00     0.157 HD
ENDBRANCH   8  40
BRANCH   7  43
HETATM   43  C16 UNL     1      -7.099  48.810  24.072  1.00  0.00     0.271 C 
HETATM   44  N9  UNL     1      -6.774  47.428  24.052  1.00  0.00    -0.057 NA
HETATM   45  O1  UNL     1      -8.251  49.121  23.612  1.00  0.00    -0.271 OA
ENDBRANCH   7  43
TORSDOF 11
ENDMDL
MODEL 2
REMARK VINA RESULT: -5.626686373      0.527      1.770
REMARK  11 active torsions:
REMARK  status: ('A' for Active; 'I' for Inactive)
REMARK    1  A    between atoms: N1_2  and  C2_4 
REMARK    2  A    between atoms: C3_7  and  N3_8 
REMARK    3  A    between atoms: C4_13  and  N5_14 
REMARK    4  A    between atoms: N5_14  and  C5_16 
REMARK    5  A    between atoms: C5_16  and  C6_17 
REMARK    6  A    between atoms: C6_17  and  C7_18 
REMARK    7  A    between atoms: C7_18  and  N6_19 
REMARK    8  A    between atoms: C9_24  and  C10_25 
REMARK    9  A    between atoms: C15_32  and  C16_33 
REMARK   10  A    between atoms: C17_36  and  N10_37 
REMARK   11  A    between atoms: N11_40  and  N12_41 
ROOT
HETATM    1  N6  UNL     1      -3.611  52.574  26.509  1.00  0.00    -0.203 N 
ATOM      2  H6  UNL     1      -2.955  52.844  25.777  1.00  0.00     0.183 HD
HETATM    3  C8  UNL     1      -4.433  51.745  26.064  1.00  0.00     0.705 A 
HETATM    4  N7  UNL     1      -4.319  51.359  24.740  1.00  0.00    -0.186 N 
ATOM      5  H7  UNL     1      -3.572  51.766  24.177  1.00  0.00     0.184 HD
HETATM    6  C9  UNL     1      -5.143  50.477  24.162  1.00  0.00     0.095 A 
HETATM    7  C15 UNL     1      -6.167  49.900  24.871  1.00  0.00     0.104 A 
HETATM    8  C17 UNL     1      -6.268  50.298  26.204  1.00  0.00     0.156 A 
HETATM    9  N11 UNL     1      -5.429  51.184  26.764  1.00  0.00    -0.076 N 
ENDROOT
BRANCH   1  10
HETATM   10  C7  UNL     1      -3.313  53.242  27.683  1.00  0.00     0.080 C 
BRANCH  10  11
HETATM   11  C6  UNL     1      -2.045  52.704  28.329  1.00  0.00     0.065 C 
BRANCH  11  12
HETATM   12  C5  UNL     1      -0.907  53.671  28.266  1.00  0.00     0.143 C 
BRANCH  12  13
HETATM   13  N5  UNL     1      -1.297  55.018  28.630  1.00  0.00    -0.225 N 
ATOM     14  H5  UNL     1      -1.807  55.185  29.497  1.00  0.00     0.177 HD
BRANCH  13  15
HETATM   15  C4  UNL     1      -1.000  56.007  27.858  1.00  0.00     0.707 A 
HETATM   16  N4  UNL     1      -1.914  56.668  27.123  1.00  0.00    -0.022 N 
HETATM   17  C3  UNL     1      -1.591  57.698  26.321  1.00  0.00     0.705 A 
ATOM     18  H4  UNL     1      -2.890  56.377  27.177  1.00  0.00     0.203 HD
HETATM   19  N2  UNL     1      -0.317  58.113  26.224  1.00  0.00    -0.022 N 
HETATM   20  C2  UNL     1       0.612  57.466  26.949  1.00  0.00     0.706 A 
ATOM     21  H2  UNL     1      -0.063  58.893  25.620  1.00  0.00     0.203 HD
HETATM   22  N13 UNL     1       0.275  56.422  27.759  1.00  0.00    -0.022 N 
ATOM     23  H13 UNL     1       1.001  55.949  28.298  1.00  0.00     0.203 HD
BRANCH  17  24
HETATM   24  N3  UNL     1      -2.483  58.321  25.624  1.00  0.00    -0.234 N 
ATOM     25  H32 UNL     1      -2.606  59.331  25.692  1.00  0.00     0.174 HD
ATOM     26  H31 UNL     1      -3.067  57.769  24.995  1.00  0.00     0.174 HD
ENDBRANCH  17  24
BRANCH  20  27
HETATM   27  N1  UNL     1       1.834  57.866  26.853  1.00  0.00    -0.229 N 
HETATM   28  C1  UNL     1       2.575  58.133  28.069  1.00  0.00     0.165 C 
ATOM     29  H1  UNL     1       2.270  57.992  25.939  1.00  0.00     0.177 HD
ENDBRANCH  20  27
ENDBRANCH  13  15
ENDBRANCH  12  13
ENDBRANCH  11  12
ENDBRANCH  10  11
ENDBRANCH   1  10
BRANCH   9  30
HETATM   30  N12 UNL     1      -5.630  51.515  28.133  1.00  0.00    -0.322 N 
ATOM     31 2H12 UNL     1      -4.959  52.145  28.574  1.00  0.00     0.178 HD
ATOM     32 1H12 UNL     1      -6.421  51.131  28.650  1.00  0.00     0.178 HD
ENDBRANCH   9  30
BRANCH   6  33
HETATM   33  C10 UNL     1      -4.943  50.095  22.749  1.00  0.00     0.060 A 
HETATM   34  C11 UNL     1      -5.438  50.869  21.732  1.00  0.00     0.032 A 
HETATM   35  C12 UNL     1      -5.248  50.508  20.404  1.00  0.00     0.004 A 
HETATM   36  C13 UNL     1      -4.555  49.360  20.120  1.00  0.00     0.017 A 
HETATM   37  C14 UNL     1      -4.069  48.600  21.160  1.00  0.00     0.088 A 
HETATM   38  N8  UNL     1      -4.277  48.987  22.423  1.00  0.00    -0.364 N 
ATOM     39  H8  UNL     1      -3.906  48.406  23.175  1.00  0.00     0.165 HD
ENDBRANCH   6  33
BRANCH   8  40
HETATM   40  N10 UNL     1      -7.222  49.772  26.902  1.00  0.00    -0.383 N 
ATOM     41 2H10 UNL     1      -7.085  48.872  27.363  1.00  0.00     0.157 HD
ATOM     42 1H10 UNL     1      -8.094  50.297  26.962  1.00  0.00     0.157 HD
ENDBRANCH   8  40
BRANCH   7  43
HETATM   43  C16 UNL     1      -7.132  48.971  24.325  1.00  0.00     0.271 C 
HETATM   44  N9  UNL     1      -6.830  47.584  24.269  1.00  0.00    -0.057 NA
HETATM   45  O1  UNL     1      -8.279  49.313  23.874  1.00  0.00    -0.271 OA
ENDBRANCH   7  43
TORSDOF 11
ENDMDL
MODEL 3
REMARK VINA RESULT: -5.555402839      1.123      1.440
REMARK  11 active torsions:
REMARK  status: ('A' for Active; 'I' for Inactive)
REMARK    1  A    between atoms: N1_2  and  C2_4 
REMARK    2  A    between atoms: C3_7  and  N3_8 
REMARK    3  A    between atoms: C4_13  and  N5_14 
REMARK    4  A    between atoms: N5_14  and  C5_16 
REMARK    5  A    between atoms: C5_16  and  C6_17 
REMARK    6  A    between atoms: C6_17  and  C7_18 
REMARK    7  A    between atoms: C7_18  and  N6_19 
REMARK    8  A    between atoms: C9_24  and  C10_25 
REMARK    9  A    between atoms: C15_32  and  C16_33 
REMARK   10  A    between atoms: C17_36  and  N10_37 
REMARK   11  A    between atoms: N11_40  and  N12_41 
ROOT
HETATM    1  N6  UNL     1      -3.201  52.875  26.640  1.00  0.00    -0.203 N 
ATOM      2  H6  UNL     1      -2.534  53.049  25.889  1.00  0.00     0.183 HD
HETATM    3  C8  UNL     1      -4.083  52.079  26.254  1.00  0.00     0.705 A 
HETATM    4  N7  UNL     1      -4.011  51.602  24.957  1.00  0.00    -0.186 N 
ATOM      5  H7  UNL     1      -3.242  51.918  24.365  1.00  0.00     0.184 HD
HETATM    6  C9  UNL     1      -4.901  50.747  24.441  1.00  0.00     0.095 A 
HETATM    7  C15 UNL     1      -5.957  50.292  25.191  1.00  0.00     0.104 A 
HETATM    8  C17 UNL     1      -6.016  50.781  26.495  1.00  0.00     0.156 A 
HETATM    9  N11 UNL     1      -5.111  51.639  26.993  1.00  0.00    -0.076 N 
ENDROOT
BRANCH   1  10
HETATM   10  C7  UNL     1      -2.844  53.593  27.767  1.00  0.00     0.080 C 
BRANCH  10  11
HETATM   11  C6  UNL     1      -1.749  52.892  28.557  1.00  0.00     0.065 C 
BRANCH  11  12
HETATM   12  C5  UNL     1      -0.704  53.835  29.061  1.00  0.00     0.143 C 
BRANCH  12  13
HETATM   13  N5  UNL     1       0.380  54.025  28.118  1.00  0.00    -0.225 N 
ATOM     14  H5  UNL     1       0.794  53.220  27.649  1.00  0.00     0.177 HD
BRANCH  13  15
HETATM   15  C4  UNL     1       0.821  55.211  27.872  1.00  0.00     0.707 A 
HETATM   16  N4  UNL     1       2.067  55.613  28.184  1.00  0.00    -0.022 N 
HETATM   17  C3  UNL     1       2.514  56.854  27.922  1.00  0.00     0.705 A 
ATOM     18  H4  UNL     1       2.697  54.950  28.636  1.00  0.00     0.203 HD
HETATM   19  N2  UNL     1       1.715  57.755  27.327  1.00  0.00    -0.022 N 
HETATM   20  C2  UNL     1       0.466  57.375  27.007  1.00  0.00     0.706 A 
ATOM     21  H2  UNL     1       2.046  58.697  27.123  1.00  0.00     0.203 HD
HETATM   22  N13 UNL     1       0.021  56.114  27.277  1.00  0.00    -0.022 N 
ATOM     23  H13 UNL     1      -0.932  55.852  27.024  1.00  0.00     0.203 HD
BRANCH  17  24
HETATM   24  N3  UNL     1       3.714  57.221  28.229  1.00  0.00    -0.234 N 
ATOM     25  H32 UNL     1       3.910  58.147  28.611  1.00  0.00     0.174 HD
ATOM     26  H31 UNL     1       4.470  56.553  28.078  1.00  0.00     0.174 HD
ENDBRANCH  17  24
BRANCH  20  27
HETATM   27  N1  UNL     1      -0.298  58.241  26.436  1.00  0.00    -0.229 N 
HETATM   28  C1  UNL     1      -1.652  57.855  26.095  1.00  0.00     0.165 C 
ATOM     29  H1  UNL     1       0.044  59.180  26.229  1.00  0.00     0.177 HD
ENDBRANCH  20  27
ENDBRANCH  13  15
ENDBRANCH  12  13
ENDBRANCH  11  12
ENDBRANCH  10  11
ENDBRANCH   1  10
BRANCH   9  30
HETATM   30  N12 UNL     1      -5.274  52.070  28.338  1.00  0.00    -0.322 N 
ATOM     31 2H12 UNL     1      -4.471  51.996  28.963  1.00  0.00     0.178 HD
ATOM     32 1H12 UNL     1      -6.168  52.441  28.660  1.00  0.00     0.178 HD
ENDBRANCH   9  30
BRANCH   6  33
HETATM   33  C10 UNL     1      -4.742  50.262  23.054  1.00  0.00     0.060 A 
HETATM   34  C11 UNL     1      -5.262  50.962  21.998  1.00  0.00     0.032 A 
HETATM   35  C12 UNL     1      -5.111  50.504  20.695  1.00  0.00     0.004 A 
HETATM   36  C13 UNL     1      -4.431  49.334  20.477  1.00  0.00     0.017 A 
HETATM   37  C14 UNL     1      -3.919  48.649  21.556  1.00  0.00     0.088 A 
HETATM   38  N8  UNL     1      -4.090  49.129  22.793  1.00  0.00    -0.364 N 
ATOM     39  H8  UNL     1      -3.701  48.602  23.575  1.00  0.00     0.165 HD
ENDBRANCH   6  33
BRANCH   8  40
HETATM   40  N10 UNL     1      -6.999  50.371  27.231  1.00  0.00    -0.383 N 
ATOM     41 2H10 UNL     1      -7.729  49.782  26.830  1.00  0.00     0.157 HD
ATOM     42 1H10 UNL     1      -6.998  50.664  28.208  1.00  0.00     0.157 HD
ENDBRANCH   8  40
BRANCH   7  43
HETATM   43  C16 UNL     1      -6.991  49.402  24.711  1.00  0.00     0.271 C 
HETATM   44  N9  UNL     1      -6.779  47.997  24.718  1.00  0.00    -0.057 NA
HETATM   45  O1  UNL     1      -8.124  49.795  24.266  1.00  0.00    -0.271 OA
ENDBRANCH   7  43
TORSDOF 11
ENDMDL
MODEL 4
REMARK VINA RESULT: -5.528696483      1.282      1.874
REMARK  11 active torsions:
REMARK  status: ('A' for Active; 'I' for Inactive)
REMARK    1  A    between atoms: N1_2  and  C2_4 
REMARK    2  A    between atoms: C3_7  and  N3_8 
REMARK    3  A    between atoms: C4_13  and  N5_14 
REMARK    4  A    between atoms: N5_14  and  C5_16 
REMARK    5  A    between atoms: C5_16  and  C6_17 
REMARK    6  A    between atoms: C6_17  and  C7_18 
REMARK    7  A    between atoms: C7_18  and  N6_19 
REMARK    8  A    between atoms: C9_24  and  C10_25 
REMARK    9  A    between atoms: C15_32  and  C16_33 
REMARK   10  A    between atoms: C17_36  and  N10_37 
REMARK   11  A    between atoms: N11_40  and  N12_41 
ROOT
HETATM    1  N6  UNL     1      -3.637  52.443  26.214  1.00  0.00    -0.203 N 
ATOM      2  H6  UNL     1      -2.996  52.724  25.472  1.00  0.00     0.183 HD
HETATM    3  C8  UNL     1      -4.461  51.613  25.777  1.00  0.00     0.705 A 
HETATM    4  N7  UNL     1      -4.372  51.241  24.447  1.00  0.00    -0.186 N 
ATOM      5  H7  UNL     1      -3.638  51.659  23.874  1.00  0.00     0.184 HD
HETATM    6  C9  UNL     1      -5.202  50.360  23.876  1.00  0.00     0.095 A 
HETATM    7  C15 UNL     1      -6.208  49.771  24.599  1.00  0.00     0.104 A 
HETATM    8  C17 UNL     1      -6.285  50.154  25.937  1.00  0.00     0.156 A 
HETATM    9  N11 UNL     1      -5.441  51.040  26.489  1.00  0.00    -0.076 N 
ENDROOT
BRANCH   1  10
HETATM   10  C7  UNL     1      -3.319  53.101  27.389  1.00  0.00     0.080 C 
BRANCH  10  11
HETATM   11  C6  UNL     1      -2.186  52.409  28.132  1.00  0.00     0.065 C 
BRANCH  11  12
HETATM   12  C5  UNL     1      -2.028  52.899  29.535  1.00  0.00     0.143 C 
BRANCH  12  13
HETATM   13  N5  UNL     1      -1.582  54.276  29.600  1.00  0.00    -0.225 N 
ATOM     14  H5  UNL     1      -2.163  54.979  30.055  1.00  0.00     0.177 HD
BRANCH  13  15
HETATM   15  C4  UNL     1      -0.450  54.612  29.083  1.00  0.00     0.707 A 
HETATM   16  N4  UNL     1       0.721  54.059  29.450  1.00  0.00    -0.022 N 
HETATM   17  C3  UNL     1       1.895  54.420  28.903  1.00  0.00     0.705 A 
ATOM     18  H4  UNL     1       0.717  53.338  30.171  1.00  0.00     0.203 HD
HETATM   19  N2  UNL     1       1.941  55.364  27.949  1.00  0.00    -0.022 N 
HETATM   20  C2  UNL     1       0.784  55.931  27.568  1.00  0.00     0.706 A 
ATOM     21  H2  UNL     1       2.827  55.643  27.528  1.00  0.00     0.203 HD
HETATM   22  N13 UNL     1      -0.403  55.559  28.129  1.00  0.00    -0.022 N 
ATOM     23  H13 UNL     1      -1.267  56.005  27.821  1.00  0.00     0.203 HD
BRANCH  17  24
HETATM   24  N3  UNL     1       3.009  53.877  29.268  1.00  0.00    -0.234 N 
ATOM     25  H32 UNL     1       3.041  52.940  29.672  1.00  0.00     0.174 HD
ATOM     26  H31 UNL     1       3.867  54.414  29.140  1.00  0.00     0.174 HD
ENDBRANCH  17  24
BRANCH  20  27
HETATM   27  N1  UNL     1       0.831  56.837  26.653  1.00  0.00    -0.229 N 
HETATM   28  C1  UNL     1      -0.413  57.399  26.166  1.00  0.00     0.165 C 
ATOM     29  H1  UNL     1       1.727  57.153  26.279  1.00  0.00     0.177 HD
ENDBRANCH  20  27
ENDBRANCH  13  15
ENDBRANCH  12  13
ENDBRANCH  11  12
ENDBRANCH  10  11
ENDBRANCH   1  10
BRANCH   9  30
HETATM   30  N12 UNL     1      -5.617  51.356  27.866  1.00  0.00    -0.322 N 
ATOM     31 2H12 UNL     1      -5.023  52.082  28.267  1.00  0.00     0.178 HD
ATOM     32 1H12 UNL     1      -6.316  50.867  28.426  1.00  0.00     0.178 HD
ENDBRANCH   9  30
BRANCH   6  33
HETATM   33  C10 UNL     1      -5.027  49.994  22.455  1.00  0.00     0.060 A 
HETATM   34  C11 UNL     1      -5.423  50.841  21.454  1.00  0.00     0.032 A 
HETATM   35  C12 UNL     1      -5.257  50.495  20.119  1.00  0.00     0.004 A 
HETATM   36  C13 UNL     1      -4.689  49.286  19.812  1.00  0.00     0.017 A 
HETATM   37  C14 UNL     1      -4.300  48.453  20.837  1.00  0.00     0.088 A 
HETATM   38  N8  UNL     1      -4.480  48.829  22.108  1.00  0.00    -0.364 N 
ATOM     39  H8  UNL     1      -4.183  48.193  22.848  1.00  0.00     0.165 HD
ENDBRANCH   6  33
BRANCH   8  40
HETATM   40  N10 UNL     1      -7.222  49.616  26.648  1.00  0.00    -0.383 N 
ATOM     41 2H10 UNL     1      -7.041  48.762  27.177  1.00  0.00     0.157 HD
ATOM     42 1H10 UNL     1      -8.129  50.084  26.649  1.00  0.00     0.157 HD
ENDBRANCH   8  40
BRANCH   7  43
HETATM   43  C16 UNL     1      -7.178  48.841  24.062  1.00  0.00     0.271 C 
HETATM   44  N9  UNL     1      -6.888  47.451  24.032  1.00  0.00    -0.057 NA
HETATM   45  O1  UNL     1      -8.319  49.186  23.598  1.00  0.00    -0.271 OA
ENDBRANCH   7  43
TORSDOF 11
ENDMDL
MODEL 5
REMARK VINA RESULT: -5.500547352      1.481      2.581
REMARK  11 active torsions:
REMARK  status: ('A' for Active; 'I' for Inactive)
REMARK    1  A    between atoms: N1_2  and  C2_4 
REMARK    2  A    between atoms: C3_7  and  N3_8 
REMARK    3  A    between atoms: C4_13  and  N5_14 
REMARK    4  A    between atoms: N5_14  and  C5_16 
REMARK    5  A    between atoms: C5_16  and  C6_17 
REMARK    6  A    between atoms: C6_17  and  C7_18 
REMARK    7  A    between atoms: C7_18  and  N6_19 
REMARK    8  A    between atoms: C9_24  and  C10_25 
REMARK    9  A    between atoms: C15_32  and  C16_33 
REMARK   10  A    between atoms: C17_36  and  N10_37 
REMARK   11  A    between atoms: N11_40  and  N12_41 
ROOT
HETATM    1  N6  UNL     1      -3.172  52.908  26.641  1.00  0.00    -0.203 N 
ATOM      2  H6  UNL     1      -2.516  53.084  25.879  1.00  0.00     0.183 HD
HETATM    3  C8  UNL     1      -4.054  52.105  26.270  1.00  0.00     0.705 A 
HETATM    4  N7  UNL     1      -3.996  51.623  24.973  1.00  0.00    -0.186 N 
ATOM      5  H7  UNL     1      -3.237  51.942  24.370  1.00  0.00     0.184 HD
HETATM    6  C9  UNL     1      -4.887  50.759  24.474  1.00  0.00     0.095 A 
HETATM    7  C15 UNL     1      -5.929  50.300  25.240  1.00  0.00     0.104 A 
HETATM    8  C17 UNL     1      -5.974  50.794  26.543  1.00  0.00     0.156 A 
HETATM    9  N11 UNL     1      -5.068  51.660  27.024  1.00  0.00    -0.076 N 
ENDROOT
BRANCH   1  10
HETATM   10  C7  UNL     1      -2.804  53.633  27.760  1.00  0.00     0.080 C 
BRANCH  10  11
HETATM   11  C6  UNL     1      -1.703  52.936  28.545  1.00  0.00     0.065 C 
BRANCH  11  12
HETATM   12  C5  UNL     1      -0.619  53.871  28.976  1.00  0.00     0.143 C 
BRANCH  12  13
HETATM   13  N5  UNL     1       0.359  54.113  27.934  1.00  0.00    -0.225 N 
ATOM     14  H5  UNL     1       0.634  53.357  27.308  1.00  0.00     0.177 HD
BRANCH  13  15
HETATM   15  C4  UNL     1       0.880  55.284  27.798  1.00  0.00     0.707 A 
HETATM   16  N4  UNL     1       0.246  56.308  27.197  1.00  0.00    -0.022 N 
HETATM   17  C3  UNL     1       0.802  57.525  27.061  1.00  0.00     0.705 A 
ATOM     18  H4  UNL     1      -0.693  56.154  26.830  1.00  0.00     0.203 HD
HETATM   19  N2  UNL     1       2.036  57.766  27.532  1.00  0.00    -0.022 N 
HETATM   20  C2  UNL     1       2.688  56.758  28.136  1.00  0.00     0.706 A 
ATOM     21  H2  UNL     1       2.465  58.686  27.435  1.00  0.00     0.203 HD
HETATM   22  N13 UNL     1       2.117  55.526  28.269  1.00  0.00    -0.022 N 
ATOM     23  H13 UNL     1       2.634  54.779  28.731  1.00  0.00     0.203 HD
BRANCH  17  24
HETATM   24  N3  UNL     1       0.177  58.494  26.481  1.00  0.00    -0.234 N 
ATOM     25  H32 UNL     1       0.001  59.380  26.957  1.00  0.00     0.174 HD
ATOM     26  H31 UNL     1      -0.139  58.352  25.522  1.00  0.00     0.174 HD
ENDBRANCH  17  24
BRANCH  20  27
HETATM   27  N1  UNL     1       3.873  56.993  28.586  1.00  0.00    -0.229 N 
HETATM   28  C1  UNL     1       4.815  55.895  28.669  1.00  0.00     0.165 C 
ATOM     29  H1  UNL     1       4.142  57.933  28.879  1.00  0.00     0.177 HD
ENDBRANCH  20  27
ENDBRANCH  13  15
ENDBRANCH  12  13
ENDBRANCH  11  12
ENDBRANCH  10  11
ENDBRANCH   1  10
BRANCH   9  30
HETATM   30  N12 UNL     1      -5.216  52.096  28.371  1.00  0.00    -0.322 N 
ATOM     31 2H12 UNL     1      -6.133  52.434  28.664  1.00  0.00     0.178 HD
ATOM     32 1H12 UNL     1      -4.426  52.068  29.015  1.00  0.00     0.178 HD
ENDBRANCH   9  30
BRANCH   6  33
HETATM   33  C10 UNL     1      -4.744  50.270  23.087  1.00  0.00     0.060 A 
HETATM   34  C11 UNL     1      -5.286  50.960  22.035  1.00  0.00     0.032 A 
HETATM   35  C12 UNL     1      -5.149  50.498  20.732  1.00  0.00     0.004 A 
HETATM   36  C13 UNL     1      -4.462  49.334  20.509  1.00  0.00     0.017 A 
HETATM   37  C14 UNL     1      -3.927  48.659  21.583  1.00  0.00     0.088 A 
HETATM   38  N8  UNL     1      -4.084  49.142  22.820  1.00  0.00    -0.364 N 
ATOM     39  H8  UNL     1      -3.678  48.623  23.599  1.00  0.00     0.165 HD
ENDBRANCH   6  33
BRANCH   8  40
HETATM   40  N10 UNL     1      -6.943  50.380  27.293  1.00  0.00    -0.383 N 
ATOM     41 2H10 UNL     1      -7.651  51.035  27.627  1.00  0.00     0.157 HD
ATOM     42 1H10 UNL     1      -6.957  49.386  27.523  1.00  0.00     0.157 HD
ENDBRANCH   8  40
BRANCH   7  43
HETATM   43  C16 UNL     1      -6.963  49.401  24.778  1.00  0.00     0.271 C 
HETATM   44  N9  UNL     1      -6.751  47.997  24.813  1.00  0.00    -0.057 NA
HETATM   45  O1  UNL     1      -8.096  49.785  24.325  1.00  0.00    -0.271 OA
ENDBRANCH   7  43
TORSDOF 11
ENDMDL
