MODEL 1
REMARK VINA RESULT: -10.368669937      0.000      0.000
REMARK  13 active torsions:
REMARK  status: ('A' for Active; 'I' for Inactive)
REMARK    1  A    between atoms: N1_1  and  S1_4 
REMARK    2  A    between atoms: S1_4  and  C1_7 
REMARK    3  A    between atoms: C4_10  and  C5_11 
REMARK    4  A    between atoms: C5_11  and  O3_12 
REMARK    5  A    between atoms: C5_11  and  N2_14 
REMARK    6  A    between atoms: C8_17  and  N3_18 
REMARK    7  A    between atoms: N3_18  and  C9_20 
REMARK    8  A    between atoms: C10_23  and  N5_24 
REMARK    9  A    between atoms: N5_24  and  N6_26 
REMARK   10  A    between atoms: C11_28  and  C12_29 
REMARK   11  A    between atoms: N9_38  and  C17_40 
REMARK   12  A    between atoms: N10_43  and  C20_44 
REMARK   13  A    between atoms: C20_44  and  C21_45 
ROOT
HETATM    1  C9  UNL     1      22.101   6.255  17.712  1.00  0.00     0.707 A 
HETATM    2  N4  UNL     1      22.666   5.102  17.387  1.00  0.00    -0.020 N 
ATOM      3  H4  UNL     1      23.632   5.122  17.061  1.00  0.00     0.203 HD
HETATM    4  C10 UNL     1      22.056   3.908  17.456  1.00  0.00     0.726 A 
HETATM    5  N8  UNL     1      20.767   3.918  17.896  1.00  0.00    -0.020 N 
ATOM      6  H8  UNL     1      20.260   3.036  17.965  1.00  0.00     0.203 HD
HETATM    7  C16 UNL     1      20.147   5.051  18.240  1.00  0.00     0.707 A 
HETATM    8  N9  UNL     1      18.934   5.130  18.682  1.00  0.00    -0.220 N 
ATOM      9  H9  UNL     1      18.562   6.051  18.912  1.00  0.00     0.178 HD
HETATM   10  N11 UNL     1      20.833   6.231  18.141  1.00  0.00    -0.021 N 
ATOM     11  H11 UNL     1      20.372   7.104  18.399  1.00  0.00     0.203 HD
ENDROOT
BRANCH   1  12
HETATM   12  N3  UNL     1      22.779   7.373  17.639  1.00  0.00    -0.220 N 
ATOM     13  H3  UNL     1      22.626   8.041  16.883  1.00  0.00     0.178 HD
BRANCH  12  14
HETATM   14  C8  UNL     1      23.752   7.619  18.675  1.00  0.00     0.102 C 
HETATM   15  C7  UNL     1      23.254   7.452  20.056  1.00  0.00     0.045 C 
HETATM   16  C6  UNL     1      22.590   8.707  20.604  1.00  0.00     0.127 C 
HETATM   17  N2  UNL     1      23.502   9.793  20.552  1.00  0.00    -0.360 N 
HETATM   18  C30 UNL     1      24.730   9.626  19.759  1.00  0.00     0.127 C 
HETATM   19  C29 UNL     1      24.393   8.965  18.429  1.00  0.00     0.045 C 
BRANCH  17  20
HETATM   20  C5  UNL     1      23.331  11.024  21.179  1.00  0.00     0.165 C 
BRANCH  20  21
HETATM   21  C4  UNL     1      22.785  11.293  22.497  1.00  0.00     0.084 A 
HETATM   22  C3  UNL     1      23.403  11.687  23.657  1.00  0.00     0.037 A 
HETATM   23  C2  UNL     1      22.437  11.783  24.659  1.00  0.00     0.046 A 
HETATM   24  C1  UNL     1      21.245  11.450  24.107  1.00  0.00     0.149 A 
HETATM   25  N12 UNL     1      21.462  11.160  22.829  1.00  0.00    -0.342 N 
ATOM     26  H12 UNL     1      20.734  10.875  22.174  1.00  0.00     0.167 HD
BRANCH  24  27
HETATM   27  S1  UNL     1      19.651  11.391  24.850  1.00  0.00     0.272 S 
HETATM   28  O1  UNL     1      18.622  11.822  23.823  1.00  0.00    -0.199 OA
HETATM   29  O2  UNL     1      19.367  10.041  25.387  1.00  0.00    -0.199 OA
BRANCH  27  30
HETATM   30  N1  UNL     1      19.616  12.539  26.134  1.00  0.00    -0.323 N 
ATOM     31  H12 UNL     1      18.773  12.899  26.582  1.00  0.00     0.169 HD
ATOM     32  H11 UNL     1      20.581  12.784  26.354  1.00  0.00     0.169 HD
ENDBRANCH  27  30
ENDBRANCH  24  27
ENDBRANCH  20  21
BRANCH  20  33
HETATM   33  O3  UNL     1      23.704  12.086  20.517  1.00  0.00    -0.344 OA
ATOM     34  H3  UNL     1      23.193  12.267  19.738  1.00  0.00     0.219 HD
ENDBRANCH  20  33
ENDBRANCH  17  20
ENDBRANCH  12  14
ENDBRANCH   1  12
BRANCH   4  35
HETATM   35  N5  UNL     1      22.694   2.709  17.098  1.00  0.00    -0.131 N 
ATOM     36  H5  UNL     1      23.564   2.478  17.579  1.00  0.00     0.205 HD
BRANCH  35  37
HETATM   37  N6  UNL     1      22.241   1.827  16.154  1.00  0.00    -0.295 N 
HETATM   38  C11 UNL     1      21.872   0.626  16.346  1.00  0.00     0.137 C 
ATOM     39  H6  UNL     1      22.194   2.170  15.195  1.00  0.00     0.186 HD
BRANCH  38  40
HETATM   40  C12 UNL     1      21.408  -0.188  15.217  1.00  0.00     0.049 A 
HETATM   41  C13 UNL     1      21.520  -1.545  15.029  1.00  0.00     0.032 A 
HETATM   42  C14 UNL     1      20.929  -1.866  13.809  1.00  0.00     0.019 A 
HETATM   43  C15 UNL     1      20.470  -0.667  13.287  1.00  0.00     0.088 A 
HETATM   44  N7  UNL     1      20.770   0.310  14.147  1.00  0.00    -0.365 N 
ATOM     45  H7  UNL     1      20.545   1.296  14.009  1.00  0.00     0.165 HD
ENDBRANCH  38  40
ENDBRANCH  35  37
ENDBRANCH   4  35
BRANCH   8  46
HETATM   46  C17 UNL     1      18.075   3.977  18.866  1.00  0.00     0.102 C 
HETATM   47  C18 UNL     1      17.959   3.627  20.321  1.00  0.00     0.056 C 
HETATM   48  C19 UNL     1      16.538   3.623  20.734  1.00  0.00     0.275 C 
HETATM   49  N10 UNL     1      15.849   4.887  20.509  1.00  0.00     0.092 N 
HETATM   50  C27 UNL     1      15.896   5.237  19.106  1.00  0.00     0.275 C 
HETATM   51  C28 UNL     1      16.716   4.253  18.312  1.00  0.00     0.056 C 
BRANCH  49  52
HETATM   52  C20 UNL     1      14.539   4.875  21.080  1.00  0.00     0.311 C 
BRANCH  52  53
HETATM   53  C21 UNL     1      14.316   5.684  22.264  1.00  0.00    -0.030 A 
HETATM   54  C22 UNL     1      15.278   6.433  22.900  1.00  0.00     0.009 A 
HETATM   55  C23 UNL     1      15.011   7.182  24.030  1.00  0.00     0.001 A 
HETATM   56  C24 UNL     1      13.748   7.208  24.576  1.00  0.00     0.000 A 
HETATM   57  C25 UNL     1      12.762   6.468  23.963  1.00  0.00     0.001 A 
HETATM   58  C26 UNL     1      13.041   5.730  22.843  1.00  0.00     0.009 A 
ENDBRANCH  52  53
ENDBRANCH  49  52
ENDBRANCH   8  46
TORSDOF 13
ENDMDL
MODEL 2
REMARK VINA RESULT: -10.325010422      4.868     12.485
REMARK  13 active torsions:
REMARK  status: ('A' for Active; 'I' for Inactive)
REMARK    1  A    between atoms: N1_1  and  S1_4 
REMARK    2  A    between atoms: S1_4  and  C1_7 
REMARK    3  A    between atoms: C4_10  and  C5_11 
REMARK    4  A    between atoms: C5_11  and  O3_12 
REMARK    5  A    between atoms: C5_11  and  N2_14 
REMARK    6  A    between atoms: C8_17  and  N3_18 
REMARK    7  A    between atoms: N3_18  and  C9_20 
REMARK    8  A    between atoms: C10_23  and  N5_24 
REMARK    9  A    between atoms: N5_24  and  N6_26 
REMARK   10  A    between atoms: C11_28  and  C12_29 
REMARK   11  A    between atoms: N9_38  and  C17_40 
REMARK   12  A    between atoms: N10_43  and  C20_44 
REMARK   13  A    between atoms: C20_44  and  C21_45 
ROOT
HETATM    1  C9  UNL     1      23.703  11.462  21.212  1.00  0.00     0.707 A 
HETATM    2  N4  UNL     1      22.569  11.845  21.779  1.00  0.00    -0.020 N 
ATOM      3  H4  UNL     1      21.699  11.625  21.295  1.00  0.00     0.203 HD
HETATM    4  C10 UNL     1      22.485  12.503  22.946  1.00  0.00     0.726 A 
HETATM    5  N8  UNL     1      23.666  12.779  23.566  1.00  0.00    -0.020 N 
ATOM      6  H8  UNL     1      23.654  13.278  24.455  1.00  0.00     0.203 HD
HETATM    7  C16 UNL     1      24.840  12.415  23.041  1.00  0.00     0.707 A 
HETATM    8  N9  UNL     1      25.995  12.629  23.584  1.00  0.00    -0.220 N 
ATOM      9  H9  UNL     1      26.827  12.307  23.092  1.00  0.00     0.178 HD
HETATM   10  N11 UNL     1      24.847  11.748  21.846  1.00  0.00    -0.021 N 
ATOM     11  H11 UNL     1      25.736  11.465  21.433  1.00  0.00     0.203 HD
ENDROOT
BRANCH   1  12
HETATM   12  N3  UNL     1      23.693  10.801  20.081  1.00  0.00    -0.220 N 
ATOM     13  H3  UNL     1      23.210  11.160  19.259  1.00  0.00     0.178 HD
BRANCH  12  14
HETATM   14  C8  UNL     1      24.396   9.542  20.053  1.00  0.00     0.102 C 
HETATM   15  C7  UNL     1      25.120   9.254  18.797  1.00  0.00     0.045 C 
HETATM   16  C6  UNL     1      24.240   8.604  17.739  1.00  0.00     0.127 C 
HETATM   17  N2  UNL     1      23.679   7.406  18.253  1.00  0.00    -0.360 N 
HETATM   18  C30 UNL     1      23.775   7.164  19.701  1.00  0.00     0.127 C 
HETATM   19  C29 UNL     1      23.439   8.443  20.457  1.00  0.00     0.045 C 
BRANCH  17  20
HETATM   20  C5  UNL     1      23.023   6.433  17.504  1.00  0.00     0.165 C 
BRANCH  20  21
HETATM   21  C4  UNL     1      21.758   5.781  17.789  1.00  0.00     0.084 A 
HETATM   22  C3  UNL     1      21.292   4.540  17.435  1.00  0.00     0.037 A 
HETATM   23  C2  UNL     1      19.997   4.398  17.935  1.00  0.00     0.046 A 
HETATM   24  C1  UNL     1      19.685   5.544  18.586  1.00  0.00     0.149 A 
HETATM   25  N12 UNL     1      20.732   6.356  18.493  1.00  0.00    -0.342 N 
ATOM     26  H12 UNL     1      20.768   7.293  18.895  1.00  0.00     0.167 HD
BRANCH  24  27
HETATM   27  S1  UNL     1      18.206   5.974  19.437  1.00  0.00     0.272 S 
HETATM   28  O1  UNL     1      18.029   7.479  19.370  1.00  0.00    -0.199 OA
HETATM   29  O2  UNL     1      17.042   5.254  18.873  1.00  0.00    -0.199 OA
BRANCH  27  30
HETATM   30  N1  UNL     1      18.398   5.547  21.094  1.00  0.00    -0.323 N 
ATOM     31  H12 UNL     1      18.324   6.190  21.883  1.00  0.00     0.169 HD
ATOM     32  H11 UNL     1      18.596   4.547  21.133  1.00  0.00     0.169 HD
ENDBRANCH  27  30
ENDBRANCH  24  27
ENDBRANCH  20  21
BRANCH  20  33
HETATM   33  O3  UNL     1      23.600   6.044  16.400  1.00  0.00    -0.344 OA
ATOM     34  H3  UNL     1      24.331   6.583  16.123  1.00  0.00     0.219 HD
ENDBRANCH  20  33
ENDBRANCH  17  20
ENDBRANCH  12  14
ENDBRANCH   1  12
BRANCH   4  35
HETATM   35  N5  UNL     1      21.258  12.892  23.509  1.00  0.00    -0.131 N 
ATOM     36  H5  UNL     1      20.872  13.791  23.220  1.00  0.00     0.205 HD
BRANCH  35  37
HETATM   37  N6  UNL     1      20.540  12.160  24.417  1.00  0.00    -0.295 N 
HETATM   38  C11 UNL     1      19.280  11.991  24.436  1.00  0.00     0.137 C 
ATOM     39  H6  UNL     1      21.073  11.701  25.155  1.00  0.00     0.186 HD
BRANCH  38  40
HETATM   40  C12 UNL     1      18.667  11.169  25.485  1.00  0.00     0.049 A 
HETATM   41  C13 UNL     1      17.815  11.551  26.493  1.00  0.00     0.032 A 
HETATM   42  C14 UNL     1      17.493  10.423  27.243  1.00  0.00     0.019 A 
HETATM   43  C15 UNL     1      18.177   9.373  26.653  1.00  0.00     0.088 A 
HETATM   44  N7  UNL     1      18.865   9.847  25.612  1.00  0.00    -0.365 N 
ATOM     45  H7  UNL     1      19.456   9.285  24.999  1.00  0.00     0.165 HD
ENDBRANCH  38  40
ENDBRANCH  35  37
ENDBRANCH   4  35
BRANCH   8  46
HETATM   46  C17 UNL     1      26.166  13.302  24.857  1.00  0.00     0.102 C 
HETATM   47  C18 UNL     1      26.408  12.308  25.956  1.00  0.00     0.056 C 
HETATM   48  C19 UNL     1      27.680  12.610  26.647  1.00  0.00     0.275 C 
HETATM   49  N10 UNL     1      28.846  12.619  25.772  1.00  0.00     0.092 N 
HETATM   50  C27 UNL     1      28.674  13.600  24.724  1.00  0.00     0.275 C 
HETATM   51  C28 UNL     1      27.316  14.252  24.786  1.00  0.00     0.056 C 
BRANCH  49  52
HETATM   52  C20 UNL     1      30.057  12.746  26.520  1.00  0.00     0.311 C 
BRANCH  52  53
HETATM   53  C21 UNL     1      30.085  13.729  27.588  1.00  0.00    -0.030 A 
HETATM   54  C22 UNL     1      30.062  15.091  27.405  1.00  0.00     0.009 A 
HETATM   55  C23 UNL     1      30.098  15.983  28.460  1.00  0.00     0.001 A 
HETATM   56  C24 UNL     1      30.161  15.535  29.760  1.00  0.00     0.000 A 
HETATM   57  C25 UNL     1      30.186  14.176  29.977  1.00  0.00     0.001 A 
HETATM   58  C26 UNL     1      30.150  13.303  28.921  1.00  0.00     0.009 A 
ENDBRANCH  52  53
ENDBRANCH  49  52
ENDBRANCH   8  46
TORSDOF 13
ENDMDL
MODEL 3
REMARK VINA RESULT: -10.272205536      1.826      2.038
REMARK  13 active torsions:
REMARK  status: ('A' for Active; 'I' for Inactive)
REMARK    1  A    between atoms: N1_1  and  S1_4 
REMARK    2  A    between atoms: S1_4  and  C1_7 
REMARK    3  A    between atoms: C4_10  and  C5_11 
REMARK    4  A    between atoms: C5_11  and  O3_12 
REMARK    5  A    between atoms: C5_11  and  N2_14 
REMARK    6  A    between atoms: C8_17  and  N3_18 
REMARK    7  A    between atoms: N3_18  and  C9_20 
REMARK    8  A    between atoms: C10_23  and  N5_24 
REMARK    9  A    between atoms: N5_24  and  N6_26 
REMARK   10  A    between atoms: C11_28  and  C12_29 
REMARK   11  A    between atoms: N9_38  and  C17_40 
REMARK   12  A    between atoms: N10_43  and  C20_44 
REMARK   13  A    between atoms: C20_44  and  C21_45 
ROOT
HETATM    1  C9  UNL     1      21.873   6.249  17.712  1.00  0.00     0.707 A 
HETATM    2  N4  UNL     1      22.433   5.086  17.416  1.00  0.00    -0.020 N 
ATOM      3  H4  UNL     1      23.416   5.088  17.142  1.00  0.00     0.203 HD
HETATM    4  C10 UNL     1      21.798   3.903  17.452  1.00  0.00     0.726 A 
HETATM    5  N8  UNL     1      20.488   3.937  17.822  1.00  0.00    -0.020 N 
ATOM      6  H8  UNL     1      19.962   3.065  17.863  1.00  0.00     0.203 HD
HETATM    7  C16 UNL     1      19.872   5.082  18.134  1.00  0.00     0.707 A 
HETATM    8  N9  UNL     1      18.638   5.183  18.510  1.00  0.00    -0.220 N 
ATOM      9  H9  UNL     1      18.272   6.111  18.722  1.00  0.00     0.178 HD
HETATM   10  N11 UNL     1      20.584   6.249  18.073  1.00  0.00    -0.021 N 
ATOM     11  H11 UNL     1      20.126   7.130  18.306  1.00  0.00     0.203 HD
ENDROOT
BRANCH   1  12
HETATM   12  N3  UNL     1      22.574   7.355  17.675  1.00  0.00    -0.220 N 
ATOM     13  H3  UNL     1      22.423   8.058  16.953  1.00  0.00     0.178 HD
BRANCH  12  14
HETATM   14  C8  UNL     1      23.569   7.533  18.704  1.00  0.00     0.102 C 
HETATM   15  C7  UNL     1      23.062   7.453  20.090  1.00  0.00     0.045 C 
HETATM   16  C6  UNL     1      22.524   8.781  20.604  1.00  0.00     0.127 C 
HETATM   17  N2  UNL     1      23.537   9.772  20.521  1.00  0.00    -0.360 N 
HETATM   18  C30 UNL     1      24.740   9.466  19.733  1.00  0.00     0.127 C 
HETATM   19  C29 UNL     1      24.337   8.804  18.421  1.00  0.00     0.045 C 
BRANCH  17  20
HETATM   20  C5  UNL     1      23.488  11.031  21.114  1.00  0.00     0.165 C 
BRANCH  20  21
HETATM   21  C4  UNL     1      23.374  11.355  22.524  1.00  0.00     0.084 A 
HETATM   22  C3  UNL     1      22.270  11.624  23.293  1.00  0.00     0.037 A 
HETATM   23  C2  UNL     1      22.697  11.904  24.592  1.00  0.00     0.046 A 
HETATM   24  C1  UNL     1      24.047  11.804  24.606  1.00  0.00     0.149 A 
HETATM   25  N12 UNL     1      24.438  11.480  23.378  1.00  0.00    -0.342 N 
ATOM     26  H12 UNL     1      25.411  11.342  23.105  1.00  0.00     0.167 HD
BRANCH  24  27
HETATM   27  S1  UNL     1      25.167  12.028  25.945  1.00  0.00     0.272 S 
HETATM   28  O1  UNL     1      25.101  13.475  26.394  1.00  0.00    -0.199 OA
HETATM   29  O2  UNL     1      24.864  11.091  27.050  1.00  0.00    -0.199 OA
BRANCH  27  30
HETATM   30  N1  UNL     1      26.761  11.736  25.365  1.00  0.00    -0.323 N 
ATOM     31  H12 UNL     1      27.368  12.430  24.929  1.00  0.00     0.169 HD
ATOM     32  H11 UNL     1      26.977  10.754  25.537  1.00  0.00     0.169 HD
ENDBRANCH  27  30
ENDBRANCH  24  27
ENDBRANCH  20  21
BRANCH  20  33
HETATM   33  O3  UNL     1      23.553  12.065  20.321  1.00  0.00    -0.344 OA
ATOM     34  H3  UNL     1      24.190  12.721  20.576  1.00  0.00     0.219 HD
ENDBRANCH  20  33
ENDBRANCH  17  20
ENDBRANCH  12  14
ENDBRANCH   1  12
BRANCH   4  35
HETATM   35  N5  UNL     1      22.432   2.693  17.127  1.00  0.00    -0.131 N 
ATOM     36  H5  UNL     1      23.256   2.433  17.670  1.00  0.00     0.205 HD
BRANCH  35  37
HETATM   37  N6  UNL     1      22.032   1.834  16.138  1.00  0.00    -0.295 N 
HETATM   38  C11 UNL     1      21.757   0.600  16.263  1.00  0.00     0.137 C 
ATOM     39  H6  UNL     1      21.945   2.228  15.201  1.00  0.00     0.186 HD
BRANCH  38  40
HETATM   40  C12 UNL     1      21.339  -0.180  15.094  1.00  0.00     0.049 A 
HETATM   41  C13 UNL     1      21.424  -1.536  14.886  1.00  0.00     0.032 A 
HETATM   42  C14 UNL     1      20.897  -1.819  13.628  1.00  0.00     0.019 A 
HETATM   43  C15 UNL     1      20.503  -0.599  13.104  1.00  0.00     0.088 A 
HETATM   44  N7  UNL     1      20.778   0.355  13.998  1.00  0.00    -0.365 N 
ATOM     45  H7  UNL     1      20.589   1.349  13.866  1.00  0.00     0.165 HD
ENDBRANCH  38  40
ENDBRANCH  35  37
ENDBRANCH   4  35
BRANCH   8  46
HETATM   46  C17 UNL     1      17.750   4.046  18.648  1.00  0.00     0.102 C 
HETATM   47  C18 UNL     1      17.677   3.597  20.078  1.00  0.00     0.056 C 
HETATM   48  C19 UNL     1      16.274   3.607  20.547  1.00  0.00     0.275 C 
HETATM   49  N10 UNL     1      15.618   4.903  20.438  1.00  0.00     0.092 N 
HETATM   50  C27 UNL     1      15.624   5.351  19.063  1.00  0.00     0.275 C 
HETATM   51  C28 UNL     1      16.380   4.401  18.169  1.00  0.00     0.056 C 
BRANCH  49  52
HETATM   52  C20 UNL     1      14.331   4.889  21.059  1.00  0.00     0.311 C 
BRANCH  52  53
HETATM   53  C21 UNL     1      14.157   5.688  22.259  1.00  0.00    -0.030 A 
HETATM   54  C22 UNL     1      15.145   6.430  22.862  1.00  0.00     0.009 A 
HETATM   55  C23 UNL     1      14.924   7.168  24.010  1.00  0.00     0.001 A 
HETATM   56  C24 UNL     1      13.684   7.190  24.606  1.00  0.00     0.000 A 
HETATM   57  C25 UNL     1      12.673   6.456  24.027  1.00  0.00     0.001 A 
HETATM   58  C26 UNL     1      12.906   5.729  22.889  1.00  0.00     0.009 A 
ENDBRANCH  52  53
ENDBRANCH  49  52
ENDBRANCH   8  46
TORSDOF 13
ENDMDL
MODEL 4
REMARK VINA RESULT: -10.251731903      3.695      8.954
REMARK  13 active torsions:
REMARK  status: ('A' for Active; 'I' for Inactive)
REMARK    1  A    between atoms: N1_1  and  S1_4 
REMARK    2  A    between atoms: S1_4  and  C1_7 
REMARK    3  A    between atoms: C4_10  and  C5_11 
REMARK    4  A    between atoms: C5_11  and  O3_12 
REMARK    5  A    between atoms: C5_11  and  N2_14 
REMARK    6  A    between atoms: C8_17  and  N3_18 
REMARK    7  A    between atoms: N3_18  and  C9_20 
REMARK    8  A    between atoms: C10_23  and  N5_24 
REMARK    9  A    between atoms: N5_24  and  N6_26 
REMARK   10  A    between atoms: C11_28  and  C12_29 
REMARK   11  A    between atoms: N9_38  and  C17_40 
REMARK   12  A    between atoms: N10_43  and  C20_44 
REMARK   13  A    between atoms: C20_44  and  C21_45 
ROOT
HETATM    1  C9  UNL     1      19.253   7.405  20.080  1.00  0.00     0.707 A 
HETATM    2  N4  UNL     1      20.084   6.644  19.383  1.00  0.00    -0.020 N 
ATOM      3  H4  UNL     1      19.688   5.858  18.867  1.00  0.00     0.203 HD
HETATM    4  C10 UNL     1      21.411   6.835  19.308  1.00  0.00     0.726 A 
HETATM    5  N8  UNL     1      21.905   7.894  20.008  1.00  0.00    -0.020 N 
ATOM      6  H8  UNL     1      22.907   8.080  19.983  1.00  0.00     0.203 HD
HETATM    7  C16 UNL     1      21.113   8.696  20.726  1.00  0.00     0.707 A 
HETATM    8  N9  UNL     1      21.513   9.728  21.398  1.00  0.00    -0.220 N 
ATOM      9  H9  UNL     1      20.818  10.268  21.912  1.00  0.00     0.178 HD
HETATM   10  N11 UNL     1      19.770   8.438  20.757  1.00  0.00    -0.021 N 
ATOM     11  H11 UNL     1      19.154   9.041  21.302  1.00  0.00     0.203 HD
ENDROOT
BRANCH   1  12
HETATM   12  N3  UNL     1      17.966   7.161  20.078  1.00  0.00    -0.220 N 
ATOM     13  H3  UNL     1      17.282   7.913  19.995  1.00  0.00     0.178 HD
BRANCH  12  14
HETATM   14  C8  UNL     1      17.561   5.783  20.197  1.00  0.00     0.102 C 
HETATM   15  C7  UNL     1      16.439   5.379  19.323  1.00  0.00     0.045 C 
HETATM   16  C6  UNL     1      15.076   5.666  19.936  1.00  0.00     0.127 C 
HETATM   17  N2  UNL     1      14.966   5.010  21.189  1.00  0.00    -0.360 N 
HETATM   18  C30 UNL     1      16.191   4.461  21.791  1.00  0.00     0.127 C 
HETATM   19  C29 UNL     1      17.323   5.472  21.657  1.00  0.00     0.045 C 
BRANCH  17  20
HETATM   20  C5  UNL     1      13.791   4.848  21.918  1.00  0.00     0.165 C 
BRANCH  20  21
HETATM   21  C4  UNL     1      13.340   5.603  23.073  1.00  0.00     0.084 A 
HETATM   22  C3  UNL     1      13.710   6.843  23.530  1.00  0.00     0.037 A 
HETATM   23  C2  UNL     1      12.999   7.109  24.701  1.00  0.00     0.046 A 
HETATM   24  C1  UNL     1      12.207   6.039  24.948  1.00  0.00     0.149 A 
HETATM   25  N12 UNL     1      12.417   5.153  23.980  1.00  0.00    -0.342 N 
ATOM     26  H12 UNL     1      11.948   4.249  23.919  1.00  0.00     0.167 HD
BRANCH  24  27
HETATM   27  S1  UNL     1      11.070   5.774  26.265  1.00  0.00     0.272 S 
HETATM   28  O1  UNL     1      11.718   6.223  27.561  1.00  0.00    -0.199 OA
HETATM   29  O2  UNL     1       9.794   6.479  26.011  1.00  0.00    -0.199 OA
BRANCH  27  30
HETATM   30  N1  UNL     1      10.779   4.082  26.389  1.00  0.00    -0.323 N 
ATOM     31  H12 UNL     1      11.488   3.371  26.567  1.00  0.00     0.169 HD
ATOM     32  H11 UNL     1       9.779   3.930  26.251  1.00  0.00     0.169 HD
ENDBRANCH  27  30
ENDBRANCH  24  27
ENDBRANCH  20  21
BRANCH  20  33
HETATM   33  O3  UNL     1      12.975   3.906  21.531  1.00  0.00    -0.344 OA
ATOM     34  H3  UNL     1      13.337   3.308  20.888  1.00  0.00     0.219 HD
ENDBRANCH  20  33
ENDBRANCH  17  20
ENDBRANCH  12  14
ENDBRANCH   1  12
BRANCH   4  35
HETATM   35  N5  UNL     1      22.255   6.001  18.558  1.00  0.00    -0.131 N 
ATOM     36  H5  UNL     1      23.108   6.412  18.178  1.00  0.00     0.205 HD
BRANCH  35  37
HETATM   37  N6  UNL     1      22.023   4.676  18.296  1.00  0.00    -0.295 N 
HETATM   38  C11 UNL     1      21.216   4.197  17.440  1.00  0.00     0.137 C 
ATOM     39  H6  UNL     1      22.557   4.003  18.846  1.00  0.00     0.186 HD
BRANCH  38  40
HETATM   40  C12 UNL     1      21.090   2.744  17.284  1.00  0.00     0.049 A 
HETATM   41  C13 UNL     1      20.319   1.863  18.005  1.00  0.00     0.032 A 
HETATM   42  C14 UNL     1      20.524   0.584  17.493  1.00  0.00     0.019 A 
HETATM   43  C15 UNL     1      21.433   0.736  16.458  1.00  0.00     0.088 A 
HETATM   44  N7  UNL     1      21.749   2.029  16.359  1.00  0.00    -0.365 N 
ATOM     45  H7  UNL     1      22.400   2.420  15.677  1.00  0.00     0.165 HD
ENDBRANCH  38  40
ENDBRANCH  35  37
ENDBRANCH   4  35
BRANCH   8  46
HETATM   46  C17 UNL     1      22.897  10.155  21.457  1.00  0.00     0.102 C 
HETATM   47  C18 UNL     1      23.078  11.470  20.757  1.00  0.00     0.056 C 
HETATM   48  C19 UNL     1      23.672  12.462  21.679  1.00  0.00     0.275 C 
HETATM   49  N10 UNL     1      22.896  12.690  22.890  1.00  0.00     0.092 N 
HETATM   50  C27 UNL     1      22.739  11.452  23.622  1.00  0.00     0.275 C 
HETATM   51  C28 UNL     1      23.336  10.284  22.878  1.00  0.00     0.056 C 
BRANCH  49  52
HETATM   52  C20 UNL     1      23.428  13.774  23.654  1.00  0.00     0.311 C 
BRANCH  52  53
HETATM   53  C21 UNL     1      22.922  13.957  25.002  1.00  0.00    -0.030 A 
HETATM   54  C22 UNL     1      21.651  14.374  25.317  1.00  0.00     0.009 A 
HETATM   55  C23 UNL     1      21.223  14.537  26.621  1.00  0.00     0.001 A 
HETATM   56  C24 UNL     1      22.070  14.285  27.677  1.00  0.00     0.000 A 
HETATM   57  C25 UNL     1      23.351  13.867  27.395  1.00  0.00     0.001 A 
HETATM   58  C26 UNL     1      23.761  13.709  26.097  1.00  0.00     0.009 A 
ENDBRANCH  52  53
ENDBRANCH  49  52
ENDBRANCH   8  46
TORSDOF 13
ENDMDL
MODEL 5
REMARK VINA RESULT: -10.245195673      5.200     10.215
REMARK  13 active torsions:
REMARK  status: ('A' for Active; 'I' for Inactive)
REMARK    1  A    between atoms: N1_1  and  S1_4 
REMARK    2  A    between atoms: S1_4  and  C1_7 
REMARK    3  A    between atoms: C4_10  and  C5_11 
REMARK    4  A    between atoms: C5_11  and  O3_12 
REMARK    5  A    between atoms: C5_11  and  N2_14 
REMARK    6  A    between atoms: C8_17  and  N3_18 
REMARK    7  A    between atoms: N3_18  and  C9_20 
REMARK    8  A    between atoms: C10_23  and  N5_24 
REMARK    9  A    between atoms: N5_24  and  N6_26 
REMARK   10  A    between atoms: C11_28  and  C12_29 
REMARK   11  A    between atoms: N9_38  and  C17_40 
REMARK   12  A    between atoms: N10_43  and  C20_44 
REMARK   13  A    between atoms: C20_44  and  C21_45 
ROOT
HETATM    1  C9  UNL     1      19.271   7.177  19.434  1.00  0.00     0.707 A 
HETATM    2  N4  UNL     1      20.133   6.442  18.747  1.00  0.00    -0.020 N 
ATOM      3  H4  UNL     1      19.756   5.725  18.127  1.00  0.00     0.203 HD
HETATM    4  C10 UNL     1      21.467   6.575  18.810  1.00  0.00     0.726 A 
HETATM    5  N8  UNL     1      21.934   7.543  19.646  1.00  0.00    -0.020 N 
ATOM      6  H8  UNL     1      22.941   7.682  19.729  1.00  0.00     0.203 HD
HETATM    7  C16 UNL     1      21.111   8.315  20.362  1.00  0.00     0.707 A 
HETATM    8  N9  UNL     1      21.487   9.262  21.160  1.00  0.00    -0.220 N 
ATOM      9  H9  UNL     1      20.769   9.787  21.658  1.00  0.00     0.178 HD
HETATM   10  N11 UNL     1      19.762   8.120  20.248  1.00  0.00    -0.021 N 
ATOM     11  H11 UNL     1      19.122   8.701  20.789  1.00  0.00     0.203 HD
ENDROOT
BRANCH   1  12
HETATM   12  N3  UNL     1      17.981   6.996  19.294  1.00  0.00    -0.220 N 
ATOM     13  H3  UNL     1      17.389   7.700  18.853  1.00  0.00     0.178 HD
BRANCH  12  14
HETATM   14  C8  UNL     1      17.436   5.757  19.790  1.00  0.00     0.102 C 
HETATM   15  C7  UNL     1      17.800   4.554  19.013  1.00  0.00     0.045 C 
HETATM   16  C6  UNL     1      16.871   4.305  17.833  1.00  0.00     0.127 C 
HETATM   17  N2  UNL     1      15.533   4.191  18.293  1.00  0.00    -0.360 N 
HETATM   18  C30 UNL     1      15.239   4.605  19.673  1.00  0.00     0.127 C 
HETATM   19  C29 UNL     1      15.944   5.922  19.972  1.00  0.00     0.045 C 
BRANCH  17  20
HETATM   20  C5  UNL     1      14.456   3.730  17.541  1.00  0.00     0.165 C 
BRANCH  20  21
HETATM   21  C4  UNL     1      14.297   2.439  16.896  1.00  0.00     0.084 A 
HETATM   22  C3  UNL     1      14.029   1.202  17.427  1.00  0.00     0.037 A 
HETATM   23  C2  UNL     1      14.001   0.274  16.385  1.00  0.00     0.046 A 
HETATM   24  C1  UNL     1      14.250   0.946  15.236  1.00  0.00     0.149 A 
HETATM   25  N12 UNL     1      14.425   2.225  15.549  1.00  0.00    -0.342 N 
ATOM     26  H12 UNL     1      14.629   2.958  14.870  1.00  0.00     0.167 HD
BRANCH  24  27
HETATM   27  S1  UNL     1      14.335   0.338  13.587  1.00  0.00     0.272 S 
HETATM   28  O1  UNL     1      15.455  -0.683  13.505  1.00  0.00    -0.199 OA
HETATM   29  O2  UNL     1      13.036  -0.230  13.164  1.00  0.00    -0.199 OA
BRANCH  27  30
HETATM   30  N1  UNL     1      14.753   1.651  12.553  1.00  0.00    -0.323 N 
ATOM     31  H12 UNL     1      15.647   2.143  12.554  1.00  0.00     0.169 HD
ATOM     32  H11 UNL     1      13.950   1.838  11.953  1.00  0.00     0.169 HD
ENDBRANCH  27  30
ENDBRANCH  24  27
ENDBRANCH  20  21
BRANCH  20  33
HETATM   33  O3  UNL     1      13.448   4.545  17.384  1.00  0.00    -0.344 OA
ATOM     34  H3  UNL     1      13.688   5.429  17.134  1.00  0.00     0.219 HD
ENDBRANCH  20  33
ENDBRANCH  17  20
ENDBRANCH  12  14
ENDBRANCH   1  12
BRANCH   4  35
HETATM   35  N5  UNL     1      22.344   5.771  18.064  1.00  0.00    -0.131 N 
ATOM     36  H5  UNL     1      23.187   6.211  17.695  1.00  0.00     0.205 HD
BRANCH  35  37
HETATM   37  N6  UNL     1      22.156   4.441  17.793  1.00  0.00    -0.295 N 
HETATM   38  C11 UNL     1      21.111   3.899  17.314  1.00  0.00     0.137 C 
ATOM     39  H6  UNL     1      22.939   3.821  17.997  1.00  0.00     0.186 HD
BRANCH  38  40
HETATM   40  C12 UNL     1      21.077   2.452  17.082  1.00  0.00     0.049 A 
HETATM   41  C13 UNL     1      20.499   1.469  17.849  1.00  0.00     0.032 A 
HETATM   42  C14 UNL     1      20.721   0.243  17.227  1.00  0.00     0.019 A 
HETATM   43  C15 UNL     1      21.444   0.529  16.080  1.00  0.00     0.088 A 
HETATM   44  N7  UNL     1      21.639   1.850  16.022  1.00  0.00    -0.365 N 
ATOM     45  H7  UNL     1      22.144   2.332  15.278  1.00  0.00     0.165 HD
ENDBRANCH  38  40
ENDBRANCH  35  37
ENDBRANCH   4  35
BRANCH   8  46
HETATM   46  C17 UNL     1      22.875   9.615  21.382  1.00  0.00     0.102 C 
HETATM   47  C18 UNL     1      23.264  10.797  20.543  1.00  0.00     0.056 C 
HETATM   48  C19 UNL     1      23.788  11.883  21.400  1.00  0.00     0.275 C 
HETATM   49  N10 UNL     1      22.856  12.335  22.424  1.00  0.00     0.092 N 
HETATM   50  C27 UNL     1      22.491  11.233  23.287  1.00  0.00     0.275 C 
HETATM   51  C28 UNL     1      23.101   9.935  22.824  1.00  0.00     0.056 C 
BRANCH  49  52
HETATM   52  C20 UNL     1      23.349  13.491  23.103  1.00  0.00     0.311 C 
BRANCH  52  53
HETATM   53  C21 UNL     1      22.842  13.752  24.438  1.00  0.00    -0.030 A 
HETATM   54  C22 UNL     1      21.542  14.086  24.735  1.00  0.00     0.009 A 
HETATM   55  C23 UNL     1      21.114  14.331  26.027  1.00  0.00     0.001 A 
HETATM   56  C24 UNL     1      21.988  14.251  27.086  1.00  0.00     0.000 A 
HETATM   57  C25 UNL     1      23.298  13.919  26.821  1.00  0.00     0.001 A 
HETATM   58  C26 UNL     1      23.709  13.679  25.536  1.00  0.00     0.009 A 
ENDBRANCH  52  53
ENDBRANCH  49  52
ENDBRANCH   8  46
TORSDOF 13
ENDMDL
