MODEL 1
REMARK VINA RESULT: -8.960495096      0.000      0.000
REMARK  14 active torsions:
REMARK  status: ('A' for Active; 'I' for Inactive)
REMARK    1  A    between atoms: C1_2  and  C2_4 
REMARK    2  A    between atoms: C3_6  and  O4_7 
REMARK    3  A    between atoms: O4_7  and  C4_8 
REMARK    4  A    between atoms: C5_9  and  O5_10 
REMARK    5  A    between atoms: C6_12  and  O6_13 
REMARK    6  A    between atoms: C7_15  and  C8_16 
REMARK    7  A    between atoms: C8_16  and  C9_17 
REMARK    8  A    between atoms: N1_23  and  C15_24 
REMARK    9  A    between atoms: C15_24  and  C16_25 
REMARK   10  A    between atoms: N2_37  and  C27_38 
REMARK   11  A    between atoms: C27_38  and  C28_39 
REMARK   12  A    between atoms: C34_45  and  O8_46 
REMARK   13  A    between atoms: C35_48  and  O9_49 
REMARK   14  A    between atoms: C36_51  and  O10_52 
ROOT
HETATM    1  C4  UNL     1      18.233   6.219  19.366  1.00  0.00     0.262 C 
HETATM    2  C5  UNL     1      17.633   7.361  20.127  1.00  0.00     0.198 C 
HETATM    3  C6  UNL     1      18.096   7.377  21.579  1.00  0.00     0.174 C 
HETATM    4  C7  UNL     1      17.045   6.709  22.405  1.00  0.00     0.124 C 
HETATM    5  N1  UNL     1      17.414   5.284  22.443  1.00  0.00    -0.322 N 
HETATM    6  C26 UNL     1      17.943   4.581  21.307  1.00  0.00     0.323 C 
HETATM    7  O7  UNL     1      18.364   3.428  21.644  1.00  0.00    -0.247 OA
HETATM    8  N2  UNL     1      18.069   4.934  19.949  1.00  0.00    -0.300 N 
ENDROOT
BRANCH   1   9
HETATM    9  O4  UNL     1      19.570   6.543  19.111  1.00  0.00    -0.331 OA
BRANCH   9  10
HETATM   10  C3  UNL     1      20.256   5.543  18.427  1.00  0.00     0.295 C 
HETATM   11  O3  UNL     1      21.578   5.616  18.738  1.00  0.00    -0.340 OA
HETATM   12  C2  UNL     1      22.386   6.425  18.057  1.00  0.00     0.256 C 
HETATM   13  C36 UNL     1      21.997   6.825  16.675  1.00  0.00     0.189 C 
HETATM   14  C35 UNL     1      20.529   6.868  16.412  1.00  0.00     0.183 C 
HETATM   15  C34 UNL     1      19.964   5.570  16.946  1.00  0.00     0.204 C 
BRANCH  12  16
HETATM   16  C1  UNL     1      23.754   5.851  17.992  1.00  0.00     0.206 C 
HETATM   17  O1  UNL     1      24.302   5.730  16.872  1.00  0.00    -0.646 OA
HETATM   18  O2  UNL     1      24.449   5.445  19.110  1.00  0.00    -0.646 OA
ENDBRANCH  12  16
BRANCH  13  19
HETATM   19  O10 UNL     1      22.504   8.114  16.393  1.00  0.00    -0.390 OA
ATOM     20  H10 UNL     1      22.582   8.609  17.201  1.00  0.00     0.210 HD
ENDBRANCH  13  19
BRANCH  14  21
HETATM   21  O9  UNL     1      19.925   7.969  17.011  1.00  0.00    -0.390 OA
ATOM     22  H9  UNL     1      20.019   8.749  16.477  1.00  0.00     0.210 HD
ENDBRANCH  14  21
BRANCH  15  23
HETATM   23  O8  UNL     1      20.644   4.525  16.356  1.00  0.00    -0.388 OA
ATOM     24  H8  UNL     1      21.238   4.887  15.708  1.00  0.00     0.210 HD
ENDBRANCH  15  23
ENDBRANCH   9  10
ENDBRANCH   1   9
BRANCH   2  25
HETATM   25  O5  UNL     1      16.268   7.503  19.996  1.00  0.00    -0.389 OA
ATOM     26  H5  UNL     1      15.778   7.476  20.809  1.00  0.00     0.210 HD
ENDBRANCH   2  25
BRANCH   8  27
HETATM   27  C27 UNL     1      18.028   3.799  19.045  1.00  0.00     0.168 C 
BRANCH  27  28
HETATM   28  C28 UNL     1      16.697   3.475  18.536  1.00  0.00    -0.040 A 
HETATM   29  C29 UNL     1      16.001   4.153  17.582  1.00  0.00     0.009 A 
HETATM   30  C30 UNL     1      14.736   3.767  17.160  1.00  0.00     0.001 A 
HETATM   31  C31 UNL     1      14.131   2.660  17.705  1.00  0.00     0.000 A 
HETATM   32  C32 UNL     1      14.814   1.959  18.672  1.00  0.00     0.001 A 
HETATM   33  C33 UNL     1      16.068   2.354  19.080  1.00  0.00     0.009 A 
ENDBRANCH  27  28
ENDBRANCH   8  27
BRANCH   3  34
HETATM   34  O6  UNL     1      18.399   8.668  21.917  1.00  0.00    -0.391 OA
ATOM     35  H6  UNL     1      18.448   8.724  22.864  1.00  0.00     0.210 HD
ENDBRANCH   3  34
BRANCH   4  36
HETATM   36  C8  UNL     1      16.657   7.293  23.693  1.00  0.00     0.066 C 
BRANCH  36  37
HETATM   37  C9  UNL     1      15.229   7.177  24.047  1.00  0.00    -0.056 A 
HETATM   38  C10 UNL     1      14.295   6.958  23.026  1.00  0.00     0.007 A 
HETATM   39  C11 UNL     1      12.963   6.775  23.300  1.00  0.00     0.001 A 
HETATM   40  C12 UNL     1      12.484   6.796  24.586  1.00  0.00     0.000 A 
HETATM   41  C13 UNL     1      13.372   7.007  25.608  1.00  0.00     0.001 A 
HETATM   42  C14 UNL     1      14.722   7.193  25.319  1.00  0.00     0.007 A 
ENDBRANCH  36  37
ENDBRANCH   4  36
BRANCH   5  43
HETATM   43  C15 UNL     1      17.208   4.546  23.635  1.00  0.00     0.167 C 
BRANCH  43  44
HETATM   44  C16 UNL     1      15.889   3.947  23.860  1.00  0.00    -0.029 A 
HETATM   45  C17 UNL     1      15.038   3.516  22.875  1.00  0.00     0.010 A 
HETATM   46  C18 UNL     1      13.796   2.974  23.123  1.00  0.00     0.002 A 
HETATM   47  C19 UNL     1      13.378   2.855  24.421  1.00  0.00     0.012 A 
HETATM   48  C20 UNL     1      14.190   3.270  25.447  1.00  0.00    -0.025 A 
HETATM   49  C21 UNL     1      13.739   3.136  26.744  1.00  0.00     0.012 A 
HETATM   50  C25 UNL     1      15.449   3.819  25.170  1.00  0.00    -0.018 A 
HETATM   51  C22 UNL     1      14.566   3.560  27.760  1.00  0.00     0.001 A 
HETATM   52  C23 UNL     1      15.801   4.098  27.493  1.00  0.00     0.001 A 
HETATM   53  C24 UNL     1      16.252   4.232  26.204  1.00  0.00     0.013 A 
ENDBRANCH  43  44
ENDBRANCH   5  43
TORSDOF 14
ENDMDL
MODEL 2
REMARK VINA RESULT: -8.496359845     11.675     14.476
REMARK  14 active torsions:
REMARK  status: ('A' for Active; 'I' for Inactive)
REMARK    1  A    between atoms: C1_2  and  C2_4 
REMARK    2  A    between atoms: C3_6  and  O4_7 
REMARK    3  A    between atoms: O4_7  and  C4_8 
REMARK    4  A    between atoms: C5_9  and  O5_10 
REMARK    5  A    between atoms: C6_12  and  O6_13 
REMARK    6  A    between atoms: C7_15  and  C8_16 
REMARK    7  A    between atoms: C8_16  and  C9_17 
REMARK    8  A    between atoms: N1_23  and  C15_24 
REMARK    9  A    between atoms: C15_24  and  C16_25 
REMARK   10  A    between atoms: N2_37  and  C27_38 
REMARK   11  A    between atoms: C27_38  and  C28_39 
REMARK   12  A    between atoms: C34_45  and  O8_46 
REMARK   13  A    between atoms: C35_48  and  O9_49 
REMARK   14  A    between atoms: C36_51  and  O10_52 
ROOT
HETATM    1  C4  UNL     1      25.076  12.771  25.071  1.00  0.00     0.262 C 
HETATM    2  C5  UNL     1      26.430  13.353  24.801  1.00  0.00     0.198 C 
HETATM    3  C6  UNL     1      27.547  12.403  25.216  1.00  0.00     0.174 C 
HETATM    4  C7  UNL     1      28.011  12.805  26.578  1.00  0.00     0.124 C 
HETATM    5  N1  UNL     1      27.187  12.036  27.524  1.00  0.00    -0.322 N 
HETATM    6  C26 UNL     1      25.785  11.791  27.323  1.00  0.00     0.323 C 
HETATM    7  O7  UNL     1      25.348  10.946  28.167  1.00  0.00    -0.247 OA
HETATM    8  N2  UNL     1      24.857  12.303  26.394  1.00  0.00    -0.300 N 
ENDROOT
BRANCH   1   9
HETATM    9  O4  UNL     1      24.838  11.797  24.095  1.00  0.00    -0.331 OA
BRANCH   9  10
HETATM   10  C3  UNL     1      23.483  11.571  23.867  1.00  0.00     0.295 C 
HETATM   11  O3  UNL     1      23.302  10.269  23.516  1.00  0.00    -0.340 OA
HETATM   12  C2  UNL     1      23.424   9.890  22.246  1.00  0.00     0.256 C 
HETATM   13  C36 UNL     1      23.228  10.909  21.175  1.00  0.00     0.189 C 
HETATM   14  C35 UNL     1      23.572  12.310  21.556  1.00  0.00     0.183 C 
HETATM   15  C34 UNL     1      22.901  12.563  22.889  1.00  0.00     0.204 C 
BRANCH  12  16
HETATM   16  C1  UNL     1      22.514   8.753  21.958  1.00  0.00     0.206 C 
HETATM   17  O1  UNL     1      21.872   8.243  22.904  1.00  0.00    -0.646 OA
HETATM   18  O2  UNL     1      22.343   8.233  20.693  1.00  0.00    -0.646 OA
ENDBRANCH  12  16
BRANCH  13  19
HETATM   19  O10 UNL     1      24.025  10.580  20.055  1.00  0.00    -0.390 OA
ATOM     20  H10 UNL     1      24.390  11.373  19.680  1.00  0.00     0.210 HD
ENDBRANCH  13  19
BRANCH  14  21
HETATM   21  O9  UNL     1      24.947  12.507  21.634  1.00  0.00    -0.390 OA
ATOM     22  H9  UNL     1      25.312  12.740  20.788  1.00  0.00     0.210 HD
ENDBRANCH  14  21
BRANCH  15  23
HETATM   23  O8  UNL     1      21.555  12.295  22.756  1.00  0.00    -0.388 OA
ATOM     24  H8  UNL     1      21.380  12.109  21.841  1.00  0.00     0.210 HD
ENDBRANCH  15  23
ENDBRANCH   9  10
ENDBRANCH   1   9
BRANCH   2  25
HETATM   25  O5  UNL     1      26.619  14.639  25.261  1.00  0.00    -0.389 OA
ATOM     26  H5  UNL     1      26.573  14.743  26.204  1.00  0.00     0.210 HD
ENDBRANCH   2  25
BRANCH   8  27
HETATM   27  C27 UNL     1      23.494  12.337  26.891  1.00  0.00     0.168 C 
BRANCH  27  28
HETATM   28  C28 UNL     1      23.259  13.310  27.956  1.00  0.00    -0.040 A 
HETATM   29  C29 UNL     1      24.098  14.310  28.347  1.00  0.00     0.009 A 
HETATM   30  C30 UNL     1      23.787  15.192  29.373  1.00  0.00     0.001 A 
HETATM   31  C31 UNL     1      22.592  15.081  30.043  1.00  0.00     0.000 A 
HETATM   32  C32 UNL     1      21.729  14.078  29.667  1.00  0.00     0.001 A 
HETATM   33  C33 UNL     1      22.052  13.211  28.647  1.00  0.00     0.009 A 
ENDBRANCH  27  28
ENDBRANCH   8  27
BRANCH   3  34
HETATM   34  O6  UNL     1      28.495  12.401  24.230  1.00  0.00    -0.391 OA
ATOM     35  H6  UNL     1      28.820  11.514  24.131  1.00  0.00     0.210 HD
ENDBRANCH   3  34
BRANCH   4  36
HETATM   36  C8  UNL     1      29.449  12.833  26.873  1.00  0.00     0.066 C 
BRANCH  36  37
HETATM   37  C9  UNL     1      29.936  14.034  27.580  1.00  0.00    -0.056 A 
HETATM   38  C10 UNL     1      29.065  15.117  27.751  1.00  0.00     0.007 A 
HETATM   39  C11 UNL     1      29.439  16.233  28.457  1.00  0.00     0.001 A 
HETATM   40  C12 UNL     1      30.682  16.339  29.028  1.00  0.00     0.000 A 
HETATM   41  C13 UNL     1      31.557  15.295  28.879  1.00  0.00     0.001 A 
HETATM   42  C14 UNL     1      31.168  14.168  28.160  1.00  0.00     0.007 A 
ENDBRANCH  36  37
ENDBRANCH   4  36
BRANCH   5  43
HETATM   43  C15 UNL     1      27.777  11.539  28.713  1.00  0.00     0.167 C 
BRANCH  43  44
HETATM   44  C16 UNL     1      27.956  12.465  29.836  1.00  0.00    -0.029 A 
HETATM   45  C17 UNL     1      27.054  13.421  30.224  1.00  0.00     0.010 A 
HETATM   46  C18 UNL     1      27.264  14.286  31.275  1.00  0.00     0.002 A 
HETATM   47  C19 UNL     1      28.435  14.196  31.977  1.00  0.00     0.012 A 
HETATM   48  C20 UNL     1      29.374  13.257  31.632  1.00  0.00    -0.025 A 
HETATM   49  C21 UNL     1      30.545  13.191  32.360  1.00  0.00     0.012 A 
HETATM   50  C25 UNL     1      29.138  12.387  30.559  1.00  0.00    -0.018 A 
HETATM   51  C22 UNL     1      31.476  12.243  31.997  1.00  0.00     0.001 A 
HETATM   52  C23 UNL     1      31.248  11.390  30.947  1.00  0.00     0.001 A 
HETATM   53  C24 UNL     1      30.085  11.452  30.222  1.00  0.00     0.013 A 
ENDBRANCH  43  44
ENDBRANCH   5  43
TORSDOF 14
ENDMDL
MODEL 3
REMARK VINA RESULT: -8.081057928      9.767     12.586
REMARK  14 active torsions:
REMARK  status: ('A' for Active; 'I' for Inactive)
REMARK    1  A    between atoms: C1_2  and  C2_4 
REMARK    2  A    between atoms: C3_6  and  O4_7 
REMARK    3  A    between atoms: O4_7  and  C4_8 
REMARK    4  A    between atoms: C5_9  and  O5_10 
REMARK    5  A    between atoms: C6_12  and  O6_13 
REMARK    6  A    between atoms: C7_15  and  C8_16 
REMARK    7  A    between atoms: C8_16  and  C9_17 
REMARK    8  A    between atoms: N1_23  and  C15_24 
REMARK    9  A    between atoms: C15_24  and  C16_25 
REMARK   10  A    between atoms: N2_37  and  C27_38 
REMARK   11  A    between atoms: C27_38  and  C28_39 
REMARK   12  A    between atoms: C34_45  and  O8_46 
REMARK   13  A    between atoms: C35_48  and  O9_49 
REMARK   14  A    between atoms: C36_51  and  O10_52 
ROOT
HETATM    1  C4  UNL     1      26.061  12.741  26.696  1.00  0.00     0.262 C 
HETATM    2  C5  UNL     1      25.841  12.077  25.372  1.00  0.00     0.198 C 
HETATM    3  C6  UNL     1      25.059  12.970  24.415  1.00  0.00     0.174 C 
HETATM    4  C7  UNL     1      23.621  12.568  24.482  1.00  0.00     0.124 C 
HETATM    5  N1  UNL     1      23.022  13.401  25.537  1.00  0.00    -0.322 N 
HETATM    6  C26 UNL     1      23.701  13.722  26.762  1.00  0.00     0.323 C 
HETATM    7  O7  UNL     1      23.062  14.607  27.416  1.00  0.00    -0.247 OA
HETATM    8  N2  UNL     1      24.897  13.246  27.336  1.00  0.00    -0.300 N 
ENDROOT
BRANCH   1   9
HETATM    9  O4  UNL     1      27.057  13.708  26.518  1.00  0.00    -0.331 OA
BRANCH   9  10
HETATM   10  C3  UNL     1      28.221  13.197  25.951  1.00  0.00     0.295 C 
HETATM   11  O3  UNL     1      28.849  12.404  26.861  1.00  0.00    -0.340 OA
HETATM   12  C2  UNL     1      29.692  12.932  27.745  1.00  0.00     0.256 C 
HETATM   13  C36 UNL     1      30.345  14.232  27.421  1.00  0.00     0.189 C 
HETATM   14  C35 UNL     1      29.561  15.136  26.530  1.00  0.00     0.183 C 
HETATM   15  C34 UNL     1      29.091  14.285  25.371  1.00  0.00     0.204 C 
BRANCH  12  16
HETATM   16  C1  UNL     1      30.764  11.960  28.078  1.00  0.00     0.206 C 
HETATM   17  O1  UNL     1      31.565  12.241  28.998  1.00  0.00    -0.646 OA
HETATM   18  O2  UNL     1      30.916  10.759  27.419  1.00  0.00    -0.646 OA
ENDBRANCH  12  16
BRANCH  13  19
HETATM   19  O10 UNL     1      30.597  14.947  28.615  1.00  0.00    -0.390 OA
ATOM     20  H10 UNL     1      31.209  14.460  29.154  1.00  0.00     0.210 HD
ENDBRANCH  13  19
BRANCH  14  21
HETATM   21  O9  UNL     1      28.489  15.722  27.196  1.00  0.00    -0.390 OA
ATOM     22  H9  UNL     1      28.402  15.382  28.079  1.00  0.00     0.210 HD
ENDBRANCH  14  21
BRANCH  15  23
HETATM   23  O8  UNL     1      30.195  13.691  24.794  1.00  0.00    -0.388 OA
ATOM     24  H8  UNL     1      30.255  12.801  25.121  1.00  0.00     0.210 HD
ENDBRANCH  15  23
ENDBRANCH   9  10
ENDBRANCH   1   9
BRANCH   2  25
HETATM   25  O5  UNL     1      25.347  10.792  25.434  1.00  0.00    -0.389 OA
ATOM     26  H5  UNL     1      24.517  10.654  24.991  1.00  0.00     0.210 HD
ENDBRANCH   2  25
BRANCH   8  27
HETATM   27  C27 UNL     1      24.910  13.300  28.786  1.00  0.00     0.168 C 
BRANCH  27  28
HETATM   28  C28 UNL     1      24.298  12.146  29.442  1.00  0.00    -0.040 A 
HETATM   29  C29 UNL     1      24.184  10.886  28.937  1.00  0.00     0.009 A 
HETATM   30  C30 UNL     1      23.585   9.848  29.639  1.00  0.00     0.001 A 
HETATM   31  C31 UNL     1      23.077  10.065  30.896  1.00  0.00     0.000 A 
HETATM   32  C32 UNL     1      23.179  11.330  31.428  1.00  0.00     0.001 A 
HETATM   33  C33 UNL     1      23.776  12.349  30.720  1.00  0.00     0.009 A 
ENDBRANCH  27  28
ENDBRANCH   8  27
BRANCH   3  34
HETATM   34  O6  UNL     1      25.650  12.898  23.184  1.00  0.00    -0.391 OA
ATOM     35  H6  UNL     1      25.053  13.270  22.545  1.00  0.00     0.210 HD
ENDBRANCH   3  34
BRANCH   4  36
HETATM   36  C8  UNL     1      22.841  12.463  23.243  1.00  0.00     0.066 C 
BRANCH  36  37
HETATM   37  C9  UNL     1      22.793  11.123  22.626  1.00  0.00    -0.056 A 
HETATM   38  C10 UNL     1      23.603  10.861  21.514  1.00  0.00     0.007 A 
HETATM   39  C11 UNL     1      23.651   9.616  20.939  1.00  0.00     0.001 A 
HETATM   40  C12 UNL     1      22.908   8.570  21.426  1.00  0.00     0.000 A 
HETATM   41  C13 UNL     1      22.105   8.794  22.514  1.00  0.00     0.001 A 
HETATM   42  C14 UNL     1      22.064  10.061  23.089  1.00  0.00     0.007 A 
ENDBRANCH  36  37
ENDBRANCH   4  36
BRANCH   5  43
HETATM   43  C15 UNL     1      21.701  13.886  25.372  1.00  0.00     0.167 C 
BRANCH  43  44
HETATM   44  C16 UNL     1      20.604  12.912  25.345  1.00  0.00    -0.029 A 
HETATM   45  C17 UNL     1      19.882  12.566  24.232  1.00  0.00     0.010 A 
HETATM   46  C18 UNL     1      18.846  11.658  24.248  1.00  0.00     0.002 A 
HETATM   47  C19 UNL     1      18.510  11.064  25.434  1.00  0.00     0.012 A 
HETATM   48  C20 UNL     1      19.200  11.373  26.579  1.00  0.00    -0.025 A 
HETATM   49  C21 UNL     1      18.837  10.756  27.759  1.00  0.00     0.012 A 
HETATM   50  C25 UNL     1      20.251  12.300  26.539  1.00  0.00    -0.018 A 
HETATM   51  C22 UNL     1      19.540  11.081  28.898  1.00  0.00     0.001 A 
HETATM   52  C23 UNL     1      20.570  11.987  28.862  1.00  0.00     0.001 A 
HETATM   53  C24 UNL     1      20.933  12.602  27.690  1.00  0.00     0.013 A 
ENDBRANCH  43  44
ENDBRANCH   5  43
TORSDOF 14
ENDMDL
MODEL 4
REMARK VINA RESULT: -8.043326096      3.218      6.084
REMARK  14 active torsions:
REMARK  status: ('A' for Active; 'I' for Inactive)
REMARK    1  A    between atoms: C1_2  and  C2_4 
REMARK    2  A    between atoms: C3_6  and  O4_7 
REMARK    3  A    between atoms: O4_7  and  C4_8 
REMARK    4  A    between atoms: C5_9  and  O5_10 
REMARK    5  A    between atoms: C6_12  and  O6_13 
REMARK    6  A    between atoms: C7_15  and  C8_16 
REMARK    7  A    between atoms: C8_16  and  C9_17 
REMARK    8  A    between atoms: N1_23  and  C15_24 
REMARK    9  A    between atoms: C15_24  and  C16_25 
REMARK   10  A    between atoms: N2_37  and  C27_38 
REMARK   11  A    between atoms: C27_38  and  C28_39 
REMARK   12  A    between atoms: C34_45  and  O8_46 
REMARK   13  A    between atoms: C35_48  and  O9_49 
REMARK   14  A    between atoms: C36_51  and  O10_52 
ROOT
HETATM    1  C4  UNL     1      20.134   6.779  20.845  1.00  0.00     0.262 C 
HETATM    2  C5  UNL     1      18.679   6.427  20.891  1.00  0.00     0.198 C 
HETATM    3  C6  UNL     1      17.795   7.665  20.793  1.00  0.00     0.174 C 
HETATM    4  C7  UNL     1      17.402   8.061  22.179  1.00  0.00     0.124 C 
HETATM    5  N1  UNL     1      18.440   9.002  22.634  1.00  0.00    -0.322 N 
HETATM    6  C26 UNL     1      19.836   8.831  22.340  1.00  0.00     0.323 C 
HETATM    7  O7  UNL     1      20.498   9.867  22.669  1.00  0.00    -0.247 OA
HETATM    8  N2  UNL     1      20.562   7.763  21.776  1.00  0.00    -0.300 N 
ENDROOT
BRANCH   1   9
HETATM    9  O4  UNL     1      20.444   7.101  19.519  1.00  0.00    -0.331 OA
BRANCH   9  10
HETATM   10  C3  UNL     1      20.932   6.018  18.793  1.00  0.00     0.295 C 
HETATM   11  O3  UNL     1      22.255   6.211  18.541  1.00  0.00    -0.340 OA
HETATM   12  C2  UNL     1      22.644   6.907  17.475  1.00  0.00     0.256 C 
HETATM   13  C36 UNL     1      21.715   7.010  16.313  1.00  0.00     0.189 C 
HETATM   14  C35 UNL     1      20.263   6.934  16.647  1.00  0.00     0.183 C 
HETATM   15  C34 UNL     1      20.101   5.741  17.564  1.00  0.00     0.204 C 
BRANCH  12  16
HETATM   16  C1  UNL     1      23.942   6.394  16.970  1.00  0.00     0.206 C 
HETATM   17  O1  UNL     1      24.822   7.218  16.630  1.00  0.00    -0.646 OA
HETATM   18  O2  UNL     1      24.224   5.050  16.859  1.00  0.00    -0.646 OA
ENDBRANCH  12  16
BRANCH  13  19
HETATM   19  O10 UNL     1      21.921   8.241  15.649  1.00  0.00    -0.390 OA
ATOM     20  H10 UNL     1      21.234   8.375  15.007  1.00  0.00     0.210 HD
ENDBRANCH  13  19
BRANCH  14  21
HETATM   21  O9  UNL     1      19.805   8.102  17.249  1.00  0.00    -0.390 OA
ATOM     22  H9  UNL     1      20.298   8.302  18.036  1.00  0.00     0.210 HD
ENDBRANCH  14  21
BRANCH  15  23
HETATM   23  O8  UNL     1      20.625   4.633  16.931  1.00  0.00    -0.388 OA
ATOM     24  H8  UNL     1      21.485   4.463  17.298  1.00  0.00     0.210 HD
ENDBRANCH  15  23
ENDBRANCH   9  10
ENDBRANCH   1   9
BRANCH   2  25
HETATM   25  O5  UNL     1      18.310   5.583  21.916  1.00  0.00    -0.389 OA
ATOM     26  H5  UNL     1      18.974   5.436  22.580  1.00  0.00     0.210 HD
ENDBRANCH   2  25
BRANCH   8  27
HETATM   27  C27 UNL     1      21.939   7.692  22.227  1.00  0.00     0.168 C 
BRANCH  27  28
HETATM   28  C28 UNL     1      22.910   8.288  21.310  1.00  0.00    -0.040 A 
HETATM   29  C29 UNL     1      22.933   9.578  20.872  1.00  0.00     0.009 A 
HETATM   30  C30 UNL     1      23.901  10.056  19.999  1.00  0.00     0.001 A 
HETATM   31  C31 UNL     1      24.891   9.222  19.538  1.00  0.00     0.000 A 
HETATM   32  C32 UNL     1      24.888   7.914  19.965  1.00  0.00     0.001 A 
HETATM   33  C33 UNL     1      23.921   7.455  20.832  1.00  0.00     0.009 A 
ENDBRANCH  27  28
ENDBRANCH   8  27
BRANCH   3  34
HETATM   34  O6  UNL     1      16.770   7.391  19.930  1.00  0.00    -0.391 OA
ATOM     35  H6  UNL     1      17.136   7.272  19.062  1.00  0.00     0.210 HD
ENDBRANCH   3  34
BRANCH   4  36
HETATM   36  C8  UNL     1      16.019   8.470  22.451  1.00  0.00     0.066 C 
BRANCH  36  37
HETATM   37  C9  UNL     1      15.141   7.427  23.017  1.00  0.00    -0.056 A 
HETATM   38  C10 UNL     1      15.450   6.893  24.274  1.00  0.00     0.007 A 
HETATM   39  C11 UNL     1      14.635   5.971  24.882  1.00  0.00     0.001 A 
HETATM   40  C12 UNL     1      13.481   5.530  24.286  1.00  0.00     0.000 A 
HETATM   41  C13 UNL     1      13.150   6.034  23.055  1.00  0.00     0.001 A 
HETATM   42  C14 UNL     1      13.984   6.969  22.448  1.00  0.00     0.007 A 
ENDBRANCH  36  37
ENDBRANCH   4  36
BRANCH   5  43
HETATM   43  C15 UNL     1      18.068  10.111  23.433  1.00  0.00     0.167 C 
BRANCH  43  44
HETATM   44  C16 UNL     1      18.342  10.051  24.873  1.00  0.00    -0.029 A 
HETATM   45  C17 UNL     1      17.933   9.049  25.714  1.00  0.00     0.010 A 
HETATM   46  C18 UNL     1      18.194   9.034  27.066  1.00  0.00     0.002 A 
HETATM   47  C19 UNL     1      18.901  10.072  27.611  1.00  0.00     0.012 A 
HETATM   48  C20 UNL     1      19.336  11.101  26.815  1.00  0.00    -0.025 A 
HETATM   49  C21 UNL     1      20.046  12.133  27.394  1.00  0.00     0.012 A 
HETATM   50  C25 UNL     1      19.058  11.095  25.441  1.00  0.00    -0.018 A 
HETATM   51  C22 UNL     1      20.473  13.159  26.579  1.00  0.00     0.001 A 
HETATM   52  C23 UNL     1      20.203  13.155  25.234  1.00  0.00     0.001 A 
HETATM   53  C24 UNL     1      19.497  12.131  24.655  1.00  0.00     0.013 A 
ENDBRANCH  43  44
ENDBRANCH   5  43
TORSDOF 14
ENDMDL
MODEL 5
REMARK VINA RESULT: -8.026066530      1.115      1.709
REMARK  14 active torsions:
REMARK  status: ('A' for Active; 'I' for Inactive)
REMARK    1  A    between atoms: C1_2  and  C2_4 
REMARK    2  A    between atoms: C3_6  and  O4_7 
REMARK    3  A    between atoms: O4_7  and  C4_8 
REMARK    4  A    between atoms: C5_9  and  O5_10 
REMARK    5  A    between atoms: C6_12  and  O6_13 
REMARK    6  A    between atoms: C7_15  and  C8_16 
REMARK    7  A    between atoms: C8_16  and  C9_17 
REMARK    8  A    between atoms: N1_23  and  C15_24 
REMARK    9  A    between atoms: C15_24  and  C16_25 
REMARK   10  A    between atoms: N2_37  and  C27_38 
REMARK   11  A    between atoms: C27_38  and  C28_39 
REMARK   12  A    between atoms: C34_45  and  O8_46 
REMARK   13  A    between atoms: C35_48  and  O9_49 
REMARK   14  A    between atoms: C36_51  and  O10_52 
ROOT
HETATM    1  C4  UNL     1      19.395   5.868  19.011  1.00  0.00     0.262 C 
HETATM    2  C5  UNL     1      18.982   7.133  19.698  1.00  0.00     0.198 C 
HETATM    3  C6  UNL     1      19.254   7.076  21.197  1.00  0.00     0.174 C 
HETATM    4  C7  UNL     1      17.984   6.683  21.880  1.00  0.00     0.124 C 
HETATM    5  N1  UNL     1      18.010   5.213  21.955  1.00  0.00    -0.322 N 
HETATM    6  C26 UNL     1      18.500   4.383  20.890  1.00  0.00     0.323 C 
HETATM    7  O7  UNL     1      18.601   3.172  21.269  1.00  0.00    -0.247 OA
HETATM    8  N2  UNL     1      18.870   4.667  19.560  1.00  0.00    -0.300 N 
ENDROOT
BRANCH   1   9
HETATM    9  O4  UNL     1      20.791   5.874  18.928  1.00  0.00    -0.331 OA
BRANCH   9  10
HETATM   10  C3  UNL     1      21.262   5.790  17.620  1.00  0.00     0.295 C 
HETATM   11  O3  UNL     1      22.183   4.791  17.542  1.00  0.00    -0.340 OA
HETATM   12  C2  UNL     1      23.461   5.030  17.826  1.00  0.00     0.256 C 
HETATM   13  C36 UNL     1      23.970   6.426  17.707  1.00  0.00     0.189 C 
HETATM   14  C35 UNL     1      22.958   7.497  17.939  1.00  0.00     0.183 C 
HETATM   15  C34 UNL     1      21.749   7.124  17.109  1.00  0.00     0.204 C 
BRANCH  12  16
HETATM   16  C1  UNL     1      24.342   4.157  17.009  1.00  0.00     0.206 C 
HETATM   17  O1  UNL     1      25.112   4.691  16.178  1.00  0.00    -0.646 OA
HETATM   18  O2  UNL     1      24.351   2.784  17.126  1.00  0.00    -0.646 OA
ENDBRANCH  12  16
BRANCH  13  19
HETATM   19  O10 UNL     1      25.010   6.633  18.642  1.00  0.00    -0.390 OA
ATOM     20  H10 UNL     1      24.891   6.052  19.384  1.00  0.00     0.210 HD
ENDBRANCH  13  19
BRANCH  14  21
HETATM   21  O9  UNL     1      22.631   7.622  19.285  1.00  0.00    -0.390 OA
ATOM     22  H9  UNL     1      23.409   7.635  19.831  1.00  0.00     0.210 HD
ENDBRANCH  14  21
BRANCH  15  23
HETATM   23  O8  UNL     1      22.154   6.960  15.800  1.00  0.00    -0.388 OA
ATOM     24  H8  UNL     1      21.384   6.782  15.273  1.00  0.00     0.210 HD
ENDBRANCH  15  23
ENDBRANCH   9  10
ENDBRANCH   1   9
BRANCH   2  25
HETATM   25  O5  UNL     1      17.712   7.579  19.398  1.00  0.00    -0.389 OA
ATOM     26  H5  UNL     1      17.665   8.237  18.715  1.00  0.00     0.210 HD
ENDBRANCH   2  25
BRANCH   8  27
HETATM   27  C27 UNL     1      18.683   3.551  18.652  1.00  0.00     0.168 C 
BRANCH  27  28
HETATM   28  C28 UNL     1      17.287   3.188  18.416  1.00  0.00    -0.040 A 
HETATM   29  C29 UNL     1      16.693   1.996  18.706  1.00  0.00     0.009 A 
HETATM   30  C30 UNL     1      15.354   1.742  18.446  1.00  0.00     0.001 A 
HETATM   31  C31 UNL     1      14.564   2.709  17.873  1.00  0.00     0.000 A 
HETATM   32  C32 UNL     1      15.141   3.921  17.570  1.00  0.00     0.001 A 
HETATM   33  C33 UNL     1      16.471   4.158  17.834  1.00  0.00     0.009 A 
ENDBRANCH  27  28
ENDBRANCH   8  27
BRANCH   3  34
HETATM   34  O6  UNL     1      19.800   8.271  21.578  1.00  0.00    -0.391 OA
ATOM     35  H6  UNL     1      19.880   8.273  22.525  1.00  0.00     0.210 HD
ENDBRANCH   3  34
BRANCH   4  36
HETATM   36  C8  UNL     1      17.584   7.370  23.114  1.00  0.00     0.066 C 
BRANCH  36  37
HETATM   37  C9  UNL     1      16.140   7.351  23.420  1.00  0.00    -0.056 A 
HETATM   38  C10 UNL     1      15.225   7.301  22.360  1.00  0.00     0.007 A 
HETATM   39  C11 UNL     1      13.874   7.214  22.583  1.00  0.00     0.001 A 
HETATM   40  C12 UNL     1      13.356   7.172  23.853  1.00  0.00     0.000 A 
HETATM   41  C13 UNL     1      14.225   7.219  24.911  1.00  0.00     0.001 A 
HETATM   42  C14 UNL     1      15.594   7.307  24.674  1.00  0.00     0.007 A 
ENDBRANCH  36  37
ENDBRANCH   4  36
BRANCH   5  43
HETATM   43  C15 UNL     1      17.496   4.568  23.107  1.00  0.00     0.167 C 
BRANCH  43  44
HETATM   44  C16 UNL     1      16.124   4.053  23.058  1.00  0.00    -0.029 A 
HETATM   45  C17 UNL     1      15.401   3.836  21.913  1.00  0.00     0.010 A 
HETATM   46  C18 UNL     1      14.107   3.367  21.905  1.00  0.00     0.002 A 
HETATM   47  C19 UNL     1      13.497   3.098  23.101  1.00  0.00     0.012 A 
HETATM   48  C20 UNL     1      14.174   3.296  24.278  1.00  0.00    -0.025 A 
HETATM   49  C21 UNL     1      13.532   3.016  25.467  1.00  0.00     0.012 A 
HETATM   50  C25 UNL     1      15.491   3.775  24.261  1.00  0.00    -0.018 A 
HETATM   51  C22 UNL     1      14.226   3.223  26.639  1.00  0.00     0.001 A 
HETATM   52  C23 UNL     1      15.516   3.691  26.626  1.00  0.00     0.001 A 
HETATM   53  C24 UNL     1      16.157   3.971  25.445  1.00  0.00     0.013 A 
ENDBRANCH  43  44
ENDBRANCH   5  43
TORSDOF 14
ENDMDL
