MODEL 1
REMARK VINA RESULT: -6.368767986      0.000      0.000
REMARK  14 active torsions:
REMARK  status: ('A' for Active; 'I' for Inactive)
REMARK    1  A    between atoms: C2_2  and  O1_4 
REMARK    2  A    between atoms: C2_2  and  C4_6 
REMARK    3  A    between atoms: C4_6  and  C5_7 
REMARK    4  A    between atoms: C5_7  and  C6_8 
REMARK    5  A    between atoms: C6_8  and  C7_9 
REMARK    6  A    between atoms: C7_9  and  N1_10 
REMARK    7  A    between atoms: N1_10  and  C8_12 
REMARK    8  A    between atoms: C8_12  and  C9_14 
REMARK    9  A    between atoms: C10_15  and  C11_16 
REMARK   10  A    between atoms: C13_19  and  O2_20 
REMARK   11  A    between atoms: C15_23  and  O3_24 
REMARK   12  A    between atoms: C18_28  and  O4_29 
REMARK   13  A    between atoms: C18_28  and  C19_31 
REMARK   14  A    between atoms: C19_31  and  O5_32 
ROOT
HETATM    1  C11 UNL     1     -18.745  53.423  19.160  1.00  0.00     0.061 C 
HETATM    2  C12 UNL     1     -18.652  54.877  19.441  1.00  0.00     0.143 C 
HETATM    3  F2  UNL     1     -18.269  55.577  18.276  1.00  0.00    -0.239 F 
HETATM    4  C13 UNL     1     -19.893  55.562  19.892  1.00  0.00     0.161 C 
HETATM    5  C14 UNL     1     -19.403  56.865  20.496  1.00  0.00     0.067 C 
HETATM    6  C15 UNL     1     -17.912  56.723  20.690  1.00  0.00     0.128 C 
HETATM    7  C16 UNL     1     -17.624  55.264  20.464  1.00  0.00     0.060 C 
HETATM    8  C17 UNL     1     -17.893  54.514  21.712  1.00  0.00     0.051 C 
HETATM    9  C18 UNL     1     -17.960  53.022  21.561  1.00  0.00     0.087 C 
HETATM   10  C20 UNL     1     -18.418  52.496  20.270  1.00  0.00    -0.004 C 
HETATM   11  C21 UNL     1     -17.314  51.533  19.773  1.00  0.00     0.019 C 
HETATM   12  C22 UNL     1     -19.577  51.510  20.519  1.00  0.00     0.019 C 
ENDROOT
BRANCH   1  13
HETATM   13  C10 UNL     1     -20.044  53.128  18.479  1.00  0.00    -0.017 C 
HETATM   14  C9  UNL     1     -20.242  53.152  17.177  1.00  0.00     0.027 C 
BRANCH  14  15
HETATM   15  C8  UNL     1     -21.588  52.835  16.644  1.00  0.00     0.288 C 
HETATM   16  F1  UNL     1     -22.424  52.691  17.761  1.00  0.00    -0.223 F 
BRANCH  15  17
HETATM   17  N1  UNL     1     -22.112  53.810  15.750  1.00  0.00    -0.390 N 
ATOM     18  H1  UNL     1     -23.069  53.768  15.400  1.00  0.00     0.156 HD
BRANCH  17  19
HETATM   19  C7  UNL     1     -21.216  54.847  15.375  1.00  0.00     0.117 C 
BRANCH  19  20
HETATM   20  C6  UNL     1     -21.868  55.617  14.236  1.00  0.00     0.019 C 
BRANCH  20  21
HETATM   21  C5  UNL     1     -21.090  56.889  13.999  1.00  0.00     0.004 C 
BRANCH  21  22
HETATM   22  C4  UNL     1     -21.466  57.571  12.700  1.00  0.00     0.037 C 
BRANCH  22  23
HETATM   23  C2  UNL     1     -22.008  58.958  12.970  1.00  0.00     0.051 C 
HETATM   24  C1  UNL     1     -21.473  59.540  14.250  1.00  0.00     0.045 C 
HETATM   25  C3  UNL     1     -23.504  58.981  12.970  1.00  0.00     0.045 C 
BRANCH  23  26
HETATM   26  O1  UNL     1     -21.537  59.775  11.917  1.00  0.00    -0.391 OA
ATOM     27  H1  UNL     1     -20.592  59.674  11.889  1.00  0.00     0.210 HD
ENDBRANCH  23  26
ENDBRANCH  22  23
ENDBRANCH  21  22
ENDBRANCH  20  21
ENDBRANCH  19  20
ENDBRANCH  17  19
ENDBRANCH  15  17
ENDBRANCH  14  15
ENDBRANCH   1  13
BRANCH   4  28
HETATM   28  O2  UNL     1     -20.723  54.885  20.733  1.00  0.00    -0.392 OA
ATOM     29  H2  UNL     1     -21.432  54.383  20.348  1.00  0.00     0.210 HD
ENDBRANCH   4  28
BRANCH   9  30
HETATM   30  O4  UNL     1     -16.656  52.564  21.913  1.00  0.00    -0.387 OA
ATOM     31  H4  UNL     1     -16.071  53.030  21.328  1.00  0.00     0.210 HD
ENDBRANCH   9  30
BRANCH   9  32
HETATM   32  C19 UNL     1     -18.799  52.542  22.762  1.00  0.00     0.202 C 
BRANCH  32  33
HETATM   33  O5  UNL     1     -19.556  53.641  23.240  1.00  0.00    -0.398 OA
ATOM     34  H5  UNL     1     -19.918  54.101  22.492  1.00  0.00     0.209 HD
ENDBRANCH  32  33
ENDBRANCH   9  32
BRANCH   6  35
HETATM   35  O3  UNL     1     -17.257  57.553  19.782  1.00  0.00    -0.395 OA
ATOM     36  H3  UNL     1     -16.897  57.020  19.082  1.00  0.00     0.210 HD
ENDBRANCH   6  35
TORSDOF 14
ENDMDL
MODEL 2
REMARK VINA RESULT: -6.207836788      1.339      1.500
REMARK  14 active torsions:
REMARK  status: ('A' for Active; 'I' for Inactive)
REMARK    1  A    between atoms: C2_2  and  O1_4 
REMARK    2  A    between atoms: C2_2  and  C4_6 
REMARK    3  A    between atoms: C4_6  and  C5_7 
REMARK    4  A    between atoms: C5_7  and  C6_8 
REMARK    5  A    between atoms: C6_8  and  C7_9 
REMARK    6  A    between atoms: C7_9  and  N1_10 
REMARK    7  A    between atoms: N1_10  and  C8_12 
REMARK    8  A    between atoms: C8_12  and  C9_14 
REMARK    9  A    between atoms: C10_15  and  C11_16 
REMARK   10  A    between atoms: C13_19  and  O2_20 
REMARK   11  A    between atoms: C15_23  and  O3_24 
REMARK   12  A    between atoms: C18_28  and  O4_29 
REMARK   13  A    between atoms: C18_28  and  C19_31 
REMARK   14  A    between atoms: C19_31  and  O5_32 
ROOT
HETATM    1  C11 UNL     1     -17.955  52.991  19.937  1.00  0.00     0.061 C 
HETATM    2  C12 UNL     1     -17.813  54.243  20.720  1.00  0.00     0.143 C 
HETATM    3  F2  UNL     1     -17.440  55.310  19.874  1.00  0.00    -0.239 F 
HETATM    4  C13 UNL     1     -19.024  54.740  21.429  1.00  0.00     0.161 C 
HETATM    5  C14 UNL     1     -18.482  55.728  22.446  1.00  0.00     0.067 C 
HETATM    6  C15 UNL     1     -16.991  55.500  22.526  1.00  0.00     0.128 C 
HETATM    7  C16 UNL     1     -16.750  54.216  21.779  1.00  0.00     0.060 C 
HETATM    8  C17 UNL     1     -17.009  53.071  22.682  1.00  0.00     0.051 C 
HETATM    9  C18 UNL     1     -17.121  51.736  22.004  1.00  0.00     0.087 C 
HETATM   10  C20 UNL     1     -17.626  51.720  20.627  1.00  0.00    -0.004 C 
HETATM   11  C21 UNL     1     -16.562  50.982  19.780  1.00  0.00     0.019 C 
HETATM   12  C22 UNL     1     -18.806  50.730  20.542  1.00  0.00     0.019 C 
ENDROOT
BRANCH   1  13
HETATM   13  C10 UNL     1     -19.278  52.984  19.239  1.00  0.00    -0.017 C 
HETATM   14  C9  UNL     1     -19.490  53.406  18.009  1.00  0.00     0.027 C 
BRANCH  14  15
HETATM   15  C8  UNL     1     -20.860  53.337  17.448  1.00  0.00     0.288 C 
HETATM   16  F1  UNL     1     -21.634  54.233  18.200  1.00  0.00    -0.223 F 
BRANCH  15  17
HETATM   17  N1  UNL     1     -20.944  53.644  16.061  1.00  0.00    -0.390 N 
ATOM     18  H1  UNL     1     -21.291  52.972  15.376  1.00  0.00     0.156 HD
BRANCH  17  19
HETATM   19  C7  UNL     1     -20.515  54.947  15.691  1.00  0.00     0.117 C 
BRANCH  19  20
HETATM   20  C6  UNL     1     -21.477  55.453  14.627  1.00  0.00     0.019 C 
BRANCH  20  21
HETATM   21  C5  UNL     1     -21.067  56.849  14.224  1.00  0.00     0.004 C 
BRANCH  21  22
HETATM   22  C4  UNL     1     -21.798  57.341  12.993  1.00  0.00     0.037 C 
BRANCH  22  23
HETATM   23  C2  UNL     1     -22.041  58.833  13.084  1.00  0.00     0.051 C 
HETATM   24  C1  UNL     1     -21.441  59.432  14.325  1.00  0.00     0.045 C 
HETATM   25  C3  UNL     1     -23.496  59.167  12.991  1.00  0.00     0.045 C 
BRANCH  23  26
HETATM   26  O1  UNL     1     -21.367  59.407  11.981  1.00  0.00    -0.391 OA
ATOM     27  H1  UNL     1     -20.927  60.186  12.301  1.00  0.00     0.210 HD
ENDBRANCH  23  26
ENDBRANCH  22  23
ENDBRANCH  21  22
ENDBRANCH  20  21
ENDBRANCH  19  20
ENDBRANCH  17  19
ENDBRANCH  15  17
ENDBRANCH  14  15
ENDBRANCH   1  13
BRANCH   4  28
HETATM   28  O2  UNL     1     -19.851  53.819  21.996  1.00  0.00    -0.392 OA
ATOM     29  H2  UNL     1     -20.772  54.037  22.071  1.00  0.00     0.210 HD
ENDBRANCH   4  28
BRANCH   9  30
HETATM   30  O4  UNL     1     -15.823  51.160  22.124  1.00  0.00    -0.387 OA
ATOM     31  H4  UNL     1     -15.954  50.377  22.645  1.00  0.00     0.210 HD
ENDBRANCH   9  30
BRANCH   9  32
HETATM   32  C19 UNL     1     -17.944  50.869  22.979  1.00  0.00     0.202 C 
BRANCH  32  33
HETATM   33  O5  UNL     1     -18.668  51.734  23.837  1.00  0.00    -0.398 OA
ATOM     34  H5  UNL     1     -19.201  51.201  24.416  1.00  0.00     0.209 HD
ENDBRANCH  32  33
ENDBRANCH   9  32
BRANCH   6  35
HETATM   35  O3  UNL     1     -16.336  56.590  21.956  1.00  0.00    -0.395 OA
ATOM     36  H3  UNL     1     -15.879  57.066  22.640  1.00  0.00     0.210 HD
ENDBRANCH   6  35
TORSDOF 14
ENDMDL
MODEL 3
REMARK VINA RESULT: -6.166037857      2.311      3.334
REMARK  14 active torsions:
REMARK  status: ('A' for Active; 'I' for Inactive)
REMARK    1  A    between atoms: C2_2  and  O1_4 
REMARK    2  A    between atoms: C2_2  and  C4_6 
REMARK    3  A    between atoms: C4_6  and  C5_7 
REMARK    4  A    between atoms: C5_7  and  C6_8 
REMARK    5  A    between atoms: C6_8  and  C7_9 
REMARK    6  A    between atoms: C7_9  and  N1_10 
REMARK    7  A    between atoms: N1_10  and  C8_12 
REMARK    8  A    between atoms: C8_12  and  C9_14 
REMARK    9  A    between atoms: C10_15  and  C11_16 
REMARK   10  A    between atoms: C13_19  and  O2_20 
REMARK   11  A    between atoms: C15_23  and  O3_24 
REMARK   12  A    between atoms: C18_28  and  O4_29 
REMARK   13  A    between atoms: C18_28  and  C19_31 
REMARK   14  A    between atoms: C19_31  and  O5_32 
ROOT
HETATM    1  C11 UNL     1     -18.226  56.965  19.904  1.00  0.00     0.061 C 
HETATM    2  C12 UNL     1     -19.451  57.692  20.321  1.00  0.00     0.143 C 
HETATM    3  F2  UNL     1     -20.002  58.392  19.225  1.00  0.00    -0.239 F 
HETATM    4  C13 UNL     1     -20.579  56.875  20.843  1.00  0.00     0.161 C 
HETATM    5  C14 UNL     1     -21.463  57.877  21.565  1.00  0.00     0.067 C 
HETATM    6  C15 UNL     1     -20.646  59.136  21.735  1.00  0.00     0.128 C 
HETATM    7  C16 UNL     1     -19.240  58.745  21.369  1.00  0.00     0.060 C 
HETATM    8  C17 UNL     1     -18.586  58.121  22.543  1.00  0.00     0.051 C 
HETATM    9  C18 UNL     1     -17.305  57.396  22.250  1.00  0.00     0.087 C 
HETATM   10  C20 UNL     1     -17.158  56.799  20.918  1.00  0.00    -0.004 C 
HETATM   11  C21 UNL     1     -15.848  57.369  20.325  1.00  0.00     0.019 C 
HETATM   12  C22 UNL     1     -16.784  55.311  21.080  1.00  0.00     0.019 C 
ENDROOT
BRANCH   1  13
HETATM   13  C10 UNL     1     -18.610  55.698  19.206  1.00  0.00    -0.017 C 
HETATM   14  C9  UNL     1     -18.872  55.588  17.920  1.00  0.00     0.027 C 
BRANCH  14  15
HETATM   15  C8  UNL     1     -19.240  54.263  17.368  1.00  0.00     0.288 C 
HETATM   16  F1  UNL     1     -18.958  53.330  18.376  1.00  0.00    -0.223 F 
BRANCH  15  17
HETATM   17  N1  UNL     1     -20.596  54.155  16.950  1.00  0.00    -0.390 N 
ATOM     18  H1  UNL     1     -21.375  54.280  17.597  1.00  0.00     0.156 HD
BRANCH  17  19
HETATM   19  C7  UNL     1     -20.796  53.862  15.574  1.00  0.00     0.117 C 
BRANCH  19  20
HETATM   20  C6  UNL     1     -21.659  54.974  14.998  1.00  0.00     0.019 C 
BRANCH  20  21
HETATM   21  C5  UNL     1     -20.795  56.190  14.762  1.00  0.00     0.004 C 
BRANCH  21  22
HETATM   22  C4  UNL     1     -21.285  57.043  13.611  1.00  0.00     0.037 C 
BRANCH  22  23
HETATM   23  C2  UNL     1     -20.784  58.464  13.756  1.00  0.00     0.051 C 
HETATM   24  C1  UNL     1     -20.034  58.674  15.043  1.00  0.00     0.045 C 
HETATM   25  C3  UNL     1     -21.891  59.460  13.627  1.00  0.00     0.045 C 
BRANCH  23  26
HETATM   26  O1  UNL     1     -19.862  58.664  12.704  1.00  0.00    -0.391 OA
ATOM     27  H1  UNL     1     -20.077  59.498  12.301  1.00  0.00     0.210 HD
ENDBRANCH  23  26
ENDBRANCH  22  23
ENDBRANCH  21  22
ENDBRANCH  20  21
ENDBRANCH  19  20
ENDBRANCH  17  19
ENDBRANCH  15  17
ENDBRANCH  14  15
ENDBRANCH   1  13
BRANCH   4  28
HETATM   28  O2  UNL     1     -20.279  55.799  21.621  1.00  0.00    -0.392 OA
ATOM     29  H2  UNL     1     -20.176  54.957  21.194  1.00  0.00     0.210 HD
ENDBRANCH   4  28
BRANCH   9  30
HETATM   30  O4  UNL     1     -16.280  58.340  22.549  1.00  0.00    -0.387 OA
ATOM     31  H4  UNL     1     -16.134  58.803  21.733  1.00  0.00     0.210 HD
ENDBRANCH   9  30
BRANCH   9  32
HETATM   32  C19 UNL     1     -17.153  56.386  23.406  1.00  0.00     0.202 C 
BRANCH  32  33
HETATM   33  O5  UNL     1     -18.426  56.200  24.001  1.00  0.00    -0.398 OA
ATOM     34  H5  UNL     1     -18.299  56.035  24.928  1.00  0.00     0.209 HD
ENDBRANCH  32  33
ENDBRANCH   9  32
BRANCH   6  35
HETATM   35  O3  UNL     1     -21.167  60.128  20.905  1.00  0.00    -0.395 OA
ATOM     36  H3  UNL     1     -20.515  60.809  20.793  1.00  0.00     0.210 HD
ENDBRANCH   6  35
TORSDOF 14
ENDMDL
MODEL 4
REMARK VINA RESULT: -6.159436669      2.009      3.228
REMARK  14 active torsions:
REMARK  status: ('A' for Active; 'I' for Inactive)
REMARK    1  A    between atoms: C2_2  and  O1_4 
REMARK    2  A    between atoms: C2_2  and  C4_6 
REMARK    3  A    between atoms: C4_6  and  C5_7 
REMARK    4  A    between atoms: C5_7  and  C6_8 
REMARK    5  A    between atoms: C6_8  and  C7_9 
REMARK    6  A    between atoms: C7_9  and  N1_10 
REMARK    7  A    between atoms: N1_10  and  C8_12 
REMARK    8  A    between atoms: C8_12  and  C9_14 
REMARK    9  A    between atoms: C10_15  and  C11_16 
REMARK   10  A    between atoms: C13_19  and  O2_20 
REMARK   11  A    between atoms: C15_23  and  O3_24 
REMARK   12  A    between atoms: C18_28  and  O4_29 
REMARK   13  A    between atoms: C18_28  and  C19_31 
REMARK   14  A    between atoms: C19_31  and  O5_32 
ROOT
HETATM    1  C11 UNL     1     -19.345  52.550  19.892  1.00  0.00     0.061 C 
HETATM    2  C12 UNL     1     -17.918  52.178  20.061  1.00  0.00     0.143 C 
HETATM    3  F2  UNL     1     -17.388  51.705  18.840  1.00  0.00    -0.239 F 
HETATM    4  C13 UNL     1     -16.981  53.255  20.479  1.00  0.00     0.161 C 
HETATM    5  C14 UNL     1     -15.754  52.511  20.975  1.00  0.00     0.067 C 
HETATM    6  C15 UNL     1     -16.162  51.068  21.155  1.00  0.00     0.128 C 
HETATM    7  C16 UNL     1     -17.661  51.065  21.035  1.00  0.00     0.060 C 
HETATM    8  C17 UNL     1     -18.256  51.433  22.341  1.00  0.00     0.051 C 
HETATM    9  C18 UNL     1     -19.715  51.782  22.304  1.00  0.00     0.087 C 
HETATM   10  C20 UNL     1     -20.235  52.369  21.064  1.00  0.00    -0.004 C 
HETATM   11  C21 UNL     1     -21.423  51.481  20.624  1.00  0.00     0.019 C 
HETATM   12  C22 UNL     1     -20.964  53.685  21.405  1.00  0.00     0.019 C 
ENDROOT
BRANCH   1  13
HETATM   13  C10 UNL     1     -19.437  53.901  19.256  1.00  0.00    -0.017 C 
HETATM   14  C9  UNL     1     -19.541  54.127  17.962  1.00  0.00     0.027 C 
BRANCH  14  15
HETATM   15  C8  UNL     1     -19.624  55.524  17.477  1.00  0.00     0.288 C 
HETATM   16  F1  UNL     1     -18.427  56.143  17.865  1.00  0.00    -0.223 F 
BRANCH  15  17
HETATM   17  N1  UNL     1     -19.819  55.649  16.072  1.00  0.00    -0.390 N 
ATOM     18  H1  UNL     1     -19.388  56.396  15.529  1.00  0.00     0.156 HD
BRANCH  17  19
HETATM   19  C7  UNL     1     -20.653  54.664  15.477  1.00  0.00     0.117 C 
BRANCH  19  20
HETATM   20  C6  UNL     1     -21.646  55.395  14.585  1.00  0.00     0.019 C 
BRANCH  20  21
HETATM   21  C5  UNL     1     -21.105  56.770  14.277  1.00  0.00     0.004 C 
BRANCH  21  22
HETATM   22  C4  UNL     1     -21.607  57.314  12.957  1.00  0.00     0.037 C 
BRANCH  22  23
HETATM   23  C2  UNL     1     -21.929  58.789  13.081  1.00  0.00     0.051 C 
HETATM   24  C1  UNL     1     -21.315  59.403  14.308  1.00  0.00     0.045 C 
HETATM   25  C3  UNL     1     -23.403  59.041  13.050  1.00  0.00     0.045 C 
BRANCH  23  26
HETATM   26  O1  UNL     1     -21.333  59.415  11.963  1.00  0.00    -0.391 OA
ATOM     27  H1  UNL     1     -20.406  59.501  12.155  1.00  0.00     0.210 HD
ENDBRANCH  23  26
ENDBRANCH  22  23
ENDBRANCH  21  22
ENDBRANCH  20  21
ENDBRANCH  19  20
ENDBRANCH  17  19
ENDBRANCH  15  17
ENDBRANCH  14  15
ENDBRANCH   1  13
BRANCH   4  28
HETATM   28  O2  UNL     1     -17.427  54.171  21.382  1.00  0.00    -0.392 OA
ATOM     29  H2  UNL     1     -16.873  54.920  21.565  1.00  0.00     0.210 HD
ENDBRANCH   4  28
BRANCH   9  30
HETATM   30  O4  UNL     1     -20.384  50.578  22.668  1.00  0.00    -0.387 OA
ATOM     31  H4  UNL     1     -20.693  50.215  21.847  1.00  0.00     0.210 HD
ENDBRANCH   9  30
BRANCH   9  32
HETATM   32  C19 UNL     1     -19.940  52.660  23.551  1.00  0.00     0.202 C 
BRANCH  32  33
HETATM   33  O5  UNL     1     -18.688  53.188  23.953  1.00  0.00    -0.398 OA
ATOM     34  H5  UNL     1     -18.318  52.608  24.609  1.00  0.00     0.209 HD
ENDBRANCH  32  33
ENDBRANCH   9  32
BRANCH   6  35
HETATM   35  O3  UNL     1     -15.538  50.296  20.176  1.00  0.00    -0.395 OA
ATOM     36  H3  UNL     1     -14.598  50.331  20.309  1.00  0.00     0.210 HD
ENDBRANCH   6  35
TORSDOF 14
ENDMDL
MODEL 5
REMARK VINA RESULT: -6.116163563      2.319      3.220
REMARK  14 active torsions:
REMARK  status: ('A' for Active; 'I' for Inactive)
REMARK    1  A    between atoms: C2_2  and  O1_4 
REMARK    2  A    between atoms: C2_2  and  C4_6 
REMARK    3  A    between atoms: C4_6  and  C5_7 
REMARK    4  A    between atoms: C5_7  and  C6_8 
REMARK    5  A    between atoms: C6_8  and  C7_9 
REMARK    6  A    between atoms: C7_9  and  N1_10 
REMARK    7  A    between atoms: N1_10  and  C8_12 
REMARK    8  A    between atoms: C8_12  and  C9_14 
REMARK    9  A    between atoms: C10_15  and  C11_16 
REMARK   10  A    between atoms: C13_19  and  O2_20 
REMARK   11  A    between atoms: C15_23  and  O3_24 
REMARK   12  A    between atoms: C18_28  and  O4_29 
REMARK   13  A    between atoms: C18_28  and  C19_31 
REMARK   14  A    between atoms: C19_31  and  O5_32 
ROOT
HETATM    1  C11 UNL     1     -18.528  53.170  20.359  1.00  0.00     0.061 C 
HETATM    2  C12 UNL     1     -19.772  53.276  21.161  1.00  0.00     0.143 C 
HETATM    3  F2  UNL     1     -20.116  54.631  21.353  1.00  0.00    -0.239 F 
HETATM    4  C13 UNL     1     -21.001  52.659  20.592  1.00  0.00     0.161 C 
HETATM    5  C14 UNL     1     -21.944  52.544  21.776  1.00  0.00     0.067 C 
HETATM    6  C15 UNL     1     -21.113  52.761  23.019  1.00  0.00     0.128 C 
HETATM    7  C16 UNL     1     -19.685  52.712  22.549  1.00  0.00     0.060 C 
HETATM    8  C17 UNL     1     -19.248  51.300  22.461  1.00  0.00     0.051 C 
HETATM    9  C18 UNL     1     -17.967  51.072  21.711  1.00  0.00     0.087 C 
HETATM   10  C20 UNL     1     -17.639  52.016  20.637  1.00  0.00    -0.004 C 
HETATM   11  C21 UNL     1     -16.230  52.570  20.956  1.00  0.00     0.019 C 
HETATM   12  C22 UNL     1     -17.355  51.220  19.347  1.00  0.00     0.019 C 
ENDROOT
BRANCH   1  13
HETATM   13  C10 UNL     1     -18.850  53.358  18.910  1.00  0.00    -0.017 C 
HETATM   14  C9  UNL     1     -18.949  54.522  18.299  1.00  0.00     0.027 C 
BRANCH  14  15
HETATM   15  C8  UNL     1     -19.275  54.553  16.854  1.00  0.00     0.288 C 
HETATM   16  F1  UNL     1     -20.296  53.610  16.665  1.00  0.00    -0.223 F 
BRANCH  15  17
HETATM   17  N1  UNL     1     -19.676  55.830  16.369  1.00  0.00    -0.390 N 
ATOM     18  H1  UNL     1     -20.310  55.935  15.576  1.00  0.00     0.156 HD
BRANCH  17  19
HETATM   19  C7  UNL     1     -19.136  56.948  17.059  1.00  0.00     0.117 C 
BRANCH  19  20
HETATM   20  C6  UNL     1     -18.784  57.996  16.013  1.00  0.00     0.019 C 
BRANCH  20  21
HETATM   21  C5  UNL     1     -19.629  57.761  14.784  1.00  0.00     0.004 C 
BRANCH  21  22
HETATM   22  C4  UNL     1     -20.659  58.850  14.565  1.00  0.00     0.037 C 
BRANCH  22  23
HETATM   23  C2  UNL     1     -21.437  58.592  13.292  1.00  0.00     0.051 C 
HETATM   24  C1  UNL     1     -22.772  59.284  13.291  1.00  0.00     0.045 C 
HETATM   25  C3  UNL     1     -21.605  57.129  13.029  1.00  0.00     0.045 C 
BRANCH  23  26
HETATM   26  O1  UNL     1     -20.676  59.161  12.245  1.00  0.00    -0.391 OA
ATOM     27  H1  UNL     1     -19.769  59.154  12.527  1.00  0.00     0.210 HD
ENDBRANCH  23  26
ENDBRANCH  22  23
ENDBRANCH  21  22
ENDBRANCH  20  21
ENDBRANCH  19  20
ENDBRANCH  17  19
ENDBRANCH  15  17
ENDBRANCH  14  15
ENDBRANCH   1  13
BRANCH   4  28
HETATM   28  O2  UNL     1     -20.869  51.481  19.923  1.00  0.00    -0.392 OA
ATOM     29  H2  UNL     1     -21.640  50.932  19.835  1.00  0.00     0.210 HD
ENDBRANCH   4  28
BRANCH   9  30
HETATM   30  O4  UNL     1     -16.963  51.014  22.722  1.00  0.00    -0.387 OA
ATOM     31  H4  UNL     1     -16.174  50.751  22.263  1.00  0.00     0.210 HD
ENDBRANCH   9  30
BRANCH   9  32
HETATM   32  C19 UNL     1     -18.038  49.603  21.250  1.00  0.00     0.202 C 
BRANCH  32  33
HETATM   33  O5  UNL     1     -19.402  49.220  21.199  1.00  0.00    -0.398 OA
ATOM     34  H5  UNL     1     -19.489  48.514  20.570  1.00  0.00     0.209 HD
ENDBRANCH  32  33
ENDBRANCH   9  32
BRANCH   6  35
HETATM   35  O3  UNL     1     -21.457  53.987  23.585  1.00  0.00    -0.395 OA
ATOM     36  H3  UNL     1     -21.404  53.915  24.530  1.00  0.00     0.210 HD
ENDBRANCH   6  35
TORSDOF 14
ENDMDL
