MODEL 1
REMARK VINA RESULT: -6.978182039      0.000      0.000
REMARK  10 active torsions:
REMARK  status: ('A' for Active; 'I' for Inactive)
REMARK    1  A    between atoms: C3_6  and  N3_7 
REMARK    2  A    between atoms: N3_7  and  C4_9 
REMARK    3  A    between atoms: C4_9  and  C5_10 
REMARK    4  A    between atoms: C8_21  and  N7_22 
REMARK    5  A    between atoms: N7_22  and  C9_24 
REMARK    6  A    between atoms: C9_24  and  C10_25 
REMARK    7  A    between atoms: C10_25  and  C11_26 
REMARK    8  A    between atoms: C11_26  and  N8_27 
REMARK    9  A    between atoms: N8_27  and  C12_29 
REMARK   10  A    between atoms: C12_29  and  C13_30 
ROOT
HETATM    1  N1  UNL     1     -21.834  52.624  15.681  1.00  0.00    -0.190 NA
HETATM    2  C1  UNL     1     -21.156  53.459  16.096  1.00  0.00     0.120 C 
HETATM    3  C2  UNL     1     -20.320  54.523  16.623  1.00  0.00     0.155 A 
HETATM    4  N2  UNL     1     -20.032  55.611  15.914  1.00  0.00    -0.180 N 
ATOM      5  H2  UNL     1     -20.421  55.675  14.974  1.00  0.00     0.185 HD
HETATM    6  C3  UNL     1     -19.276  56.619  16.333  1.00  0.00     0.681 A 
HETATM    7  N6  UNL     1     -18.760  56.523  17.592  1.00  0.00    -0.175 N 
ATOM      8  H6  UNL     1     -18.176  57.284  17.939  1.00  0.00     0.186 HD
HETATM    9  C8  UNL     1     -18.986  55.474  18.391  1.00  0.00     0.141 A 
HETATM   10  C18 UNL     1     -19.785  54.437  17.910  1.00  0.00     0.116 A 
HETATM   11 CL1  UNL     1     -20.119  53.035  18.904  1.00  0.00    -0.077 Cl
ENDROOT
BRANCH   6  12
HETATM   12  N3  UNL     1     -18.982  57.663  15.682  1.00  0.00    -0.220 N 
ATOM     13  H3  UNL     1     -18.127  57.603  15.129  1.00  0.00     0.178 HD
BRANCH  12  14
HETATM   14  C4  UNL     1     -19.665  58.906  15.606  1.00  0.00     0.204 C 
BRANCH  14  15
HETATM   15  C5  UNL     1     -20.605  58.919  14.428  1.00  0.00     0.090 A 
HETATM   16  C6  UNL     1     -20.346  58.301  13.217  1.00  0.00     0.126 A 
HETATM   17  N4  UNL     1     -21.418  58.543  12.446  1.00  0.00    -0.330 N 
HETATM   18  C7  UNL     1     -22.316  59.289  13.152  1.00  0.00     0.222 A 
ATOM     19  H4  UNL     1     -21.541  58.222  11.486  1.00  0.00     0.168 HD
HETATM   20  N5  UNL     1     -23.448  59.681  12.678  1.00  0.00    -0.365 N 
HETATM   21  O1  UNL     1     -21.779  59.477  14.313  1.00  0.00    -0.281 OA
ATOM     22  H52 UNL     1     -23.873  59.533  11.762  1.00  0.00     0.159 HD
ATOM     23  H51 UNL     1     -24.120  60.239  13.206  1.00  0.00     0.159 HD
ENDBRANCH  14  15
ENDBRANCH  12  14
ENDBRANCH   6  12
BRANCH   9  24
HETATM   24  N7  UNL     1     -18.522  55.333  19.581  1.00  0.00    -0.374 N 
ATOM     25  H7  UNL     1     -18.913  54.573  20.138  1.00  0.00     0.161 HD
BRANCH  24  26
HETATM   26  C9  UNL     1     -17.513  56.135  20.203  1.00  0.00     0.123 C 
BRANCH  26  27
HETATM   27  C10 UNL     1     -18.221  57.111  21.127  1.00  0.00     0.039 C 
BRANCH  27  28
HETATM   28  C11 UNL     1     -17.174  57.757  22.069  1.00  0.00     0.120 C 
BRANCH  28  29
HETATM   29  N8  UNL     1     -16.594  58.809  21.341  1.00  0.00    -0.402 N 
ATOM     30  H8  UNL     1     -17.207  59.460  20.850  1.00  0.00     0.158 HD
BRANCH  29  31
HETATM   31  C12 UNL     1     -15.215  59.003  21.260  1.00  0.00     0.061 C 
BRANCH  31  32
HETATM   32  C13 UNL     1     -14.512  58.266  20.182  1.00  0.00     0.049 C 
HETATM   33  C14 UNL     1     -13.835  56.998  20.524  1.00  0.00     0.013 C 
HETATM   34  C15 UNL     1     -12.463  56.864  19.880  1.00  0.00     0.028 C 
HETATM   35  C16 UNL     1     -12.458  57.318  18.447  1.00  0.00     0.232 C 
HETATM   36  N9  UNL     1     -13.204  58.508  18.210  1.00  0.00    -0.074 N 
HETATM   37  C17 UNL     1     -13.487  59.174  19.473  1.00  0.00     0.242 C 
ATOM     38  H92 UNL     1     -12.738  59.126  17.546  1.00  0.00     0.277 HD
ATOM     39  H91 UNL     1     -14.053  58.328  17.674  1.00  0.00     0.277 HD
ENDBRANCH  31  32
ENDBRANCH  29  31
ENDBRANCH  28  29
ENDBRANCH  27  28
ENDBRANCH  26  27
ENDBRANCH  24  26
ENDBRANCH   9  24
TORSDOF 10
ENDMDL
MODEL 2
REMARK VINA RESULT: -6.689870254      5.187      9.065
REMARK  10 active torsions:
REMARK  status: ('A' for Active; 'I' for Inactive)
REMARK    1  A    between atoms: C3_6  and  N3_7 
REMARK    2  A    between atoms: N3_7  and  C4_9 
REMARK    3  A    between atoms: C4_9  and  C5_10 
REMARK    4  A    between atoms: C8_21  and  N7_22 
REMARK    5  A    between atoms: N7_22  and  C9_24 
REMARK    6  A    between atoms: C9_24  and  C10_25 
REMARK    7  A    between atoms: C10_25  and  C11_26 
REMARK    8  A    between atoms: C11_26  and  N8_27 
REMARK    9  A    between atoms: N8_27  and  C12_29 
REMARK   10  A    between atoms: C12_29  and  C13_30 
ROOT
HETATM    1  N1  UNL     1     -27.818  50.457  17.947  1.00  0.00    -0.190 NA
HETATM    2  C1  UNL     1     -26.821  50.626  17.393  1.00  0.00     0.120 C 
HETATM    3  C2  UNL     1     -25.575  50.854  16.683  1.00  0.00     0.155 A 
HETATM    4  N2  UNL     1     -25.360  50.375  15.462  1.00  0.00    -0.180 N 
ATOM      5  H2  UNL     1     -26.110  49.833  15.032  1.00  0.00     0.185 HD
HETATM    6  C3  UNL     1     -24.248  50.545  14.757  1.00  0.00     0.681 A 
HETATM    7  N6  UNL     1     -23.252  51.271  15.342  1.00  0.00    -0.175 N 
ATOM      8  H6  UNL     1     -22.386  51.418  14.822  1.00  0.00     0.186 HD
HETATM    9  C8  UNL     1     -23.360  51.800  16.565  1.00  0.00     0.141 A 
HETATM   10  C18 UNL     1     -24.547  51.596  17.270  1.00  0.00     0.116 A 
HETATM   11 CL1  UNL     1     -24.755  52.259  18.877  1.00  0.00    -0.077 Cl
ENDROOT
BRANCH   6  12
HETATM   12  N3  UNL     1     -24.014  50.099  13.597  1.00  0.00    -0.220 N 
ATOM     13  H3  UNL     1     -24.316  50.701  12.831  1.00  0.00     0.178 HD
BRANCH  12  14
HETATM   14  C4  UNL     1     -23.392  48.885  13.202  1.00  0.00     0.204 C 
BRANCH  14  15
HETATM   15  C5  UNL     1     -24.426  47.889  12.743  1.00  0.00     0.090 A 
HETATM   16  C6  UNL     1     -24.421  46.547  13.082  1.00  0.00     0.126 A 
HETATM   17  N4  UNL     1     -25.496  46.015  12.480  1.00  0.00    -0.330 N 
HETATM   18  C7  UNL     1     -26.151  46.992  11.787  1.00  0.00     0.222 A 
ATOM     19  H4  UNL     1     -25.779  45.036  12.532  1.00  0.00     0.168 HD
HETATM   20  N5  UNL     1     -27.224  46.786  11.105  1.00  0.00    -0.365 N 
HETATM   21  O1  UNL     1     -25.470  48.073  11.982  1.00  0.00    -0.281 OA
ATOM     22  H52 UNL     1     -27.761  45.933  10.951  1.00  0.00     0.159 HD
ATOM     23  H51 UNL     1     -27.713  47.516  10.587  1.00  0.00     0.159 HD
ENDBRANCH  14  15
ENDBRANCH  12  14
ENDBRANCH   6  12
BRANCH   9  24
HETATM   24  N7  UNL     1     -22.454  52.489  17.161  1.00  0.00    -0.374 N 
ATOM     25  H7  UNL     1     -22.067  52.094  18.018  1.00  0.00     0.161 HD
BRANCH  24  26
HETATM   26  C9  UNL     1     -21.932  53.754  16.742  1.00  0.00     0.123 C 
BRANCH  26  27
HETATM   27  C10 UNL     1     -20.581  53.492  16.101  1.00  0.00     0.039 C 
BRANCH  27  28
HETATM   28  C11 UNL     1     -19.489  54.233  16.915  1.00  0.00     0.120 C 
BRANCH  28  29
HETATM   29  N8  UNL     1     -19.832  55.595  16.874  1.00  0.00    -0.402 N 
ATOM     30  H8  UNL     1     -20.360  55.989  17.653  1.00  0.00     0.158 HD
BRANCH  29  31
HETATM   31  C12 UNL     1     -19.481  56.431  15.815  1.00  0.00     0.061 C 
BRANCH  31  32
HETATM   32  C13 UNL     1     -20.599  57.127  15.132  1.00  0.00     0.049 C 
HETATM   33  C14 UNL     1     -21.327  56.409  14.065  1.00  0.00     0.013 C 
HETATM   34  C15 UNL     1     -21.615  57.281  12.852  1.00  0.00     0.028 C 
HETATM   35  C16 UNL     1     -22.076  58.658  13.235  1.00  0.00     0.232 C 
HETATM   36  N9  UNL     1     -21.361  59.231  14.325  1.00  0.00    -0.074 N 
HETATM   37  C17 UNL     1     -20.135  58.482  14.560  1.00  0.00     0.242 C 
ATOM     38  H92 UNL     1     -21.182  60.226  14.186  1.00  0.00     0.277 HD
ATOM     39  H91 UNL     1     -21.933  59.300  15.166  1.00  0.00     0.277 HD
ENDBRANCH  31  32
ENDBRANCH  29  31
ENDBRANCH  28  29
ENDBRANCH  27  28
ENDBRANCH  26  27
ENDBRANCH  24  26
ENDBRANCH   9  24
TORSDOF 10
ENDMDL
MODEL 3
REMARK VINA RESULT: -6.662592310      4.054      9.408
REMARK  10 active torsions:
REMARK  status: ('A' for Active; 'I' for Inactive)
REMARK    1  A    between atoms: C3_6  and  N3_7 
REMARK    2  A    between atoms: N3_7  and  C4_9 
REMARK    3  A    between atoms: C4_9  and  C5_10 
REMARK    4  A    between atoms: C8_21  and  N7_22 
REMARK    5  A    between atoms: N7_22  and  C9_24 
REMARK    6  A    between atoms: C9_24  and  C10_25 
REMARK    7  A    between atoms: C10_25  and  C11_26 
REMARK    8  A    between atoms: C11_26  and  N8_27 
REMARK    9  A    between atoms: N8_27  and  C12_29 
REMARK   10  A    between atoms: C12_29  and  C13_30 
ROOT
HETATM    1  N1  UNL     1     -17.980  55.386  20.862  1.00  0.00    -0.190 NA
HETATM    2  C1  UNL     1     -18.422  55.292  19.802  1.00  0.00     0.120 C 
HETATM    3  C2  UNL     1     -18.960  55.171  18.458  1.00  0.00     0.155 A 
HETATM    4  N2  UNL     1     -18.851  56.149  17.563  1.00  0.00    -0.180 N 
ATOM      5  H2  UNL     1     -18.371  57.000  17.855  1.00  0.00     0.185 HD
HETATM    6  C3  UNL     1     -19.317  56.105  16.321  1.00  0.00     0.681 A 
HETATM    7  N6  UNL     1     -19.957  54.961  15.942  1.00  0.00    -0.175 N 
ATOM      8  H6  UNL     1     -20.325  54.900  14.993  1.00  0.00     0.186 HD
HETATM    9  C8  UNL     1     -20.123  53.916  16.760  1.00  0.00     0.141 A 
HETATM   10  C18 UNL     1     -19.617  54.006  18.058  1.00  0.00     0.116 A 
HETATM   11 CL1  UNL     1     -19.801  52.675  19.180  1.00  0.00    -0.077 Cl
ENDROOT
BRANCH   6  12
HETATM   12  N3  UNL     1     -19.232  57.018  15.450  1.00  0.00    -0.220 N 
ATOM     13  H3  UNL     1     -18.775  56.746  14.580  1.00  0.00     0.178 HD
BRANCH  12  14
HETATM   14  C4  UNL     1     -19.679  58.365  15.503  1.00  0.00     0.204 C 
BRANCH  14  15
HETATM   15  C5  UNL     1     -20.541  58.681  14.308  1.00  0.00     0.090 A 
HETATM   16  C6  UNL     1     -20.247  58.298  13.011  1.00  0.00     0.126 A 
HETATM   17  N4  UNL     1     -21.251  58.768  12.255  1.00  0.00    -0.330 N 
HETATM   18  C7  UNL     1     -22.144  59.423  13.053  1.00  0.00     0.222 A 
ATOM     19  H4  UNL     1     -21.335  58.654  11.245  1.00  0.00     0.168 HD
HETATM   20  N5  UNL     1     -23.217  59.985  12.614  1.00  0.00    -0.365 N 
HETATM   21  O1  UNL     1     -21.668  59.336  14.252  1.00  0.00    -0.281 OA
ATOM     22  H52 UNL     1     -23.592  60.053  11.668  1.00  0.00     0.159 HD
ATOM     23  H51 UNL     1     -23.884  60.474  13.211  1.00  0.00     0.159 HD
ENDBRANCH  14  15
ENDBRANCH  12  14
ENDBRANCH   6  12
BRANCH   9  24
HETATM   24  N7  UNL     1     -20.719  52.819  16.455  1.00  0.00    -0.374 N 
ATOM     25  H7  UNL     1     -20.142  51.979  16.415  1.00  0.00     0.161 HD
BRANCH  24  26
HETATM   26  C9  UNL     1     -22.112  52.659  16.165  1.00  0.00     0.123 C 
BRANCH  26  27
HETATM   27  C10 UNL     1     -22.216  51.742  14.958  1.00  0.00     0.039 C 
BRANCH  27  28
HETATM   28  C11 UNL     1     -23.407  50.772  15.168  1.00  0.00     0.120 C 
BRANCH  28  29
HETATM   29  N8  UNL     1     -22.891  49.479  14.982  1.00  0.00    -0.402 N 
ATOM     30  H8  UNL     1     -21.910  49.377  14.720  1.00  0.00     0.158 HD
BRANCH  29  31
HETATM   31  C12 UNL     1     -23.661  48.328  15.139  1.00  0.00     0.061 C 
BRANCH  31  32
HETATM   32  C13 UNL     1     -23.761  47.439  13.954  1.00  0.00     0.049 C 
HETATM   33  C14 UNL     1     -24.470  47.939  12.758  1.00  0.00     0.013 C 
HETATM   34  C15 UNL     1     -25.385  46.899  12.132  1.00  0.00     0.028 C 
HETATM   35  C16 UNL     1     -24.749  45.539  12.073  1.00  0.00     0.232 C 
HETATM   36  N9  UNL     1     -24.024  45.184  13.247  1.00  0.00    -0.074 N 
HETATM   37  C17 UNL     1     -24.379  46.080  14.337  1.00  0.00     0.242 C 
ATOM     38  H92 UNL     1     -24.156  44.204  13.497  1.00  0.00     0.277 HD
ATOM     39  H91 UNL     1     -23.018  45.160  13.084  1.00  0.00     0.277 HD
ENDBRANCH  31  32
ENDBRANCH  29  31
ENDBRANCH  28  29
ENDBRANCH  27  28
ENDBRANCH  26  27
ENDBRANCH  24  26
ENDBRANCH   9  24
TORSDOF 10
ENDMDL
MODEL 4
REMARK VINA RESULT: -6.646294665      3.149      5.266
REMARK  10 active torsions:
REMARK  status: ('A' for Active; 'I' for Inactive)
REMARK    1  A    between atoms: C3_6  and  N3_7 
REMARK    2  A    between atoms: N3_7  and  C4_9 
REMARK    3  A    between atoms: C4_9  and  C5_10 
REMARK    4  A    between atoms: C8_21  and  N7_22 
REMARK    5  A    between atoms: N7_22  and  C9_24 
REMARK    6  A    between atoms: C9_24  and  C10_25 
REMARK    7  A    between atoms: C10_25  and  C11_26 
REMARK    8  A    between atoms: C11_26  and  N8_27 
REMARK    9  A    between atoms: N8_27  and  C12_29 
REMARK   10  A    between atoms: C12_29  and  C13_30 
ROOT
HETATM    1  N1  UNL     1     -21.740  57.320  13.065  1.00  0.00    -0.190 NA
HETATM    2  C1  UNL     1     -21.504  56.527  13.869  1.00  0.00     0.120 C 
HETATM    3  C2  UNL     1     -21.197  55.517  14.866  1.00  0.00     0.155 A 
HETATM    4  N2  UNL     1     -21.885  54.382  14.956  1.00  0.00    -0.180 N 
ATOM      5  H2  UNL     1     -22.648  54.242  14.293  1.00  0.00     0.185 HD
HETATM    6  C3  UNL     1     -21.659  53.418  15.840  1.00  0.00     0.681 A 
HETATM    7  N6  UNL     1     -20.637  53.617  16.722  1.00  0.00    -0.175 N 
ATOM      8  H6  UNL     1     -20.441  52.892  17.412  1.00  0.00     0.186 HD
HETATM    9  C8  UNL     1     -19.881  54.720  16.721  1.00  0.00     0.141 A 
HETATM   10  C18 UNL     1     -20.154  55.708  15.774  1.00  0.00     0.116 A 
HETATM   11 CL1  UNL     1     -19.203  57.177  15.719  1.00  0.00    -0.077 Cl
ENDROOT
BRANCH   6  12
HETATM   12  N3  UNL     1     -22.297  52.332  15.952  1.00  0.00    -0.220 N 
ATOM     13  H3  UNL     1     -22.806  52.216  16.829  1.00  0.00     0.178 HD
BRANCH  12  14
HETATM   14  C4  UNL     1     -22.410  51.250  15.040  1.00  0.00     0.204 C 
BRANCH  14  15
HETATM   15  C5  UNL     1     -23.847  50.811  14.919  1.00  0.00     0.090 A 
HETATM   16  C6  UNL     1     -24.747  50.792  15.971  1.00  0.00     0.126 A 
HETATM   17  N4  UNL     1     -25.903  50.344  15.454  1.00  0.00    -0.330 N 
HETATM   18  C7  UNL     1     -25.730  50.092  14.124  1.00  0.00     0.222 A 
ATOM     19  H4  UNL     1     -26.771  50.214  15.973  1.00  0.00     0.168 HD
HETATM   20  N5  UNL     1     -26.663  49.651  13.353  1.00  0.00    -0.365 N 
HETATM   21  O1  UNL     1     -24.497  50.387  13.870  1.00  0.00    -0.281 OA
ATOM     22  H52 UNL     1     -27.636  49.418  13.554  1.00  0.00     0.159 HD
ATOM     23  H51 UNL     1     -26.534  49.462  12.359  1.00  0.00     0.159 HD
ENDBRANCH  14  15
ENDBRANCH  12  14
ENDBRANCH   6  12
BRANCH   9  24
HETATM   24  N7  UNL     1     -18.910  54.957  17.530  1.00  0.00    -0.374 N 
ATOM     25  H7  UNL     1     -17.974  54.984  17.127  1.00  0.00     0.161 HD
BRANCH  24  26
HETATM   26  C9  UNL     1     -19.013  55.187  18.938  1.00  0.00     0.123 C 
BRANCH  26  27
HETATM   27  C10 UNL     1     -18.429  56.562  19.212  1.00  0.00     0.039 C 
BRANCH  27  28
HETATM   28  C11 UNL     1     -17.370  56.442  20.337  1.00  0.00     0.120 C 
BRANCH  28  29
HETATM   29  N8  UNL     1     -17.047  57.758  20.708  1.00  0.00    -0.402 N 
ATOM     30  H8  UNL     1     -17.798  58.445  20.776  1.00  0.00     0.158 HD
BRANCH  29  31
HETATM   31  C12 UNL     1     -15.744  58.166  20.988  1.00  0.00     0.061 C 
BRANCH  31  32
HETATM   32  C13 UNL     1     -14.695  57.701  20.048  1.00  0.00     0.049 C 
HETATM   33  C14 UNL     1     -13.765  56.645  20.499  1.00  0.00     0.013 C 
HETATM   34  C15 UNL     1     -12.321  56.916  20.107  1.00  0.00     0.028 C 
HETATM   35  C16 UNL     1     -12.198  57.428  18.699  1.00  0.00     0.232 C 
HETATM   36  N9  UNL     1     -13.190  58.385  18.338  1.00  0.00    -0.074 N 
HETATM   37  C17 UNL     1     -13.852  58.885  19.534  1.00  0.00     0.242 C 
ATOM     38  H92 UNL     1     -12.805  59.139  17.769  1.00  0.00     0.277 HD
ATOM     39  H91 UNL     1     -13.854  58.012  17.661  1.00  0.00     0.277 HD
ENDBRANCH  31  32
ENDBRANCH  29  31
ENDBRANCH  28  29
ENDBRANCH  27  28
ENDBRANCH  26  27
ENDBRANCH  24  26
ENDBRANCH   9  24
TORSDOF 10
ENDMDL
MODEL 5
REMARK VINA RESULT: -6.475117615      2.568      4.099
REMARK  10 active torsions:
REMARK  status: ('A' for Active; 'I' for Inactive)
REMARK    1  A    between atoms: C3_6  and  N3_7 
REMARK    2  A    between atoms: N3_7  and  C4_9 
REMARK    3  A    between atoms: C4_9  and  C5_10 
REMARK    4  A    between atoms: C8_21  and  N7_22 
REMARK    5  A    between atoms: N7_22  and  C9_24 
REMARK    6  A    between atoms: C9_24  and  C10_25 
REMARK    7  A    between atoms: C10_25  and  C11_26 
REMARK    8  A    between atoms: C11_26  and  N8_27 
REMARK    9  A    between atoms: N8_27  and  C12_29 
REMARK   10  A    between atoms: C12_29  and  C13_30 
ROOT
HETATM    1  N1  UNL     1     -21.828  52.516  15.670  1.00  0.00    -0.190 NA
HETATM    2  C1  UNL     1     -21.155  53.352  16.091  1.00  0.00     0.120 C 
HETATM    3  C2  UNL     1     -20.324  54.416  16.626  1.00  0.00     0.155 A 
HETATM    4  N2  UNL     1     -20.034  55.506  15.921  1.00  0.00    -0.180 N 
ATOM      5  H2  UNL     1     -20.419  55.572  14.979  1.00  0.00     0.185 HD
HETATM    6  C3  UNL     1     -19.283  56.515  16.347  1.00  0.00     0.681 A 
HETATM    7  N6  UNL     1     -18.774  56.416  17.608  1.00  0.00    -0.175 N 
ATOM      8  H6  UNL     1     -18.194  57.178  17.961  1.00  0.00     0.186 HD
HETATM    9  C8  UNL     1     -19.001  55.365  18.404  1.00  0.00     0.141 A 
HETATM   10  C18 UNL     1     -19.796  54.327  17.916  1.00  0.00     0.116 A 
HETATM   11 CL1  UNL     1     -20.132  52.921  18.904  1.00  0.00    -0.077 Cl
ENDROOT
BRANCH   6  12
HETATM   12  N3  UNL     1     -18.988  57.561  15.700  1.00  0.00    -0.220 N 
ATOM     13  H3  UNL     1     -18.147  57.495  15.128  1.00  0.00     0.178 HD
BRANCH  12  14
HETATM   14  C4  UNL     1     -19.654  58.815  15.653  1.00  0.00     0.204 C 
BRANCH  14  15
HETATM   15  C5  UNL     1     -20.569  58.880  14.458  1.00  0.00     0.090 A 
HETATM   16  C6  UNL     1     -20.292  58.302  13.231  1.00  0.00     0.126 A 
HETATM   17  N4  UNL     1     -21.346  58.584  12.448  1.00  0.00    -0.330 N 
HETATM   18  C7  UNL     1     -22.251  59.314  13.163  1.00  0.00     0.222 A 
ATOM     19  H4  UNL     1     -21.453  58.298  11.475  1.00  0.00     0.168 HD
HETATM   20  N5  UNL     1     -23.368  59.736  12.680  1.00  0.00    -0.365 N 
HETATM   21  O1  UNL     1     -21.735  59.455  14.339  1.00  0.00    -0.281 OA
ATOM     22  H52 UNL     1     -23.776  59.625  11.751  1.00  0.00     0.159 HD
ATOM     23  H51 UNL     1     -24.045  60.282  13.214  1.00  0.00     0.159 HD
ENDBRANCH  14  15
ENDBRANCH  12  14
ENDBRANCH   6  12
BRANCH   9  24
HETATM   24  N7  UNL     1     -18.544  55.221  19.596  1.00  0.00    -0.374 N 
ATOM     25  H7  UNL     1     -17.972  54.396  19.772  1.00  0.00     0.161 HD
BRANCH  24  26
HETATM   26  C9  UNL     1     -18.757  56.105  20.702  1.00  0.00     0.123 C 
BRANCH  26  27
HETATM   27  C10 UNL     1     -17.746  55.735  21.773  1.00  0.00     0.039 C 
BRANCH  27  28
HETATM   28  C11 UNL     1     -16.383  55.442  21.094  1.00  0.00     0.120 C 
BRANCH  28  29
HETATM   29  N8  UNL     1     -15.885  54.281  21.710  1.00  0.00    -0.402 N 
ATOM     30  H8  UNL     1     -15.749  54.285  22.722  1.00  0.00     0.158 HD
BRANCH  29  31
HETATM   31  C12 UNL     1     -15.569  53.124  20.999  1.00  0.00     0.061 C 
BRANCH  31  32
HETATM   32  C13 UNL     1     -16.696  52.203  20.712  1.00  0.00     0.049 C 
HETATM   33  C14 UNL     1     -17.716  51.992  21.761  1.00  0.00     0.013 C 
HETATM   34  C15 UNL     1     -18.122  50.534  21.910  1.00  0.00     0.028 C 
HETATM   35  C16 UNL     1     -18.304  49.852  20.584  1.00  0.00     0.232 C 
HETATM   36  N9  UNL     1     -17.310  50.182  19.618  1.00  0.00    -0.074 N 
HETATM   37  C17 UNL     1     -16.177  50.819  20.272  1.00  0.00     0.242 C 
ATOM     38  H92 UNL     1     -17.029  49.372  19.066  1.00  0.00     0.277 HD
ATOM     39  H91 UNL     1     -17.686  50.754  18.862  1.00  0.00     0.277 HD
ENDBRANCH  31  32
ENDBRANCH  29  31
ENDBRANCH  28  29
ENDBRANCH  27  28
ENDBRANCH  26  27
ENDBRANCH  24  26
ENDBRANCH   9  24
TORSDOF 10
ENDMDL
