MODEL 1
REMARK VINA RESULT: -6.085274196      0.000      0.000
REMARK  5 active torsions:
REMARK  status: ('A' for Active; 'I' for Inactive)
REMARK    1  A    between atoms: C2_2  and  C3_3 
REMARK    2  A    between atoms: C3_3  and  C4_4 
REMARK    3  A    between atoms: C4_4  and  C5_5 
REMARK    4  A    between atoms: C9_16  and  N3_17 
REMARK    5  A    between atoms: C10_21  and  O1_23 
ROOT
HETATM    1  C1  UNL     1      45.969  12.502  -1.689  1.00  0.00     0.078 C 
HETATM    2  C2  UNL     1      45.171  12.045  -0.462  1.00  0.00     0.225 C 
HETATM    3  N2  UNL     1      46.040  11.704   0.626  1.00  0.00    -0.011 N 
ATOM      4  H21 UNL     1      45.536  11.713   1.512  1.00  0.00     0.283 HD
ATOM      5  H22 UNL     1      46.709  12.453   0.808  1.00  0.00     0.283 HD
HETATM    6  C9  UNL     1      46.708  10.461   0.434  1.00  0.00     0.419 C 
HETATM    7  C10 UNL     1      45.825   9.358  -0.090  1.00  0.00     0.129 C 
HETATM    8  C11 UNL     1      46.220   8.919  -1.489  1.00  0.00     0.052 C 
HETATM    9  C12 UNL     1      44.408   9.873  -0.147  1.00  0.00     0.212 C 
HETATM   10  O2  UNL     1      44.370  11.019  -0.897  1.00  0.00    -0.351 OA
ENDROOT
BRANCH   2  11
HETATM   11  C3  UNL     1      44.316  13.265  -0.068  1.00  0.00     0.074 C 
BRANCH  11  12
HETATM   12  C4  UNL     1      44.132  13.239   1.434  1.00  0.00     0.063 C 
BRANCH  12  13
HETATM   13  C5  UNL     1      44.428  14.596   1.990  1.00  0.00     0.033 A 
HETATM   14  N1  UNL     1      43.815  15.751   1.692  1.00  0.00    -0.366 N 
HETATM   15  C6  UNL     1      44.364  16.767   2.400  1.00  0.00     0.113 A 
ATOM     16  H1  UNL     1      43.046  15.850   1.029  1.00  0.00     0.165 HD
HETATM   17  C7  UNL     1      45.377  16.263   3.192  1.00  0.00     0.073 A 
HETATM   18 CL1  UNL     1      46.420  17.144   4.311  1.00  0.00    -0.081 Cl
HETATM   19  C8  UNL     1      45.403  14.905   2.923  1.00  0.00     0.079 A 
HETATM   20 CL2  UNL     1      46.504  13.760   3.655  1.00  0.00    -0.080 Cl
ENDBRANCH  12  13
ENDBRANCH  11  12
ENDBRANCH   2  11
BRANCH   6  21
HETATM   21  N3  UNL     1      47.312   9.982   1.664  1.00  0.00    -0.047 N 
ATOM     22  H33 UNL     1      46.741   9.261   2.103  1.00  0.00     0.276 HD
ATOM     23  H32 UNL     1      48.150   9.431   1.477  1.00  0.00     0.276 HD
ATOM     24  H31 UNL     1      47.507  10.748   2.309  1.00  0.00     0.276 HD
ENDBRANCH   6  21
BRANCH   7  25
HETATM   25  O1  UNL     1      45.889   8.208   0.722  1.00  0.00    -0.384 OA
ATOM     26  H1  UNL     1      45.083   7.707   0.685  1.00  0.00     0.210 HD
ENDBRANCH   7  25
TORSDOF 5
ENDMDL
MODEL 2
REMARK VINA RESULT: -5.977009622      1.638      2.037
REMARK  5 active torsions:
REMARK  status: ('A' for Active; 'I' for Inactive)
REMARK    1  A    between atoms: C2_2  and  C3_3 
REMARK    2  A    between atoms: C3_3  and  C4_4 
REMARK    3  A    between atoms: C4_4  and  C5_5 
REMARK    4  A    between atoms: C9_16  and  N3_17 
REMARK    5  A    between atoms: C10_21  and  O1_23 
ROOT
HETATM    1  C1  UNL     1      45.931  10.908   1.445  1.00  0.00     0.078 C 
HETATM    2  C2  UNL     1      45.344  11.185   0.056  1.00  0.00     0.225 C 
HETATM    3  N2  UNL     1      44.160  10.410  -0.173  1.00  0.00    -0.011 N 
ATOM      4  H21 UNL     1      43.602  10.810  -0.927  1.00  0.00     0.283 HD
ATOM      5  H22 UNL     1      43.499  10.517   0.597  1.00  0.00     0.283 HD
HETATM    6  C9  UNL     1      44.436   9.035  -0.418  1.00  0.00     0.419 C 
HETATM    7  C10 UNL     1      45.587   8.793  -1.360  1.00  0.00     0.129 C 
HETATM    8  C11 UNL     1      46.762   8.122  -0.672  1.00  0.00     0.052 C 
HETATM    9  C12 UNL     1      46.056  10.127  -1.887  1.00  0.00     0.212 C 
HETATM   10  O2  UNL     1      46.362  10.949  -0.835  1.00  0.00    -0.351 OA
ENDROOT
BRANCH   2  11
HETATM   11  C3  UNL     1      44.979  12.682   0.069  1.00  0.00     0.074 C 
BRANCH  11  12
HETATM   12  C4  UNL     1      44.107  12.938   1.279  1.00  0.00     0.063 C 
BRANCH  12  13
HETATM   13  C5  UNL     1      44.324  14.339   1.756  1.00  0.00     0.033 A 
HETATM   14  N1  UNL     1      43.676  15.445   1.359  1.00  0.00    -0.366 N 
HETATM   15  C6  UNL     1      44.154  16.527   2.019  1.00  0.00     0.113 A 
ATOM     16  H1  UNL     1      42.932  15.468   0.661  1.00  0.00     0.165 HD
HETATM   17  C7  UNL     1      45.152  16.120   2.881  1.00  0.00     0.073 A 
HETATM   18 CL1  UNL     1      46.111  17.116   3.980  1.00  0.00    -0.081 Cl
HETATM   19  C8  UNL     1      45.245  14.750   2.703  1.00  0.00     0.079 A 
HETATM   20 CL2  UNL     1      46.360  13.704   3.552  1.00  0.00    -0.080 Cl
ENDBRANCH  12  13
ENDBRANCH  11  12
ENDBRANCH   2  11
BRANCH   6  21
HETATM   21  N3  UNL     1      43.280   8.347  -0.964  1.00  0.00    -0.047 N 
ATOM     22  H33 UNL     1      42.895   8.844  -1.767  1.00  0.00     0.276 HD
ATOM     23  H32 UNL     1      43.548   7.478  -1.428  1.00  0.00     0.276 HD
ATOM     24  H31 UNL     1      42.569   8.183  -0.251  1.00  0.00     0.276 HD
ENDBRANCH   6  21
BRANCH   7  25
HETATM   25  O1  UNL     1      45.219   7.953  -2.430  1.00  0.00    -0.384 OA
ATOM     26  H1  UNL     1      44.343   8.146  -2.743  1.00  0.00     0.210 HD
ENDBRANCH   7  25
TORSDOF 5
ENDMDL
MODEL 3
REMARK VINA RESULT: -5.961963655      1.404      1.630
REMARK  5 active torsions:
REMARK  status: ('A' for Active; 'I' for Inactive)
REMARK    1  A    between atoms: C2_2  and  C3_3 
REMARK    2  A    between atoms: C3_3  and  C4_4 
REMARK    3  A    between atoms: C4_4  and  C5_5 
REMARK    4  A    between atoms: C9_16  and  N3_17 
REMARK    5  A    between atoms: C10_21  and  O1_23 
ROOT
HETATM    1  C1  UNL     1      44.129  10.921  -0.747  1.00  0.00     0.078 C 
HETATM    2  C2  UNL     1      45.225  11.688   0.002  1.00  0.00     0.225 C 
HETATM    3  N2  UNL     1      46.457  11.683  -0.731  1.00  0.00    -0.011 N 
ATOM      4  H21 UNL     1      47.073  12.432  -0.415  1.00  0.00     0.283 HD
ATOM      5  H22 UNL     1      46.310  11.985  -1.695  1.00  0.00     0.283 HD
HETATM    6  C9  UNL     1      47.123  10.426  -0.688  1.00  0.00     0.419 C 
HETATM    7  C10 UNL     1      47.153   9.787   0.677  1.00  0.00     0.129 C 
HETATM    8  C11 UNL     1      46.344   8.503   0.729  1.00  0.00     0.052 C 
HETATM    9  C12 UNL     1      46.553  10.756   1.666  1.00  0.00     0.212 C 
HETATM   10  O2  UNL     1      45.299  11.114   1.247  1.00  0.00    -0.351 OA
ENDROOT
BRANCH   2  11
HETATM   11  C3  UNL     1      44.699  13.133   0.106  1.00  0.00     0.074 C 
BRANCH  11  12
HETATM   12  C4  UNL     1      44.061  13.299   1.468  1.00  0.00     0.063 C 
BRANCH  12  13
HETATM   13  C5  UNL     1      44.393  14.654   2.007  1.00  0.00     0.033 A 
HETATM   14  N1  UNL     1      43.801  15.820   1.705  1.00  0.00    -0.366 N 
HETATM   15  C6  UNL     1      44.381  16.830   2.396  1.00  0.00     0.113 A 
ATOM     16  H1  UNL     1      43.026  15.929   1.050  1.00  0.00     0.165 HD
HETATM   17  C7  UNL     1      45.392  16.312   3.180  1.00  0.00     0.073 A 
HETATM   18 CL1  UNL     1      46.469  17.181   4.277  1.00  0.00    -0.081 Cl
HETATM   19  C8  UNL     1      45.386  14.952   2.924  1.00  0.00     0.079 A 
HETATM   20 CL2  UNL     1      46.471  13.790   3.654  1.00  0.00    -0.080 Cl
ENDBRANCH  12  13
ENDBRANCH  11  12
ENDBRANCH   2  11
BRANCH   6  21
HETATM   21  N3  UNL     1      48.497  10.532  -1.145  1.00  0.00    -0.047 N 
ATOM     22  H33 UNL     1      48.562  11.071  -2.008  1.00  0.00     0.276 HD
ATOM     23  H32 UNL     1      49.046  11.139  -0.536  1.00  0.00     0.276 HD
ATOM     24  H31 UNL     1      48.931   9.614  -1.245  1.00  0.00     0.276 HD
ENDBRANCH   6  21
BRANCH   7  25
HETATM   25  O1  UNL     1      48.464   9.449   1.067  1.00  0.00    -0.384 OA
ATOM     26  H1  UNL     1      48.531   8.537   1.323  1.00  0.00     0.210 HD
ENDBRANCH   7  25
TORSDOF 5
ENDMDL
MODEL 4
REMARK VINA RESULT: -5.670222909      1.846      2.217
REMARK  5 active torsions:
REMARK  status: ('A' for Active; 'I' for Inactive)
REMARK    1  A    between atoms: C2_2  and  C3_3 
REMARK    2  A    between atoms: C3_3  and  C4_4 
REMARK    3  A    between atoms: C4_4  and  C5_5 
REMARK    4  A    between atoms: C9_16  and  N3_17 
REMARK    5  A    between atoms: C10_21  and  O1_23 
ROOT
HETATM    1  C1  UNL     1      43.998  12.226  -0.936  1.00  0.00     0.078 C 
HETATM    2  C2  UNL     1      44.610  11.143  -0.040  1.00  0.00     0.225 C 
HETATM    3  N2  UNL     1      45.981  10.899  -0.382  1.00  0.00    -0.011 N 
ATOM      4  H21 UNL     1      46.471  10.438   0.385  1.00  0.00     0.283 HD
ATOM      5  H22 UNL     1      46.509  11.771  -0.416  1.00  0.00     0.283 HD
HETATM    6  C9  UNL     1      46.128  10.167  -1.594  1.00  0.00     0.419 C 
HETATM    7  C10 UNL     1      45.186   8.999  -1.730  1.00  0.00     0.129 C 
HETATM    8  C11 UNL     1      44.189   9.193  -2.858  1.00  0.00     0.052 C 
HETATM    9  C12 UNL     1      44.412   8.863  -0.442  1.00  0.00     0.212 C 
HETATM   10  O2  UNL     1      43.788  10.050  -0.159  1.00  0.00    -0.351 OA
ENDROOT
BRANCH   2  11
HETATM   11  C3  UNL     1      44.535  11.718   1.388  1.00  0.00     0.074 C 
BRANCH  11  12
HETATM   12  C4  UNL     1      44.326  13.213   1.278  1.00  0.00     0.063 C 
BRANCH  12  13
HETATM   13  C5  UNL     1      45.135  13.903   2.330  1.00  0.00     0.033 A 
HETATM   14  N1  UNL     1      46.042  13.354   3.152  1.00  0.00    -0.366 N 
HETATM   15  C6  UNL     1      46.564  14.300   3.969  1.00  0.00     0.113 A 
ATOM     16  H1  UNL     1      46.300  12.367   3.162  1.00  0.00     0.165 HD
HETATM   17  C7  UNL     1      45.981  15.516   3.674  1.00  0.00     0.073 A 
HETATM   18 CL1  UNL     1      46.290  17.081   4.431  1.00  0.00    -0.081 Cl
HETATM   19  C8  UNL     1      45.090  15.248   2.648  1.00  0.00     0.079 A 
HETATM   20 CL2  UNL     1      44.065  16.438   1.877  1.00  0.00    -0.080 Cl
ENDBRANCH  12  13
ENDBRANCH  11  12
ENDBRANCH   2  11
BRANCH   6  21
HETATM   21  N3  UNL     1      47.477   9.653  -1.747  1.00  0.00    -0.047 N 
ATOM     22  H33 UNL     1      47.577   9.123  -2.613  1.00  0.00     0.276 HD
ATOM     23  H32 UNL     1      48.142  10.402  -1.942  1.00  0.00     0.276 HD
ATOM     24  H31 UNL     1      47.764   9.103  -0.938  1.00  0.00     0.276 HD
ENDBRANCH   6  21
BRANCH   7  25
HETATM   25  O1  UNL     1      45.875   7.802  -2.008  1.00  0.00    -0.384 OA
ATOM     26  H1  UNL     1      45.453   7.051  -1.607  1.00  0.00     0.210 HD
ENDBRANCH   7  25
TORSDOF 5
ENDMDL
MODEL 5
REMARK VINA RESULT: -5.652974807      1.927      2.176
REMARK  5 active torsions:
REMARK  status: ('A' for Active; 'I' for Inactive)
REMARK    1  A    between atoms: C2_2  and  C3_3 
REMARK    2  A    between atoms: C3_3  and  C4_4 
REMARK    3  A    between atoms: C4_4  and  C5_5 
REMARK    4  A    between atoms: C9_16  and  N3_17 
REMARK    5  A    between atoms: C10_21  and  O1_23 
ROOT
HETATM    1  C1  UNL     1      46.418  11.471  -0.633  1.00  0.00     0.078 C 
HETATM    2  C2  UNL     1      45.600  10.683   0.397  1.00  0.00     0.225 C 
HETATM    3  N2  UNL     1      46.366  10.421   1.580  1.00  0.00    -0.011 N 
ATOM      4  H21 UNL     1      45.757  10.195   2.366  1.00  0.00     0.283 HD
ATOM      5  H22 UNL     1      46.788  11.279   1.938  1.00  0.00     0.283 HD
HETATM    6  C9  UNL     1      47.350   9.410   1.391  1.00  0.00     0.419 C 
HETATM    7  C10 UNL     1      46.862   8.205   0.629  1.00  0.00     0.129 C 
HETATM    8  C11 UNL     1      47.548   8.058  -0.716  1.00  0.00     0.052 C 
HETATM    9  C12 UNL     1      45.382   8.369   0.383  1.00  0.00     0.212 C 
HETATM   10  O2  UNL     1      45.158   9.559  -0.258  1.00  0.00    -0.351 OA
ENDROOT
BRANCH   2  11
HETATM   11  C3  UNL     1      44.413  11.601   0.750  1.00  0.00     0.074 C 
BRANCH  11  12
HETATM   12  C4  UNL     1      44.953  12.781   1.528  1.00  0.00     0.063 C 
BRANCH  12  13
HETATM   13  C5  UNL     1      44.384  14.044   0.966  1.00  0.00     0.033 A 
HETATM   14  N1  UNL     1      43.963  14.262  -0.289  1.00  0.00    -0.366 N 
HETATM   15  C6  UNL     1      43.513  15.533  -0.417  1.00  0.00     0.113 A 
ATOM     16  H1  UNL     1      43.979  13.570  -1.039  1.00  0.00     0.165 HD
HETATM   17  C7  UNL     1      43.643  16.177   0.798  1.00  0.00     0.073 A 
HETATM   18 CL1  UNL     1      43.211  17.842   1.195  1.00  0.00    -0.081 Cl
HETATM   19  C8  UNL     1      44.189  15.232   1.649  1.00  0.00     0.079 A 
HETATM   20 CL2  UNL     1      44.572  15.505   3.334  1.00  0.00    -0.080 Cl
ENDBRANCH  12  13
ENDBRANCH  11  12
ENDBRANCH   2  11
BRANCH   6  21
HETATM   21  N3  UNL     1      47.879   8.935   2.657  1.00  0.00    -0.047 N 
ATOM     22  H33 UNL     1      47.907   9.681   3.352  1.00  0.00     0.276 HD
ATOM     23  H32 UNL     1      47.222   8.308   3.123  1.00  0.00     0.276 HD
ATOM     24  H31 UNL     1      48.793   8.498   2.542  1.00  0.00     0.276 HD
ENDBRANCH   6  21
BRANCH   7  25
HETATM   25  O1  UNL     1      47.104   7.009   1.334  1.00  0.00    -0.384 OA
ATOM     26  H1  UNL     1      47.495   7.174   2.184  1.00  0.00     0.210 HD
ENDBRANCH   7  25
TORSDOF 5
ENDMDL
