MODEL 1
REMARK VINA RESULT: -7.823805006      0.000      0.000
REMARK  3 active torsions:
REMARK  status: ('A' for Active; 'I' for Inactive)
REMARK       I    between atoms: N3_4  and  C2_6 
REMARK       I    between atoms: C2_6  and  N4_8 
REMARK    1  A    between atoms: N4_8  and  C3_10 
REMARK    2  A    between atoms: C10_17  and  N5_18 
REMARK    3  A    between atoms: N5_18  and  C11_21 
ROOT
HETATM    1  C3  UNL     1      18.100 -13.610  21.564  1.00  0.00     0.037 C 
HETATM    2  C4  UNL     1      19.441 -13.284  20.976  1.00  0.00     0.036 C 
HETATM    3  C5  UNL     1      20.435 -14.412  21.276  1.00  0.00    -0.009 C 
HETATM    4  C6  UNL     1      19.897 -15.723  20.760  1.00  0.00     0.009 C 
HETATM    5  C7  UNL     1      18.628 -16.019  21.515  1.00  0.00    -0.009 C 
HETATM    6  C8  UNL     1      17.609 -14.984  21.125  1.00  0.00     0.036 C 
HETATM    7  C9  UNL     1      18.831 -16.044  23.004  1.00  0.00     0.043 C 
HETATM    8  C10 UNL     1      19.348 -14.672  23.467  1.00  0.00     0.129 C 
HETATM    9  C14 UNL     1      20.645 -14.437  22.763  1.00  0.00     0.043 C 
HETATM   10  C15 UNL     1      18.271 -13.690  23.068  1.00  0.00     0.070 C 
ENDROOT
BRANCH   1  11
HETATM   11  N4  UNL     1      17.128 -12.593  21.252  1.00  0.00    -0.333 N 
HETATM   12  C2  UNL     1      15.731 -12.728  21.357  1.00  0.00     0.322 C 
HETATM   13  N3  UNL     1      14.898 -11.644  21.013  1.00  0.00    -0.285 N 
HETATM   14  O1  UNL     1      15.248 -13.811  21.753  1.00  0.00    -0.247 OA
HETATM   15  C1  UNL     1      13.746 -11.397  21.497  1.00  0.00     0.204 C 
ATOM     16  H3  UNL     1      15.251 -10.995  20.310  1.00  0.00     0.172 HD
HETATM   17  N1  UNL     1      13.200 -12.253  22.473  1.00  0.00    -0.066 NA
HETATM   18  N2  UNL     1      13.013 -10.276  21.066  1.00  0.00    -0.066 NA
ATOM     19  H4  UNL     1      17.484 -11.694  20.926  1.00  0.00     0.165 HD
ENDBRANCH   1  11
BRANCH   8  20
HETATM   20  N5  UNL     1      19.456 -14.635  24.902  1.00  0.00    -0.062 N 
ATOM     21  H52 UNL     1      18.621 -14.212  25.309  1.00  0.00     0.278 HD
ATOM     22  H51 UNL     1      19.383 -15.576  25.287  1.00  0.00     0.278 HD
BRANCH  20  23
HETATM   23  C11 UNL     1      20.629 -13.987  25.396  1.00  0.00     0.187 A 
HETATM   24  C12 UNL     1      20.585 -13.549  26.830  1.00  0.00     0.035 A 
HETATM   25  C13 UNL     1      21.481 -14.647  26.429  1.00  0.00     0.035 A 
ENDBRANCH  20  23
ENDBRANCH   8  20
TORSDOF 3
ENDMDL
MODEL 2
REMARK VINA RESULT: -7.801077417      0.978      1.139
REMARK  3 active torsions:
REMARK  status: ('A' for Active; 'I' for Inactive)
REMARK       I    between atoms: N3_4  and  C2_6 
REMARK       I    between atoms: C2_6  and  N4_8 
REMARK    1  A    between atoms: N4_8  and  C3_10 
REMARK    2  A    between atoms: C10_17  and  N5_18 
REMARK    3  A    between atoms: N5_18  and  C11_21 
ROOT
HETATM    1  C3  UNL     1      17.959 -14.079  21.993  1.00  0.00     0.037 C 
HETATM    2  C4  UNL     1      19.026 -13.255  21.332  1.00  0.00     0.036 C 
HETATM    3  C5  UNL     1      20.306 -14.085  21.171  1.00  0.00    -0.009 C 
HETATM    4  C6  UNL     1      20.009 -15.346  20.399  1.00  0.00     0.009 C 
HETATM    5  C7  UNL     1      19.039 -16.157  21.216  1.00  0.00    -0.009 C 
HETATM    6  C8  UNL     1      17.739 -15.402  21.270  1.00  0.00     0.036 C 
HETATM    7  C9  UNL     1      19.550 -16.454  22.598  1.00  0.00     0.043 C 
HETATM    8  C10 UNL     1      19.801 -15.130  23.338  1.00  0.00     0.129 C 
HETATM    9  C14 UNL     1      20.823 -14.378  22.550  1.00  0.00     0.043 C 
HETATM   10  C15 UNL     1      18.457 -14.440  23.378  1.00  0.00     0.070 C 
ENDROOT
BRANCH   1  11
HETATM   11  N4  UNL     1      16.725 -13.345  22.109  1.00  0.00    -0.333 N 
HETATM   12  C2  UNL     1      16.072 -12.661  21.068  1.00  0.00     0.322 C 
HETATM   13  N3  UNL     1      14.865 -11.980  21.329  1.00  0.00    -0.285 N 
HETATM   14  O1  UNL     1      16.573 -12.665  19.922  1.00  0.00    -0.247 OA
HETATM   15  C1  UNL     1      13.924 -11.769  20.497  1.00  0.00     0.204 C 
ATOM     16  H3  UNL     1      14.732 -11.624  22.276  1.00  0.00     0.172 HD
HETATM   17  N1  UNL     1      14.044 -12.236  19.174  1.00  0.00    -0.066 NA
HETATM   18  N2  UNL     1      12.765 -11.072  20.887  1.00  0.00    -0.066 NA
ATOM     19  H4  UNL     1      16.285 -13.319  23.029  1.00  0.00     0.165 HD
ENDBRANCH   1  11
BRANCH   8  20
HETATM   20  N5  UNL     1      20.196 -15.384  24.700  1.00  0.00    -0.062 N 
ATOM     21  H52 UNL     1      19.373 -15.524  25.287  1.00  0.00     0.278 HD
ATOM     22  H51 UNL     1      20.627 -16.305  24.777  1.00  0.00     0.278 HD
BRANCH  20  23
HETATM   23  C11 UNL     1      21.048 -14.389  25.270  1.00  0.00     0.187 A 
HETATM   24  C12 UNL     1      20.480 -13.621  26.426  1.00  0.00     0.035 A 
HETATM   25  C13 UNL     1      21.593 -14.559  26.649  1.00  0.00     0.035 A 
ENDBRANCH  20  23
ENDBRANCH   8  20
TORSDOF 3
ENDMDL
MODEL 3
REMARK VINA RESULT: -7.680550937      3.021      4.695
REMARK  3 active torsions:
REMARK  status: ('A' for Active; 'I' for Inactive)
REMARK       I    between atoms: N3_4  and  C2_6 
REMARK       I    between atoms: C2_6  and  N4_8 
REMARK    1  A    between atoms: N4_8  and  C3_10 
REMARK    2  A    between atoms: C10_17  and  N5_18 
REMARK    3  A    between atoms: N5_18  and  C11_21 
ROOT
HETATM    1  C3  UNL     1      14.483 -12.634  21.241  1.00  0.00     0.037 C 
HETATM    2  C4  UNL     1      13.962 -12.772  19.840  1.00  0.00     0.036 C 
HETATM    3  C5  UNL     1      14.638 -13.960  19.144  1.00  0.00    -0.009 C 
HETATM    4  C6  UNL     1      14.428 -15.217  19.950  1.00  0.00     0.009 C 
HETATM    5  C7  UNL     1      15.107 -15.020  21.279  1.00  0.00    -0.009 C 
HETATM    6  C8  UNL     1      14.368 -13.939  22.018  1.00  0.00     0.036 C 
HETATM    7  C9  UNL     1      16.565 -14.680  21.140  1.00  0.00     0.043 C 
HETATM    8  C10 UNL     1      16.706 -13.376  20.339  1.00  0.00     0.129 C 
HETATM    9  C14 UNL     1      16.093 -13.621  18.998  1.00  0.00     0.043 C 
HETATM   10  C15 UNL     1      15.966 -12.335  21.147  1.00  0.00     0.070 C 
ENDROOT
BRANCH   1  11
HETATM   11  N4  UNL     1      13.827 -11.558  21.942  1.00  0.00    -0.333 N 
HETATM   12  C2  UNL     1      12.555 -11.621  22.541  1.00  0.00     0.322 C 
HETATM   13  N3  UNL     1      12.036 -10.484  23.194  1.00  0.00    -0.285 N 
HETATM   14  O1  UNL     1      11.902 -12.685  22.484  1.00  0.00    -0.247 OA
HETATM   15  C1  UNL     1      11.217 -10.485  24.169  1.00  0.00     0.204 C 
ATOM     16  H3  UNL     1      12.346  -9.574  22.853  1.00  0.00     0.172 HD
HETATM   17  N1  UNL     1      10.750 -11.708  24.688  1.00  0.00    -0.066 NA
HETATM   18  N2  UNL     1      10.773  -9.274  24.734  1.00  0.00    -0.066 NA
ATOM     19  H4  UNL     1      14.329 -10.674  22.009  1.00  0.00     0.165 HD
ENDBRANCH   1  11
BRANCH   8  20
HETATM   20  N5  UNL     1      18.087 -12.972  20.276  1.00  0.00    -0.062 N 
ATOM     21  H52 UNL     1      18.199 -12.196  19.623  1.00  0.00     0.278 HD
ATOM     22  H51 UNL     1      18.360 -12.512  21.145  1.00  0.00     0.278 HD
BRANCH  20  23
HETATM   23  C11 UNL     1      19.003 -14.021  19.962  1.00  0.00     0.187 A 
HETATM   24  C12 UNL     1      20.292 -13.600  19.321  1.00  0.00     0.035 A 
HETATM   25  C13 UNL     1      20.300 -14.139  20.692  1.00  0.00     0.035 A 
ENDBRANCH  20  23
ENDBRANCH   8  20
TORSDOF 3
ENDMDL
MODEL 4
REMARK VINA RESULT: -7.499773564      3.151      4.354
REMARK  3 active torsions:
REMARK  status: ('A' for Active; 'I' for Inactive)
REMARK       I    between atoms: N3_4  and  C2_6 
REMARK       I    between atoms: C2_6  and  N4_8 
REMARK    1  A    between atoms: N4_8  and  C3_10 
REMARK    2  A    between atoms: C10_17  and  N5_18 
REMARK    3  A    between atoms: N5_18  and  C11_21 
ROOT
HETATM    1  C3  UNL     1      14.790 -14.588  21.225  1.00  0.00     0.037 C 
HETATM    2  C4  UNL     1      14.230 -14.701  19.837  1.00  0.00     0.036 C 
HETATM    3  C5  UNL     1      15.245 -15.390  18.916  1.00  0.00    -0.009 C 
HETATM    4  C6  UNL     1      15.625 -16.735  19.482  1.00  0.00     0.009 C 
HETATM    5  C7  UNL     1      16.300 -16.493  20.806  1.00  0.00    -0.009 C 
HETATM    6  C8  UNL     1      15.272 -15.934  21.751  1.00  0.00     0.036 C 
HETATM    7  C9  UNL     1      17.487 -15.577  20.693  1.00  0.00     0.043 C 
HETATM    8  C10 UNL     1      17.026 -14.218  20.143  1.00  0.00     0.129 C 
HETATM    9  C14 UNL     1      16.429 -14.475  18.797  1.00  0.00     0.043 C 
HETATM   10  C15 UNL     1      16.020 -13.706  21.148  1.00  0.00     0.070 C 
ENDROOT
BRANCH   1  11
HETATM   11  N4  UNL     1      13.837 -13.994  22.129  1.00  0.00    -0.333 N 
HETATM   12  C2  UNL     1      13.408 -12.655  22.109  1.00  0.00     0.322 C 
HETATM   13  N3  UNL     1      12.468 -12.210  23.061  1.00  0.00    -0.285 N 
HETATM   14  O1  UNL     1      13.869 -11.876  21.247  1.00  0.00    -0.247 OA
HETATM   15  C1  UNL     1      11.624 -11.269  22.903  1.00  0.00     0.204 C 
ATOM     16  H3  UNL     1      12.462 -12.687  23.963  1.00  0.00     0.172 HD
HETATM   17  N1  UNL     1      11.579 -10.569  21.682  1.00  0.00    -0.066 NA
HETATM   18  N2  UNL     1      10.736 -10.921  23.939  1.00  0.00    -0.066 NA
ATOM     19  H4  UNL     1      13.438 -14.599  22.847  1.00  0.00     0.165 HD
ENDBRANCH   1  11
BRANCH   8  20
HETATM   20  N5  UNL     1      18.124 -13.287  20.119  1.00  0.00    -0.062 N 
ATOM     21  H52 UNL     1      17.988 -12.598  19.379  1.00  0.00     0.278 HD
ATOM     22  H51 UNL     1      18.089 -12.678  20.936  1.00  0.00     0.278 HD
BRANCH  20  23
HETATM   23  C11 UNL     1      19.414 -13.889  20.005  1.00  0.00     0.187 A 
HETATM   24  C12 UNL     1      20.301 -13.345  18.925  1.00  0.00     0.035 A 
HETATM   25  C13 UNL     1      20.644 -13.111  20.338  1.00  0.00     0.035 A 
ENDBRANCH  20  23
ENDBRANCH   8  20
TORSDOF 3
ENDMDL
MODEL 5
REMARK VINA RESULT: -7.451822236      3.098      4.320
REMARK  3 active torsions:
REMARK  status: ('A' for Active; 'I' for Inactive)
REMARK       I    between atoms: N3_4  and  C2_6 
REMARK       I    between atoms: C2_6  and  N4_8 
REMARK    1  A    between atoms: N4_8  and  C3_10 
REMARK    2  A    between atoms: C10_17  and  N5_18 
REMARK    3  A    between atoms: N5_18  and  C11_21 
ROOT
HETATM    1  C3  UNL     1      14.890 -13.527  21.132  1.00  0.00     0.037 C 
HETATM    2  C4  UNL     1      14.669 -13.358  19.657  1.00  0.00     0.036 C 
HETATM    3  C5  UNL     1      15.278 -14.542  18.896  1.00  0.00    -0.009 C 
HETATM    4  C6  UNL     1      14.699 -15.837  19.408  1.00  0.00     0.009 C 
HETATM    5  C7  UNL     1      15.098 -15.969  20.854  1.00  0.00    -0.009 C 
HETATM    6  C8  UNL     1      14.401 -14.883  21.625  1.00  0.00     0.036 C 
HETATM    7  C9  UNL     1      16.587 -15.904  21.052  1.00  0.00     0.043 C 
HETATM    8  C10 UNL     1      17.106 -14.551  20.541  1.00  0.00     0.129 C 
HETATM    9  C14 UNL     1      16.766 -14.476  19.087  1.00  0.00     0.043 C 
HETATM   10  C15 UNL     1      16.387 -13.513  21.371  1.00  0.00     0.070 C 
ENDROOT
BRANCH   1  11
HETATM   11  N4  UNL     1      14.281 -12.457  21.881  1.00  0.00    -0.333 N 
HETATM   12  C2  UNL     1      12.907 -12.318  22.149  1.00  0.00     0.322 C 
HETATM   13  N3  UNL     1      12.450 -11.213  22.897  1.00  0.00    -0.285 N 
HETATM   14  O1  UNL     1      12.107 -13.177  21.718  1.00  0.00    -0.247 OA
HETATM   15  C1  UNL     1      11.415 -11.181  23.638  1.00  0.00     0.204 C 
ATOM     16  H3  UNL     1      13.002 -10.357  22.839  1.00  0.00     0.172 HD
HETATM   17  N1  UNL     1      10.610 -12.329  23.762  1.00  0.00    -0.066 NA
HETATM   18  N2  UNL     1      11.068 -10.009  24.335  1.00  0.00    -0.066 NA
ATOM     19  H4  UNL     1      14.901 -11.736  22.249  1.00  0.00     0.165 HD
ENDBRANCH   1  11
BRANCH   8  20
HETATM   20  N5  UNL     1      18.515 -14.419  20.810  1.00  0.00    -0.062 N 
ATOM     21  H52 UNL     1      18.682 -14.392  21.817  1.00  0.00     0.278 HD
ATOM     22  H51 UNL     1      19.002 -15.282  20.573  1.00  0.00     0.278 HD
BRANCH  20  23
HETATM   23  C11 UNL     1      19.142 -13.305  20.174  1.00  0.00     0.187 A 
HETATM   24  C12 UNL     1      20.600 -13.112  20.473  1.00  0.00     0.035 A 
HETATM   25  C13 UNL     1      20.179 -13.520  19.121  1.00  0.00     0.035 A 
ENDBRANCH  20  23
ENDBRANCH   8  20
TORSDOF 3
ENDMDL
