MODEL 1
REMARK VINA RESULT: -8.462545970      0.000      0.000
REMARK  12 active torsions:
REMARK  status: ('A' for Active; 'I' for Inactive)
REMARK    1  A    between atoms: N1_2  and  C2_3 
REMARK    2  A    between atoms: N1_2  and  S1_41 
REMARK    3  A    between atoms: C2_3  and  C3_4 
REMARK    4  A    between atoms: C3_4  and  N2_5 
REMARK    5  A    between atoms: N2_5  and  C4_7 
REMARK    6  A    between atoms: C6_9  and  C7_10 
REMARK    7  A    between atoms: C8_11  and  C9_12 
REMARK    8  A    between atoms: N5_23  and  C15_25 
REMARK    9  A    between atoms: C15_25  and  C16_26 
REMARK   10  A    between atoms: C16_26  and  C17_27 
REMARK   11  A    between atoms: C17_27  and  N6_28 
REMARK   12  A    between atoms: N6_28  and  C18_30 
ROOT
HETATM    1  C4  UNL     1      15.028 -12.504  18.574  1.00  0.00     0.119 A 
HETATM    2  C5  UNL     1      16.077 -13.018  19.306  1.00  0.00     0.088 A 
HETATM    3  C6  UNL     1      16.211 -12.841  20.659  1.00  0.00     0.106 A 
HETATM    4  N4  UNL     1      15.255 -12.119  21.300  1.00  0.00    -0.184 N 
ATOM      5  H4  UNL     1      15.324 -11.968  22.306  1.00  0.00     0.185 HD
HETATM    6  C14 UNL     1      14.221 -11.604  20.620  1.00  0.00     0.680 A 
HETATM    7  N5  UNL     1      13.330 -10.930  21.229  1.00  0.00    -0.226 N 
ATOM      8  H5  UNL     1      12.550 -10.547  20.695  1.00  0.00     0.177 HD
HETATM    9  N9  UNL     1      14.119 -11.803  19.266  1.00  0.00    -0.177 N 
ATOM     10  H9  UNL     1      13.324 -11.402  18.768  1.00  0.00     0.185 HD
ENDROOT
BRANCH   7  11
HETATM   11  C15 UNL     1      13.385 -10.692  22.640  1.00  0.00     0.139 C 
BRANCH  11  12
HETATM   12  C16 UNL     1      12.239 -11.476  23.291  1.00  0.00     0.040 C 
BRANCH  12  13
HETATM   13  C17 UNL     1      11.775 -12.501  22.264  1.00  0.00     0.123 C 
BRANCH  13  14
HETATM   14  N6  UNL     1      12.206 -13.831  22.620  1.00  0.00    -0.375 N 
ATOM     15  H6  UNL     1      12.006 -14.168  23.562  1.00  0.00     0.161 HD
BRANCH  14  16
HETATM   16  C18 UNL     1      12.837 -14.620  21.803  1.00  0.00     0.117 A 
HETATM   17  C19 UNL     1      12.463 -14.815  20.512  1.00  0.00     0.136 A 
HETATM   18  N7  UNL     1      13.171 -15.644  19.743  1.00  0.00    -0.369 N 
HETATM   19  C20 UNL     1      14.248 -16.302  20.193  1.00  0.00     0.125 A 
ATOM     20  H7  UNL     1      12.881 -15.784  18.775  1.00  0.00     0.164 HD
HETATM   21  C21 UNL     1      14.613 -16.085  21.523  1.00  0.00     0.096 A 
HETATM   22 BR1  UNL     1      16.128 -16.972  22.260  1.00  0.00    -0.030 Br
HETATM   23  N8  UNL     1      13.915 -15.261  22.299  1.00  0.00    -0.335 N 
ATOM     24  H8  UNL     1      14.195 -15.114  23.269  1.00  0.00     0.168 HD
ENDBRANCH  14  16
ENDBRANCH  13  14
ENDBRANCH  12  13
ENDBRANCH  11  12
ENDBRANCH   7  11
BRANCH   3  25
HETATM   25  C7  UNL     1      17.305 -13.377  21.416  1.00  0.00    -0.041 C 
HETATM   26  C8  UNL     1      18.239 -13.842  22.042  1.00  0.00    -0.032 C 
BRANCH  26  27
HETATM   27  C9  UNL     1      19.340 -14.409  22.785  1.00  0.00     0.155 A 
HETATM   28  C10 UNL     1      20.137 -15.480  22.422  1.00  0.00     0.193 A 
HETATM   29  O1  UNL     1      21.019 -15.673  23.374  1.00  0.00    -0.282 OA
HETATM   30  C11 UNL     1      20.815 -14.774  24.322  1.00  0.00     0.272 A 
HETATM   31  N3  UNL     1      21.463 -14.621  25.424  1.00  0.00    -0.349 N 
HETATM   32  O2  UNL     1      19.802 -14.022  23.950  1.00  0.00    -0.263 OA
HETATM   33  C12 UNL     1      22.558 -15.525  25.699  1.00  0.00     0.153 C 
HETATM   34  C13 UNL     1      21.125 -13.591  26.364  1.00  0.00     0.153 C 
ENDBRANCH  26  27
ENDBRANCH   3  25
BRANCH   1  35
HETATM   35  N2  UNL     1      14.976 -12.712  17.330  1.00  0.00    -0.375 N 
ATOM     36  H2  UNL     1      14.786 -11.888  16.759  1.00  0.00     0.161 HD
BRANCH  35  37
HETATM   37  C3  UNL     1      15.142 -13.919  16.607  1.00  0.00     0.137 C 
BRANCH  37  38
HETATM   38  C2  UNL     1      16.157 -13.839  15.494  1.00  0.00     0.126 C 
BRANCH  38  39
HETATM   39  N1  UNL     1      15.990 -12.590  14.812  1.00  0.00    -0.214 NA
HETATM   40  C1  UNL     1      15.568 -12.700  13.449  1.00  0.00     0.129 C 
BRANCH  39  41
HETATM   41  S1  UNL     1      17.305 -11.530  15.060  1.00  0.00     0.207 S 
HETATM   42  C22 UNL     1      17.902 -10.808  13.574  1.00  0.00     0.180 C 
HETATM   43  O3  UNL     1      18.482 -12.244  15.713  1.00  0.00    -0.212 OA
HETATM   44  O4  UNL     1      16.820 -10.422  15.978  1.00  0.00    -0.212 OA
ENDBRANCH  39  41
ENDBRANCH  38  39
ENDBRANCH  37  38
ENDBRANCH  35  37
ENDBRANCH   1  35
TORSDOF 12
ENDMDL
MODEL 2
REMARK VINA RESULT: -7.886700745      3.769      6.086
REMARK  12 active torsions:
REMARK  status: ('A' for Active; 'I' for Inactive)
REMARK    1  A    between atoms: N1_2  and  C2_3 
REMARK    2  A    between atoms: N1_2  and  S1_41 
REMARK    3  A    between atoms: C2_3  and  C3_4 
REMARK    4  A    between atoms: C3_4  and  N2_5 
REMARK    5  A    between atoms: N2_5  and  C4_7 
REMARK    6  A    between atoms: C6_9  and  C7_10 
REMARK    7  A    between atoms: C8_11  and  C9_12 
REMARK    8  A    between atoms: N5_23  and  C15_25 
REMARK    9  A    between atoms: C15_25  and  C16_26 
REMARK   10  A    between atoms: C16_26  and  C17_27 
REMARK   11  A    between atoms: C17_27  and  N6_28 
REMARK   12  A    between atoms: N6_28  and  C18_30 
ROOT
HETATM    1  C4  UNL     1      13.122 -16.512  20.726  1.00  0.00     0.119 A 
HETATM    2  C5  UNL     1      14.440 -16.347  21.096  1.00  0.00     0.088 A 
HETATM    3  C6  UNL     1      14.881 -15.307  21.873  1.00  0.00     0.106 A 
HETATM    4  N4  UNL     1      13.963 -14.399  22.292  1.00  0.00    -0.184 N 
ATOM      5  H4  UNL     1      14.257 -13.612  22.872  1.00  0.00     0.185 HD
HETATM    6  C14 UNL     1      12.673 -14.527  21.951  1.00  0.00     0.680 A 
HETATM    7  N5  UNL     1      11.820 -13.670  22.350  1.00  0.00    -0.226 N 
ATOM      8  H5  UNL     1      10.843 -13.785  22.081  1.00  0.00     0.177 HD
HETATM    9  N9  UNL     1      12.268 -15.582  21.173  1.00  0.00    -0.177 N 
ATOM     10  H9  UNL     1      11.282 -15.660  20.925  1.00  0.00     0.185 HD
ENDROOT
BRANCH   7  11
HETATM   11  C15 UNL     1      12.187 -12.551  23.163  1.00  0.00     0.139 C 
BRANCH  11  12
HETATM   12  C16 UNL     1      11.651 -11.285  22.482  1.00  0.00     0.040 C 
BRANCH  12  13
HETATM   13  C17 UNL     1      12.852 -10.590  21.852  1.00  0.00     0.123 C 
BRANCH  13  14
HETATM   14  N6  UNL     1      13.111 -11.096  20.526  1.00  0.00    -0.375 N 
ATOM     15  H6  UNL     1      12.373 -11.021  19.826  1.00  0.00     0.161 HD
BRANCH  14  16
HETATM   16  C18 UNL     1      14.238 -11.642  20.179  1.00  0.00     0.117 A 
HETATM   17  C19 UNL     1      15.368 -11.571  20.929  1.00  0.00     0.136 A 
HETATM   18  N7  UNL     1      16.482 -12.163  20.494  1.00  0.00    -0.369 N 
HETATM   19  C20 UNL     1      16.536 -12.835  19.336  1.00  0.00     0.125 A 
ATOM     20  H7  UNL     1      17.325 -12.103  21.066  1.00  0.00     0.164 HD
HETATM   21  C21 UNL     1      15.363 -12.895  18.583  1.00  0.00     0.096 A 
HETATM   22 BR1  UNL     1      15.334 -13.825  16.922  1.00  0.00    -0.030 Br
HETATM   23  N8  UNL     1      14.246 -12.308  19.006  1.00  0.00    -0.335 N 
ATOM     24  H8  UNL     1      13.397 -12.362  18.443  1.00  0.00     0.168 HD
ENDBRANCH  14  16
ENDBRANCH  13  14
ENDBRANCH  12  13
ENDBRANCH  11  12
ENDBRANCH   7  11
BRANCH   3  25
HETATM   25  C7  UNL     1      16.253 -15.140  22.255  1.00  0.00    -0.041 C 
HETATM   26  C8  UNL     1      17.414 -14.977  22.583  1.00  0.00    -0.032 C 
BRANCH  26  27
HETATM   27  C9  UNL     1      18.795 -14.778  22.956  1.00  0.00     0.155 A 
HETATM   28  C10 UNL     1      19.900 -14.782  22.123  1.00  0.00     0.193 A 
HETATM   29  O1  UNL     1      20.965 -14.565  22.859  1.00  0.00    -0.282 OA
HETATM   30  C11 UNL     1      20.583 -14.424  24.117  1.00  0.00     0.272 A 
HETATM   31  N3  UNL     1      21.319 -14.198  25.148  1.00  0.00    -0.349 N 
HETATM   32  O2  UNL     1      19.275 -14.555  24.156  1.00  0.00    -0.263 OA
HETATM   33  C12 UNL     1      22.747 -14.077  24.952  1.00  0.00     0.153 C 
HETATM   34  C13 UNL     1      20.759 -14.068  26.463  1.00  0.00     0.153 C 
ENDBRANCH  26  27
ENDBRANCH   3  25
BRANCH   1  35
HETATM   35  N2  UNL     1      12.796 -17.499  20.008  1.00  0.00    -0.375 N 
ATOM     36  H2  UNL     1      13.564 -17.941  19.503  1.00  0.00     0.161 HD
BRANCH  35  37
HETATM   37  C3  UNL     1      11.523 -18.083  19.799  1.00  0.00     0.137 C 
BRANCH  37  38
HETATM   38  C2  UNL     1      11.054 -18.966  20.928  1.00  0.00     0.126 C 
BRANCH  38  39
HETATM   39  N1  UNL     1      11.731 -20.225  20.835  1.00  0.00    -0.214 NA
HETATM   40  C1  UNL     1      10.898 -21.331  20.472  1.00  0.00     0.129 C 
BRANCH  39  41
HETATM   41  S1  UNL     1      12.750 -20.519  22.173  1.00  0.00     0.207 S 
HETATM   42  C22 UNL     1      14.224 -21.374  21.745  1.00  0.00     0.180 C 
HETATM   43  O3  UNL     1      12.046 -21.352  23.238  1.00  0.00    -0.212 OA
HETATM   44  O4  UNL     1      13.123 -19.169  22.757  1.00  0.00    -0.212 OA
ENDBRANCH  39  41
ENDBRANCH  38  39
ENDBRANCH  37  38
ENDBRANCH  35  37
ENDBRANCH   1  35
TORSDOF 12
ENDMDL
MODEL 3
REMARK VINA RESULT: -7.809788277      3.567      5.763
REMARK  12 active torsions:
REMARK  status: ('A' for Active; 'I' for Inactive)
REMARK    1  A    between atoms: N1_2  and  C2_3 
REMARK    2  A    between atoms: N1_2  and  S1_41 
REMARK    3  A    between atoms: C2_3  and  C3_4 
REMARK    4  A    between atoms: C3_4  and  N2_5 
REMARK    5  A    between atoms: N2_5  and  C4_7 
REMARK    6  A    between atoms: C6_9  and  C7_10 
REMARK    7  A    between atoms: C8_11  and  C9_12 
REMARK    8  A    between atoms: N5_23  and  C15_25 
REMARK    9  A    between atoms: C15_25  and  C16_26 
REMARK   10  A    between atoms: C16_26  and  C17_27 
REMARK   11  A    between atoms: C17_27  and  N6_28 
REMARK   12  A    between atoms: N6_28  and  C18_30 
ROOT
HETATM    1  C4  UNL     1      12.720 -16.262  20.127  1.00  0.00     0.119 A 
HETATM    2  C5  UNL     1      14.021 -16.354  20.573  1.00  0.00     0.088 A 
HETATM    3  C6  UNL     1      14.551 -15.527  21.530  1.00  0.00     0.106 A 
HETATM    4  N4  UNL     1      13.742 -14.572  22.057  1.00  0.00    -0.184 N 
ATOM      5  H4  UNL     1      14.104 -13.940  22.771  1.00  0.00     0.185 HD
HETATM    6  C14 UNL     1      12.471 -14.453  21.647  1.00  0.00     0.680 A 
HETATM    7  N5  UNL     1      11.721 -13.555  22.148  1.00  0.00    -0.226 N 
ATOM      8  H5  UNL     1      10.757 -13.480  21.823  1.00  0.00     0.177 HD
HETATM    9  N9  UNL     1      11.975 -15.299  20.687  1.00  0.00    -0.177 N 
ATOM     10  H9  UNL     1      11.006 -15.191  20.390  1.00  0.00     0.185 HD
ENDROOT
BRANCH   7  11
HETATM   11  C15 UNL     1      12.186 -12.645  23.151  1.00  0.00     0.139 C 
BRANCH  11  12
HETATM   12  C16 UNL     1      12.140 -11.232  22.556  1.00  0.00     0.040 C 
BRANCH  12  13
HETATM   13  C17 UNL     1      13.572 -10.872  22.180  1.00  0.00     0.123 C 
BRANCH  13  14
HETATM   14  N6  UNL     1      13.770 -10.941  20.753  1.00  0.00    -0.375 N 
ATOM     15  H6  UNL     1      13.217 -10.325  20.157  1.00  0.00     0.161 HD
BRANCH  14  16
HETATM   16  C18 UNL     1      14.618 -11.748  20.188  1.00  0.00     0.117 A 
HETATM   17  C19 UNL     1      14.303 -12.550  19.137  1.00  0.00     0.136 A 
HETATM   18  N7  UNL     1      15.238 -13.348  18.619  1.00  0.00    -0.369 N 
HETATM   19  C20 UNL     1      16.490 -13.395  19.095  1.00  0.00     0.125 A 
ATOM     20  H7  UNL     1      14.991 -13.946  17.831  1.00  0.00     0.164 HD
HETATM   21  C21 UNL     1      16.789 -12.563  20.175  1.00  0.00     0.096 A 
HETATM   22 BR1  UNL     1      18.539 -12.554  20.924  1.00  0.00    -0.030 Br
HETATM   23  N8  UNL     1      15.866 -11.763  20.700  1.00  0.00    -0.335 N 
ATOM     24  H8  UNL     1      16.101 -11.160  21.489  1.00  0.00     0.168 HD
ENDBRANCH  14  16
ENDBRANCH  13  14
ENDBRANCH  12  13
ENDBRANCH  11  12
ENDBRANCH   7  11
BRANCH   3  25
HETATM   25  C7  UNL     1      15.905 -15.626  21.991  1.00  0.00    -0.041 C 
HETATM   26  C8  UNL     1      17.052 -15.692  22.393  1.00  0.00    -0.032 C 
BRANCH  26  27
HETATM   27  C9  UNL     1      18.418 -15.760  22.857  1.00  0.00     0.155 A 
HETATM   28  C10 UNL     1      19.532 -16.155  22.138  1.00  0.00     0.193 A 
HETATM   29  O1  UNL     1      20.577 -16.072  22.928  1.00  0.00    -0.282 OA
HETATM   30  C11 UNL     1      20.174 -15.644  24.112  1.00  0.00     0.272 A 
HETATM   31  N3  UNL     1      20.885 -15.428  25.163  1.00  0.00    -0.349 N 
HETATM   32  O2  UNL     1      18.872 -15.460  24.051  1.00  0.00    -0.263 OA
HETATM   33  C12 UNL     1      22.309 -15.674  25.082  1.00  0.00     0.153 C 
HETATM   34  C13 UNL     1      20.304 -14.958  26.387  1.00  0.00     0.153 C 
ENDBRANCH  26  27
ENDBRANCH   3  25
BRANCH   1  35
HETATM   35  N2  UNL     1      12.307 -17.063  19.242  1.00  0.00    -0.375 N 
ATOM     36  H2  UNL     1      12.961 -17.242  18.480  1.00  0.00     0.161 HD
BRANCH  35  37
HETATM   37  C3  UNL     1      11.072 -17.749  19.148  1.00  0.00     0.137 C 
BRANCH  37  38
HETATM   38  C2  UNL     1      10.770 -18.643  20.325  1.00  0.00     0.126 C 
BRANCH  38  39
HETATM   39  N1  UNL     1      11.406 -19.909  20.111  1.00  0.00    -0.214 NA
HETATM   40  C1  UNL     1      10.519 -21.032  20.092  1.00  0.00     0.129 C 
BRANCH  39  41
HETATM   41  S1  UNL     1      12.788 -20.119  21.090  1.00  0.00     0.207 S 
HETATM   42  C22 UNL     1      12.985 -21.767  21.666  1.00  0.00     0.180 C 
HETATM   43  O3  UNL     1      12.743 -19.220  22.320  1.00  0.00    -0.212 OA
HETATM   44  O4  UNL     1      13.995 -19.751  20.246  1.00  0.00    -0.212 OA
ENDBRANCH  39  41
ENDBRANCH  38  39
ENDBRANCH  37  38
ENDBRANCH  35  37
ENDBRANCH   1  35
TORSDOF 12
ENDMDL
MODEL 4
REMARK VINA RESULT: -7.792667686      3.164      5.981
REMARK  12 active torsions:
REMARK  status: ('A' for Active; 'I' for Inactive)
REMARK    1  A    between atoms: N1_2  and  C2_3 
REMARK    2  A    between atoms: N1_2  and  S1_41 
REMARK    3  A    between atoms: C2_3  and  C3_4 
REMARK    4  A    between atoms: C3_4  and  N2_5 
REMARK    5  A    between atoms: N2_5  and  C4_7 
REMARK    6  A    between atoms: C6_9  and  C7_10 
REMARK    7  A    between atoms: C8_11  and  C9_12 
REMARK    8  A    between atoms: N5_23  and  C15_25 
REMARK    9  A    between atoms: C15_25  and  C16_26 
REMARK   10  A    between atoms: C16_26  and  C17_27 
REMARK   11  A    between atoms: C17_27  and  N6_28 
REMARK   12  A    between atoms: N6_28  and  C18_30 
ROOT
HETATM    1  C4  UNL     1      13.511 -15.571  21.395  1.00  0.00     0.119 A 
HETATM    2  C5  UNL     1      14.766 -15.900  21.862  1.00  0.00     0.088 A 
HETATM    3  C6  UNL     1      15.841 -16.128  21.041  1.00  0.00     0.106 A 
HETATM    4  N4  UNL     1      15.646 -16.022  19.701  1.00  0.00    -0.184 N 
ATOM      5  H4  UNL     1      16.425 -16.186  19.063  1.00  0.00     0.185 HD
HETATM    6  C14 UNL     1      14.440 -15.704  19.211  1.00  0.00     0.680 A 
HETATM    7  N5  UNL     1      14.268 -15.606  17.955  1.00  0.00    -0.226 N 
ATOM      8  H5  UNL     1      13.342 -15.363  17.601  1.00  0.00     0.177 HD
HETATM    9  N9  UNL     1      13.387 -15.482  20.064  1.00  0.00    -0.177 N 
ATOM     10  H9  UNL     1      12.478 -15.241  19.670  1.00  0.00     0.185 HD
ENDROOT
BRANCH   7  11
HETATM   11  C15 UNL     1      15.329 -15.827  17.020  1.00  0.00     0.139 C 
BRANCH  11  12
HETATM   12  C16 UNL     1      15.706 -14.470  16.413  1.00  0.00     0.040 C 
BRANCH  12  13
HETATM   13  C17 UNL     1      14.940 -13.414  17.199  1.00  0.00     0.123 C 
BRANCH  13  14
HETATM   14  N6  UNL     1      15.837 -12.459  17.803  1.00  0.00    -0.375 N 
ATOM     15  H6  UNL     1      16.147 -11.665  17.243  1.00  0.00     0.161 HD
BRANCH  14  16
HETATM   16  C18 UNL     1      16.269 -12.559  19.024  1.00  0.00     0.117 A 
HETATM   17  C19 UNL     1      15.497 -12.317  20.115  1.00  0.00     0.136 A 
HETATM   18  N7  UNL     1      16.025 -12.445  21.333  1.00  0.00    -0.369 N 
HETATM   19  C20 UNL     1      17.300 -12.807  21.532  1.00  0.00     0.125 A 
ATOM     20  H7  UNL     1      15.436 -12.261  22.145  1.00  0.00     0.164 HD
HETATM   21  C21 UNL     1      18.074 -13.050  20.396  1.00  0.00     0.096 A 
HETATM   22 BR1  UNL     1      19.897 -13.569  20.569  1.00  0.00    -0.030 Br
HETATM   23  N8  UNL     1      17.558 -12.925  19.176  1.00  0.00    -0.335 N 
ATOM     24  H8  UNL     1      18.138 -13.107  18.356  1.00  0.00     0.168 HD
ENDBRANCH  14  16
ENDBRANCH  13  14
ENDBRANCH  12  13
ENDBRANCH  11  12
ENDBRANCH   7  11
BRANCH   3  25
HETATM   25  C7  UNL     1      17.144 -16.471  21.532  1.00  0.00    -0.041 C 
HETATM   26  C8  UNL     1      18.243 -16.759  21.968  1.00  0.00    -0.032 C 
BRANCH  26  27
HETATM   27  C9  UNL     1      19.551 -17.085  22.488  1.00  0.00     0.155 A 
HETATM   28  C10 UNL     1      20.499 -17.916  21.918  1.00  0.00     0.193 A 
HETATM   29  O1  UNL     1      21.546 -17.941  22.709  1.00  0.00    -0.282 OA
HETATM   30  C11 UNL     1      21.302 -17.166  23.752  1.00  0.00     0.272 A 
HETATM   31  N3  UNL     1      22.071 -16.919  24.754  1.00  0.00    -0.349 N 
HETATM   32  O2  UNL     1      20.098 -16.659  23.602  1.00  0.00    -0.263 OA
HETATM   33  C12 UNL     1      23.372 -17.550  24.784  1.00  0.00     0.153 C 
HETATM   34  C13 UNL     1      21.667 -16.048  25.821  1.00  0.00     0.153 C 
ENDBRANCH  26  27
ENDBRANCH   3  25
BRANCH   1  35
HETATM   35  N2  UNL     1      12.573 -15.376  22.217  1.00  0.00    -0.375 N 
ATOM     36  H2  UNL     1      12.219 -16.214  22.678  1.00  0.00     0.161 HD
BRANCH  35  37
HETATM   37  C3  UNL     1      11.937 -14.167  22.594  1.00  0.00     0.137 C 
BRANCH  37  38
HETATM   38  C2  UNL     1      12.864 -12.980  22.674  1.00  0.00     0.126 C 
BRANCH  38  39
HETATM   39  N1  UNL     1      12.314 -12.032  23.596  1.00  0.00    -0.214 NA
HETATM   40  C1  UNL     1      11.017 -12.367  24.102  1.00  0.00     0.129 C 
BRANCH  39  41
HETATM   41  S1  UNL     1      12.462 -10.423  23.045  1.00  0.00     0.207 S 
HETATM   42  C22 UNL     1      12.184  -9.232  24.306  1.00  0.00     0.180 C 
HETATM   43  O3  UNL     1      11.474 -10.124  21.924  1.00  0.00    -0.212 OA
HETATM   44  O4  UNL     1      13.877 -10.257  22.523  1.00  0.00    -0.212 OA
ENDBRANCH  39  41
ENDBRANCH  38  39
ENDBRANCH  37  38
ENDBRANCH  35  37
ENDBRANCH   1  35
TORSDOF 12
ENDMDL
MODEL 5
REMARK VINA RESULT: -7.746594380      2.736      4.330
REMARK  12 active torsions:
REMARK  status: ('A' for Active; 'I' for Inactive)
REMARK    1  A    between atoms: N1_2  and  C2_3 
REMARK    2  A    between atoms: N1_2  and  S1_41 
REMARK    3  A    between atoms: C2_3  and  C3_4 
REMARK    4  A    between atoms: C3_4  and  N2_5 
REMARK    5  A    between atoms: N2_5  and  C4_7 
REMARK    6  A    between atoms: C6_9  and  C7_10 
REMARK    7  A    between atoms: C8_11  and  C9_12 
REMARK    8  A    between atoms: N5_23  and  C15_25 
REMARK    9  A    between atoms: C15_25  and  C16_26 
REMARK   10  A    between atoms: C16_26  and  C17_27 
REMARK   11  A    between atoms: C17_27  and  N6_28 
REMARK   12  A    between atoms: N6_28  and  C18_30 
ROOT
HETATM    1  C4  UNL     1      12.797 -16.851  21.392  1.00  0.00     0.119 A 
HETATM    2  C5  UNL     1      14.144 -16.792  21.678  1.00  0.00     0.088 A 
HETATM    3  C6  UNL     1      14.763 -15.673  22.173  1.00  0.00     0.106 A 
HETATM    4  N4  UNL     1      13.997 -14.571  22.386  1.00  0.00    -0.184 N 
ATOM      5  H4  UNL     1      14.425 -13.721  22.753  1.00  0.00     0.185 HD
HETATM    6  C14 UNL     1      12.684 -14.592  22.118  1.00  0.00     0.680 A 
HETATM    7  N5  UNL     1      11.975 -13.555  22.323  1.00  0.00    -0.226 N 
ATOM      8  H5  UNL     1      10.977 -13.590  22.114  1.00  0.00     0.177 HD
HETATM    9  N9  UNL     1      12.099 -15.731  21.625  1.00  0.00    -0.177 N 
ATOM     10  H9  UNL     1      11.099 -15.726  21.429  1.00  0.00     0.185 HD
ENDROOT
BRANCH   7  11
HETATM   11  C15 UNL     1      12.532 -12.340  22.835  1.00  0.00     0.139 C 
BRANCH  11  12
HETATM   12  C16 UNL     1      12.021 -11.187  21.960  1.00  0.00     0.040 C 
BRANCH  12  13
HETATM   13  C17 UNL     1      13.243 -10.591  21.271  1.00  0.00     0.123 C 
BRANCH  13  14
HETATM   14  N6  UNL     1      14.434 -11.344  21.576  1.00  0.00    -0.375 N 
ATOM     15  H6  UNL     1      14.745 -11.388  22.547  1.00  0.00     0.161 HD
BRANCH  14  16
HETATM   16  C18 UNL     1      15.132 -11.970  20.677  1.00  0.00     0.117 A 
HETATM   17  C19 UNL     1      14.606 -12.455  19.522  1.00  0.00     0.136 A 
HETATM   18  N7  UNL     1      15.398 -13.084  18.653  1.00  0.00    -0.369 N 
HETATM   19  C20 UNL     1      16.708 -13.263  18.872  1.00  0.00     0.125 A 
ATOM     20  H7  UNL     1      14.992 -13.444  17.790  1.00  0.00     0.164 HD
HETATM   21  C21 UNL     1      17.227 -12.757  20.064  1.00  0.00     0.096 A 
HETATM   22 BR1  UNL     1      19.076 -12.959  20.469  1.00  0.00    -0.030 Br
HETATM   23  N8  UNL     1      16.446 -12.127  20.938  1.00  0.00    -0.335 N 
ATOM     24  H8  UNL     1      16.841 -11.763  21.805  1.00  0.00     0.168 HD
ENDBRANCH  14  16
ENDBRANCH  13  14
ENDBRANCH  12  13
ENDBRANCH  11  12
ENDBRANCH   7  11
BRANCH   3  25
HETATM   25  C7  UNL     1      16.164 -15.616  22.469  1.00  0.00    -0.041 C 
HETATM   26  C8  UNL     1      17.350 -15.565  22.740  1.00  0.00    -0.032 C 
BRANCH  26  27
HETATM   27  C9  UNL     1      18.756 -15.488  23.063  1.00  0.00     0.155 A 
HETATM   28  C10 UNL     1      19.797 -16.159  22.448  1.00  0.00     0.193 A 
HETATM   29  O1  UNL     1      20.914 -15.810  23.042  1.00  0.00    -0.282 OA
HETATM   30  C11 UNL     1      20.625 -14.950  24.005  1.00  0.00     0.272 A 
HETATM   31  N3  UNL     1      21.434 -14.369  24.819  1.00  0.00    -0.349 N 
HETATM   32  O2  UNL     1      19.322 -14.768  24.002  1.00  0.00    -0.263 OA
HETATM   33  C12 UNL     1      22.845 -14.666  24.703  1.00  0.00     0.153 C 
HETATM   34  C13 UNL     1      20.971 -13.450  25.819  1.00  0.00     0.153 C 
ENDBRANCH  26  27
ENDBRANCH   3  25
BRANCH   1  35
HETATM   35  N2  UNL     1      12.303 -17.922  20.939  1.00  0.00    -0.375 N 
ATOM     36  H2  UNL     1      11.465 -18.250  21.419  1.00  0.00     0.161 HD
BRANCH  35  37
HETATM   37  C3  UNL     1      12.738 -18.735  19.864  1.00  0.00     0.137 C 
BRANCH  37  38
HETATM   38  C2  UNL     1      12.623 -18.083  18.509  1.00  0.00     0.126 C 
BRANCH  38  39
HETATM   39  N1  UNL     1      13.876 -18.218  17.829  1.00  0.00    -0.214 NA
HETATM   40  C1  UNL     1      14.600 -19.415  18.134  1.00  0.00     0.129 C 
BRANCH  39  41
HETATM   41  S1  UNL     1      14.812 -16.792  17.893  1.00  0.00     0.207 S 
HETATM   42  C22 UNL     1      15.590 -16.405  16.366  1.00  0.00     0.180 C 
HETATM   43  O3  UNL     1      15.914 -16.894  18.941  1.00  0.00    -0.212 OA
HETATM   44  O4  UNL     1      13.874 -15.657  18.261  1.00  0.00    -0.212 OA
ENDBRANCH  39  41
ENDBRANCH  38  39
ENDBRANCH  37  38
ENDBRANCH  35  37
ENDBRANCH   1  35
TORSDOF 12
ENDMDL
