MODEL 1
REMARK VINA RESULT: -8.908833173      0.000      0.000
REMARK  9 active torsions:
REMARK  status: ('A' for Active; 'I' for Inactive)
REMARK    1  A    between atoms: O1_1  and  C1_3 
REMARK    2  A    between atoms: C4_6  and  O2_7 
REMARK    3  A    between atoms: C5_9  and  O3_10 
REMARK    4  A    between atoms: C6_12  and  O4_13 
REMARK    5  A    between atoms: C7_15  and  O5_16 
REMARK    6  A    between atoms: C9_19  and  C10_20 
REMARK    7  A    between atoms: C11_21  and  C12_22 
REMARK    8  A    between atoms: C12_22  and  C13_23 
REMARK    9  A    between atoms: C19_29  and  O6_30 
ROOT
HETATM    1  C1  UNL     1      20.094  15.871 157.326  1.00  0.00     0.100 A 
HETATM    2  C2  UNL     1      21.358  16.023 157.880  1.00  0.00     0.054 A 
HETATM    3  C3  UNL     1      21.611  15.586 159.166  1.00  0.00     0.017 A 
HETATM    4  C4  UNL     1      22.851  15.786 159.701  1.00  0.00     0.113 A 
HETATM    5  C5  UNL     1      23.097  15.388 161.024  1.00  0.00     0.136 A 
HETATM    6  C6  UNL     1      22.129  14.813 161.773  1.00  0.00     0.136 A 
HETATM    7  C7  UNL     1      20.866  14.616 161.204  1.00  0.00     0.114 A 
HETATM    8  C8  UNL     1      20.575  14.984 159.910  1.00  0.00     0.026 A 
HETATM    9  C9  UNL     1      19.342  14.832 159.363  1.00  0.00     0.014 A 
HETATM   10  C19 UNL     1      19.100  15.284 158.057  1.00  0.00     0.110 A 
ENDROOT
BRANCH   9  11
HETATM   11  C10 UNL     1      18.294  14.076 160.010  1.00  0.00     0.011 C 
HETATM   12  C11 UNL     1      17.948  12.838 159.756  1.00  0.00    -0.025 C 
BRANCH  12  13
HETATM   13  C12 UNL     1      18.595  12.007 158.732  1.00  0.00     0.031 C 
BRANCH  13  14
HETATM   14  C13 UNL     1      18.627  10.586 159.168  1.00  0.00    -0.011 C 
HETATM   15  C14 UNL     1      17.325  10.160 159.727  1.00  0.00     0.005 C 
HETATM   16  C15 UNL     1      17.260   8.754 160.201  1.00  0.00     0.000 C 
HETATM   17  C16 UNL     1      18.011   7.764 159.393  1.00  0.00     0.000 C 
HETATM   18  C17 UNL     1      19.211   8.288 158.687  1.00  0.00     0.000 C 
HETATM   19  C18 UNL     1      18.976   9.635 158.036  1.00  0.00     0.005 C 
ENDBRANCH  13  14
ENDBRANCH  12  13
ENDBRANCH   9  11
BRANCH  10  20
HETATM   20  O6  UNL     1      17.826  15.120 157.541  1.00  0.00    -0.357 OA
ATOM     21  H6  UNL     1      17.055  15.389 158.028  1.00  0.00     0.217 HD
ENDBRANCH  10  20
BRANCH   7  22
HETATM   22  O5  UNL     1      19.920  14.046 162.003  1.00  0.00    -0.357 OA
ATOM     23  H5  UNL     1      19.078  13.866 161.602  1.00  0.00     0.217 HD
ENDBRANCH   7  22
BRANCH   1  24
HETATM   24  O1  UNL     1      19.899  16.323 156.052  1.00  0.00    -0.358 OA
ATOM     25  H1  UNL     1      19.625  17.226 155.940  1.00  0.00     0.217 HD
ENDBRANCH   1  24
BRANCH   4  26
HETATM   26  O2  UNL     1      23.855  16.366 158.974  1.00  0.00    -0.357 OA
ATOM     27  H2  UNL     1      24.764  16.287 159.237  1.00  0.00     0.217 HD
ENDBRANCH   4  26
BRANCH   6  28
HETATM   28  O4  UNL     1      22.367  14.415 163.095  1.00  0.00    -0.356 OA
ATOM     29  H4  UNL     1      22.162  13.536 163.394  1.00  0.00     0.218 HD
ENDBRANCH   6  28
BRANCH   5  30
HETATM   30  O3  UNL     1      24.377  15.616 161.511  1.00  0.00    -0.356 OA
ATOM     31  H3  UNL     1      24.636  15.112 162.274  1.00  0.00     0.218 HD
ENDBRANCH   5  30
TORSDOF 9
ENDMDL
MODEL 2
REMARK VINA RESULT: -8.823106332      0.271      1.019
REMARK  9 active torsions:
REMARK  status: ('A' for Active; 'I' for Inactive)
REMARK    1  A    between atoms: O1_1  and  C1_3 
REMARK    2  A    between atoms: C4_6  and  O2_7 
REMARK    3  A    between atoms: C5_9  and  O3_10 
REMARK    4  A    between atoms: C6_12  and  O4_13 
REMARK    5  A    between atoms: C7_15  and  O5_16 
REMARK    6  A    between atoms: C9_19  and  C10_20 
REMARK    7  A    between atoms: C11_21  and  C12_22 
REMARK    8  A    between atoms: C12_22  and  C13_23 
REMARK    9  A    between atoms: C19_29  and  O6_30 
ROOT
HETATM    1  C1  UNL     1      20.171  15.806 157.352  1.00  0.00     0.100 A 
HETATM    2  C2  UNL     1      21.425  15.963 157.927  1.00  0.00     0.054 A 
HETATM    3  C3  UNL     1      21.650  15.552 159.227  1.00  0.00     0.017 A 
HETATM    4  C4  UNL     1      22.881  15.756 159.781  1.00  0.00     0.113 A 
HETATM    5  C5  UNL     1      23.099  15.383 161.116  1.00  0.00     0.136 A 
HETATM    6  C6  UNL     1      22.114  14.829 161.858  1.00  0.00     0.136 A 
HETATM    7  C7  UNL     1      20.861  14.628 161.269  1.00  0.00     0.114 A 
HETATM    8  C8  UNL     1      20.597  14.971 159.962  1.00  0.00     0.026 A 
HETATM    9  C9  UNL     1      19.373  14.814 159.396  1.00  0.00     0.014 A 
HETATM   10  C19 UNL     1      19.160  15.241 158.075  1.00  0.00     0.110 A 
ENDROOT
BRANCH   9  11
HETATM   11  C10 UNL     1      18.308  14.077 160.037  1.00  0.00     0.011 C 
HETATM   12  C11 UNL     1      17.973  12.830 159.817  1.00  0.00    -0.025 C 
BRANCH  12  13
HETATM   13  C12 UNL     1      18.652  11.966 158.842  1.00  0.00     0.031 C 
BRANCH  13  14
HETATM   14  C13 UNL     1      18.096  10.589 158.901  1.00  0.00    -0.011 C 
HETATM   15  C14 UNL     1      19.087   9.583 158.458  1.00  0.00     0.005 C 
HETATM   16  C15 UNL     1      18.621   8.173 158.471  1.00  0.00     0.000 C 
HETATM   17  C16 UNL     1      17.728   7.800 159.593  1.00  0.00     0.000 C 
HETATM   18  C17 UNL     1      16.886   8.898 160.139  1.00  0.00     0.000 C 
HETATM   19  C18 UNL     1      17.641  10.201 160.298  1.00  0.00     0.005 C 
ENDBRANCH  13  14
ENDBRANCH  12  13
ENDBRANCH   9  11
BRANCH  10  20
HETATM   20  O6  UNL     1      17.894  15.073 157.539  1.00  0.00    -0.357 OA
ATOM     21  H6  UNL     1      17.140  14.903 158.091  1.00  0.00     0.217 HD
ENDBRANCH  10  20
BRANCH   7  22
HETATM   22  O5  UNL     1      19.896  14.080 162.062  1.00  0.00    -0.357 OA
ATOM     23  H5  UNL     1      19.035  14.479 162.021  1.00  0.00     0.217 HD
ENDBRANCH   7  22
BRANCH   1  24
HETATM   24  O1  UNL     1      20.003  16.233 156.066  1.00  0.00    -0.358 OA
ATOM     25  H1  UNL     1      19.770  15.585 155.411  1.00  0.00     0.217 HD
ENDBRANCH   1  24
BRANCH   4  26
HETATM   26  O2  UNL     1      23.902  16.315 159.062  1.00  0.00    -0.357 OA
ATOM     27  H2  UNL     1      24.200  15.929 158.247  1.00  0.00     0.217 HD
ENDBRANCH   4  26
BRANCH   6  28
HETATM   28  O4  UNL     1      22.323  14.458 163.193  1.00  0.00    -0.356 OA
ATOM     29  H4  UNL     1      21.810  14.835 163.899  1.00  0.00     0.218 HD
ENDBRANCH   6  28
BRANCH   5  30
HETATM   30  O3  UNL     1      24.371  15.614 161.624  1.00  0.00    -0.356 OA
ATOM     31  H3  UNL     1      24.598  16.519 161.803  1.00  0.00     0.218 HD
ENDBRANCH   5  30
TORSDOF 9
ENDMDL
MODEL 3
REMARK VINA RESULT: -8.686956786      2.061      3.244
REMARK  9 active torsions:
REMARK  status: ('A' for Active; 'I' for Inactive)
REMARK    1  A    between atoms: O1_1  and  C1_3 
REMARK    2  A    between atoms: C4_6  and  O2_7 
REMARK    3  A    between atoms: C5_9  and  O3_10 
REMARK    4  A    between atoms: C6_12  and  O4_13 
REMARK    5  A    between atoms: C7_15  and  O5_16 
REMARK    6  A    between atoms: C9_19  and  C10_20 
REMARK    7  A    between atoms: C11_21  and  C12_22 
REMARK    8  A    between atoms: C12_22  and  C13_23 
REMARK    9  A    between atoms: C19_29  and  O6_30 
ROOT
HETATM    1  C1  UNL     1      20.387  16.571 154.481  1.00  0.00     0.100 A 
HETATM    2  C2  UNL     1      21.768  16.560 154.628  1.00  0.00     0.054 A 
HETATM    3  C3  UNL     1      22.333  16.362 155.872  1.00  0.00     0.017 A 
HETATM    4  C4  UNL     1      23.693  16.398 155.995  1.00  0.00     0.113 A 
HETATM    5  C5  UNL     1      24.268  16.246 157.266  1.00  0.00     0.136 A 
HETATM    6  C6  UNL     1      23.501  16.067 158.365  1.00  0.00     0.136 A 
HETATM    7  C7  UNL     1      22.110  16.032 158.215  1.00  0.00     0.114 A 
HETATM    8  C8  UNL     1      21.497  16.171 156.991  1.00  0.00     0.026 A 
HETATM    9  C9  UNL     1      20.147  16.177 156.844  1.00  0.00     0.014 A 
HETATM   10  C19 UNL     1      19.588  16.383 155.572  1.00  0.00     0.110 A 
ENDROOT
BRANCH   9  11
HETATM   11  C10 UNL     1      19.246  15.820 157.916  1.00  0.00     0.011 C 
HETATM   12  C11 UNL     1      18.759  14.631 158.169  1.00  0.00    -0.025 C 
BRANCH  12  13
HETATM   13  C12 UNL     1      19.062  13.440 157.365  1.00  0.00     0.031 C 
BRANCH  13  14
HETATM   14  C13 UNL     1      18.457  12.232 157.985  1.00  0.00    -0.011 C 
HETATM   15  C14 UNL     1      19.218  11.009 157.647  1.00  0.00     0.005 C 
HETATM   16  C15 UNL     1      18.684   9.744 158.215  1.00  0.00     0.000 C 
HETATM   17  C16 UNL     1      18.118   9.838 159.581  1.00  0.00     0.000 C 
HETATM   18  C17 UNL     1      17.535  11.156 159.947  1.00  0.00     0.000 C 
HETATM   19  C18 UNL     1      18.387  12.326 159.500  1.00  0.00     0.005 C 
ENDBRANCH  13  14
ENDBRANCH  12  13
ENDBRANCH   9  11
BRANCH  10  20
HETATM   20  O6  UNL     1      18.207  16.393 155.467  1.00  0.00    -0.357 OA
ATOM     21  H6  UNL     1      17.719  17.207 155.431  1.00  0.00     0.217 HD
ENDBRANCH  10  20
BRANCH   7  22
HETATM   22  O5  UNL     1      21.380  15.863 159.354  1.00  0.00    -0.357 OA
ATOM     23  H5  UNL     1      21.802  16.108 160.170  1.00  0.00     0.217 HD
ENDBRANCH   7  22
BRANCH   1  24
HETATM   24  O1  UNL     1      19.882  16.774 153.228  1.00  0.00    -0.358 OA
ATOM     25  H1  UNL     1      19.359  16.080 152.844  1.00  0.00     0.217 HD
ENDBRANCH   1  24
BRANCH   4  26
HETATM   26  O2  UNL     1      24.501  16.579 154.906  1.00  0.00    -0.357 OA
ATOM     27  H2  UNL     1      24.461  17.374 154.388  1.00  0.00     0.217 HD
ENDBRANCH   4  26
BRANCH   6  28
HETATM   28  O4  UNL     1      24.069  15.918 159.637  1.00  0.00    -0.356 OA
ATOM     29  H4  UNL     1      24.113  16.644 160.249  1.00  0.00     0.218 HD
ENDBRANCH   6  28
BRANCH   5  30
HETATM   30  O3  UNL     1      25.654  16.290 157.327  1.00  0.00    -0.356 OA
ATOM     31  H3  UNL     1      26.083  15.559 157.755  1.00  0.00     0.218 HD
ENDBRANCH   5  30
TORSDOF 9
ENDMDL
MODEL 4
REMARK VINA RESULT: -8.576576447      1.796      4.261
REMARK  9 active torsions:
REMARK  status: ('A' for Active; 'I' for Inactive)
REMARK    1  A    between atoms: O1_1  and  C1_3 
REMARK    2  A    between atoms: C4_6  and  O2_7 
REMARK    3  A    between atoms: C5_9  and  O3_10 
REMARK    4  A    between atoms: C6_12  and  O4_13 
REMARK    5  A    between atoms: C7_15  and  O5_16 
REMARK    6  A    between atoms: C9_19  and  C10_20 
REMARK    7  A    between atoms: C11_21  and  C12_22 
REMARK    8  A    between atoms: C12_22  and  C13_23 
REMARK    9  A    between atoms: C19_29  and  O6_30 
ROOT
HETATM    1  C1  UNL     1      22.249  15.569 159.934  1.00  0.00     0.100 A 
HETATM    2  C2  UNL     1      23.118  15.998 158.940  1.00  0.00     0.054 A 
HETATM    3  C3  UNL     1      22.673  16.138 157.640  1.00  0.00     0.017 A 
HETATM    4  C4  UNL     1      23.559  16.522 156.674  1.00  0.00     0.113 A 
HETATM    5  C5  UNL     1      23.122  16.617 155.345  1.00  0.00     0.136 A 
HETATM    6  C6  UNL     1      21.843  16.336 155.007  1.00  0.00     0.136 A 
HETATM    7  C7  UNL     1      20.952  15.946 156.012  1.00  0.00     0.114 A 
HETATM    8  C8  UNL     1      21.329  15.842 157.332  1.00  0.00     0.026 A 
HETATM    9  C9  UNL     1      20.481  15.427 158.307  1.00  0.00     0.014 A 
HETATM   10  C19 UNL     1      20.950  15.287 159.623  1.00  0.00     0.110 A 
ENDROOT
BRANCH   9  11
HETATM   11  C10 UNL     1      19.060  15.272 158.087  1.00  0.00     0.011 C 
HETATM   12  C11 UNL     1      18.430  14.166 157.777  1.00  0.00    -0.025 C 
BRANCH  12  13
HETATM   13  C12 UNL     1      19.101  12.872 157.593  1.00  0.00     0.031 C 
BRANCH  13  14
HETATM   14  C13 UNL     1      18.343  11.797 158.285  1.00  0.00    -0.011 C 
HETATM   15  C14 UNL     1      18.990  10.477 158.109  1.00  0.00     0.005 C 
HETATM   16  C15 UNL     1      18.299   9.333 158.757  1.00  0.00     0.000 C 
HETATM   17  C16 UNL     1      17.676   9.616 160.071  1.00  0.00     0.000 C 
HETATM   18  C17 UNL     1      17.214  11.015 160.277  1.00  0.00     0.000 C 
HETATM   19  C18 UNL     1      18.205  12.046 159.777  1.00  0.00     0.005 C 
ENDBRANCH  13  14
ENDBRANCH  12  13
ENDBRANCH   9  11
BRANCH  10  20
HETATM   20  O6  UNL     1      20.054  14.851 160.585  1.00  0.00    -0.357 OA
ATOM     21  H6  UNL     1      19.502  14.091 160.441  1.00  0.00     0.217 HD
ENDBRANCH  10  20
BRANCH   7  22
HETATM   22  O5  UNL     1      19.678  15.659 155.619  1.00  0.00    -0.357 OA
ATOM     23  H5  UNL     1      19.229  14.973 156.100  1.00  0.00     0.217 HD
ENDBRANCH   7  22
BRANCH   1  24
HETATM   24  O1  UNL     1      22.743  15.446 161.201  1.00  0.00    -0.358 OA
ATOM     25  H1  UNL     1      22.165  15.659 161.925  1.00  0.00     0.217 HD
ENDBRANCH   1  24
BRANCH   4  26
HETATM   26  O2  UNL     1      24.861  16.813 156.979  1.00  0.00    -0.357 OA
ATOM     27  H2  UNL     1      25.212  16.652 157.846  1.00  0.00     0.217 HD
ENDBRANCH   4  26
BRANCH   6  28
HETATM   28  O4  UNL     1      21.400  16.426 153.680  1.00  0.00    -0.356 OA
ATOM     29  H4  UNL     1      21.992  16.291 152.949  1.00  0.00     0.218 HD
ENDBRANCH   6  28
BRANCH   5  30
HETATM   30  O3  UNL     1      24.067  17.013 154.409  1.00  0.00    -0.356 OA
ATOM     31  H3  UNL     1      23.864  16.833 153.499  1.00  0.00     0.218 HD
ENDBRANCH   5  30
TORSDOF 9
ENDMDL
MODEL 5
REMARK VINA RESULT: -8.524851097      1.814      4.262
REMARK  9 active torsions:
REMARK  status: ('A' for Active; 'I' for Inactive)
REMARK    1  A    between atoms: O1_1  and  C1_3 
REMARK    2  A    between atoms: C4_6  and  O2_7 
REMARK    3  A    between atoms: C5_9  and  O3_10 
REMARK    4  A    between atoms: C6_12  and  O4_13 
REMARK    5  A    between atoms: C7_15  and  O5_16 
REMARK    6  A    between atoms: C9_19  and  C10_20 
REMARK    7  A    between atoms: C11_21  and  C12_22 
REMARK    8  A    between atoms: C12_22  and  C13_23 
REMARK    9  A    between atoms: C19_29  and  O6_30 
ROOT
HETATM    1  C1  UNL     1      22.292  15.459 160.095  1.00  0.00     0.100 A 
HETATM    2  C2  UNL     1      23.254  15.805 159.155  1.00  0.00     0.054 A 
HETATM    3  C3  UNL     1      22.897  16.004 157.836  1.00  0.00     0.017 A 
HETATM    4  C4  UNL     1      23.869  16.303 156.924  1.00  0.00     0.113 A 
HETATM    5  C5  UNL     1      23.517  16.457 155.575  1.00  0.00     0.136 A 
HETATM    6  C6  UNL     1      22.237  16.314 155.165  1.00  0.00     0.136 A 
HETATM    7  C7  UNL     1      21.257  16.009 156.116  1.00  0.00     0.114 A 
HETATM    8  C8  UNL     1      21.549  15.852 157.452  1.00  0.00     0.026 A 
HETATM    9  C9  UNL     1      20.610  15.518 158.374  1.00  0.00     0.014 A 
HETATM   10  C19 UNL     1      20.989  15.317 159.710  1.00  0.00     0.110 A 
ENDROOT
BRANCH   9  11
HETATM   11  C10 UNL     1      19.195  15.514 158.076  1.00  0.00     0.011 C 
HETATM   12  C11 UNL     1      18.447  14.467 157.834  1.00  0.00    -0.025 C 
BRANCH  12  13
HETATM   13  C12 UNL     1      18.957  13.089 157.822  1.00  0.00     0.031 C 
BRANCH  13  14
HETATM   14  C13 UNL     1      18.548  12.379 159.062  1.00  0.00    -0.011 C 
HETATM   15  C14 UNL     1      17.335  12.981 159.658  1.00  0.00     0.005 C 
HETATM   16  C15 UNL     1      16.853  12.345 160.911  1.00  0.00     0.000 C 
HETATM   17  C16 UNL     1      16.984  10.870 160.978  1.00  0.00     0.000 C 
HETATM   18  C17 UNL     1      18.110  10.288 160.199  1.00  0.00     0.000 C 
HETATM   19  C18 UNL     1      18.261  10.906 158.825  1.00  0.00     0.005 C 
ENDBRANCH  13  14
ENDBRANCH  12  13
ENDBRANCH   9  11
BRANCH  10  20
HETATM   20  O6  UNL     1      20.003  14.966 160.617  1.00  0.00    -0.357 OA
ATOM     21  H6  UNL     1      20.166  14.336 161.309  1.00  0.00     0.217 HD
ENDBRANCH  10  20
BRANCH   7  22
HETATM   22  O5  UNL     1      19.983  15.860 155.651  1.00  0.00    -0.357 OA
ATOM     23  H5  UNL     1      19.783  16.276 154.820  1.00  0.00     0.217 HD
ENDBRANCH   7  22
BRANCH   1  24
HETATM   24  O1  UNL     1      22.701  15.272 161.384  1.00  0.00    -0.358 OA
ATOM     25  H1  UNL     1      22.659  16.015 161.974  1.00  0.00     0.217 HD
ENDBRANCH   1  24
BRANCH   4  26
HETATM   26  O2  UNL     1      25.176  16.454 157.302  1.00  0.00    -0.357 OA
ATOM     27  H2  UNL     1      25.471  16.202 158.169  1.00  0.00     0.217 HD
ENDBRANCH   4  26
BRANCH   6  28
HETATM   28  O4  UNL     1      21.878  16.463 153.819  1.00  0.00    -0.356 OA
ATOM     29  H4  UNL     1      21.675  17.315 153.451  1.00  0.00     0.218 HD
ENDBRANCH   6  28
BRANCH   5  30
HETATM   30  O3  UNL     1      24.549  16.762 154.697  1.00  0.00    -0.356 OA
ATOM     31  H3  UNL     1      25.413  16.860 155.077  1.00  0.00     0.218 HD
ENDBRANCH   5  30
TORSDOF 9
ENDMDL
