MODEL 1
REMARK VINA RESULT: -4.791740843      0.000      0.000
REMARK  3 active torsions:
REMARK  status: ('A' for Active; 'I' for Inactive)
REMARK    1  A    between atoms: O1_1  and  C1_3 
REMARK    2  A    between atoms: C1_3  and  C2_4 
REMARK    3  A    between atoms: C9_12  and  O2_13 
ROOT
HETATM    1  C2  UNL     1      45.520  19.233  52.369  1.00  0.00     0.066 C 
HETATM    2  C3  UNL     1      44.408  19.979  51.707  1.00  0.00     0.246 C 
HETATM    3  N1  UNL     1      44.679  21.390  51.876  1.00  0.00    -0.064 N 
HETATM    4  C4  UNL     1      43.435  22.095  51.773  1.00  0.00     0.237 C 
HETATM    5  C5  UNL     1      43.857  23.511  51.512  1.00  0.00     0.029 C 
HETATM    6  C6  UNL     1      44.990  23.305  50.504  1.00  0.00     0.029 C 
HETATM    7  C7  UNL     1      45.542  21.942  50.887  1.00  0.00     0.237 C 
HETATM    8  C8  UNL     1      45.266  21.431  53.190  1.00  0.00     0.269 C 
HETATM    9  C9  UNL     1      46.306  20.315  53.082  1.00  0.00     0.152 C 
ENDROOT
BRANCH   1  10
HETATM   10  C1  UNL     1      44.986  18.304  53.453  1.00  0.00     0.173 C 
BRANCH  10  11
HETATM   11  O1  UNL     1      45.974  17.360  53.699  1.00  0.00    -0.400 OA
ATOM     12  H1  UNL     1      45.667  16.539  53.334  1.00  0.00     0.209 HD
ENDBRANCH  10  11
ENDBRANCH   1  10
BRANCH   9  13
HETATM   13  O2  UNL     1      46.758  19.896  54.309  1.00  0.00    -0.393 OA
ATOM     14  H2  UNL     1      47.101  19.010  54.277  1.00  0.00     0.210 HD
ENDBRANCH   9  13
TORSDOF 3
ENDMDL
MODEL 2
REMARK VINA RESULT: -4.713360392      1.134      1.383
REMARK  3 active torsions:
REMARK  status: ('A' for Active; 'I' for Inactive)
REMARK    1  A    between atoms: O1_1  and  C1_3 
REMARK    2  A    between atoms: C1_3  and  C2_4 
REMARK    3  A    between atoms: C9_12  and  O2_13 
ROOT
HETATM    1  C2  UNL     1      46.367  20.513  53.181  1.00  0.00     0.066 C 
HETATM    2  C3  UNL     1      45.491  20.504  51.970  1.00  0.00     0.246 C 
HETATM    3  N1  UNL     1      44.905  21.821  51.855  1.00  0.00    -0.064 N 
HETATM    4  C4  UNL     1      43.693  21.703  51.098  1.00  0.00     0.237 C 
HETATM    5  C5  UNL     1      43.417  23.111  50.660  1.00  0.00     0.029 C 
HETATM    6  C6  UNL     1      44.816  23.582  50.260  1.00  0.00     0.029 C 
HETATM    7  C7  UNL     1      45.721  22.766  51.170  1.00  0.00     0.237 C 
HETATM    8  C8  UNL     1      44.700  22.183  53.234  1.00  0.00     0.269 C 
HETATM    9  C9  UNL     1      46.068  21.848  53.832  1.00  0.00     0.152 C 
ENDROOT
BRANCH   1  10
HETATM   10  C1  UNL     1      45.935  19.443  54.175  1.00  0.00     0.173 C 
BRANCH  10  11
HETATM   11  O1  UNL     1      47.088  18.797  54.600  1.00  0.00    -0.400 OA
ATOM     12  H1  UNL     1      46.861  17.883  54.726  1.00  0.00     0.209 HD
ENDBRANCH  10  11
ENDBRANCH   1  10
BRANCH   9  13
HETATM   13  O2  UNL     1      46.034  21.754  55.201  1.00  0.00    -0.393 OA
ATOM     14  H2  UNL     1      45.493  22.433  55.589  1.00  0.00     0.210 HD
ENDBRANCH   9  13
TORSDOF 3
ENDMDL
MODEL 3
REMARK VINA RESULT: -4.706825878      1.123      1.969
REMARK  3 active torsions:
REMARK  status: ('A' for Active; 'I' for Inactive)
REMARK    1  A    between atoms: O1_1  and  C1_3 
REMARK    2  A    between atoms: C1_3  and  C2_4 
REMARK    3  A    between atoms: C9_12  and  O2_13 
ROOT
HETATM    1  C2  UNL     1      45.295  19.839  53.529  1.00  0.00     0.066 C 
HETATM    2  C3  UNL     1      45.487  21.321  53.501  1.00  0.00     0.246 C 
HETATM    3  N1  UNL     1      45.073  21.781  52.193  1.00  0.00    -0.064 N 
HETATM    4  C4  UNL     1      45.735  23.026  51.932  1.00  0.00     0.237 C 
HETATM    5  C5  UNL     1      44.930  23.621  50.815  1.00  0.00     0.029 C 
HETATM    6  C6  UNL     1      43.504  23.312  51.275  1.00  0.00     0.029 C 
HETATM    7  C7  UNL     1      43.676  22.032  52.077  1.00  0.00     0.237 C 
HETATM    8  C8  UNL     1      45.502  20.702  51.342  1.00  0.00     0.269 C 
HETATM    9  C9  UNL     1      44.943  19.494  52.096  1.00  0.00     0.152 C 
ENDROOT
BRANCH   1  10
HETATM   10  C1  UNL     1      46.605  19.124  53.835  1.00  0.00     0.173 C 
BRANCH  10  11
HETATM   11  O1  UNL     1      46.274  17.888  54.373  1.00  0.00    -0.400 OA
ATOM     12  H1  UNL     1      46.894  17.260  54.022  1.00  0.00     0.209 HD
ENDBRANCH  10  11
ENDBRANCH   1  10
BRANCH   9  13
HETATM   13  O2  UNL     1      45.520  18.313  51.697  1.00  0.00    -0.393 OA
ATOM     14  H2  UNL     1      44.949  17.569  51.853  1.00  0.00     0.210 HD
ENDBRANCH   9  13
TORSDOF 3
ENDMDL
MODEL 4
REMARK VINA RESULT: -4.670598882      1.898      2.580
REMARK  3 active torsions:
REMARK  status: ('A' for Active; 'I' for Inactive)
REMARK    1  A    between atoms: O1_1  and  C1_3 
REMARK    2  A    between atoms: C1_3  and  C2_4 
REMARK    3  A    between atoms: C9_12  and  O2_13 
ROOT
HETATM    1  C2  UNL     1      44.388  20.024  51.695  1.00  0.00     0.066 C 
HETATM    2  C3  UNL     1      44.764  21.025  52.739  1.00  0.00     0.246 C 
HETATM    3  N1  UNL     1      44.826  22.317  52.091  1.00  0.00    -0.064 N 
HETATM    4  C4  UNL     1      45.685  23.161  52.868  1.00  0.00     0.237 C 
HETATM    5  C5  UNL     1      45.336  24.542  52.397  1.00  0.00     0.029 C 
HETATM    6  C6  UNL     1      43.811  24.454  52.315  1.00  0.00     0.029 C 
HETATM    7  C7  UNL     1      43.572  22.986  52.002  1.00  0.00     0.237 C 
HETATM    8  C8  UNL     1      45.353  21.981  50.794  1.00  0.00     0.269 C 
HETATM    9  C9  UNL     1      44.446  20.813  50.402  1.00  0.00     0.152 C 
ENDROOT
BRANCH   1  10
HETATM   10  C1  UNL     1      45.445  18.932  51.580  1.00  0.00     0.173 C 
BRANCH  10  11
HETATM   11  O1  UNL     1      45.322  18.132  52.708  1.00  0.00    -0.400 OA
ATOM     12  H1  UNL     1      45.785  17.323  52.524  1.00  0.00     0.209 HD
ENDBRANCH  10  11
ENDBRANCH   1  10
BRANCH   9  13
HETATM   13  O2  UNL     1      44.964  20.068  49.371  1.00  0.00    -0.393 OA
ATOM     14  H2  UNL     1      44.330  19.449  49.028  1.00  0.00     0.210 HD
ENDBRANCH   9  13
TORSDOF 3
ENDMDL
MODEL 5
REMARK VINA RESULT: -4.636388949      2.101      2.784
REMARK  3 active torsions:
REMARK  status: ('A' for Active; 'I' for Inactive)
REMARK    1  A    between atoms: O1_1  and  C1_3 
REMARK    2  A    between atoms: C1_3  and  C2_4 
REMARK    3  A    between atoms: C9_12  and  O2_13 
ROOT
HETATM    1  C2  UNL     1      44.507  19.979  52.084  1.00  0.00     0.066 C 
HETATM    2  C3  UNL     1      45.186  20.605  53.258  1.00  0.00     0.246 C 
HETATM    3  N1  UNL     1      45.393  22.001  52.939  1.00  0.00    -0.064 N 
HETATM    4  C4  UNL     1      46.482  22.481  53.739  1.00  0.00     0.237 C 
HETATM    5  C5  UNL     1      46.326  23.972  53.680  1.00  0.00     0.029 C 
HETATM    6  C6  UNL     1      44.812  24.122  53.839  1.00  0.00     0.029 C 
HETATM    7  C7  UNL     1      44.277  22.837  53.228  1.00  0.00     0.237 C 
HETATM    8  C8  UNL     1      45.680  21.950  51.529  1.00  0.00     0.269 C 
HETATM    9  C9  UNL     1      44.537  21.065  51.028  1.00  0.00     0.152 C 
ENDROOT
BRANCH   1  10
HETATM   10  C1  UNL     1      45.329  18.820  51.532  1.00  0.00     0.173 C 
BRANCH  10  11
HETATM   11  O1  UNL     1      45.890  18.169  52.622  1.00  0.00    -0.400 OA
ATOM     12  H1  UNL     1      46.415  17.456  52.277  1.00  0.00     0.209 HD
ENDBRANCH  10  11
ENDBRANCH   1  10
BRANCH   9  13
HETATM   13  O2  UNL     1      44.777  20.556  49.776  1.00  0.00    -0.393 OA
ATOM     14  H2  UNL     1      45.398  21.087  49.291  1.00  0.00     0.210 HD
ENDBRANCH   9  13
TORSDOF 3
ENDMDL
