MODEL 1
REMARK VINA RESULT: -5.684105787      0.000      0.000
REMARK  4 active torsions:
REMARK  status: ('A' for Active; 'I' for Inactive)
REMARK    1  A    between atoms: C1_2  and  N1_3 
REMARK    2  A    between atoms: C1_2  and  N2_11 
REMARK    3  A    between atoms: N1_3  and  C2_5 
REMARK    4  A    between atoms: N2_11  and  N3_13 
ROOT
HETATM    1  S1  UNL     1      47.030   7.740   0.427  1.00  0.00    -0.040 SA
HETATM    2  C1  UNL     1      47.743   8.763   1.513  1.00  0.00     0.183 C 
ENDROOT
BRANCH   2   3
HETATM    3  N1  UNL     1      46.929   9.712   2.169  1.00  0.00    -0.362 N 
ATOM      4  H1  UNL     1      47.054   9.860   3.171  1.00  0.00     0.162 HD
BRANCH   3   5
HETATM    5  C2  UNL     1      45.939  10.472   1.478  1.00  0.00     0.083 C 
HETATM    6  C3  UNL     1      45.317  11.512   2.395  1.00  0.00     0.025 C 
HETATM    7  C4  UNL     1      44.427  12.398   1.570  1.00  0.00     0.002 C 
HETATM    8  C5  UNL     1      44.086  11.819   0.214  1.00  0.00     0.000 C 
HETATM    9  C6  UNL     1      45.329  11.572  -0.615  1.00  0.00     0.002 C 
HETATM   10  C7  UNL     1      46.505  11.282   0.309  1.00  0.00     0.025 C 
ENDBRANCH   3   5
ENDBRANCH   2   3
BRANCH   2  11
HETATM   11  N2  UNL     1      49.141   8.650   1.762  1.00  0.00    -0.281 N 
ATOM     12  H2  UNL     1      49.791   8.878   1.010  1.00  0.00     0.184 HD
BRANCH  11  13
HETATM   13  N3  UNL     1      49.654   8.246   2.974  1.00  0.00    -0.142 NA
HETATM   14  C8  UNL     1      49.303   6.888   3.256  1.00  0.00     0.135 C 
HETATM   15  C9  UNL     1      50.520   5.988   3.274  1.00  0.00     0.019 C 
HETATM   16  C10 UNL     1      51.369   6.420   4.450  1.00  0.00     0.019 C 
HETATM   17  C11 UNL     1      51.568   7.920   4.313  1.00  0.00     0.131 C 
HETATM   18  N4  UNL     1      51.021   8.425   3.096  1.00  0.00    -0.145 NA
ENDBRANCH  11  13
ENDBRANCH   2  11
TORSDOF 4
ENDMDL
MODEL 2
REMARK VINA RESULT: -5.531947052      1.177      1.333
REMARK  4 active torsions:
REMARK  status: ('A' for Active; 'I' for Inactive)
REMARK    1  A    between atoms: C1_2  and  N1_3 
REMARK    2  A    between atoms: C1_2  and  N2_11 
REMARK    3  A    between atoms: N1_3  and  C2_5 
REMARK    4  A    between atoms: N2_11  and  N3_13 
ROOT
HETATM    1  S1  UNL     1      46.913   7.615   0.620  1.00  0.00    -0.040 SA
HETATM    2  C1  UNL     1      46.913   8.434   2.056  1.00  0.00     0.183 C 
ENDROOT
BRANCH   2   3
HETATM    3  N1  UNL     1      46.925   9.846   2.020  1.00  0.00    -0.362 N 
ATOM      4  H1  UNL     1      47.720  10.342   2.421  1.00  0.00     0.162 HD
BRANCH   3   5
HETATM    5  C2  UNL     1      45.862  10.600   1.440  1.00  0.00     0.083 C 
HETATM    6  C3  UNL     1      45.409  11.706   2.378  1.00  0.00     0.025 C 
HETATM    7  C4  UNL     1      44.428  12.577   1.643  1.00  0.00     0.002 C 
HETATM    8  C5  UNL     1      43.875  11.939   0.388  1.00  0.00     0.000 C 
HETATM    9  C6  UNL     1      44.974  11.608  -0.600  1.00  0.00     0.002 C 
HETATM   10  C7  UNL     1      46.267  11.328   0.156  1.00  0.00     0.025 C 
ENDBRANCH   3   5
ENDBRANCH   2   3
BRANCH   2  11
HETATM   11  N2  UNL     1      46.888   7.700   3.277  1.00  0.00    -0.281 N 
ATOM     12  H2  UNL     1      45.994   7.340   3.612  1.00  0.00     0.184 HD
BRANCH  11  13
HETATM   13  N3  UNL     1      48.017   7.456   4.026  1.00  0.00    -0.142 NA
HETATM   14  C8  UNL     1      47.994   6.137   4.579  1.00  0.00     0.135 C 
HETATM   15  C9  UNL     1      49.087   5.267   3.997  1.00  0.00     0.019 C 
HETATM   16  C10 UNL     1      50.405   5.855   4.452  1.00  0.00     0.019 C 
HETATM   17  C11 UNL     1      50.371   7.329   4.090  1.00  0.00     0.131 C 
HETATM   18  N4  UNL     1      49.203   7.673   3.347  1.00  0.00    -0.145 NA
ENDBRANCH  11  13
ENDBRANCH   2  11
TORSDOF 4
ENDMDL
MODEL 3
REMARK VINA RESULT: -5.480322990      0.923      1.401
REMARK  4 active torsions:
REMARK  status: ('A' for Active; 'I' for Inactive)
REMARK    1  A    between atoms: C1_2  and  N1_3 
REMARK    2  A    between atoms: C1_2  and  N2_11 
REMARK    3  A    between atoms: N1_3  and  C2_5 
REMARK    4  A    between atoms: N2_11  and  N3_13 
ROOT
HETATM    1  S1  UNL     1      48.211   8.576  -0.653  1.00  0.00    -0.040 SA
HETATM    2  C1  UNL     1      48.349   8.982   0.943  1.00  0.00     0.183 C 
ENDROOT
BRANCH   2   3
HETATM    3  N1  UNL     1      47.174   9.317   1.651  1.00  0.00    -0.362 N 
ATOM      4  H1  UNL     1      47.037   8.938   2.588  1.00  0.00     0.162 HD
BRANCH   3   5
HETATM    5  C2  UNL     1      46.171  10.168   1.098  1.00  0.00     0.083 C 
HETATM    6  C3  UNL     1      45.017   9.352   0.538  1.00  0.00     0.025 C 
HETATM    7  C4  UNL     1      43.916  10.298   0.146  1.00  0.00     0.002 C 
HETATM    8  C5  UNL     1      44.366  11.738   0.038  1.00  0.00     0.000 C 
HETATM    9  C6  UNL     1      44.920  12.250   1.351  1.00  0.00     0.002 C 
HETATM   10  C7  UNL     1      45.522  11.089   2.134  1.00  0.00     0.025 C 
ENDBRANCH   3   5
ENDBRANCH   2   3
BRANCH   2  11
HETATM   11  N2  UNL     1      49.635   8.971   1.557  1.00  0.00    -0.281 N 
ATOM     12  H2  UNL     1      50.380   9.529   1.139  1.00  0.00     0.184 HD
BRANCH  11  13
HETATM   13  N3  UNL     1      49.917   8.239   2.688  1.00  0.00    -0.142 NA
HETATM   14  C8  UNL     1      49.805   6.835   2.436  1.00  0.00     0.135 C 
HETATM   15  C9  UNL     1      51.144   6.138   2.544  1.00  0.00     0.019 C 
HETATM   16  C10 UNL     1      51.575   6.238   3.991  1.00  0.00     0.019 C 
HETATM   17  C11 UNL     1      51.480   7.705   4.371  1.00  0.00     0.131 C 
HETATM   18  N4  UNL     1      51.146   8.529   3.256  1.00  0.00    -0.145 NA
ENDBRANCH  11  13
ENDBRANCH   2  11
TORSDOF 4
ENDMDL
MODEL 4
REMARK VINA RESULT: -5.226112435      1.194      1.783
REMARK  4 active torsions:
REMARK  status: ('A' for Active; 'I' for Inactive)
REMARK    1  A    between atoms: C1_2  and  N1_3 
REMARK    2  A    between atoms: C1_2  and  N2_11 
REMARK    3  A    between atoms: N1_3  and  C2_5 
REMARK    4  A    between atoms: N2_11  and  N3_13 
ROOT
HETATM    1  S1  UNL     1      47.446   7.546   0.305  1.00  0.00    -0.040 SA
HETATM    2  C1  UNL     1      47.257   8.667   1.506  1.00  0.00     0.183 C 
ENDROOT
BRANCH   2   3
HETATM    3  N1  UNL     1      47.330  10.034   1.161  1.00  0.00    -0.362 N 
ATOM      4  H1  UNL     1      48.247  10.474   1.079  1.00  0.00     0.162 HD
BRANCH   3   5
HETATM    5  C2  UNL     1      46.164  10.821   0.922  1.00  0.00     0.083 C 
HETATM    6  C3  UNL     1      45.078   9.992   0.257  1.00  0.00     0.025 C 
HETATM    7  C4  UNL     1      43.821  10.815   0.204  1.00  0.00     0.002 C 
HETATM    8  C5  UNL     1      44.054  12.291   0.438  1.00  0.00     0.000 C 
HETATM    9  C6  UNL     1      44.676  12.549   1.795  1.00  0.00     0.002 C 
HETATM   10  C7  UNL     1      45.515  11.345   2.205  1.00  0.00     0.025 C 
ENDBRANCH   3   5
ENDBRANCH   2   3
BRANCH   2  11
HETATM   11  N2  UNL     1      47.015   8.226   2.839  1.00  0.00    -0.281 N 
ATOM     12  H2  UNL     1      46.051   8.173   3.169  1.00  0.00     0.184 HD
BRANCH  11  13
HETATM   13  N3  UNL     1      48.026   7.869   3.703  1.00  0.00    -0.142 NA
HETATM   14  C8  UNL     1      47.712   6.653   4.389  1.00  0.00     0.135 C 
HETATM   15  C9  UNL     1      48.650   5.531   3.998  1.00  0.00     0.019 C 
HETATM   16  C10 UNL     1      50.026   5.915   4.498  1.00  0.00     0.019 C 
HETATM   17  C11 UNL     1      50.301   7.316   3.980  1.00  0.00     0.131 C 
HETATM   18  N4  UNL     1      49.272   7.778   3.108  1.00  0.00    -0.145 NA
ENDBRANCH  11  13
ENDBRANCH   2  11
TORSDOF 4
ENDMDL
MODEL 5
REMARK VINA RESULT: -5.191857094      1.938      2.497
REMARK  4 active torsions:
REMARK  status: ('A' for Active; 'I' for Inactive)
REMARK    1  A    between atoms: C1_2  and  N1_3 
REMARK    2  A    between atoms: C1_2  and  N2_11 
REMARK    3  A    between atoms: N1_3  and  C2_5 
REMARK    4  A    between atoms: N2_11  and  N3_13 
ROOT
HETATM    1  S1  UNL     1      48.341   9.844  -0.060  1.00  0.00    -0.040 SA
HETATM    2  C1  UNL     1      47.068   9.367   0.881  1.00  0.00     0.183 C 
ENDROOT
BRANCH   2   3
HETATM    3  N1  UNL     1      46.330  10.362   1.559  1.00  0.00    -0.362 N 
ATOM      4  H1  UNL     1      46.389  10.412   2.576  1.00  0.00     0.162 HD
BRANCH   3   5
HETATM    5  C2  UNL     1      45.504  11.298   0.869  1.00  0.00     0.083 C 
HETATM    6  C3  UNL     1      44.810  10.640  -0.312  1.00  0.00     0.025 C 
HETATM    7  C4  UNL     1      43.817  11.616  -0.880  1.00  0.00     0.002 C 
HETATM    8  C5  UNL     1      44.038  13.040  -0.420  1.00  0.00     0.000 C 
HETATM    9  C6  UNL     1      43.940  13.161   1.086  1.00  0.00     0.002 C 
HETATM   10  C7  UNL     1      44.362  11.846   1.728  1.00  0.00     0.025 C 
ENDBRANCH   3   5
ENDBRANCH   2   3
BRANCH   2  11
HETATM   11  N2  UNL     1      46.748   7.982   0.970  1.00  0.00    -0.281 N 
ATOM     12  H2  UNL     1      46.225   7.552   0.207  1.00  0.00     0.184 HD
BRANCH  11  13
HETATM   13  N3  UNL     1      47.113   7.197   2.041  1.00  0.00    -0.142 NA
HETATM   14  C8  UNL     1      48.369   6.554   1.804  1.00  0.00     0.135 C 
HETATM   15  C9  UNL     1      49.441   7.053   2.748  1.00  0.00     0.019 C 
HETATM   16  C10 UNL     1      49.039   6.617   4.140  1.00  0.00     0.019 C 
HETATM   17  C11 UNL     1      47.608   7.083   4.344  1.00  0.00     0.131 C 
HETATM   18  N4  UNL     1      47.138   7.869   3.250  1.00  0.00    -0.145 NA
ENDBRANCH  11  13
ENDBRANCH   2  11
TORSDOF 4
ENDMDL
