MODEL 1
REMARK VINA RESULT: -5.483503395      0.000      0.000
REMARK  4 active torsions:
REMARK  status: ('A' for Active; 'I' for Inactive)
REMARK    1  A    between atoms: C5_5  and  N1_6 
REMARK    2  A    between atoms: C6_10  and  C7_11 
REMARK    3  A    between atoms: C8_17  and  O2_18 
REMARK    4  A    between atoms: O2_18  and  C9_19 
ROOT
HETATM    1  C1  UNL     1      14.463  46.719  17.234  1.00  0.00     0.015 C 
HETATM    2  C2  UNL     1      13.644  46.611  15.990  1.00  0.00    -0.035 C 
HETATM    3  C3  UNL     1      13.659  47.860  15.165  1.00  0.00     0.015 C 
HETATM    4  C4  UNL     1      13.893  45.336  15.180  1.00  0.00     0.051 C 
HETATM    5  C5  UNL     1      12.399  45.242  15.001  1.00  0.00     0.165 C 
HETATM    6  C6  UNL     1      11.908  43.899  15.488  1.00  0.00     0.225 C 
HETATM    7  O1  UNL     1      12.434  43.888  16.797  1.00  0.00    -0.346 OA
HETATM    8  C8  UNL     1      12.061  45.129  17.317  1.00  0.00     0.271 C 
HETATM    9  C14 UNL     1      12.222  46.128  16.182  1.00  0.00     0.088 C 
ENDROOT
BRANCH   8  10
HETATM   10  O2  UNL     1      10.743  45.115  17.739  1.00  0.00    -0.327 OA
BRANCH  10  11
HETATM   11  C9  UNL     1      10.721  45.070  19.130  1.00  0.00     0.292 A 
HETATM   12  C10 UNL     1       9.500  45.789  19.589  1.00  0.00     0.033 A 
HETATM   13  C11 UNL     1       9.560  46.801  20.436  1.00  0.00     0.003 A 
HETATM   14  C12 UNL     1      10.830  47.261  20.960  1.00  0.00     0.024 A 
HETATM   15  C13 UNL     1      11.933  46.659  20.584  1.00  0.00     0.138 A 
HETATM   16  O3  UNL     1      11.901  45.593  19.696  1.00  0.00    -0.329 OA
ENDBRANCH  10  11
ENDBRANCH   8  10
BRANCH   6  17
HETATM   17  C7  UNL     1      12.494  42.817  14.670  1.00  0.00     0.118 C 
HETATM   18  N2  UNL     1      13.149  41.870  15.238  1.00  0.00    -0.389 N 
ATOM     19  H22 UNL     1      13.256  41.882  16.252  1.00  0.00     0.157 HD
ATOM     20  H21 UNL     1      13.553  41.123  14.673  1.00  0.00     0.157 HD
HETATM   21  N3  UNL     1      12.346  42.801  13.261  1.00  0.00    -0.085 NA
ENDBRANCH   6  17
BRANCH   5  22
HETATM   22  N1  UNL     1      11.866  45.638  13.758  1.00  0.00    -0.067 N 
ATOM     23  H13 UNL     1      11.287  46.467  13.889  1.00  0.00     0.275 HD
ATOM     24  H12 UNL     1      12.613  46.017  13.176  1.00  0.00     0.275 HD
ATOM     25  H11 UNL     1      11.344  44.942  13.226  1.00  0.00     0.275 HD
ENDBRANCH   5  22
TORSDOF 4
ENDMDL
MODEL 2
REMARK VINA RESULT: -5.273633837      2.225      2.902
REMARK  4 active torsions:
REMARK  status: ('A' for Active; 'I' for Inactive)
REMARK    1  A    between atoms: C5_5  and  N1_6 
REMARK    2  A    between atoms: C6_10  and  C7_11 
REMARK    3  A    between atoms: C8_17  and  O2_18 
REMARK    4  A    between atoms: O2_18  and  C9_19 
ROOT
HETATM    1  C1  UNL     1      12.451  43.661  16.234  1.00  0.00     0.015 C 
HETATM    2  C2  UNL     1      12.118  44.931  15.523  1.00  0.00    -0.035 C 
HETATM    3  C3  UNL     1      13.326  45.744  15.173  1.00  0.00     0.015 C 
HETATM    4  C4  UNL     1      11.131  44.766  14.364  1.00  0.00     0.051 C 
HETATM    5  C5  UNL     1      10.445  46.012  14.864  1.00  0.00     0.165 C 
HETATM    6  C6  UNL     1       8.984  45.725  15.118  1.00  0.00     0.225 C 
HETATM    7  O1  UNL     1       9.081  44.614  15.983  1.00  0.00    -0.346 OA
HETATM    8  C8  UNL     1      10.011  45.021  16.942  1.00  0.00     0.271 C 
HETATM    9  C14 UNL     1      11.077  45.804  16.194  1.00  0.00     0.088 C 
ENDROOT
BRANCH   8  10
HETATM   10  O2  UNL     1       9.420  45.835  17.893  1.00  0.00    -0.327 OA
BRANCH  10  11
HETATM   11  C9  UNL     1       9.911  45.484  19.148  1.00  0.00     0.292 A 
HETATM   12  C10 UNL     1       9.367  46.456  20.136  1.00  0.00     0.033 A 
HETATM   13  C11 UNL     1      10.155  47.163  20.928  1.00  0.00     0.003 A 
HETATM   14  C12 UNL     1      11.596  47.021  20.868  1.00  0.00     0.024 A 
HETATM   15  C13 UNL     1      12.120  46.175  20.012  1.00  0.00     0.138 A 
HETATM   16  O3  UNL     1      11.318  45.420  19.168  1.00  0.00    -0.329 OA
ENDBRANCH  10  11
ENDBRANCH   8  10
BRANCH   6  17
HETATM   17  C7  UNL     1       8.310  45.358  13.855  1.00  0.00     0.118 C 
HETATM   18  N2  UNL     1       7.743  44.212  13.743  1.00  0.00    -0.389 N 
ATOM     19  H22 UNL     1       7.768  43.568  14.534  1.00  0.00     0.157 HD
ATOM     20  H21 UNL     1       7.278  43.959  12.871  1.00  0.00     0.157 HD
HETATM   21  N3  UNL     1       8.277  46.251  12.756  1.00  0.00    -0.085 NA
ENDBRANCH   6  17
BRANCH   5  22
HETATM   22  N1  UNL     1      10.687  47.213  14.168  1.00  0.00    -0.067 N 
ATOM     23  H13 UNL     1      11.440  47.067  13.496  1.00  0.00     0.275 HD
ATOM     24  H12 UNL     1       9.905  47.402  13.541  1.00  0.00     0.275 HD
ATOM     25  H11 UNL     1      10.885  48.046  14.721  1.00  0.00     0.275 HD
ENDBRANCH   5  22
TORSDOF 4
ENDMDL
MODEL 3
REMARK VINA RESULT: -5.072447138      4.361      5.168
REMARK  4 active torsions:
REMARK  status: ('A' for Active; 'I' for Inactive)
REMARK    1  A    between atoms: C5_5  and  N1_6 
REMARK    2  A    between atoms: C6_10  and  C7_11 
REMARK    3  A    between atoms: C8_17  and  O2_18 
REMARK    4  A    between atoms: O2_18  and  C9_19 
ROOT
HETATM    1  C1  UNL     1      10.006  45.858  12.494  1.00  0.00     0.015 C 
HETATM    2  C2  UNL     1       8.517  45.814  12.597  1.00  0.00    -0.035 C 
HETATM    3  C3  UNL     1       7.859  47.084  12.153  1.00  0.00     0.015 C 
HETATM    4  C4  UNL     1       7.880  44.553  12.006  1.00  0.00     0.051 C 
HETATM    5  C5  UNL     1       6.987  44.520  13.220  1.00  0.00     0.165 C 
HETATM    6  C6  UNL     1       7.114  43.184  13.914  1.00  0.00     0.225 C 
HETATM    7  O1  UNL     1       8.511  43.117  14.100  1.00  0.00    -0.346 OA
HETATM    8  C8  UNL     1       8.832  44.358  14.656  1.00  0.00     0.271 C 
HETATM    9  C14 UNL     1       7.966  45.380  13.939  1.00  0.00     0.088 C 
ENDROOT
BRANCH   8  10
HETATM   10  O2  UNL     1       8.553  44.382  16.012  1.00  0.00    -0.327 OA
BRANCH  10  11
HETATM   11  C9  UNL     1       9.352  45.349  16.615  1.00  0.00     0.292 A 
HETATM   12  C10 UNL     1      10.743  44.818  16.670  1.00  0.00     0.033 A 
HETATM   13  C11 UNL     1      11.413  44.727  17.805  1.00  0.00     0.003 A 
HETATM   14  C12 UNL     1      10.816  45.144  19.059  1.00  0.00     0.024 A 
HETATM   15  C13 UNL     1       9.593  45.617  19.059  1.00  0.00     0.138 A 
HETATM   16  O3  UNL     1       8.866  45.724  17.882  1.00  0.00    -0.329 OA
ENDBRANCH  10  11
ENDBRANCH   8  10
BRANCH   6  17
HETATM   17  C7  UNL     1       6.645  42.103  13.023  1.00  0.00     0.118 C 
HETATM   18  N2  UNL     1       7.441  41.149  12.701  1.00  0.00    -0.389 N 
ATOM     19  H22 UNL     1       8.393  41.154  13.068  1.00  0.00     0.157 HD
ATOM     20  H21 UNL     1       7.116  40.402  12.087  1.00  0.00     0.157 HD
HETATM   21  N3  UNL     1       5.323  42.096  12.513  1.00  0.00    -0.085 NA
ENDBRANCH   6  17
BRANCH   5  22
HETATM   22  N1  UNL     1       5.661  44.969  13.066  1.00  0.00    -0.067 N 
ATOM     23  H13 UNL     1       5.600  45.946  13.353  1.00  0.00     0.275 HD
ATOM     24  H12 UNL     1       5.446  45.048  12.072  1.00  0.00     0.275 HD
ATOM     25  H11 UNL     1       4.926  44.434  13.529  1.00  0.00     0.275 HD
ENDBRANCH   5  22
TORSDOF 4
ENDMDL
MODEL 4
REMARK VINA RESULT: -5.061714483      4.412      5.293
REMARK  4 active torsions:
REMARK  status: ('A' for Active; 'I' for Inactive)
REMARK    1  A    between atoms: C5_5  and  N1_6 
REMARK    2  A    between atoms: C6_10  and  C7_11 
REMARK    3  A    between atoms: C8_17  and  O2_18 
REMARK    4  A    between atoms: O2_18  and  C9_19 
ROOT
HETATM    1  C1  UNL     1      10.623  46.488  12.451  1.00  0.00     0.015 C 
HETATM    2  C2  UNL     1       9.405  47.178  12.969  1.00  0.00    -0.035 C 
HETATM    3  C3  UNL     1       9.595  48.653  13.147  1.00  0.00     0.015 C 
HETATM    4  C4  UNL     1       8.112  46.810  12.237  1.00  0.00     0.051 C 
HETATM    5  C5  UNL     1       7.450  46.737  13.590  1.00  0.00     0.165 C 
HETATM    6  C6  UNL     1       6.809  45.382  13.774  1.00  0.00     0.225 C 
HETATM    7  O1  UNL     1       7.906  44.534  13.512  1.00  0.00    -0.346 OA
HETATM    8  C8  UNL     1       8.932  45.065  14.298  1.00  0.00     0.271 C 
HETATM    9  C14 UNL     1       8.791  46.576  14.214  1.00  0.00     0.088 C 
ENDROOT
BRANCH   8  10
HETATM   10  O2  UNL     1       8.806  44.660  15.617  1.00  0.00    -0.327 OA
BRANCH  10  11
HETATM   11  C9  UNL     1       9.511  45.547  16.424  1.00  0.00     0.292 A 
HETATM   12  C10 UNL     1      10.876  44.986  16.632  1.00  0.00     0.033 A 
HETATM   13  C11 UNL     1      11.367  44.772  17.840  1.00  0.00     0.003 A 
HETATM   14  C12 UNL     1      10.592  45.076  19.026  1.00  0.00     0.024 A 
HETATM   15  C13 UNL     1       9.385  45.571  18.892  1.00  0.00     0.138 A 
HETATM   16  O3  UNL     1       8.843  45.807  17.637  1.00  0.00    -0.329 OA
ENDBRANCH  10  11
ENDBRANCH   8  10
BRANCH   6  17
HETATM   17  C7  UNL     1       5.737  45.187  12.777  1.00  0.00     0.118 C 
HETATM   18  N2  UNL     1       5.800  44.203  11.954  1.00  0.00    -0.389 N 
ATOM     19  H22 UNL     1       6.596  43.568  12.004  1.00  0.00     0.157 HD
ATOM     20  H21 UNL     1       5.059  44.068  11.266  1.00  0.00     0.157 HD
HETATM   21  N3  UNL     1       4.631  46.070  12.707  1.00  0.00    -0.085 NA
ENDBRANCH   6  17
BRANCH   5  22
HETATM   22  N1  UNL     1       6.637  47.820  13.976  1.00  0.00    -0.067 N 
ATOM     23  H13 UNL     1       7.221  48.642  14.130  1.00  0.00     0.275 HD
ATOM     24  H12 UNL     1       6.081  48.126  13.178  1.00  0.00     0.275 HD
ATOM     25  H11 UNL     1       6.025  47.686  14.782  1.00  0.00     0.275 HD
ENDBRANCH   5  22
TORSDOF 4
ENDMDL
MODEL 5
REMARK VINA RESULT: -4.944379516      3.110      4.697
REMARK  4 active torsions:
REMARK  status: ('A' for Active; 'I' for Inactive)
REMARK    1  A    between atoms: C5_5  and  N1_6 
REMARK    2  A    between atoms: C6_10  and  C7_11 
REMARK    3  A    between atoms: C8_17  and  O2_18 
REMARK    4  A    between atoms: O2_18  and  C9_19 
ROOT
HETATM    1  C1  UNL     1      12.141  46.922  14.999  1.00  0.00     0.015 C 
HETATM    2  C2  UNL     1      13.593  47.156  14.741  1.00  0.00    -0.035 C 
HETATM    3  C3  UNL     1      14.023  46.730  13.371  1.00  0.00     0.015 C 
HETATM    4  C4  UNL     1      14.088  48.549  15.135  1.00  0.00     0.051 C 
HETATM    5  C5  UNL     1      15.303  47.876  15.719  1.00  0.00     0.165 C 
HETATM    6  C6  UNL     1      15.457  48.267  17.171  1.00  0.00     0.225 C 
HETATM    7  O1  UNL     1      14.185  47.920  17.672  1.00  0.00    -0.346 OA
HETATM    8  C8  UNL     1      13.981  46.624  17.195  1.00  0.00     0.271 C 
HETATM    9  C14 UNL     1      14.541  46.600  15.782  1.00  0.00     0.088 C 
ENDROOT
BRANCH   8  10
HETATM   10  O2  UNL     1      14.651  45.697  17.975  1.00  0.00    -0.327 OA
BRANCH  10  11
HETATM   11  C9  UNL     1      13.721  45.012  18.751  1.00  0.00     0.292 A 
HETATM   12  C10 UNL     1      12.759  44.348  17.827  1.00  0.00     0.033 A 
HETATM   13  C11 UNL     1      11.456  44.555  17.905  1.00  0.00     0.003 A 
HETATM   14  C12 UNL     1      10.901  45.446  18.905  1.00  0.00     0.024 A 
HETATM   15  C13 UNL     1      11.710  46.053  19.741  1.00  0.00     0.138 A 
HETATM   16  O3  UNL     1      13.082  45.855  19.682  1.00  0.00    -0.329 OA
ENDBRANCH  10  11
ENDBRANCH   8  10
BRANCH   6  17
HETATM   17  C7  UNL     1      15.695  49.721  17.282  1.00  0.00     0.118 C 
HETATM   18  N2  UNL     1      14.803  50.475  17.815  1.00  0.00    -0.389 N 
ATOM     19  H22 UNL     1      13.938  50.055  18.154  1.00  0.00     0.157 HD
ATOM     20  H21 UNL     1      14.967  51.479  17.892  1.00  0.00     0.157 HD
HETATM   21  N3  UNL     1      16.896  50.306  16.810  1.00  0.00    -0.085 NA
ENDBRANCH   6  17
BRANCH   5  22
HETATM   22  N1  UNL     1      16.498  47.927  14.975  1.00  0.00    -0.067 N 
ATOM     23  H13 UNL     1      16.792  48.898  14.876  1.00  0.00     0.275 HD
ATOM     24  H12 UNL     1      17.261  47.552  15.538  1.00  0.00     0.275 HD
ATOM     25  H11 UNL     1      16.503  47.478  14.059  1.00  0.00     0.275 HD
ENDBRANCH   5  22
TORSDOF 4
ENDMDL
