MODEL 1
REMARK VINA RESULT: -6.237087010      0.000      0.000
REMARK  4 active torsions:
REMARK  status: ('A' for Active; 'I' for Inactive)
REMARK    1  A    between atoms: C3_3  and  N1_4 
REMARK    2  A    between atoms: N1_4  and  C4_6 
REMARK    3  A    between atoms: C7_11  and  N3_12 
REMARK    4  A    between atoms: N3_12  and  C8_14 
ROOT
HETATM    1  C4  UNL     1      11.808  44.148  17.118  1.00  0.00     0.684 A 
HETATM    2  N2  UNL     1      11.493  44.420  15.846  1.00  0.00    -0.202 N 
ATOM      3  H2  UNL     1      12.176  44.238  15.111  1.00  0.00     0.183 HD
HETATM    4  C5  UNL     1      10.295  44.928  15.520  1.00  0.00     0.110 A 
HETATM    5  C6  UNL     1       9.392  45.163  16.539  1.00  0.00     0.067 A 
HETATM    6  C7  UNL     1       9.695  44.891  17.860  1.00  0.00     0.123 A 
HETATM    7  N6  UNL     1      10.909  44.388  18.089  1.00  0.00    -0.176 N 
ATOM      8  H6  UNL     1      11.170  44.174  19.052  1.00  0.00     0.186 HD
ENDROOT
BRANCH   1   9
HETATM    9  N1  UNL     1      12.955  43.659  17.459  1.00  0.00    -0.188 N 
ATOM     10  H1  UNL     1      13.034  42.653  17.605  1.00  0.00     0.184 HD
BRANCH   9  11
HETATM   11  C3  UNL     1      14.109  44.464  17.637  1.00  0.00     0.089 A 
HETATM   12  C2  UNL     1      15.164  44.536  16.750  1.00  0.00     0.052 A 
HETATM   13  C1  UNL     1      15.250  43.779  15.470  1.00  0.00     0.072 C 
HETATM   14  N8  UNL     1      16.069  45.376  17.222  1.00  0.00    -0.299 N 
HETATM   15  N7  UNL     1      15.638  45.850  18.380  1.00  0.00    -0.308 N 
HETATM   16  C12 UNL     1      17.355  45.779  16.639  1.00  0.00     0.177 C 
HETATM   17  C11 UNL     1      14.435  45.313  18.672  1.00  0.00     0.139 A 
ATOM     18  H7  UNL     1      16.140  46.520  18.963  1.00  0.00     0.186 HD
ENDBRANCH   9  11
ENDBRANCH   1   9
BRANCH   6  19
HETATM   19  N3  UNL     1       8.825  45.126  18.774  1.00  0.00    -0.327 N 
ATOM     20  H3  UNL     1       7.911  44.679  18.697  1.00  0.00     0.169 HD
BRANCH  19  21
HETATM   21  C8  UNL     1       9.067  45.973  19.884  1.00  0.00     0.122 A 
HETATM   22  C9  UNL     1      10.198  46.688  20.209  1.00  0.00     0.068 A 
HETATM   23  C10 UNL     1       9.966  47.383  21.402  1.00  0.00     0.111 A 
HETATM   24  N4  UNL     1       8.711  47.060  21.748  1.00  0.00    -0.310 N 
HETATM   25  N5  UNL     1       8.187  46.236  20.861  1.00  0.00    -0.286 N 
ATOM     26  H4  UNL     1       8.229  47.402  22.580  1.00  0.00     0.186 HD
ATOM     27  H5  UNL     1       7.243  45.853  20.911  1.00  0.00     0.188 HD
ENDBRANCH  19  21
ENDBRANCH   6  19
TORSDOF 4
ENDMDL
MODEL 2
REMARK VINA RESULT: -6.199917276      1.568      2.242
REMARK  4 active torsions:
REMARK  status: ('A' for Active; 'I' for Inactive)
REMARK    1  A    between atoms: C3_3  and  N1_4 
REMARK    2  A    between atoms: N1_4  and  C4_6 
REMARK    3  A    between atoms: C7_11  and  N3_12 
REMARK    4  A    between atoms: N3_12  and  C8_14 
ROOT
HETATM    1  C4  UNL     1      12.032  44.891  18.368  1.00  0.00     0.684 A 
HETATM    2  N2  UNL     1      10.848  44.575  17.830  1.00  0.00    -0.202 N 
ATOM      3  H2  UNL     1      10.817  43.969  17.009  1.00  0.00     0.183 HD
HETATM    4  C5  UNL     1       9.702  45.039  18.349  1.00  0.00     0.110 A 
HETATM    5  C6  UNL     1       9.779  45.855  19.461  1.00  0.00     0.067 A 
HETATM    6  C7  UNL     1      10.990  46.196  20.034  1.00  0.00     0.123 A 
HETATM    7  N6  UNL     1      12.076  45.689  19.450  1.00  0.00    -0.176 N 
ATOM      8  H6  UNL     1      12.989  45.918  19.844  1.00  0.00     0.186 HD
ENDROOT
BRANCH   1   9
HETATM    9  N1  UNL     1      13.151  44.458  17.886  1.00  0.00    -0.188 N 
ATOM     10  H1  UNL     1      13.188  43.509  17.514  1.00  0.00     0.184 HD
BRANCH   9  11
HETATM   11  C3  UNL     1      14.328  45.247  17.854  1.00  0.00     0.089 A 
HETATM   12  C2  UNL     1      14.604  46.211  16.906  1.00  0.00     0.052 A 
HETATM   13  C1  UNL     1      13.707  46.569  15.773  1.00  0.00     0.072 C 
HETATM   14  N8  UNL     1      15.781  46.752  17.170  1.00  0.00    -0.299 N 
HETATM   15  N7  UNL     1      16.275  46.175  18.253  1.00  0.00    -0.308 N 
HETATM   16  C12 UNL     1      16.498  47.813  16.450  1.00  0.00     0.177 C 
HETATM   17  C11 UNL     1      15.411  45.241  18.706  1.00  0.00     0.139 A 
ATOM     18  H7  UNL     1      17.172  46.402  18.682  1.00  0.00     0.186 HD
ENDBRANCH   9  11
ENDBRANCH   1   9
BRANCH   6  19
HETATM   19  N3  UNL     1      11.013  46.959  21.067  1.00  0.00    -0.327 N 
ATOM     20  H3  UNL     1      11.846  46.949  21.656  1.00  0.00     0.169 HD
BRANCH  19  21
HETATM   21  C8  UNL     1       9.944  47.813  21.432  1.00  0.00     0.122 A 
HETATM   22  C9  UNL     1       9.835  49.181  21.313  1.00  0.00     0.068 A 
HETATM   23  C10 UNL     1       8.589  49.581  21.810  1.00  0.00     0.111 A 
HETATM   24  N4  UNL     1       7.998  48.443  22.208  1.00  0.00    -0.310 N 
HETATM   25  N5  UNL     1       8.790  47.412  21.987  1.00  0.00    -0.286 N 
ATOM     26  H4  UNL     1       7.068  48.385  22.623  1.00  0.00     0.186 HD
ATOM     27  H5  UNL     1       8.557  46.444  22.208  1.00  0.00     0.188 HD
ENDBRANCH  19  21
ENDBRANCH   6  19
TORSDOF 4
ENDMDL
MODEL 3
REMARK VINA RESULT: -6.148915513      1.259      1.437
REMARK  4 active torsions:
REMARK  status: ('A' for Active; 'I' for Inactive)
REMARK    1  A    between atoms: C3_3  and  N1_4 
REMARK    2  A    between atoms: N1_4  and  C4_6 
REMARK    3  A    between atoms: C7_11  and  N3_12 
REMARK    4  A    between atoms: N3_12  and  C8_14 
ROOT
HETATM    1  C4  UNL     1      11.852  44.781  17.595  1.00  0.00     0.684 A 
HETATM    2  N2  UNL     1      11.250  44.839  16.400  1.00  0.00    -0.202 N 
ATOM      3  H2  UNL     1      11.811  44.753  15.553  1.00  0.00     0.183 HD
HETATM    4  C5  UNL     1       9.924  45.008  16.298  1.00  0.00     0.110 A 
HETATM    5  C6  UNL     1       9.193  45.120  17.465  1.00  0.00     0.067 A 
HETATM    6  C7  UNL     1       9.792  45.063  18.710  1.00  0.00     0.123 A 
HETATM    7  N6  UNL     1      11.116  44.894  18.714  1.00  0.00    -0.176 N 
ATOM      8  H6  UNL     1      11.594  44.847  19.614  1.00  0.00     0.186 HD
ENDROOT
BRANCH   1   9
HETATM    9  N1  UNL     1      13.129  44.620  17.720  1.00  0.00    -0.188 N 
ATOM     10  H1  UNL     1      13.478  43.719  18.048  1.00  0.00     0.184 HD
BRANCH   9  11
HETATM   11  C3  UNL     1      14.063  45.643  17.422  1.00  0.00     0.089 A 
HETATM   12  C2  UNL     1      15.389  45.635  17.806  1.00  0.00     0.052 A 
HETATM   13  C1  UNL     1      16.039  44.550  18.592  1.00  0.00     0.072 C 
HETATM   14  N8  UNL     1      15.973  46.736  17.365  1.00  0.00    -0.299 N 
HETATM   15  N7  UNL     1      15.076  47.454  16.711  1.00  0.00    -0.308 N 
HETATM   16  C12 UNL     1      17.366  47.174  17.521  1.00  0.00     0.177 C 
HETATM   17  C11 UNL     1      13.886  46.817  16.723  1.00  0.00     0.139 A 
ATOM     18  H7  UNL     1      15.255  48.354  16.264  1.00  0.00     0.186 HD
ENDBRANCH   9  11
ENDBRANCH   1   9
BRANCH   6  19
HETATM   19  N3  UNL     1       9.074  45.173  19.768  1.00  0.00    -0.327 N 
ATOM     20  H3  UNL     1       8.477  44.388  20.030  1.00  0.00     0.169 HD
BRANCH  19  21
HETATM   21  C8  UNL     1       9.066  46.325  20.591  1.00  0.00     0.122 A 
HETATM   22  C9  UNL     1      10.039  47.285  20.764  1.00  0.00     0.068 A 
HETATM   23  C10 UNL     1       9.578  48.237  21.681  1.00  0.00     0.111 A 
HETATM   24  N4  UNL     1       8.351  47.816  22.024  1.00  0.00    -0.310 N 
HETATM   25  N5  UNL     1       8.053  46.699  21.388  1.00  0.00    -0.286 N 
ATOM     26  H4  UNL     1       7.736  48.291  22.685  1.00  0.00     0.186 HD
ATOM     27  H5  UNL     1       7.175  46.191  21.487  1.00  0.00     0.188 HD
ENDBRANCH  19  21
ENDBRANCH   6  19
TORSDOF 4
ENDMDL
MODEL 4
REMARK VINA RESULT: -6.096624407      1.738      2.409
REMARK  4 active torsions:
REMARK  status: ('A' for Active; 'I' for Inactive)
REMARK    1  A    between atoms: C3_3  and  N1_4 
REMARK    2  A    between atoms: N1_4  and  C4_6 
REMARK    3  A    between atoms: C7_11  and  N3_12 
REMARK    4  A    between atoms: N3_12  and  C8_14 
ROOT
HETATM    1  C4  UNL     1      12.630  45.071  18.163  1.00  0.00     0.684 A 
HETATM    2  N2  UNL     1      11.498  44.619  17.608  1.00  0.00    -0.202 N 
ATOM      3  H2  UNL     1      11.547  44.060  16.757  1.00  0.00     0.183 HD
HETATM    4  C5  UNL     1      10.302  44.888  18.152  1.00  0.00     0.110 A 
HETATM    5  C6  UNL     1      10.271  45.647  19.306  1.00  0.00     0.067 A 
HETATM    6  C7  UNL     1      11.426  46.125  19.897  1.00  0.00     0.123 A 
HETATM    7  N6  UNL     1      12.569  45.809  19.286  1.00  0.00    -0.176 N 
ATOM      8  H6  UNL     1      13.442  46.143  19.692  1.00  0.00     0.186 HD
ENDROOT
BRANCH   1   9
HETATM    9  N1  UNL     1      13.795  44.826  17.659  1.00  0.00    -0.188 N 
ATOM     10  H1  UNL     1      14.017  43.870  17.383  1.00  0.00     0.184 HD
BRANCH   9  11
HETATM   11  C3  UNL     1      14.776  45.833  17.474  1.00  0.00     0.089 A 
HETATM   12  C2  UNL     1      15.994  45.874  18.121  1.00  0.00     0.052 A 
HETATM   13  C1  UNL     1      16.463  44.866  19.112  1.00  0.00     0.072 C 
HETATM   14  N8  UNL     1      16.662  46.941  17.718  1.00  0.00    -0.299 N 
HETATM   15  N7  UNL     1      15.922  47.591  16.835  1.00  0.00    -0.308 N 
HETATM   16  C12 UNL     1      17.995  47.408  18.119  1.00  0.00     0.177 C 
HETATM   17  C11 UNL     1      14.752  46.942  16.656  1.00  0.00     0.139 A 
ATOM     18  H7  UNL     1      16.194  48.452  16.361  1.00  0.00     0.186 HD
ENDBRANCH   9  11
ENDBRANCH   1   9
BRANCH   6  19
HETATM   19  N3  UNL     1      11.349  46.828  20.969  1.00  0.00    -0.327 N 
ATOM     20  H3  UNL     1      12.170  46.881  21.571  1.00  0.00     0.169 HD
BRANCH  19  21
HETATM   21  C8  UNL     1      10.183  47.531  21.359  1.00  0.00     0.122 A 
HETATM   22  C9  UNL     1       9.895  48.874  21.256  1.00  0.00     0.068 A 
HETATM   23  C10 UNL     1       8.616  49.104  21.777  1.00  0.00     0.111 A 
HETATM   24  N4  UNL     1       8.185  47.896  22.173  1.00  0.00    -0.310 N 
HETATM   25  N5  UNL     1       9.102  46.979  21.929  1.00  0.00    -0.286 N 
ATOM     26  H4  UNL     1       7.278  47.714  22.603  1.00  0.00     0.186 HD
ATOM     27  H5  UNL     1       9.001  45.987  22.144  1.00  0.00     0.188 HD
ENDBRANCH  19  21
ENDBRANCH   6  19
TORSDOF 4
ENDMDL
MODEL 5
REMARK VINA RESULT: -6.079570767      1.135      1.208
REMARK  4 active torsions:
REMARK  status: ('A' for Active; 'I' for Inactive)
REMARK    1  A    between atoms: C3_3  and  N1_4 
REMARK    2  A    between atoms: N1_4  and  C4_6 
REMARK    3  A    between atoms: C7_11  and  N3_12 
REMARK    4  A    between atoms: N3_12  and  C8_14 
ROOT
HETATM    1  C4  UNL     1      11.706  44.563  17.666  1.00  0.00     0.684 A 
HETATM    2  N2  UNL     1      11.215  44.707  16.429  1.00  0.00    -0.202 N 
ATOM      3  H2  UNL     1      11.833  44.580  15.628  1.00  0.00     0.183 HD
HETATM    4  C5  UNL     1       9.926  45.015  16.224  1.00  0.00     0.110 A 
HETATM    5  C6  UNL     1       9.116  45.180  17.331  1.00  0.00     0.067 A 
HETATM    6  C7  UNL     1       9.600  45.038  18.618  1.00  0.00     0.123 A 
HETATM    7  N6  UNL     1      10.894  44.731  18.725  1.00  0.00    -0.176 N 
ATOM      8  H6  UNL     1      11.288  44.617  19.659  1.00  0.00     0.186 HD
ENDROOT
BRANCH   1   9
HETATM    9  N1  UNL     1      12.944  44.267  17.890  1.00  0.00    -0.188 N 
ATOM     10  H1  UNL     1      13.165  43.646  18.668  1.00  0.00     0.184 HD
BRANCH   9  11
HETATM   11  C3  UNL     1      14.008  44.772  17.100  1.00  0.00     0.089 A 
HETATM   12  C2  UNL     1      14.641  44.073  16.093  1.00  0.00     0.052 A 
HETATM   13  C1  UNL     1      14.301  42.682  15.682  1.00  0.00     0.072 C 
HETATM   14  N8  UNL     1      15.582  44.834  15.564  1.00  0.00    -0.299 N 
HETATM   15  N7  UNL     1      15.582  45.999  16.191  1.00  0.00    -0.308 N 
HETATM   16  C12 UNL     1      16.515  44.533  14.470  1.00  0.00     0.177 C 
HETATM   17  C11 UNL     1      14.627  46.002  17.145  1.00  0.00     0.139 A 
ATOM     18  H7  UNL     1      16.208  46.777  15.985  1.00  0.00     0.186 HD
ENDBRANCH   9  11
ENDBRANCH   1   9
BRANCH   6  19
HETATM   19  N3  UNL     1       8.810  45.201  19.618  1.00  0.00    -0.327 N 
ATOM     20  H3  UNL     1       8.084  44.503  19.778  1.00  0.00     0.169 HD
BRANCH  19  21
HETATM   21  C8  UNL     1       8.894  46.299  20.508  1.00  0.00     0.122 A 
HETATM   22  C9  UNL     1       9.914  47.210  20.682  1.00  0.00     0.068 A 
HETATM   23  C10 UNL     1       9.543  48.119  21.680  1.00  0.00     0.111 A 
HETATM   24  N4  UNL     1       8.321  47.722  22.068  1.00  0.00    -0.310 N 
HETATM   25  N5  UNL     1       7.944  46.659  21.383  1.00  0.00    -0.286 N 
ATOM     26  H4  UNL     1       7.762  48.177  22.790  1.00  0.00     0.186 HD
ATOM     27  H5  UNL     1       7.052  46.179  21.502  1.00  0.00     0.188 HD
ENDBRANCH  19  21
ENDBRANCH   6  19
TORSDOF 4
ENDMDL
