MODEL 1
REMARK VINA RESULT: -4.913993482      0.000      0.000
REMARK  1 active torsions:
REMARK  status: ('A' for Active; 'I' for Inactive)
REMARK    1  A    between atoms: N1_6  and  C6_8 
ROOT
HETATM    1  C1  UNL     1      22.559  -2.685  39.750  1.00  0.00     0.044 C 
HETATM    2  C2  UNL     1      21.574  -2.080  40.376  1.00  0.00     0.038 A 
HETATM    3  C3  UNL     1      21.579  -1.924  41.824  1.00  0.00     0.034 A 
HETATM    4  C4  UNL     1      20.578  -1.307  42.476  1.00  0.00     0.052 A 
HETATM    5  C5  UNL     1      19.429  -0.760  41.759  1.00  0.00     0.116 A 
HETATM    6  N1  UNL     1      18.446  -0.161  42.352  1.00  0.00    -0.371 N 
ATOM      7  H1  UNL     1      17.679   0.195  41.782  1.00  0.00     0.161 HD
HETATM    8  N2  UNL     1      19.427  -0.914  40.345  1.00  0.00    -0.285 N 
ATOM      9  H2  UNL     1      18.638  -0.543  39.814  1.00  0.00     0.188 HD
HETATM   10  N3  UNL     1      20.462  -1.554  39.649  1.00  0.00    -0.300 N 
ATOM     11  H3  UNL     1      20.422  -1.643  38.634  1.00  0.00     0.187 HD
ENDROOT
BRANCH   6  12
HETATM   12  C6  UNL     1      18.387   0.028  43.779  1.00  0.00     0.075 C 
HETATM   13  C7  UNL     1      16.986  -0.225  44.314  1.00  0.00     0.031 C 
HETATM   14  C8  UNL     1      18.691   1.510  44.024  1.00  0.00     0.031 C 
ENDBRANCH   6  12
TORSDOF 1
ENDMDL
MODEL 2
REMARK VINA RESULT: -4.715256216      1.310      4.748
REMARK  1 active torsions:
REMARK  status: ('A' for Active; 'I' for Inactive)
REMARK    1  A    between atoms: N1_6  and  C6_8 
ROOT
HETATM    1  C1  UNL     1      19.107   1.842  45.273  1.00  0.00     0.044 C 
HETATM    2  C2  UNL     1      19.325   1.107  44.205  1.00  0.00     0.038 A 
HETATM    3  C3  UNL     1      20.127  -0.108  44.271  1.00  0.00     0.034 A 
HETATM    4  C4  UNL     1      20.356  -0.868  43.186  1.00  0.00     0.052 A 
HETATM    5  C5  UNL     1      19.810  -0.511  41.880  1.00  0.00     0.116 A 
HETATM    6  N1  UNL     1      20.010  -1.218  40.814  1.00  0.00    -0.371 N 
ATOM      7  H1  UNL     1      19.594  -0.904  39.937  1.00  0.00     0.161 HD
HETATM    8  N2  UNL     1      19.027   0.675  41.818  1.00  0.00    -0.285 N 
ATOM      9  H2  UNL     1      18.631   0.952  40.920  1.00  0.00     0.188 HD
HETATM   10  N3  UNL     1      18.778   1.479  42.939  1.00  0.00    -0.300 N 
ATOM     11  H3  UNL     1      18.210   2.322  42.852  1.00  0.00     0.187 HD
ENDROOT
BRANCH   6  12
HETATM   12  C6  UNL     1      20.791  -2.428  40.809  1.00  0.00     0.075 C 
HETATM   13  C7  UNL     1      21.760  -2.457  39.636  1.00  0.00     0.031 C 
HETATM   14  C8  UNL     1      19.798  -3.574  40.588  1.00  0.00     0.031 C 
ENDBRANCH   6  12
TORSDOF 1
ENDMDL
MODEL 3
REMARK VINA RESULT: -4.566671406      4.036      5.540
REMARK  1 active torsions:
REMARK  status: ('A' for Active; 'I' for Inactive)
REMARK    1  A    between atoms: N1_6  and  C6_8 
ROOT
HETATM    1  C1  UNL     1      20.881  -1.735  39.685  1.00  0.00     0.044 C 
HETATM    2  C2  UNL     1      21.126  -2.823  40.381  1.00  0.00     0.038 A 
HETATM    3  C3  UNL     1      20.292  -3.201  41.515  1.00  0.00     0.034 A 
HETATM    4  C4  UNL     1      20.532  -4.311  42.234  1.00  0.00     0.052 A 
HETATM    5  C5  UNL     1      21.646  -5.198  41.913  1.00  0.00     0.116 A 
HETATM    6  N1  UNL     1      21.908  -6.275  42.583  1.00  0.00    -0.371 N 
ATOM      7  H1  UNL     1      22.705  -6.844  42.297  1.00  0.00     0.161 HD
HETATM    8  N2  UNL     1      22.458  -4.827  40.805  1.00  0.00    -0.285 N 
ATOM      9  H2  UNL     1      23.245  -5.426  40.555  1.00  0.00     0.188 HD
HETATM   10  N3  UNL     1      22.223  -3.673  40.044  1.00  0.00    -0.300 N 
ATOM     11  H3  UNL     1      22.829  -3.443  39.257  1.00  0.00     0.187 HD
ENDROOT
BRANCH   6  12
HETATM   12  C6  UNL     1      21.126  -6.707  43.713  1.00  0.00     0.075 C 
HETATM   13  C7  UNL     1      21.771  -6.288  45.025  1.00  0.00     0.031 C 
HETATM   14  C8  UNL     1      21.144  -8.239  43.682  1.00  0.00     0.031 C 
ENDBRANCH   6  12
TORSDOF 1
ENDMDL
MODEL 4
REMARK VINA RESULT: -4.555190217      1.199      1.436
REMARK  1 active torsions:
REMARK  status: ('A' for Active; 'I' for Inactive)
REMARK    1  A    between atoms: N1_6  and  C6_8 
ROOT
HETATM    1  C1  UNL     1      21.135  -2.105  39.854  1.00  0.00     0.044 C 
HETATM    2  C2  UNL     1      20.376  -1.507  40.746  1.00  0.00     0.038 A 
HETATM    3  C3  UNL     1      20.860  -1.239  42.094  1.00  0.00     0.034 A 
HETATM    4  C4  UNL     1      20.094  -0.628  43.015  1.00  0.00     0.052 A 
HETATM    5  C5  UNL     1      18.732  -0.200  42.707  1.00  0.00     0.116 A 
HETATM    6  N1  UNL     1      17.966   0.390  43.567  1.00  0.00    -0.371 N 
ATOM      7  H1  UNL     1      17.026   0.660  43.277  1.00  0.00     0.161 HD
HETATM    8  N2  UNL     1      18.263  -0.463  41.390  1.00  0.00    -0.285 N 
ATOM      9  H2  UNL     1      17.316  -0.177  41.143  1.00  0.00     0.188 HD
HETATM   10  N3  UNL     1      19.048  -1.099  40.417  1.00  0.00    -0.300 N 
ATOM     11  H3  UNL     1      18.673  -1.268  39.484  1.00  0.00     0.187 HD
ENDROOT
BRANCH   6  12
HETATM   12  C6  UNL     1      18.380   0.686  44.915  1.00  0.00     0.075 C 
HETATM   13  C7  UNL     1      17.695  -0.230  45.918  1.00  0.00     0.031 C 
HETATM   14  C8  UNL     1      17.887   2.107  45.209  1.00  0.00     0.031 C 
ENDBRANCH   6  12
TORSDOF 1
ENDMDL
MODEL 5
REMARK VINA RESULT: -4.461603920      1.522      1.955
REMARK  1 active torsions:
REMARK  status: ('A' for Active; 'I' for Inactive)
REMARK    1  A    between atoms: N1_6  and  C6_8 
ROOT
HETATM    1  C1  UNL     1      22.227  -2.755  39.386  1.00  0.00     0.044 C 
HETATM    2  C2  UNL     1      21.639  -2.150  40.395  1.00  0.00     0.038 A 
HETATM    3  C3  UNL     1      20.340  -1.508  40.240  1.00  0.00     0.034 A 
HETATM    4  C4  UNL     1      19.729  -0.887  41.264  1.00  0.00     0.052 A 
HETATM    5  C5  UNL     1      20.340  -0.824  42.588  1.00  0.00     0.116 A 
HETATM    6  N1  UNL     1      19.782  -0.235  43.597  1.00  0.00    -0.371 N 
ATOM      7  H1  UNL     1      20.272  -0.234  44.492  1.00  0.00     0.161 HD
HETATM    8  N2  UNL     1      21.608  -1.452  42.736  1.00  0.00    -0.285 N 
ATOM      9  H2  UNL     1      22.062  -1.427  43.649  1.00  0.00     0.188 HD
HETATM   10  N3  UNL     1      22.260  -2.105  41.680  1.00  0.00    -0.300 N 
ATOM     11  H3  UNL     1      23.169  -2.543  41.829  1.00  0.00     0.187 HD
ENDROOT
BRANCH   6  12
HETATM   12  C6  UNL     1      18.500   0.418  43.514  1.00  0.00     0.075 C 
HETATM   13  C7  UNL     1      18.520   1.766  44.219  1.00  0.00     0.031 C 
HETATM   14  C8  UNL     1      17.520  -0.470  44.288  1.00  0.00     0.031 C 
ENDBRANCH   6  12
TORSDOF 1
ENDMDL
