MODEL 1
REMARK VINA RESULT: -5.790986435      0.000      0.000
REMARK  8 active torsions:
REMARK  status: ('A' for Active; 'I' for Inactive)
REMARK    1  A    between atoms: C1_2  and  C2_4 
REMARK    2  A    between atoms: C2_4  and  C3_5 
REMARK    3  A    between atoms: C4_6  and  C5_7 
REMARK    4  A    between atoms: C7_9  and  C8_10 
REMARK       I    between atoms: C8_10  and  N1_12 
REMARK    5  A    between atoms: N1_12  and  C9_14 
REMARK    6  A    between atoms: C9_14  and  C10_15 
REMARK    7  A    between atoms: C10_15  and  C11_16 
REMARK    8  A    between atoms: C11_16  and  C12_17 
ROOT
HETATM    1  C8  UNL     1      35.194  10.171  20.552  1.00  0.00     0.222 C 
HETATM    2  O3  UNL     1      35.700   9.194  21.154  1.00  0.00    -0.273 OA
HETATM    3  N1  UNL     1      34.132  10.908  21.163  1.00  0.00    -0.361 N 
ATOM      4  H1  UNL     1      33.725  11.701  20.667  1.00  0.00     0.162 HD
ENDROOT
BRANCH   1   5
HETATM    5  C7  UNL     1      35.703  10.563  19.199  1.00  0.00     0.086 A 
HETATM    6  C5  UNL     1      34.960  11.551  18.401  1.00  0.00     0.022 A 
HETATM    7  C6  UNL     1      34.823  10.055  18.069  1.00  0.00     0.024 A 
BRANCH   6   8
HETATM    8  C4  UNL     1      35.684  12.398  17.443  1.00  0.00    -0.025 C 
HETATM    9  C3  UNL     1      36.080  13.622  17.703  1.00  0.00    -0.020 C 
BRANCH   9  10
HETATM   10  C2  UNL     1      36.814  14.436  16.686  1.00  0.00     0.140 C 
BRANCH  10  11
HETATM   11  C1  UNL     1      36.923  15.817  17.201  1.00  0.00     0.176 C 
HETATM   12  O1  UNL     1      36.523  16.097  18.380  1.00  0.00    -0.648 OA
HETATM   13  O2  UNL     1      37.456  16.853  16.443  1.00  0.00    -0.648 OA
ENDBRANCH  10  11
ENDBRANCH   9  10
ENDBRANCH   6   8
ENDBRANCH   1   5
BRANCH   3  14
HETATM   14  C9  UNL     1      33.623  10.552  22.469  1.00  0.00     0.122 C 
BRANCH  14  15
HETATM   15  C10 UNL     1      32.301   9.827  22.394  1.00  0.00     0.020 C 
BRANCH  15  16
HETATM   16  C11 UNL     1      32.544   8.349  22.405  1.00  0.00     0.006 C 
BRANCH  16  17
HETATM   17  C12 UNL     1      31.672   7.623  21.388  1.00  0.00    -0.013 C 
HETATM   18  C13 UNL     1      32.152   8.114  20.016  1.00  0.00     0.006 C 
HETATM   19  C14 UNL     1      33.236   7.070  19.719  1.00  0.00     0.020 C 
HETATM   20  C15 UNL     1      32.509   5.790  20.066  1.00  0.00     0.082 C 
HETATM   21 CL1  UNL     1      31.222   5.546  18.867  1.00  0.00    -0.125 Cl
HETATM   22  C16 UNL     1      31.862   6.145  21.389  1.00  0.00     0.024 C 
ENDBRANCH  16  17
ENDBRANCH  15  16
ENDBRANCH  14  15
ENDBRANCH   3  14
TORSDOF 8
ENDMDL
MODEL 2
REMARK VINA RESULT: -5.766334871      2.896      3.998
REMARK  8 active torsions:
REMARK  status: ('A' for Active; 'I' for Inactive)
REMARK    1  A    between atoms: C1_2  and  C2_4 
REMARK    2  A    between atoms: C2_4  and  C3_5 
REMARK    3  A    between atoms: C4_6  and  C5_7 
REMARK    4  A    between atoms: C7_9  and  C8_10 
REMARK       I    between atoms: C8_10  and  N1_12 
REMARK    5  A    between atoms: N1_12  and  C9_14 
REMARK    6  A    between atoms: C9_14  and  C10_15 
REMARK    7  A    between atoms: C10_15  and  C11_16 
REMARK    8  A    between atoms: C11_16  and  C12_17 
ROOT
HETATM    1  C8  UNL     1      34.275  10.271  20.138  1.00  0.00     0.222 C 
HETATM    2  O3  UNL     1      33.407   9.397  19.900  1.00  0.00    -0.273 OA
HETATM    3  N1  UNL     1      34.301  10.915  21.414  1.00  0.00    -0.361 N 
ATOM      4  H1  UNL     1      35.009  11.625  21.600  1.00  0.00     0.162 HD
ENDROOT
BRANCH   1   5
HETATM    5  C7  UNL     1      35.279  10.635  19.089  1.00  0.00     0.086 A 
HETATM    6  C5  UNL     1      34.938  11.647  18.076  1.00  0.00     0.022 A 
HETATM    7  C6  UNL     1      34.883  10.155  17.702  1.00  0.00     0.024 A 
BRANCH   6   8
HETATM    8  C4  UNL     1      36.006  12.461  17.478  1.00  0.00    -0.025 C 
HETATM    9  C3  UNL     1      35.867  13.725  17.156  1.00  0.00    -0.020 C 
BRANCH   9  10
HETATM   10  C2  UNL     1      36.992  14.502  16.550  1.00  0.00     0.140 C 
BRANCH  10  11
HETATM   11  C1  UNL     1      36.985  15.854  17.146  1.00  0.00     0.176 C 
HETATM   12  O1  UNL     1      37.456  16.845  16.496  1.00  0.00    -0.648 OA
HETATM   13  O2  UNL     1      36.476  16.105  18.415  1.00  0.00    -0.648 OA
ENDBRANCH  10  11
ENDBRANCH   9  10
ENDBRANCH   6   8
ENDBRANCH   1   5
BRANCH   3  14
HETATM   14  C9  UNL     1      33.345  10.581  22.446  1.00  0.00     0.122 C 
BRANCH  14  15
HETATM   15  C10 UNL     1      33.874   9.545  23.408  1.00  0.00     0.020 C 
BRANCH  15  16
HETATM   16  C11 UNL     1      33.410   9.872  24.795  1.00  0.00     0.006 C 
BRANCH  16  17
HETATM   17  C12 UNL     1      31.918  10.180  24.836  1.00  0.00    -0.013 C 
HETATM   18  C13 UNL     1      31.236   8.849  25.174  1.00  0.00     0.006 C 
HETATM   19  C14 UNL     1      31.220   8.934  26.705  1.00  0.00     0.020 C 
HETATM   20  C15 UNL     1      30.705  10.341  26.913  1.00  0.00     0.082 C 
HETATM   21 CL1  UNL     1      29.012  10.392  26.379  1.00  0.00    -0.125 Cl
HETATM   22  C16 UNL     1      31.537  11.128  25.921  1.00  0.00     0.024 C 
ENDBRANCH  16  17
ENDBRANCH  15  16
ENDBRANCH  14  15
ENDBRANCH   3  14
TORSDOF 8
ENDMDL
MODEL 3
REMARK VINA RESULT: -5.745302887      4.349      8.068
REMARK  8 active torsions:
REMARK  status: ('A' for Active; 'I' for Inactive)
REMARK    1  A    between atoms: C1_2  and  C2_4 
REMARK    2  A    between atoms: C2_4  and  C3_5 
REMARK    3  A    between atoms: C4_6  and  C5_7 
REMARK    4  A    between atoms: C7_9  and  C8_10 
REMARK       I    between atoms: C8_10  and  N1_12 
REMARK    5  A    between atoms: N1_12  and  C9_14 
REMARK    6  A    between atoms: C9_14  and  C10_15 
REMARK    7  A    between atoms: C10_15  and  C11_16 
REMARK    8  A    between atoms: C11_16  and  C12_17 
ROOT
HETATM    1  C8  UNL     1      35.696  13.381  14.805  1.00  0.00     0.222 C 
HETATM    2  O3  UNL     1      34.504  13.086  14.545  1.00  0.00    -0.273 OA
HETATM    3  N1  UNL     1      36.515  13.974  13.795  1.00  0.00    -0.361 N 
ATOM      4  H1  UNL     1      37.483  14.210  14.012  1.00  0.00     0.162 HD
ENDROOT
BRANCH   1   5
HETATM    5  C7  UNL     1      36.254  13.113  16.168  1.00  0.00     0.086 A 
HETATM    6  C5  UNL     1      35.509  13.550  17.359  1.00  0.00     0.022 A 
HETATM    7  C6  UNL     1      36.714  14.376  16.876  1.00  0.00     0.024 A 
BRANCH   6   8
HETATM    8  C4  UNL     1      35.653  12.806  18.617  1.00  0.00    -0.025 C 
HETATM    9  C3  UNL     1      35.261  11.564  18.780  1.00  0.00    -0.020 C 
BRANCH   9  10
HETATM   10  C2  UNL     1      35.436  10.858  20.086  1.00  0.00     0.140 C 
BRANCH  10  11
HETATM   11  C1  UNL     1      34.093  10.518  20.604  1.00  0.00     0.176 C 
HETATM   12  O1  UNL     1      33.486   9.478  20.182  1.00  0.00    -0.648 OA
HETATM   13  O2  UNL     1      33.443  11.298  21.553  1.00  0.00    -0.648 OA
ENDBRANCH  10  11
ENDBRANCH   9  10
ENDBRANCH   6   8
ENDBRANCH   1   5
BRANCH   3  14
HETATM   14  C9  UNL     1      36.001  14.246  12.470  1.00  0.00     0.122 C 
BRANCH  14  15
HETATM   15  C10 UNL     1      36.531  13.282  11.438  1.00  0.00     0.020 C 
BRANCH  15  16
HETATM   16  C11 UNL     1      37.480  12.325  12.092  1.00  0.00     0.006 C 
BRANCH  16  17
HETATM   17  C12 UNL     1      37.063  10.875  11.878  1.00  0.00    -0.013 C 
HETATM   18  C13 UNL     1      37.881  10.062  12.888  1.00  0.00     0.006 C 
HETATM   19  C14 UNL     1      36.926  10.081  14.088  1.00  0.00     0.020 C 
HETATM   20  C15 UNL     1      35.615   9.722  13.423  1.00  0.00     0.082 C 
HETATM   21 CL1  UNL     1      35.719   8.035  12.878  1.00  0.00    -0.125 Cl
HETATM   22  C16 UNL     1      35.631  10.616  12.199  1.00  0.00     0.024 C 
ENDBRANCH  16  17
ENDBRANCH  15  16
ENDBRANCH  14  15
ENDBRANCH   3  14
TORSDOF 8
ENDMDL
MODEL 4
REMARK VINA RESULT: -5.635314392      2.533      2.943
REMARK  8 active torsions:
REMARK  status: ('A' for Active; 'I' for Inactive)
REMARK    1  A    between atoms: C1_2  and  C2_4 
REMARK    2  A    between atoms: C2_4  and  C3_5 
REMARK    3  A    between atoms: C4_6  and  C5_7 
REMARK    4  A    between atoms: C7_9  and  C8_10 
REMARK       I    between atoms: C8_10  and  N1_12 
REMARK    5  A    between atoms: N1_12  and  C9_14 
REMARK    6  A    between atoms: C9_14  and  C10_15 
REMARK    7  A    between atoms: C10_15  and  C11_16 
REMARK    8  A    between atoms: C11_16  and  C12_17 
ROOT
HETATM    1  C8  UNL     1      34.960  11.508  19.243  1.00  0.00     0.222 C 
HETATM    2  O3  UNL     1      35.562  10.438  18.984  1.00  0.00    -0.273 OA
HETATM    3  N1  UNL     1      34.245  11.639  20.473  1.00  0.00    -0.361 N 
ATOM      4  H1  UNL     1      33.757  12.511  20.676  1.00  0.00     0.162 HD
ENDROOT
BRANCH   1   5
HETATM    5  C7  UNL     1      34.993  12.641  18.265  1.00  0.00     0.086 A 
HETATM    6  C5  UNL     1      36.268  13.024  17.636  1.00  0.00     0.022 A 
HETATM    7  C6  UNL     1      35.719  13.863  18.803  1.00  0.00     0.024 A 
BRANCH   6   8
HETATM    8  C4  UNL     1      36.261  13.630  16.297  1.00  0.00    -0.025 C 
HETATM    9  C3  UNL     1      36.251  12.938  15.182  1.00  0.00    -0.020 C 
BRANCH   9  10
HETATM   10  C2  UNL     1      36.244  13.613  13.848  1.00  0.00     0.140 C 
BRANCH  10  11
HETATM   11  C1  UNL     1      34.974  13.273  13.172  1.00  0.00     0.176 C 
HETATM   12  O1  UNL     1      34.250  12.317  13.609  1.00  0.00    -0.648 OA
HETATM   13  O2  UNL     1      34.519  13.962  12.055  1.00  0.00    -0.648 OA
ENDBRANCH  10  11
ENDBRANCH   9  10
ENDBRANCH   6   8
ENDBRANCH   1   5
BRANCH   3  14
HETATM   14  C9  UNL     1      34.198  10.561  21.436  1.00  0.00     0.122 C 
BRANCH  14  15
HETATM   15  C10 UNL     1      32.795  10.061  21.673  1.00  0.00     0.020 C 
BRANCH  15  16
HETATM   16  C11 UNL     1      32.464   9.011  20.657  1.00  0.00     0.006 C 
BRANCH  16  17
HETATM   17  C12 UNL     1      31.546   7.937  21.228  1.00  0.00    -0.013 C 
HETATM   18  C13 UNL     1      30.708   7.443  20.042  1.00  0.00     0.006 C 
HETATM   19  C14 UNL     1      31.601   6.304  19.536  1.00  0.00     0.020 C 
HETATM   20  C15 UNL     1      31.923   5.590  20.830  1.00  0.00     0.082 C 
HETATM   21 CL1  UNL     1      30.430   4.841  21.432  1.00  0.00    -0.125 Cl
HETATM   22  C16 UNL     1      32.275   6.745  21.745  1.00  0.00     0.024 C 
ENDBRANCH  16  17
ENDBRANCH  15  16
ENDBRANCH  14  15
ENDBRANCH   3  14
TORSDOF 8
ENDMDL
MODEL 5
REMARK VINA RESULT: -5.599266126      3.508      4.472
REMARK  8 active torsions:
REMARK  status: ('A' for Active; 'I' for Inactive)
REMARK    1  A    between atoms: C1_2  and  C2_4 
REMARK    2  A    between atoms: C2_4  and  C3_5 
REMARK    3  A    between atoms: C4_6  and  C5_7 
REMARK    4  A    between atoms: C7_9  and  C8_10 
REMARK       I    between atoms: C8_10  and  N1_12 
REMARK    5  A    between atoms: N1_12  and  C9_14 
REMARK    6  A    between atoms: C9_14  and  C10_15 
REMARK    7  A    between atoms: C10_15  and  C11_16 
REMARK    8  A    between atoms: C11_16  and  C12_17 
ROOT
HETATM    1  C8  UNL     1      34.219  10.481  20.418  1.00  0.00     0.222 C 
HETATM    2  O3  UNL     1      33.747   9.427  19.927  1.00  0.00    -0.273 OA
HETATM    3  N1  UNL     1      33.738  10.954  21.678  1.00  0.00    -0.361 N 
ATOM      4  H1  UNL     1      34.125  11.813  22.070  1.00  0.00     0.162 HD
ENDROOT
BRANCH   1   5
HETATM    5  C7  UNL     1      35.282  11.238  19.684  1.00  0.00     0.086 A 
HETATM    6  C5  UNL     1      34.926  12.454  18.936  1.00  0.00     0.022 A 
HETATM    7  C6  UNL     1      35.144  11.135  18.174  1.00  0.00     0.024 A 
BRANCH   6   8
HETATM    8  C4  UNL     1      35.926  13.516  18.761  1.00  0.00    -0.025 C 
HETATM    9  C3  UNL     1      35.639  14.730  18.354  1.00  0.00    -0.020 C 
BRANCH   9  10
HETATM   10  C2  UNL     1      36.702  15.769  18.195  1.00  0.00     0.140 C 
BRANCH  10  11
HETATM   11  C1  UNL     1      37.141  15.761  16.784  1.00  0.00     0.176 C 
HETATM   12  O1  UNL     1      37.605  16.822  16.249  1.00  0.00    -0.648 OA
HETATM   13  O2  UNL     1      37.072  14.622  15.990  1.00  0.00    -0.648 OA
ENDBRANCH  10  11
ENDBRANCH   9  10
ENDBRANCH   6   8
ENDBRANCH   1   5
BRANCH   3  14
HETATM   14  C9  UNL     1      32.712  10.242  22.408  1.00  0.00     0.122 C 
BRANCH  14  15
HETATM   15  C10 UNL     1      32.917  10.311  23.902  1.00  0.00     0.020 C 
BRANCH  15  16
HETATM   16  C11 UNL     1      31.852   9.509  24.586  1.00  0.00     0.006 C 
BRANCH  16  17
HETATM   17  C12 UNL     1      31.723   9.878  26.059  1.00  0.00    -0.013 C 
HETATM   18  C13 UNL     1      30.858  11.144  26.088  1.00  0.00     0.006 C 
HETATM   19  C14 UNL     1      29.463  10.517  26.200  1.00  0.00     0.020 C 
HETATM   20  C15 UNL     1      29.689   9.500  27.296  1.00  0.00     0.082 C 
HETATM   21 CL1  UNL     1      29.979  10.379  28.812  1.00  0.00    -0.125 Cl
HETATM   22  C16 UNL     1      30.993   8.859  26.865  1.00  0.00     0.024 C 
ENDBRANCH  16  17
ENDBRANCH  15  16
ENDBRANCH  14  15
ENDBRANCH   3  14
TORSDOF 8
ENDMDL
