MODEL 1
REMARK VINA RESULT: -10.062754911      0.000      0.000
REMARK  6 active torsions:
REMARK  status: ('A' for Active; 'I' for Inactive)
REMARK    1  A    between atoms: C4_6  and  N2_7 
REMARK    2  A    between atoms: N2_7  and  C5_9 
REMARK    3  A    between atoms: C10_14  and  O1_15 
REMARK    4  A    between atoms: C12_20  and  N4_21 
REMARK    5  A    between atoms: N4_21  and  S1_23 
REMARK    6  A    between atoms: S1_23  and  C13_26 
ROOT
HETATM    1  C1  UNL     1      58.571  24.649   7.667  1.00  0.00     0.052 C 
HETATM    2  C2  UNL     1      59.804  24.943   6.890  1.00  0.00    -0.017 A 
HETATM    3  C3  UNL     1      59.785  25.194   5.534  1.00  0.00     0.099 A 
HETATM    4  N1  UNL     1      60.900  25.460   4.831  1.00  0.00    -0.350 N 
ATOM      5  H1  UNL     1      60.862  25.642   3.829  1.00  0.00     0.166 HD
HETATM    6  C4  UNL     1      62.067  25.477   5.500  1.00  0.00     0.135 A 
HETATM    7  C11 UNL     1      62.163  25.236   6.858  1.00  0.00     0.121 A 
HETATM    8  N3  UNL     1      63.181  25.194   7.745  1.00  0.00    -0.185 N 
ATOM      9  H3  UNL     1      64.165  25.353   7.528  1.00  0.00     0.184 HD
HETATM   10  C12 UNL     1      62.680  24.905   8.970  1.00  0.00     0.693 A 
HETATM   11  N7  UNL     1      61.346  24.763   8.864  1.00  0.00    -0.188 N 
ATOM     12  H7  UNL     1      60.703  24.544   9.625  1.00  0.00     0.184 HD
HETATM   13  C21 UNL     1      61.009  24.964   7.564  1.00  0.00     0.087 A 
ENDROOT
BRANCH  10  14
HETATM   14  N4  UNL     1      63.412  24.796  10.028  1.00  0.00    -0.112 N 
ATOM     15  H4  UNL     1      63.873  25.616  10.421  1.00  0.00     0.197 HD
BRANCH  14  16
HETATM   16  S1  UNL     1      63.602  23.251  10.771  1.00  0.00     0.279 S 
HETATM   17  O2  UNL     1      62.692  22.235  10.113  1.00  0.00    -0.200 OA
HETATM   18  O3  UNL     1      65.029  22.780  10.731  1.00  0.00    -0.200 OA
BRANCH  16  19
HETATM   19  C13 UNL     1      63.173  23.389  12.482  1.00  0.00     0.109 A 
HETATM   20  C14 UNL     1      64.149  23.226  13.456  1.00  0.00     0.028 A 
HETATM   21  C15 UNL     1      63.813  23.335  14.788  1.00  0.00     0.004 A 
HETATM   22  C16 UNL     1      62.500  23.604  15.116  1.00  0.00     0.032 A 
HETATM   23  C17 UNL     1      61.504  23.772  14.178  1.00  0.00     0.060 A 
HETATM   24  N5  UNL     1      60.238  24.032  14.472  1.00  0.00    -0.363 N 
HETATM   25  C20 UNL     1      61.869  23.658  12.843  1.00  0.00     0.082 A 
HETATM   26  C18 UNL     1      59.337  24.179  13.484  1.00  0.00     0.105 A 
ATOM     27  H5  UNL     1      59.947  24.121  15.446  1.00  0.00     0.165 HD
HETATM   28  C19 UNL     1      59.697  24.066  12.159  1.00  0.00     0.105 A 
HETATM   29  N6  UNL     1      60.979  23.803  11.843  1.00  0.00    -0.362 N 
ATOM     30  H6  UNL     1      61.270  23.716  10.870  1.00  0.00     0.165 HD
ENDBRANCH  16  19
ENDBRANCH  14  16
ENDBRANCH  10  14
BRANCH   6  31
HETATM   31  N2  UNL     1      63.166  25.727   4.871  1.00  0.00    -0.338 N 
ATOM     32  H2  UNL     1      63.748  26.502   5.189  1.00  0.00     0.167 HD
BRANCH  31  33
HETATM   33  C5  UNL     1      63.595  24.963   3.752  1.00  0.00     0.067 A 
HETATM   34  C6  UNL     1      64.236  23.772   3.948  1.00  0.00     0.032 A 
HETATM   35  C7  UNL     1      64.666  23.005   2.897  1.00  0.00     0.002 A 
HETATM   36  C8  UNL     1      64.436  23.463   1.619  1.00  0.00     0.003 A 
HETATM   37  C9  UNL     1      63.784  24.674   1.419  1.00  0.00     0.039 A 
HETATM   38  C10 UNL     1      63.354  25.441   2.481  1.00  0.00     0.092 A 
BRANCH  38  39
HETATM   39  O1  UNL     1      62.701  26.656   2.275  1.00  0.00    -0.358 OA
ATOM     40  H1  UNL     1      61.767  26.691   2.104  1.00  0.00     0.217 HD
ENDBRANCH  38  39
ENDBRANCH  31  33
ENDBRANCH   6  31
TORSDOF 6
ENDMDL
MODEL 2
REMARK VINA RESULT: -9.818206713      0.977      1.935
REMARK  6 active torsions:
REMARK  status: ('A' for Active; 'I' for Inactive)
REMARK    1  A    between atoms: C4_6  and  N2_7 
REMARK    2  A    between atoms: N2_7  and  C5_9 
REMARK    3  A    between atoms: C10_14  and  O1_15 
REMARK    4  A    between atoms: C12_20  and  N4_21 
REMARK    5  A    between atoms: N4_21  and  S1_23 
REMARK    6  A    between atoms: S1_23  and  C13_26 
ROOT
HETATM    1  C1  UNL     1      58.579  24.756   7.428  1.00  0.00     0.052 C 
HETATM    2  C2  UNL     1      59.811  25.029   6.642  1.00  0.00    -0.017 A 
HETATM    3  C3  UNL     1      59.783  25.300   5.290  1.00  0.00     0.099 A 
HETATM    4  N1  UNL     1      60.896  25.548   4.577  1.00  0.00    -0.350 N 
ATOM      5  H1  UNL     1      60.852  25.745   3.578  1.00  0.00     0.166 HD
HETATM    6  C4  UNL     1      62.071  25.524   5.233  1.00  0.00     0.135 A 
HETATM    7  C11 UNL     1      62.176  25.260   6.585  1.00  0.00     0.121 A 
HETATM    8  N3  UNL     1      63.202  25.179   7.460  1.00  0.00    -0.185 N 
ATOM      9  H3  UNL     1      64.188  25.316   7.234  1.00  0.00     0.184 HD
HETATM   10  C12 UNL     1      62.708  24.886   8.686  1.00  0.00     0.693 A 
HETATM   11  N7  UNL     1      61.370  24.780   8.594  1.00  0.00    -0.188 N 
ATOM     12  H7  UNL     1      60.730  24.566   9.359  1.00  0.00     0.184 HD
HETATM   13  C21 UNL     1      61.024  25.009   7.301  1.00  0.00     0.087 A 
ENDROOT
BRANCH  10  14
HETATM   14  N4  UNL     1      63.449  24.742   9.734  1.00  0.00    -0.112 N 
ATOM     15  H4  UNL     1      64.110  25.471  10.001  1.00  0.00     0.197 HD
BRANCH  14  16
HETATM   16  S1  UNL     1      63.310  23.306  10.679  1.00  0.00     0.279 S 
HETATM   17  O2  UNL     1      62.630  22.214   9.880  1.00  0.00    -0.200 OA
HETATM   18  O3  UNL     1      64.645  22.833  11.183  1.00  0.00    -0.200 OA
BRANCH  16  19
HETATM   19  C13 UNL     1      62.338  23.664  12.114  1.00  0.00     0.109 A 
HETATM   20  C14 UNL     1      61.007  24.032  11.974  1.00  0.00     0.028 A 
HETATM   21  C15 UNL     1      60.251  24.310  13.093  1.00  0.00     0.004 A 
HETATM   22  C16 UNL     1      60.850  24.212  14.332  1.00  0.00     0.032 A 
HETATM   23  C17 UNL     1      62.168  23.850  14.511  1.00  0.00     0.060 A 
HETATM   24  N5  UNL     1      62.761  23.749  15.692  1.00  0.00    -0.363 N 
HETATM   25  C20 UNL     1      62.907  23.575  13.367  1.00  0.00     0.082 A 
HETATM   26  C18 UNL     1      64.054  23.387  15.763  1.00  0.00     0.105 A 
ATOM     27  H5  UNL     1      62.237  23.946  16.545  1.00  0.00     0.165 HD
HETATM   28  C19 UNL     1      64.790  23.115  14.630  1.00  0.00     0.105 A 
HETATM   29  N6  UNL     1      64.202  23.211  13.423  1.00  0.00    -0.362 N 
ATOM     30  H6  UNL     1      64.725  23.014  12.571  1.00  0.00     0.165 HD
ENDBRANCH  16  19
ENDBRANCH  14  16
ENDBRANCH  10  14
BRANCH   6  31
HETATM   31  N2  UNL     1      63.168  25.755   4.595  1.00  0.00    -0.338 N 
ATOM     32  H2  UNL     1      63.760  26.529   4.898  1.00  0.00     0.167 HD
BRANCH  31  33
HETATM   33  C5  UNL     1      63.584  24.972   3.484  1.00  0.00     0.067 A 
HETATM   34  C6  UNL     1      64.217  23.779   3.692  1.00  0.00     0.032 A 
HETATM   35  C7  UNL     1      64.633  22.993   2.649  1.00  0.00     0.002 A 
HETATM   36  C8  UNL     1      64.399  23.435   1.367  1.00  0.00     0.003 A 
HETATM   37  C9  UNL     1      63.755  24.649   1.153  1.00  0.00     0.039 A 
HETATM   38  C10 UNL     1      63.339  25.434   2.208  1.00  0.00     0.092 A 
BRANCH  38  39
HETATM   39  O1  UNL     1      62.694  26.652   1.988  1.00  0.00    -0.358 OA
ATOM     40  H1  UNL     1      61.866  26.695   1.525  1.00  0.00     0.217 HD
ENDBRANCH  38  39
ENDBRANCH  31  33
ENDBRANCH   6  31
TORSDOF 6
ENDMDL
MODEL 3
REMARK VINA RESULT: -9.436466196      2.653      9.485
REMARK  6 active torsions:
REMARK  status: ('A' for Active; 'I' for Inactive)
REMARK    1  A    between atoms: C4_6  and  N2_7 
REMARK    2  A    between atoms: N2_7  and  C5_9 
REMARK    3  A    between atoms: C10_14  and  O1_15 
REMARK    4  A    between atoms: C12_20  and  N4_21 
REMARK    5  A    between atoms: N4_21  and  S1_23 
REMARK    6  A    between atoms: S1_23  and  C13_26 
ROOT
HETATM    1  C1  UNL     1      57.465  26.111  14.673  1.00  0.00     0.052 C 
HETATM    2  C2  UNL     1      58.857  25.717  15.017  1.00  0.00    -0.017 A 
HETATM    3  C3  UNL     1      59.451  26.059  16.214  1.00  0.00     0.099 A 
HETATM    4  N1  UNL     1      60.709  25.703  16.525  1.00  0.00    -0.350 N 
ATOM      5  H1  UNL     1      61.129  25.969  17.416  1.00  0.00     0.166 HD
HETATM    6  C4  UNL     1      61.395  24.985  15.617  1.00  0.00     0.135 A 
HETATM    7  C11 UNL     1      60.865  24.606  14.398  1.00  0.00     0.121 A 
HETATM    8  N3  UNL     1      61.327  23.905  13.340  1.00  0.00    -0.185 N 
ATOM      9  H3  UNL     1      62.256  23.492  13.260  1.00  0.00     0.184 HD
HETATM   10  C12 UNL     1      60.352  23.841  12.402  1.00  0.00     0.693 A 
HETATM   11  N7  UNL     1      59.272  24.500  12.860  1.00  0.00    -0.188 N 
ATOM     12  H7  UNL     1      58.386  24.617  12.369  1.00  0.00     0.184 HD
HETATM   13  C21 UNL     1      59.573  24.979  14.095  1.00  0.00     0.087 A 
ENDROOT
BRANCH  10  14
HETATM   14  N4  UNL     1      60.495  23.234  11.271  1.00  0.00    -0.112 N 
ATOM     15  H4  UNL     1      59.897  22.443  11.032  1.00  0.00     0.197 HD
BRANCH  14  16
HETATM   16  S1  UNL     1      61.706  23.772  10.167  1.00  0.00     0.279 S 
HETATM   17  O2  UNL     1      62.543  24.866  10.797  1.00  0.00    -0.200 OA
HETATM   18  O3  UNL     1      62.583  22.644   9.700  1.00  0.00    -0.200 OA
BRANCH  16  19
HETATM   19  C13 UNL     1      60.911  24.413   8.722  1.00  0.00     0.109 A 
HETATM   20  C14 UNL     1      59.528  24.361   8.612  1.00  0.00     0.028 A 
HETATM   21  C15 UNL     1      58.910  24.861   7.485  1.00  0.00     0.004 A 
HETATM   22  C16 UNL     1      59.697  25.403   6.490  1.00  0.00     0.032 A 
HETATM   23  C17 UNL     1      61.072  25.473   6.563  1.00  0.00     0.060 A 
HETATM   24  N5  UNL     1      61.845  25.990   5.619  1.00  0.00    -0.363 N 
HETATM   25  C20 UNL     1      61.669  24.962   7.709  1.00  0.00     0.082 A 
HETATM   26  C18 UNL     1      63.179  26.012   5.783  1.00  0.00     0.105 A 
ATOM     27  H5  UNL     1      61.428  26.371   4.769  1.00  0.00     0.165 HD
HETATM   28  C19 UNL     1      63.774  25.506   6.918  1.00  0.00     0.105 A 
HETATM   29  N6  UNL     1      63.003  24.977   7.887  1.00  0.00    -0.362 N 
ATOM     30  H6  UNL     1      63.420  24.597   8.737  1.00  0.00     0.165 HD
ENDBRANCH  16  19
ENDBRANCH  14  16
ENDBRANCH  10  14
BRANCH   6  31
HETATM   31  N2  UNL     1      62.607  24.619  15.869  1.00  0.00    -0.338 N 
ATOM     32  H2  UNL     1      63.375  25.172  15.489  1.00  0.00     0.167 HD
BRANCH  31  33
HETATM   33  C5  UNL     1      62.910  23.474  16.654  1.00  0.00     0.067 A 
HETATM   34  C6  UNL     1      62.692  23.498  18.003  1.00  0.00     0.032 A 
HETATM   35  C7  UNL     1      62.971  22.416  18.797  1.00  0.00     0.002 A 
HETATM   36  C8  UNL     1      63.483  21.286  18.201  1.00  0.00     0.003 A 
HETATM   37  C9  UNL     1      63.705  21.260  16.829  1.00  0.00     0.039 A 
HETATM   38  C10 UNL     1      63.423  22.353  16.036  1.00  0.00     0.092 A 
BRANCH  38  39
HETATM   39  O1  UNL     1      63.648  22.322  14.660  1.00  0.00    -0.358 OA
ATOM     40  H1  UNL     1      63.470  21.542  14.148  1.00  0.00     0.217 HD
ENDBRANCH  38  39
ENDBRANCH  31  33
ENDBRANCH   6  31
TORSDOF 6
ENDMDL
MODEL 4
REMARK VINA RESULT: -9.378632541      2.879      9.229
REMARK  6 active torsions:
REMARK  status: ('A' for Active; 'I' for Inactive)
REMARK    1  A    between atoms: C4_6  and  N2_7 
REMARK    2  A    between atoms: N2_7  and  C5_9 
REMARK    3  A    between atoms: C10_14  and  O1_15 
REMARK    4  A    between atoms: C12_20  and  N4_21 
REMARK    5  A    between atoms: N4_21  and  S1_23 
REMARK    6  A    between atoms: S1_23  and  C13_26 
ROOT
HETATM    1  C1  UNL     1      57.089  27.189  14.262  1.00  0.00     0.052 C 
HETATM    2  C2  UNL     1      58.160  26.328  14.831  1.00  0.00    -0.017 A 
HETATM    3  C3  UNL     1      58.605  26.457  16.130  1.00  0.00     0.099 A 
HETATM    4  N1  UNL     1      59.573  25.679  16.645  1.00  0.00    -0.350 N 
ATOM      5  H1  UNL     1      59.887  25.793  17.608  1.00  0.00     0.166 HD
HETATM    6  C4  UNL     1      60.113  24.746  15.841  1.00  0.00     0.135 A 
HETATM    7  C11 UNL     1      59.719  24.558  14.529  1.00  0.00     0.121 A 
HETATM    8  N3  UNL     1      60.087  23.718  13.538  1.00  0.00    -0.185 N 
ATOM      9  H3  UNL     1      60.806  22.998  13.606  1.00  0.00     0.184 HD
HETATM   10  C12 UNL     1      59.345  23.990  12.438  1.00  0.00     0.693 A 
HETATM   11  N7  UNL     1      58.506  25.002  12.727  1.00  0.00    -0.188 N 
ATOM     12  H7  UNL     1      57.828  25.420  12.090  1.00  0.00     0.184 HD
HETATM   13  C21 UNL     1      58.724  25.365  14.017  1.00  0.00     0.087 A 
ENDROOT
BRANCH  10  14
HETATM   14  N4  UNL     1      59.469  23.351  11.323  1.00  0.00    -0.112 N 
ATOM     15  H4  UNL     1      58.767  22.668  11.041  1.00  0.00     0.197 HD
BRANCH  14  16
HETATM   16  S1  UNL     1      60.833  23.663  10.314  1.00  0.00     0.279 S 
HETATM   17  O2  UNL     1      61.776  24.636  10.990  1.00  0.00    -0.200 OA
HETATM   18  O3  UNL     1      61.560  22.400   9.944  1.00  0.00    -0.200 OA
BRANCH  16  19
HETATM   19  C13 UNL     1      60.264  24.371   8.795  1.00  0.00     0.109 A 
HETATM   20  C14 UNL     1      58.910  24.360   8.491  1.00  0.00     0.028 A 
HETATM   21  C15 UNL     1      58.469  24.912   7.307  1.00  0.00     0.004 A 
HETATM   22  C16 UNL     1      59.400  25.464   6.451  1.00  0.00     0.032 A 
HETATM   23  C17 UNL     1      60.752  25.492   6.718  1.00  0.00     0.060 A 
HETATM   24  N5  UNL     1      61.661  26.018   5.910  1.00  0.00    -0.363 N 
HETATM   25  C20 UNL     1      61.170  24.930   7.918  1.00  0.00     0.082 A 
HETATM   26  C18 UNL     1      62.960  25.998   6.260  1.00  0.00     0.105 A 
ATOM     27  H5  UNL     1      61.377  26.437   5.024  1.00  0.00     0.165 HD
HETATM   28  C19 UNL     1      63.377  25.440   7.449  1.00  0.00     0.105 A 
HETATM   29  N6  UNL     1      62.465  24.903   8.281  1.00  0.00    -0.362 N 
ATOM     30  H6  UNL     1      62.750  24.485   9.167  1.00  0.00     0.165 HD
ENDBRANCH  16  19
ENDBRANCH  14  16
ENDBRANCH  10  14
BRANCH   6  31
HETATM   31  N2  UNL     1      61.046  23.974  16.287  1.00  0.00    -0.338 N 
ATOM     32  H2  UNL     1      60.794  23.047  16.630  1.00  0.00     0.167 HD
BRANCH  31  33
HETATM   33  C5  UNL     1      62.411  24.367  16.318  1.00  0.00     0.067 A 
HETATM   34  C6  UNL     1      62.833  25.285  17.238  1.00  0.00     0.032 A 
HETATM   35  C7  UNL     1      64.141  25.691  17.302  1.00  0.00     0.002 A 
HETATM   36  C8  UNL     1      65.036  25.149  16.408  1.00  0.00     0.003 A 
HETATM   37  C9  UNL     1      64.608  24.215  15.472  1.00  0.00     0.039 A 
HETATM   38  C10 UNL     1      63.291  23.811  15.413  1.00  0.00     0.092 A 
BRANCH  38  39
HETATM   39  O1  UNL     1      62.866  22.873  14.471  1.00  0.00    -0.358 OA
ATOM     40  H1  UNL     1      63.101  21.956  14.547  1.00  0.00     0.217 HD
ENDBRANCH  38  39
ENDBRANCH  31  33
ENDBRANCH   6  31
TORSDOF 6
ENDMDL
MODEL 5
REMARK VINA RESULT: -9.373820619      3.087      9.182
REMARK  6 active torsions:
REMARK  status: ('A' for Active; 'I' for Inactive)
REMARK    1  A    between atoms: C4_6  and  N2_7 
REMARK    2  A    between atoms: N2_7  and  C5_9 
REMARK    3  A    between atoms: C10_14  and  O1_15 
REMARK    4  A    between atoms: C12_20  and  N4_21 
REMARK    5  A    between atoms: N4_21  and  S1_23 
REMARK    6  A    between atoms: S1_23  and  C13_26 
ROOT
HETATM    1  C1  UNL     1      65.537  24.626  15.773  1.00  0.00     0.052 C 
HETATM    2  C2  UNL     1      64.071  24.376  15.791  1.00  0.00    -0.017 A 
HETATM    3  C3  UNL     1      63.314  24.483  16.939  1.00  0.00     0.099 A 
HETATM    4  N1  UNL     1      61.989  24.257  16.956  1.00  0.00    -0.350 N 
ATOM      5  H1  UNL     1      61.449  24.342  17.817  1.00  0.00     0.166 HD
HETATM    6  C4  UNL     1      61.402  23.915  15.795  1.00  0.00     0.135 A 
HETATM    7  C11 UNL     1      62.095  23.789  14.606  1.00  0.00     0.121 A 
HETATM    8  N3  UNL     1      61.757  23.467  13.339  1.00  0.00    -0.185 N 
ATOM      9  H3  UNL     1      60.817  23.237  13.015  1.00  0.00     0.184 HD
HETATM   10  C12 UNL     1      62.870  23.501  12.568  1.00  0.00     0.693 A 
HETATM   11  N7  UNL     1      63.916  23.842  13.342  1.00  0.00    -0.188 N 
ATOM     12  H7  UNL     1      64.883  23.946  13.034  1.00  0.00     0.184 HD
HETATM   13  C21 UNL     1      63.454  24.024  14.606  1.00  0.00     0.087 A 
ENDROOT
BRANCH  10  14
HETATM   14  N4  UNL     1      62.866  23.238  11.304  1.00  0.00    -0.112 N 
ATOM     15  H4  UNL     1      63.712  22.900  10.846  1.00  0.00     0.197 HD
BRANCH  14  16
HETATM   16  S1  UNL     1      61.415  23.462  10.397  1.00  0.00     0.279 S 
HETATM   17  O2  UNL     1      60.825  22.122  10.010  1.00  0.00    -0.200 OA
HETATM   18  O3  UNL     1      60.405  24.283  11.147  1.00  0.00    -0.200 OA
BRANCH  16  19
HETATM   19  C13 UNL     1      61.801  24.370   8.928  1.00  0.00     0.109 A 
HETATM   20  C14 UNL     1      63.116  24.718   8.654  1.00  0.00     0.028 A 
HETATM   21  C15 UNL     1      63.414  25.425   7.509  1.00  0.00     0.004 A 
HETATM   22  C16 UNL     1      62.382  25.770   6.661  1.00  0.00     0.032 A 
HETATM   23  C17 UNL     1      61.064  25.443   6.899  1.00  0.00     0.060 A 
HETATM   24  N5  UNL     1      60.058  25.764   6.098  1.00  0.00    -0.363 N 
HETATM   25  C20 UNL     1      60.791  24.730   8.060  1.00  0.00     0.082 A 
HETATM   26  C18 UNL     1      58.804  25.399   6.417  1.00  0.00     0.105 A 
ATOM     27  H5  UNL     1      60.236  26.288   5.240  1.00  0.00     0.165 HD
HETATM   28  C19 UNL     1      58.531  24.692   7.568  1.00  0.00     0.105 A 
HETATM   29  N6  UNL     1      59.541  24.358   8.393  1.00  0.00    -0.362 N 
ATOM     30  H6  UNL     1      59.364  23.834   9.250  1.00  0.00     0.165 HD
ENDBRANCH  16  19
ENDBRANCH  14  16
ENDBRANCH  10  14
BRANCH   6  31
HETATM   31  N2  UNL     1      60.132  23.687  15.758  1.00  0.00    -0.338 N 
ATOM     32  H2  UNL     1      59.793  22.757  16.002  1.00  0.00     0.167 HD
BRANCH  31  33
HETATM   33  C5  UNL     1      59.188  24.685  15.391  1.00  0.00     0.067 A 
HETATM   34  C6  UNL     1      58.978  25.757  16.212  1.00  0.00     0.032 A 
HETATM   35  C7  UNL     1      58.078  26.741  15.895  1.00  0.00     0.002 A 
HETATM   36  C8  UNL     1      57.377  26.627  14.716  1.00  0.00     0.003 A 
HETATM   37  C9  UNL     1      57.591  25.538  13.879  1.00  0.00     0.039 A 
HETATM   38  C10 UNL     1      58.498  24.551  14.205  1.00  0.00     0.092 A 
BRANCH  38  39
HETATM   39  O1  UNL     1      58.708  23.459  13.362  1.00  0.00    -0.358 OA
ATOM     40  H1  UNL     1      58.192  23.337  12.574  1.00  0.00     0.217 HD
ENDBRANCH  38  39
ENDBRANCH  31  33
ENDBRANCH   6  31
TORSDOF 6
ENDMDL
