MODEL 1
REMARK VINA RESULT: -6.842384230      0.000      0.000
REMARK  11 active torsions:
REMARK  status: ('A' for Active; 'I' for Inactive)
REMARK    1  A    between atoms: C2_2  and  C3_3 
REMARK    2  A    between atoms: C3_3  and  N1_4 
REMARK    3  A    between atoms: N1_4  and  C4_5 
REMARK    4  A    between atoms: N1_4  and  C9_22 
REMARK    5  A    between atoms: C4_5  and  C5_6 
REMARK       I    between atoms: C5_6  and  N2_8 
REMARK    6  A    between atoms: N4_15  and  N5_17 
REMARK    7  A    between atoms: C9_22  and  C10_23 
REMARK    8  A    between atoms: C12_25  and  O3_26 
REMARK    9  A    between atoms: O3_26  and  C13_27 
REMARK   10  A    between atoms: C13_27  and  C14_28 
REMARK   11  A    between atoms: C14_28  and  N7_29 
ROOT
HETATM    1  N1  UNL     1      -4.236   5.092  12.703  1.00  0.00    -0.356 N 
ENDROOT
BRANCH   1   2
HETATM    2  C3  UNL     1      -5.015   5.039  13.861  1.00  0.00     0.090 C 
BRANCH   2   3
HETATM    3  C2  UNL     1      -4.693   5.941  14.968  1.00  0.00     0.007 C 
HETATM    4  C1  UNL     1      -5.616   6.263  15.862  1.00  0.00     0.012 C 
ENDBRANCH   2   3
ENDBRANCH   1   2
BRANCH   1   5
HETATM    5  C4  UNL     1      -3.355   4.022  12.419  1.00  0.00     0.231 C 
BRANCH   5   6
HETATM    6  C5  UNL     1      -3.957   2.925  11.634  1.00  0.00     0.256 C 
HETATM    7  O1  UNL     1      -4.183   3.080  10.413  1.00  0.00    -0.271 OA
HETATM    8  N2  UNL     1      -4.303   1.666  12.223  1.00  0.00    -0.139 N 
HETATM    9  C6  UNL     1      -4.899   0.562  11.511  1.00  0.00     0.254 C 
HETATM   10  C8  UNL     1      -4.137   1.257  13.570  1.00  0.00     0.706 C 
HETATM   11  C7  UNL     1      -4.463  -0.598  12.302  1.00  0.00     0.254 C 
HETATM   12  O2  UNL     1      -4.318  -1.761  11.881  1.00  0.00    -0.271 OA
HETATM   13  N3  UNL     1      -4.231  -0.153  13.653  1.00  0.00    -0.157 N 
ATOM     14  H3  UNL     1      -4.152  -0.730  14.491  1.00  0.00     0.187 HD
HETATM   15  N4  UNL     1      -3.932   2.041  14.552  1.00  0.00    -0.117 N 
ATOM     16  H4  UNL     1      -3.885   3.037  14.340  1.00  0.00     0.207 HD
BRANCH  15  17
HETATM   17  N5  UNL     1      -3.766   1.681  15.871  1.00  0.00    -0.235 N 
HETATM   18  N6  UNL     1      -4.752   1.746  16.660  1.00  0.00    -0.330 N 
ATOM     19  H62 UNL     1      -5.654   2.064  16.307  1.00  0.00     0.178 HD
ATOM     20  H61 UNL     1      -4.629   1.479  17.636  1.00  0.00     0.178 HD
ATOM     21  H5  UNL     1      -2.858   1.365  16.208  1.00  0.00     0.208 HD
ENDBRANCH  15  17
ENDBRANCH   5   6
ENDBRANCH   1   5
BRANCH   1  22
HETATM   22  C9  UNL     1      -4.111   6.266  11.945  1.00  0.00     0.121 C 
BRANCH  22  23
HETATM   23  C10 UNL     1      -5.164   6.471  10.955  1.00  0.00     0.067 A 
HETATM   24  C11 UNL     1      -6.136   7.446  11.026  1.00  0.00     0.089 A 
HETATM   25  C12 UNL     1      -6.947   7.341   9.899  1.00  0.00     0.159 A 
HETATM   26  N8  UNL     1      -6.428   6.313   9.207  1.00  0.00    -0.280 N 
HETATM   27  N9  UNL     1      -5.380   5.790   9.814  1.00  0.00    -0.297 N 
ATOM     28  H8  UNL     1      -6.800   5.977   8.319  1.00  0.00     0.189 HD
ATOM     29  H9  UNL     1      -4.826   5.003   9.475  1.00  0.00     0.187 HD
BRANCH  25  30
HETATM   30  O3  UNL     1      -8.040   8.148   9.604  1.00  0.00    -0.333 OA
BRANCH  30  31
HETATM   31  C13 UNL     1      -8.711   7.972   8.392  1.00  0.00     0.207 C 
BRANCH  31  32
HETATM   32  C14 UNL     1      -8.487   9.143   7.446  1.00  0.00     0.298 C 
BRANCH  32  33
HETATM   33  N7  UNL     1      -9.269  10.267   7.881  1.00  0.00     0.082 N 
HETATM   34  C15 UNL     1      -8.501  11.485   7.695  1.00  0.00     0.309 C 
HETATM   35  C16 UNL     1     -10.542  10.322   7.205  1.00  0.00     0.309 C 
ENDBRANCH  32  33
ENDBRANCH  31  32
ENDBRANCH  30  31
ENDBRANCH  25  30
ENDBRANCH  22  23
ENDBRANCH   1  22
TORSDOF 11
ENDMDL
MODEL 2
REMARK VINA RESULT: -6.710143216      3.824      6.598
REMARK  11 active torsions:
REMARK  status: ('A' for Active; 'I' for Inactive)
REMARK    1  A    between atoms: C2_2  and  C3_3 
REMARK    2  A    between atoms: C3_3  and  N1_4 
REMARK    3  A    between atoms: N1_4  and  C4_5 
REMARK    4  A    between atoms: N1_4  and  C9_22 
REMARK    5  A    between atoms: C4_5  and  C5_6 
REMARK       I    between atoms: C5_6  and  N2_8 
REMARK    6  A    between atoms: N4_15  and  N5_17 
REMARK    7  A    between atoms: C9_22  and  C10_23 
REMARK    8  A    between atoms: C12_25  and  O3_26 
REMARK    9  A    between atoms: O3_26  and  C13_27 
REMARK   10  A    between atoms: C13_27  and  C14_28 
REMARK   11  A    between atoms: C14_28  and  N7_29 
ROOT
HETATM    1  N1  UNL     1      -5.215   5.454  14.065  1.00  0.00    -0.356 N 
ENDROOT
BRANCH   1   2
HETATM    2  C3  UNL     1      -5.906   6.582  13.618  1.00  0.00     0.090 C 
BRANCH   2   3
HETATM    3  C2  UNL     1      -5.782   6.973  12.213  1.00  0.00     0.007 C 
HETATM    4  C1  UNL     1      -6.699   7.741  11.646  1.00  0.00     0.012 C 
ENDBRANCH   2   3
ENDBRANCH   1   2
BRANCH   1   5
HETATM    5  C4  UNL     1      -5.896   4.216  14.138  1.00  0.00     0.231 C 
BRANCH   5   6
HETATM    6  C5  UNL     1      -6.087   3.702  15.510  1.00  0.00     0.256 C 
HETATM    7  O1  UNL     1      -6.726   4.378  16.348  1.00  0.00    -0.271 OA
HETATM    8  N2  UNL     1      -5.560   2.440  15.932  1.00  0.00    -0.139 N 
HETATM    9  C6  UNL     1      -5.707   1.890  17.259  1.00  0.00     0.254 C 
HETATM   10  C8  UNL     1      -4.817   1.504  15.170  1.00  0.00     0.706 C 
HETATM   11  C7  UNL     1      -5.609   0.443  17.014  1.00  0.00     0.254 C 
HETATM   12  O2  UNL     1      -6.111  -0.455  17.716  1.00  0.00    -0.271 OA
HETATM   13  N3  UNL     1      -4.829   0.246  15.818  1.00  0.00    -0.157 N 
ATOM     14  H3  UNL     1      -4.381  -0.616  15.506  1.00  0.00     0.187 HD
HETATM   15  N4  UNL     1      -4.232   1.758  14.068  1.00  0.00    -0.117 N 
ATOM     16  H4  UNL     1      -4.312   2.713  13.717  1.00  0.00     0.207 HD
BRANCH  15  17
HETATM   17  N5  UNL     1      -3.503   0.877  13.301  1.00  0.00    -0.235 N 
HETATM   18  N6  UNL     1      -4.109   0.069  12.541  1.00  0.00    -0.330 N 
ATOM     19  H62 UNL     1      -5.128   0.081  12.508  1.00  0.00     0.178 HD
ATOM     20  H61 UNL     1      -3.569  -0.583  11.973  1.00  0.00     0.178 HD
ATOM     21  H5  UNL     1      -2.485   0.877  13.345  1.00  0.00     0.208 HD
ENDBRANCH  15  17
ENDBRANCH   5   6
ENDBRANCH   1   5
BRANCH   1  22
HETATM   22  C9  UNL     1      -3.954   5.548  14.672  1.00  0.00     0.121 C 
BRANCH  22  23
HETATM   23  C10 UNL     1      -2.872   4.891  13.943  1.00  0.00     0.067 A 
HETATM   24  C11 UNL     1      -2.770   4.826  12.571  1.00  0.00     0.089 A 
HETATM   25  C12 UNL     1      -1.603   4.139  12.248  1.00  0.00     0.159 A 
HETATM   26  N8  UNL     1      -1.061   3.825  13.436  1.00  0.00    -0.280 N 
HETATM   27  N9  UNL     1      -1.794   4.259  14.443  1.00  0.00    -0.297 N 
ATOM     28  H8  UNL     1      -0.186   3.311  13.547  1.00  0.00     0.189 HD
ATOM     29  H9  UNL     1      -1.580   4.136  15.433  1.00  0.00     0.187 HD
BRANCH  25  30
HETATM   30  O3  UNL     1      -1.147   3.866  10.963  1.00  0.00    -0.333 OA
BRANCH  30  31
HETATM   31  C13 UNL     1      -1.001   4.916  10.054  1.00  0.00     0.207 C 
BRANCH  31  32
HETATM   32  C14 UNL     1       0.456   5.325   9.890  1.00  0.00     0.298 C 
BRANCH  32  33
HETATM   33  N7  UNL     1       1.304   4.301  10.432  1.00  0.00     0.082 N 
HETATM   34  C15 UNL     1       2.067   3.693   9.357  1.00  0.00     0.309 C 
HETATM   35  C16 UNL     1       2.157   4.813  11.476  1.00  0.00     0.309 C 
ENDBRANCH  32  33
ENDBRANCH  31  32
ENDBRANCH  30  31
ENDBRANCH  25  30
ENDBRANCH  22  23
ENDBRANCH   1  22
TORSDOF 11
ENDMDL
MODEL 3
REMARK VINA RESULT: -6.602806106      3.810      6.914
REMARK  11 active torsions:
REMARK  status: ('A' for Active; 'I' for Inactive)
REMARK    1  A    between atoms: C2_2  and  C3_3 
REMARK    2  A    between atoms: C3_3  and  N1_4 
REMARK    3  A    between atoms: N1_4  and  C4_5 
REMARK    4  A    between atoms: N1_4  and  C9_22 
REMARK    5  A    between atoms: C4_5  and  C5_6 
REMARK       I    between atoms: C5_6  and  N2_8 
REMARK    6  A    between atoms: N4_15  and  N5_17 
REMARK    7  A    between atoms: C9_22  and  C10_23 
REMARK    8  A    between atoms: C12_25  and  O3_26 
REMARK    9  A    between atoms: O3_26  and  C13_27 
REMARK   10  A    between atoms: C13_27  and  C14_28 
REMARK   11  A    between atoms: C14_28  and  N7_29 
ROOT
HETATM    1  N1  UNL     1      -4.812   5.480  13.804  1.00  0.00    -0.356 N 
ENDROOT
BRANCH   1   2
HETATM    2  C3  UNL     1      -5.507   6.621  13.398  1.00  0.00     0.090 C 
BRANCH   2   3
HETATM    3  C2  UNL     1      -5.508   6.975  11.978  1.00  0.00     0.007 C 
HETATM    4  C1  UNL     1      -6.446   7.770  11.485  1.00  0.00     0.012 C 
ENDBRANCH   2   3
ENDBRANCH   1   2
BRANCH   1   5
HETATM    5  C4  UNL     1      -5.508   4.252  13.906  1.00  0.00     0.231 C 
BRANCH   5   6
HETATM    6  C5  UNL     1      -5.747   3.796  15.290  1.00  0.00     0.256 C 
HETATM    7  O1  UNL     1      -6.313   4.555  16.110  1.00  0.00    -0.271 OA
HETATM    8  N2  UNL     1      -5.351   2.498  15.746  1.00  0.00    -0.139 N 
HETATM    9  C6  UNL     1      -5.550   2.001  17.086  1.00  0.00     0.254 C 
HETATM   10  C8  UNL     1      -4.708   1.472  15.008  1.00  0.00     0.706 C 
HETATM   11  C7  UNL     1      -5.599   0.546  16.879  1.00  0.00     0.254 C 
HETATM   12  O2  UNL     1      -6.188  -0.278  17.604  1.00  0.00    -0.271 OA
HETATM   13  N3  UNL     1      -4.846   0.239  15.689  1.00  0.00    -0.157 N 
ATOM     14  H3  UNL     1      -4.489  -0.671  15.400  1.00  0.00     0.187 HD
HETATM   15  N4  UNL     1      -4.103   1.637  13.900  1.00  0.00    -0.117 N 
ATOM     16  H4  UNL     1      -4.087   2.585  13.525  1.00  0.00     0.207 HD
BRANCH  15  17
HETATM   17  N5  UNL     1      -3.470   0.667  13.156  1.00  0.00    -0.235 N 
HETATM   18  N6  UNL     1      -4.158  -0.118  12.445  1.00  0.00    -0.330 N 
ATOM     19  H62 UNL     1      -5.174  -0.021  12.433  1.00  0.00     0.178 HD
ATOM     20  H61 UNL     1      -3.689  -0.836  11.894  1.00  0.00     0.178 HD
ATOM     21  H5  UNL     1      -2.454   0.583  13.180  1.00  0.00     0.208 HD
ENDBRANCH  15  17
ENDBRANCH   5   6
ENDBRANCH   1   5
BRANCH   1  22
HETATM   22  C9  UNL     1      -3.521   5.549  14.347  1.00  0.00     0.121 C 
BRANCH  22  23
HETATM   23  C10 UNL     1      -2.480   4.926  13.535  1.00  0.00     0.067 A 
HETATM   24  C11 UNL     1      -2.256   5.187  12.201  1.00  0.00     0.089 A 
HETATM   25  C12 UNL     1      -1.174   4.420  11.778  1.00  0.00     0.159 A 
HETATM   26  N8  UNL     1      -0.800   3.737  12.872  1.00  0.00    -0.280 N 
HETATM   27  N9  UNL     1      -1.557   4.022  13.914  1.00  0.00    -0.297 N 
ATOM     28  H8  UNL     1      -0.023   3.076  12.895  1.00  0.00     0.189 HD
ATOM     29  H9  UNL     1      -1.459   3.625  14.849  1.00  0.00     0.187 HD
BRANCH  25  30
HETATM   30  O3  UNL     1      -0.640   4.403  10.494  1.00  0.00    -0.333 OA
BRANCH  30  31
HETATM   31  C13 UNL     1       0.577   5.044  10.253  1.00  0.00     0.207 C 
BRANCH  31  32
HETATM   32  C14 UNL     1       1.751   4.078  10.328  1.00  0.00     0.298 C 
BRANCH  32  33
HETATM   33  N7  UNL     1       2.477   4.112   9.088  1.00  0.00     0.082 N 
HETATM   34  C15 UNL     1       3.756   4.765   9.301  1.00  0.00     0.309 C 
HETATM   35  C16 UNL     1       2.631   2.793   8.527  1.00  0.00     0.309 C 
ENDBRANCH  32  33
ENDBRANCH  31  32
ENDBRANCH  30  31
ENDBRANCH  25  30
ENDBRANCH  22  23
ENDBRANCH   1  22
TORSDOF 11
ENDMDL
MODEL 4
REMARK VINA RESULT: -6.588962658      3.610      5.338
REMARK  11 active torsions:
REMARK  status: ('A' for Active; 'I' for Inactive)
REMARK    1  A    between atoms: C2_2  and  C3_3 
REMARK    2  A    between atoms: C3_3  and  N1_4 
REMARK    3  A    between atoms: N1_4  and  C4_5 
REMARK    4  A    between atoms: N1_4  and  C9_22 
REMARK    5  A    between atoms: C4_5  and  C5_6 
REMARK       I    between atoms: C5_6  and  N2_8 
REMARK    6  A    between atoms: N4_15  and  N5_17 
REMARK    7  A    between atoms: C9_22  and  C10_23 
REMARK    8  A    between atoms: C12_25  and  O3_26 
REMARK    9  A    between atoms: O3_26  and  C13_27 
REMARK   10  A    between atoms: C13_27  and  C14_28 
REMARK   11  A    between atoms: C14_28  and  N7_29 
ROOT
HETATM    1  N1  UNL     1      -4.828   5.438  13.830  1.00  0.00    -0.356 N 
ENDROOT
BRANCH   1   2
HETATM    2  C3  UNL     1      -5.486   6.601  13.423  1.00  0.00     0.090 C 
BRANCH   2   3
HETATM    3  C2  UNL     1      -5.497   6.940  11.999  1.00  0.00     0.007 C 
HETATM    4  C1  UNL     1      -6.466   7.689  11.495  1.00  0.00     0.012 C 
ENDBRANCH   2   3
ENDBRANCH   1   2
BRANCH   1   5
HETATM    5  C4  UNL     1      -5.563   4.233  13.929  1.00  0.00     0.231 C 
BRANCH   5   6
HETATM    6  C5  UNL     1      -5.793   3.767  15.312  1.00  0.00     0.256 C 
HETATM    7  O1  UNL     1      -6.370   4.513  16.136  1.00  0.00    -0.271 OA
HETATM    8  N2  UNL     1      -5.374   2.474  15.762  1.00  0.00    -0.139 N 
HETATM    9  C6  UNL     1      -5.563   1.968  17.100  1.00  0.00     0.254 C 
HETATM   10  C8  UNL     1      -4.716   1.462  15.019  1.00  0.00     0.706 C 
HETATM   11  C7  UNL     1      -5.589   0.513  16.887  1.00  0.00     0.254 C 
HETATM   12  O2  UNL     1      -6.163  -0.323  17.609  1.00  0.00    -0.271 OA
HETATM   13  N3  UNL     1      -4.832   0.224  15.695  1.00  0.00    -0.157 N 
ATOM     14  H3  UNL     1      -4.460  -0.679  15.401  1.00  0.00     0.187 HD
HETATM   15  N4  UNL     1      -4.115   1.642  13.911  1.00  0.00    -0.117 N 
ATOM     16  H4  UNL     1      -4.114   2.592  13.540  1.00  0.00     0.207 HD
BRANCH  15  17
HETATM   17  N5  UNL     1      -3.465   0.686  13.162  1.00  0.00    -0.235 N 
HETATM   18  N6  UNL     1      -4.138  -0.074  12.408  1.00  0.00    -0.330 N 
ATOM     19  H62 UNL     1      -5.151   0.034  12.366  1.00  0.00     0.178 HD
ATOM     20  H61 UNL     1      -3.657  -0.781  11.854  1.00  0.00     0.178 HD
ATOM     21  H5  UNL     1      -2.452   0.591  13.217  1.00  0.00     0.208 HD
ENDBRANCH  15  17
ENDBRANCH   5   6
ENDBRANCH   1   5
BRANCH   1  22
HETATM   22  C9  UNL     1      -3.537   5.467  14.377  1.00  0.00     0.121 C 
BRANCH  22  23
HETATM   23  C10 UNL     1      -2.500   4.884  13.532  1.00  0.00     0.067 A 
HETATM   24  C11 UNL     1      -2.337   5.143  12.188  1.00  0.00     0.089 A 
HETATM   25  C12 UNL     1      -1.238   4.421  11.730  1.00  0.00     0.159 A 
HETATM   26  N8  UNL     1      -0.794   3.764  12.814  1.00  0.00    -0.280 N 
HETATM   27  N9  UNL     1      -1.524   4.024  13.882  1.00  0.00    -0.297 N 
ATOM     28  H8  UNL     1       0.012   3.139  12.813  1.00  0.00     0.189 HD
ATOM     29  H9  UNL     1      -1.374   3.640  14.815  1.00  0.00     0.187 HD
BRANCH  25  30
HETATM   30  O3  UNL     1      -0.751   4.416  10.428  1.00  0.00    -0.333 OA
BRANCH  30  31
HETATM   31  C13 UNL     1      -1.222   5.367   9.520  1.00  0.00     0.207 C 
BRANCH  31  32
HETATM   32  C14 UNL     1      -2.046   4.730   8.409  1.00  0.00     0.298 C 
BRANCH  32  33
HETATM   33  N7  UNL     1      -3.344   5.344   8.365  1.00  0.00     0.082 N 
HETATM   34  C15 UNL     1      -3.262   6.676   8.937  1.00  0.00     0.309 C 
HETATM   35  C16 UNL     1      -3.877   5.364   7.025  1.00  0.00     0.309 C 
ENDBRANCH  32  33
ENDBRANCH  31  32
ENDBRANCH  30  31
ENDBRANCH  25  30
ENDBRANCH  22  23
ENDBRANCH   1  22
TORSDOF 11
ENDMDL
MODEL 5
REMARK VINA RESULT: -6.393207640      3.544      6.333
REMARK  11 active torsions:
REMARK  status: ('A' for Active; 'I' for Inactive)
REMARK    1  A    between atoms: C2_2  and  C3_3 
REMARK    2  A    between atoms: C3_3  and  N1_4 
REMARK    3  A    between atoms: N1_4  and  C4_5 
REMARK    4  A    between atoms: N1_4  and  C9_22 
REMARK    5  A    between atoms: C4_5  and  C5_6 
REMARK       I    between atoms: C5_6  and  N2_8 
REMARK    6  A    between atoms: N4_15  and  N5_17 
REMARK    7  A    between atoms: C9_22  and  C10_23 
REMARK    8  A    between atoms: C12_25  and  O3_26 
REMARK    9  A    between atoms: O3_26  and  C13_27 
REMARK   10  A    between atoms: C13_27  and  C14_28 
REMARK   11  A    between atoms: C14_28  and  N7_29 
ROOT
HETATM    1  N1  UNL     1      -3.050   6.357  10.987  1.00  0.00    -0.356 N 
ENDROOT
BRANCH   1   2
HETATM    2  C3  UNL     1      -2.352   7.152  10.076  1.00  0.00     0.090 C 
BRANCH   2   3
HETATM    3  C2  UNL     1      -2.941   7.396   8.759  1.00  0.00     0.007 C 
HETATM    4  C1  UNL     1      -2.663   6.595   7.741  1.00  0.00     0.012 C 
ENDBRANCH   2   3
ENDBRANCH   1   2
BRANCH   1   5
HETATM    5  C4  UNL     1      -2.614   5.030  11.215  1.00  0.00     0.231 C 
BRANCH   5   6
HETATM    6  C5  UNL     1      -3.588   3.991  10.826  1.00  0.00     0.256 C 
HETATM    7  O1  UNL     1      -4.099   4.007   9.683  1.00  0.00    -0.271 OA
HETATM    8  N2  UNL     1      -3.984   2.943  11.718  1.00  0.00    -0.139 N 
HETATM    9  C6  UNL     1      -4.935   1.906  11.398  1.00  0.00     0.254 C 
HETATM   10  C8  UNL     1      -3.542   2.713  13.046  1.00  0.00     0.706 C 
HETATM   11  C7  UNL     1      -4.519   0.810  12.285  1.00  0.00     0.254 C 
HETATM   12  O2  UNL     1      -4.701  -0.405  12.084  1.00  0.00    -0.271 OA
HETATM   13  N3  UNL     1      -3.861   1.389  13.429  1.00  0.00    -0.157 N 
ATOM     14  H3  UNL     1      -3.667   0.940  14.325  1.00  0.00     0.187 HD
HETATM   15  N4  UNL     1      -2.947   3.569  13.777  1.00  0.00    -0.117 N 
ATOM     16  H4  UNL     1      -2.782   4.486  13.364  1.00  0.00     0.207 HD
BRANCH  15  17
HETATM   17  N5  UNL     1      -2.505   3.382  15.067  1.00  0.00    -0.235 N 
HETATM   18  N6  UNL     1      -1.432   3.935  15.441  1.00  0.00    -0.330 N 
ATOM     19  H62 UNL     1      -0.911   4.511  14.781  1.00  0.00     0.178 HD
ATOM     20  H61 UNL     1      -1.105   3.797  16.397  1.00  0.00     0.178 HD
ATOM     21  H5  UNL     1      -3.038   2.803  15.715  1.00  0.00     0.208 HD
ENDBRANCH  15  17
ENDBRANCH   5   6
ENDBRANCH   1   5
BRANCH   1  22
HETATM   22  C9  UNL     1      -4.300   6.735  11.498  1.00  0.00     0.121 C 
BRANCH  22  23
HETATM   23  C10 UNL     1      -4.467   6.522  12.932  1.00  0.00     0.067 A 
HETATM   24  C11 UNL     1      -5.471   5.776  13.509  1.00  0.00     0.089 A 
HETATM   25  C12 UNL     1      -5.292   5.789  14.890  1.00  0.00     0.159 A 
HETATM   26  N8  UNL     1      -4.194   6.539  15.078  1.00  0.00    -0.280 N 
HETATM   27  N9  UNL     1      -3.696   6.979  13.937  1.00  0.00    -0.297 N 
ATOM     28  H8  UNL     1      -3.792   6.745  15.993  1.00  0.00     0.189 HD
ATOM     29  H9  UNL     1      -2.867   7.564  13.835  1.00  0.00     0.187 HD
BRANCH  25  30
HETATM   30  O3  UNL     1      -6.101   5.150  15.823  1.00  0.00    -0.333 OA
BRANCH  30  31
HETATM   31  C13 UNL     1      -6.274   3.767  15.742  1.00  0.00     0.207 C 
BRANCH  31  32
HETATM   32  C14 UNL     1      -7.029   3.219  16.946  1.00  0.00     0.298 C 
BRANCH  32  33
HETATM   33  N7  UNL     1      -6.379   2.027  17.415  1.00  0.00     0.082 N 
HETATM   34  C15 UNL     1      -7.297   0.907  17.301  1.00  0.00     0.309 C 
HETATM   35  C16 UNL     1      -5.143   1.784  16.714  1.00  0.00     0.309 C 
ENDBRANCH  32  33
ENDBRANCH  31  32
ENDBRANCH  30  31
ENDBRANCH  25  30
ENDBRANCH  22  23
ENDBRANCH   1  22
TORSDOF 11
ENDMDL
