MODEL 1
REMARK VINA RESULT: -6.636669325      0.000      0.000
REMARK  5 active torsions:
REMARK  status: ('A' for Active; 'I' for Inactive)
REMARK    1  A    between atoms: C2_2  and  C3_3 
REMARK    2  A    between atoms: C3_3  and  N1_4 
REMARK    3  A    between atoms: N1_4  and  O1_5 
REMARK    4  A    between atoms: O1_5  and  C4_6 
REMARK    5  A    between atoms: C4_6  and  C5_7 
ROOT
HETATM    1  C5  UNL     1      -2.141  30.618  -5.510  1.00  0.00     0.025 C 
HETATM    2  C6  UNL     1      -2.968  29.504  -4.871  1.00  0.00     0.051 C 
HETATM    3  C7  UNL     1      -3.719  30.101  -3.724  1.00  0.00     0.188 C 
HETATM    4  C8  UNL     1      -2.842  30.785  -2.712  1.00  0.00     0.043 C 
HETATM    5  C9  UNL     1      -2.051  31.923  -3.348  1.00  0.00     0.035 C 
HETATM    6  C10 UNL     1      -3.083  32.901  -3.896  1.00  0.00     0.043 C 
HETATM    7  C11 UNL     1      -3.951  32.151  -4.882  1.00  0.00     0.188 C 
HETATM    8  C12 UNL     1      -3.135  31.630  -6.039  1.00  0.00     0.051 C 
HETATM    9  N2  UNL     1      -4.653  31.078  -4.246  1.00  0.00    -0.067 N 
ATOM     10  H21 UNL     1      -5.290  31.416  -3.525  1.00  0.00     0.278 HD
ATOM     11  H22 UNL     1      -5.340  30.653  -4.869  1.00  0.00     0.278 HD
HETATM   12  C13 UNL     1      -1.305  31.297  -4.499  1.00  0.00    -0.005 C 
HETATM   13  N3  UNL     1      -0.049  31.382  -4.535  1.00  0.00    -0.405 N 
ATOM     14  H31 UNL     1       0.527  31.851  -3.837  1.00  0.00     0.155 HD
ATOM     15  H32 UNL     1       0.455  30.958  -5.314  1.00  0.00     0.155 HD
ENDROOT
BRANCH   1  16
HETATM   16  C4  UNL     1      -1.264  30.055  -6.586  1.00  0.00     0.211 C 
BRANCH  16  17
HETATM   17  O1  UNL     1      -0.568  31.030  -7.284  1.00  0.00    -0.285 OA
BRANCH  17  18
HETATM   18  N1  UNL     1      -0.548  30.832  -8.597  1.00  0.00    -0.098 NA
BRANCH  18  19
HETATM   19  C3  UNL     1      -1.520  31.628  -9.316  1.00  0.00     0.169 C 
BRANCH  19  20
HETATM   20  C2  UNL     1      -1.771  31.054 -10.675  1.00  0.00    -0.019 C 
HETATM   21  C1  UNL     1      -2.990  31.096 -11.188  1.00  0.00     0.008 C 
ENDBRANCH  19  20
ENDBRANCH  18  19
ENDBRANCH  17  18
ENDBRANCH  16  17
ENDBRANCH   1  16
TORSDOF 5
ENDMDL
MODEL 2
REMARK VINA RESULT: -6.552627442      1.541      2.561
REMARK  5 active torsions:
REMARK  status: ('A' for Active; 'I' for Inactive)
REMARK    1  A    between atoms: C2_2  and  C3_3 
REMARK    2  A    between atoms: C3_3  and  N1_4 
REMARK    3  A    between atoms: N1_4  and  O1_5 
REMARK    4  A    between atoms: O1_5  and  C4_6 
REMARK    5  A    between atoms: C4_6  and  C5_7 
ROOT
HETATM    1  C5  UNL     1      -2.288  30.280  -5.364  1.00  0.00     0.025 C 
HETATM    2  C6  UNL     1      -2.577  31.469  -6.280  1.00  0.00     0.051 C 
HETATM    3  C7  UNL     1      -3.120  32.572  -5.430  1.00  0.00     0.188 C 
HETATM    4  C8  UNL     1      -4.334  32.185  -4.631  1.00  0.00     0.043 C 
HETATM    5  C9  UNL     1      -4.028  31.025  -3.689  1.00  0.00     0.035 C 
HETATM    6  C10 UNL     1      -2.923  31.517  -2.761  1.00  0.00     0.043 C 
HETATM    7  C11 UNL     1      -1.744  31.917  -3.620  1.00  0.00     0.188 C 
HETATM    8  C12 UNL     1      -1.214  30.741  -4.401  1.00  0.00     0.051 C 
HETATM    9  N2  UNL     1      -2.086  32.989  -4.504  1.00  0.00    -0.067 N 
ATOM     10  H21 UNL     1      -2.350  33.832  -3.995  1.00  0.00     0.278 HD
ATOM     11  H22 UNL     1      -1.267  33.357  -4.989  1.00  0.00     0.278 HD
HETATM   12  C13 UNL     1      -3.482  29.929  -4.569  1.00  0.00    -0.005 C 
HETATM   13  N3  UNL     1      -4.056  28.809  -4.579  1.00  0.00    -0.405 N 
ATOM     14  H31 UNL     1      -4.881  28.567  -4.029  1.00  0.00     0.155 HD
ATOM     15  H32 UNL     1      -3.687  28.067  -5.174  1.00  0.00     0.155 HD
ENDROOT
BRANCH   1  16
HETATM   16  C4  UNL     1      -1.864  29.096  -6.176  1.00  0.00     0.211 C 
BRANCH  16  17
HETATM   17  O1  UNL     1      -2.663  28.888  -7.290  1.00  0.00    -0.285 OA
BRANCH  17  18
HETATM   18  N1  UNL     1      -1.976  28.730  -8.415  1.00  0.00    -0.098 NA
BRANCH  18  19
HETATM   19  C3  UNL     1      -2.296  29.711  -9.431  1.00  0.00     0.169 C 
BRANCH  19  20
HETATM   20  C2  UNL     1      -1.211  30.738  -9.533  1.00  0.00    -0.019 C 
HETATM   21  C1  UNL     1      -1.354  31.759 -10.361  1.00  0.00     0.008 C 
ENDBRANCH  19  20
ENDBRANCH  18  19
ENDBRANCH  17  18
ENDBRANCH  16  17
ENDBRANCH   1  16
TORSDOF 5
ENDMDL
MODEL 3
REMARK VINA RESULT: -6.467930287      1.201      1.945
REMARK  5 active torsions:
REMARK  status: ('A' for Active; 'I' for Inactive)
REMARK    1  A    between atoms: C2_2  and  C3_3 
REMARK    2  A    between atoms: C3_3  and  N1_4 
REMARK    3  A    between atoms: N1_4  and  O1_5 
REMARK    4  A    between atoms: O1_5  and  C4_6 
REMARK    5  A    between atoms: C4_6  and  C5_7 
ROOT
HETATM    1  C5  UNL     1      -2.109  30.525  -5.877  1.00  0.00     0.025 C 
HETATM    2  C6  UNL     1      -0.959  30.626  -4.875  1.00  0.00     0.051 C 
HETATM    3  C7  UNL     1      -1.504  31.233  -3.622  1.00  0.00     0.188 C 
HETATM    4  C8  UNL     1      -2.172  32.564  -3.831  1.00  0.00     0.043 C 
HETATM    5  C9  UNL     1      -3.345  32.448  -4.799  1.00  0.00     0.035 C 
HETATM    6  C10 UNL     1      -4.320  31.464  -4.163  1.00  0.00     0.043 C 
HETATM    7  C11 UNL     1      -3.586  30.158  -3.952  1.00  0.00     0.188 C 
HETATM    8  C12 UNL     1      -3.119  29.578  -5.264  1.00  0.00     0.051 C 
HETATM    9  N2  UNL     1      -2.481  30.323  -3.058  1.00  0.00    -0.067 N 
ATOM     10  H21 UNL     1      -2.783  30.618  -2.130  1.00  0.00     0.278 HD
ATOM     11  H22 UNL     1      -2.062  29.427  -2.804  1.00  0.00     0.278 HD
HETATM   12  C13 UNL     1      -2.770  31.833  -6.050  1.00  0.00    -0.005 C 
HETATM   13  N3  UNL     1      -2.880  32.451  -7.142  1.00  0.00    -0.405 N 
ATOM     14  H31 UNL     1      -3.337  33.355  -7.262  1.00  0.00     0.155 HD
ATOM     15  H32 UNL     1      -2.491  32.035  -7.989  1.00  0.00     0.155 HD
ENDROOT
BRANCH   1  16
HETATM   16  C4  UNL     1      -1.598  30.044  -7.199  1.00  0.00     0.211 C 
BRANCH  16  17
HETATM   17  O1  UNL     1      -0.414  30.657  -7.578  1.00  0.00    -0.285 OA
BRANCH  17  18
HETATM   18  N1  UNL     1      -0.486  31.274  -8.751  1.00  0.00    -0.098 NA
BRANCH  18  19
HETATM   19  C3  UNL     1      -1.269  30.557  -9.735  1.00  0.00     0.169 C 
BRANCH  19  20
HETATM   20  C2  UNL     1      -2.000  31.512 -10.627  1.00  0.00    -0.019 C 
HETATM   21  C1  UNL     1      -3.265  31.279 -10.937  1.00  0.00     0.008 C 
ENDBRANCH  19  20
ENDBRANCH  18  19
ENDBRANCH  17  18
ENDBRANCH  16  17
ENDBRANCH   1  16
TORSDOF 5
ENDMDL
MODEL 4
REMARK VINA RESULT: -6.271297570      1.201      1.403
REMARK  5 active torsions:
REMARK  status: ('A' for Active; 'I' for Inactive)
REMARK    1  A    between atoms: C2_2  and  C3_3 
REMARK    2  A    between atoms: C3_3  and  N1_4 
REMARK    3  A    between atoms: N1_4  and  O1_5 
REMARK    4  A    between atoms: O1_5  and  C4_6 
REMARK    5  A    between atoms: C4_6  and  C5_7 
ROOT
HETATM    1  C5  UNL     1      -2.117  30.811  -4.502  1.00  0.00     0.025 C 
HETATM    2  C6  UNL     1      -2.924  29.973  -3.511  1.00  0.00     0.051 C 
HETATM    3  C7  UNL     1      -3.943  30.872  -2.886  1.00  0.00     0.188 C 
HETATM    4  C8  UNL     1      -3.358  32.091  -2.229  1.00  0.00     0.043 C 
HETATM    5  C9  UNL     1      -2.590  32.944  -3.233  1.00  0.00     0.035 C 
HETATM    6  C10 UNL     1      -3.600  33.354  -4.298  1.00  0.00     0.043 C 
HETATM    7  C11 UNL     1      -4.173  32.090  -4.901  1.00  0.00     0.188 C 
HETATM    8  C12 UNL     1      -3.096  31.266  -5.564  1.00  0.00     0.051 C 
HETATM    9  N2  UNL     1      -4.861  31.311  -3.917  1.00  0.00    -0.067 N 
ATOM     10  H21 UNL     1      -5.659  31.812  -3.526  1.00  0.00     0.278 HD
ATOM     11  H22 UNL     1      -5.364  30.529  -4.337  1.00  0.00     0.278 HD
HETATM   12  C13 UNL     1      -1.573  32.017  -3.848  1.00  0.00    -0.005 C 
HETATM   13  N3  UNL     1      -0.350  32.311  -3.772  1.00  0.00    -0.405 N 
ATOM     14  H31 UNL     1       0.026  33.145  -3.321  1.00  0.00     0.155 HD
ATOM     15  H32 UNL     1       0.338  31.684  -4.189  1.00  0.00     0.155 HD
ENDROOT
BRANCH   1  16
HETATM   16  C4  UNL     1      -0.994  29.998  -5.067  1.00  0.00     0.211 C 
BRANCH  16  17
HETATM   17  O1  UNL     1      -0.338  30.630  -6.112  1.00  0.00    -0.285 OA
BRANCH  17  18
HETATM   18  N1  UNL     1       0.061  29.800  -7.069  1.00  0.00    -0.098 NA
BRANCH  18  19
HETATM   19  C3  UNL     1      -0.870  29.702  -8.174  1.00  0.00     0.169 C 
BRANCH  19  20
HETATM   20  C2  UNL     1      -1.021  31.026  -8.856  1.00  0.00    -0.019 C 
HETATM   21  C1  UNL     1      -2.223  31.437  -9.224  1.00  0.00     0.008 C 
ENDBRANCH  19  20
ENDBRANCH  18  19
ENDBRANCH  17  18
ENDBRANCH  16  17
ENDBRANCH   1  16
TORSDOF 5
ENDMDL
MODEL 5
REMARK VINA RESULT: -6.266984553      2.097      2.748
REMARK  5 active torsions:
REMARK  status: ('A' for Active; 'I' for Inactive)
REMARK    1  A    between atoms: C2_2  and  C3_3 
REMARK    2  A    between atoms: C3_3  and  N1_4 
REMARK    3  A    between atoms: N1_4  and  O1_5 
REMARK    4  A    between atoms: O1_5  and  C4_6 
REMARK    5  A    between atoms: C4_6  and  C5_7 
ROOT
HETATM    1  C5  UNL     1      -3.343  30.990  -3.692  1.00  0.00     0.025 C 
HETATM    2  C6  UNL     1      -4.040  31.318  -2.372  1.00  0.00     0.051 C 
HETATM    3  C7  UNL     1      -3.960  32.799  -2.175  1.00  0.00     0.188 C 
HETATM    4  C8  UNL     1      -2.558  33.342  -2.209  1.00  0.00     0.043 C 
HETATM    5  C9  UNL     1      -1.884  33.048  -3.544  1.00  0.00     0.035 C 
HETATM    6  C10 UNL     1      -2.737  33.729  -4.607  1.00  0.00     0.043 C 
HETATM    7  C11 UNL     1      -4.137  33.164  -4.506  1.00  0.00     0.188 C 
HETATM    8  C12 UNL     1      -4.146  31.680  -4.775  1.00  0.00     0.051 C 
HETATM    9  N2  UNL     1      -4.719  33.443  -3.229  1.00  0.00    -0.067 N 
ATOM     10  H21 UNL     1      -4.817  34.445  -3.066  1.00  0.00     0.278 HD
ATOM     11  H22 UNL     1      -5.706  33.186  -3.197  1.00  0.00     0.278 HD
HETATM   12  C13 UNL     1      -1.978  31.553  -3.719  1.00  0.00    -0.005 C 
HETATM   13  N3  UNL     1      -0.922  30.886  -3.872  1.00  0.00    -0.405 N 
ATOM     14  H31 UNL     1       0.021  31.275  -3.890  1.00  0.00     0.155 HD
ATOM     15  H32 UNL     1      -0.986  29.874  -3.990  1.00  0.00     0.155 HD
ENDROOT
BRANCH   1  16
HETATM   16  C4  UNL     1      -3.275  29.507  -3.882  1.00  0.00     0.211 C 
BRANCH  16  17
HETATM   17  O1  UNL     1      -3.423  29.122  -5.206  1.00  0.00    -0.285 OA
BRANCH  17  18
HETATM   18  N1  UNL     1      -2.328  28.582  -5.728  1.00  0.00    -0.098 NA
BRANCH  18  19
HETATM   19  C3  UNL     1      -2.112  28.939  -7.115  1.00  0.00     0.169 C 
BRANCH  19  20
HETATM   20  C2  UNL     1      -1.529  30.313  -7.222  1.00  0.00    -0.019 C 
HETATM   21  C1  UNL     1      -2.163  31.239  -7.922  1.00  0.00     0.008 C 
ENDBRANCH  19  20
ENDBRANCH  18  19
ENDBRANCH  17  18
ENDBRANCH  16  17
ENDBRANCH   1  16
TORSDOF 5
ENDMDL
