MODEL 1
REMARK VINA RESULT: -5.745296738      0.000      0.000
REMARK  7 active torsions:
REMARK  status: ('A' for Active; 'I' for Inactive)
REMARK    1  A    between atoms: N1_1  and  C1_5 
REMARK    2  A    between atoms: C1_5  and  C2_6 
REMARK    3  A    between atoms: C2_6  and  C3_7 
REMARK    4  A    between atoms: C3_7  and  C4_8 
REMARK    5  A    between atoms: C4_8  and  N2_9 
REMARK    6  A    between atoms: N2_9  and  C5_11 
REMARK    7  A    between atoms: C7_13  and  N3_14 
ROOT
HETATM    1  C5  UNL     1      -1.816  30.929  -5.523  1.00  0.00     0.087 C 
HETATM    2  C6  UNL     1      -2.923  29.894  -5.814  1.00  0.00     0.058 C 
HETATM    3  C7  UNL     1      -3.477  29.576  -4.417  1.00  0.00     0.185 C 
HETATM    4  C8  UNL     1      -4.154  30.832  -3.934  1.00  0.00     0.037 C 
HETATM    5  C9  UNL     1      -3.214  31.984  -3.874  1.00  0.00    -0.006 C 
HETATM    6  C10 UNL     1      -3.841  33.228  -3.298  1.00  0.00     0.005 C 
HETATM    7  C11 UNL     1      -4.336  34.188  -4.325  1.00  0.00     0.000 C 
HETATM    8  C12 UNL     1      -4.516  33.576  -5.696  1.00  0.00     0.000 C 
HETATM    9  C13 UNL     1      -3.266  32.904  -6.188  1.00  0.00     0.007 C 
HETATM   10  C14 UNL     1      -2.444  32.241  -5.149  1.00  0.00     0.012 C 
ENDROOT
BRANCH   1  11
HETATM   11  N2  UNL     1      -0.799  30.916  -6.486  1.00  0.00    -0.397 N 
ATOM     12  H2  UNL     1       0.019  31.509  -6.347  1.00  0.00     0.159 HD
BRANCH  11  13
HETATM   13  C4  UNL     1      -0.871  30.116  -7.634  1.00  0.00     0.056 C 
BRANCH  13  14
HETATM   14  C3  UNL     1      -1.031  30.963  -8.896  1.00  0.00     0.046 C 
BRANCH  14  15
HETATM   15  C2  UNL     1      -2.439  31.180  -9.322  1.00  0.00     0.032 C 
BRANCH  15  16
HETATM   16  C1  UNL     1      -2.736  30.070 -10.346  1.00  0.00     0.230 C 
BRANCH  16  17
HETATM   17  N1  UNL     1      -3.554  29.040  -9.741  1.00  0.00    -0.079 N 
ATOM     18  H13 UNL     1      -4.421  29.417  -9.358  1.00  0.00     0.274 HD
ATOM     19  H12 UNL     1      -3.958  28.415 -10.439  1.00  0.00     0.274 HD
ATOM     20  H11 UNL     1      -3.017  28.531  -9.039  1.00  0.00     0.274 HD
ENDBRANCH  16  17
ENDBRANCH  15  16
ENDBRANCH  14  15
ENDBRANCH  13  14
ENDBRANCH  11  13
ENDBRANCH   1  11
BRANCH   3  21
HETATM   21  N3  UNL     1      -4.363  28.456  -4.422  1.00  0.00    -0.075 N 
ATOM     22  H33 UNL     1      -4.835  28.365  -5.322  1.00  0.00     0.274 HD
ATOM     23  H32 UNL     1      -3.844  27.578  -4.421  1.00  0.00     0.274 HD
ATOM     24  H31 UNL     1      -5.035  28.486  -3.656  1.00  0.00     0.274 HD
ENDBRANCH   3  21
TORSDOF 7
ENDMDL
MODEL 2
REMARK VINA RESULT: -5.419501914      1.945      3.402
REMARK  7 active torsions:
REMARK  status: ('A' for Active; 'I' for Inactive)
REMARK    1  A    between atoms: N1_1  and  C1_5 
REMARK    2  A    between atoms: C1_5  and  C2_6 
REMARK    3  A    between atoms: C2_6  and  C3_7 
REMARK    4  A    between atoms: C3_7  and  C4_8 
REMARK    5  A    between atoms: C4_8  and  N2_9 
REMARK    6  A    between atoms: N2_9  and  C5_11 
REMARK    7  A    between atoms: C7_13  and  N3_14 
ROOT
HETATM    1  C5  UNL     1      -3.530  32.815  -5.481  1.00  0.00     0.087 C 
HETATM    2  C6  UNL     1      -4.537  32.270  -4.447  1.00  0.00     0.058 C 
HETATM    3  C7  UNL     1      -3.829  32.523  -3.107  1.00  0.00     0.185 C 
HETATM    4  C8  UNL     1      -3.772  34.018  -2.934  1.00  0.00     0.037 C 
HETATM    5  C9  UNL     1      -3.038  34.681  -4.046  1.00  0.00    -0.006 C 
HETATM    6  C10 UNL     1      -2.880  36.167  -3.846  1.00  0.00     0.005 C 
HETATM    7  C11 UNL     1      -3.904  36.986  -4.553  1.00  0.00     0.000 C 
HETATM    8  C12 UNL     1      -5.131  36.206  -4.967  1.00  0.00     0.000 C 
HETATM    9  C13 UNL     1      -4.786  34.999  -5.793  1.00  0.00     0.007 C 
HETATM   10  C14 UNL     1      -3.523  34.315  -5.431  1.00  0.00     0.012 C 
ENDROOT
BRANCH   1  11
HETATM   11  N2  UNL     1      -3.640  32.182  -6.726  1.00  0.00    -0.397 N 
ATOM     12  H2  UNL     1      -4.549  32.155  -7.188  1.00  0.00     0.159 HD
BRANCH  11  13
HETATM   13  C4  UNL     1      -2.541  31.583  -7.356  1.00  0.00     0.056 C 
BRANCH  13  14
HETATM   14  C3  UNL     1      -1.783  30.663  -6.401  1.00  0.00     0.046 C 
BRANCH  14  15
HETATM   15  C2  UNL     1      -2.402  29.324  -6.207  1.00  0.00     0.032 C 
BRANCH  15  16
HETATM   16  C1  UNL     1      -2.698  29.222  -4.700  1.00  0.00     0.230 C 
BRANCH  16  17
HETATM   17  N1  UNL     1      -4.089  28.883  -4.486  1.00  0.00    -0.079 N 
ATOM     18  H13 UNL     1      -4.705  29.373  -5.135  1.00  0.00     0.274 HD
ATOM     19  H12 UNL     1      -4.297  27.928  -4.774  1.00  0.00     0.274 HD
ATOM     20  H11 UNL     1      -4.347  29.054  -3.514  1.00  0.00     0.274 HD
ENDBRANCH  16  17
ENDBRANCH  15  16
ENDBRANCH  14  15
ENDBRANCH  13  14
ENDBRANCH  11  13
ENDBRANCH   1  11
BRANCH   3  21
HETATM   21  N3  UNL     1      -4.483  31.879  -2.014  1.00  0.00    -0.075 N 
ATOM     22  H33 UNL     1      -5.240  31.279  -2.340  1.00  0.00     0.274 HD
ATOM     23  H32 UNL     1      -3.882  31.171  -1.592  1.00  0.00     0.274 HD
ATOM     24  H31 UNL     1      -4.816  32.542  -1.314  1.00  0.00     0.274 HD
ENDBRANCH   3  21
TORSDOF 7
ENDMDL
MODEL 3
REMARK VINA RESULT: -5.388711957      1.152      1.437
REMARK  7 active torsions:
REMARK  status: ('A' for Active; 'I' for Inactive)
REMARK    1  A    between atoms: N1_1  and  C1_5 
REMARK    2  A    between atoms: C1_5  and  C2_6 
REMARK    3  A    between atoms: C2_6  and  C3_7 
REMARK    4  A    between atoms: C3_7  and  C4_8 
REMARK    5  A    between atoms: C4_8  and  N2_9 
REMARK    6  A    between atoms: N2_9  and  C5_11 
REMARK    7  A    between atoms: C7_13  and  N3_14 
ROOT
HETATM    1  C5  UNL     1      -1.545  30.676  -5.302  1.00  0.00     0.087 C 
HETATM    2  C6  UNL     1      -2.938  30.112  -5.648  1.00  0.00     0.058 C 
HETATM    3  C7  UNL     1      -3.309  29.307  -4.393  1.00  0.00     0.185 C 
HETATM    4  C8  UNL     1      -3.494  30.311  -3.286  1.00  0.00     0.037 C 
HETATM    5  C9  UNL     1      -2.263  31.112  -3.048  1.00  0.00    -0.006 C 
HETATM    6  C10 UNL     1      -2.389  32.054  -1.878  1.00  0.00     0.005 C 
HETATM    7  C11 UNL     1      -2.753  33.449  -2.260  1.00  0.00     0.000 C 
HETATM    8  C12 UNL     1      -3.341  33.568  -3.648  1.00  0.00     0.000 C 
HETATM    9  C13 UNL     1      -2.447  32.971  -4.697  1.00  0.00     0.007 C 
HETATM   10  C14 UNL     1      -1.687  31.768  -4.282  1.00  0.00     0.012 C 
ENDROOT
BRANCH   1  11
HETATM   11  N2  UNL     1      -0.760  30.910  -6.438  1.00  0.00    -0.397 N 
ATOM     12  H2  UNL     1       0.045  31.531  -6.363  1.00  0.00     0.159 HD
BRANCH  11  13
HETATM   13  C4  UNL     1      -1.047  30.318  -7.676  1.00  0.00     0.056 C 
BRANCH  13  14
HETATM   14  C3  UNL     1      -1.517  31.354  -8.695  1.00  0.00     0.046 C 
BRANCH  14  15
HETATM   15  C2  UNL     1      -1.096  31.081 -10.096  1.00  0.00     0.032 C 
BRANCH  15  16
HETATM   16  C1  UNL     1      -2.388  31.126 -10.931  1.00  0.00     0.230 C 
BRANCH  16  17
HETATM   17  N1  UNL     1      -3.543  30.983 -10.070  1.00  0.00    -0.079 N 
ATOM     18  H13 UNL     1      -3.358  30.359  -9.284  1.00  0.00     0.274 HD
ATOM     19  H12 UNL     1      -3.734  31.835  -9.543  1.00  0.00     0.274 HD
ATOM     20  H11 UNL     1      -4.352  30.681 -10.613  1.00  0.00     0.274 HD
ENDBRANCH  16  17
ENDBRANCH  15  16
ENDBRANCH  14  15
ENDBRANCH  13  14
ENDBRANCH  11  13
ENDBRANCH   1  11
BRANCH   3  21
HETATM   21  N3  UNL     1      -4.470  28.498  -4.586  1.00  0.00    -0.075 N 
ATOM     22  H33 UNL     1      -5.170  28.683  -3.867  1.00  0.00     0.274 HD
ATOM     23  H32 UNL     1      -4.994  28.798  -5.407  1.00  0.00     0.274 HD
ATOM     24  H31 UNL     1      -4.248  27.504  -4.635  1.00  0.00     0.274 HD
ENDBRANCH   3  21
TORSDOF 7
ENDMDL
MODEL 4
REMARK VINA RESULT: -5.319254267      2.035      3.103
REMARK  7 active torsions:
REMARK  status: ('A' for Active; 'I' for Inactive)
REMARK    1  A    between atoms: N1_1  and  C1_5 
REMARK    2  A    between atoms: C1_5  and  C2_6 
REMARK    3  A    between atoms: C2_6  and  C3_7 
REMARK    4  A    between atoms: C3_7  and  C4_8 
REMARK    5  A    between atoms: C4_8  and  N2_9 
REMARK    6  A    between atoms: N2_9  and  C5_11 
REMARK    7  A    between atoms: C7_13  and  N3_14 
ROOT
HETATM    1  C5  UNL     1      -3.535  30.531  -4.466  1.00  0.00     0.087 C 
HETATM    2  C6  UNL     1      -3.523  31.722  -5.446  1.00  0.00     0.058 C 
HETATM    3  C7  UNL     1      -4.650  32.620  -4.914  1.00  0.00     0.185 C 
HETATM    4  C8  UNL     1      -4.185  33.135  -3.577  1.00  0.00     0.037 C 
HETATM    5  C9  UNL     1      -3.903  32.030  -2.621  1.00  0.00    -0.006 C 
HETATM    6  C10 UNL     1      -3.533  32.521  -1.245  1.00  0.00     0.005 C 
HETATM    7  C11 UNL     1      -2.064  32.585  -0.999  1.00  0.00     0.000 C 
HETATM    8  C12 UNL     1      -1.233  32.572  -2.261  1.00  0.00     0.000 C 
HETATM    9  C13 UNL     1      -1.550  31.396  -3.139  1.00  0.00     0.007 C 
HETATM   10  C14 UNL     1      -2.967  30.964  -3.145  1.00  0.00     0.012 C 
ENDROOT
BRANCH   1  11
HETATM   11  N2  UNL     1      -3.062  29.348  -5.049  1.00  0.00    -0.397 N 
ATOM     12  H2  UNL     1      -3.617  28.497  -4.959  1.00  0.00     0.159 HD
BRANCH  11  13
HETATM   13  C4  UNL     1      -1.850  29.297  -5.751  1.00  0.00     0.056 C 
BRANCH  13  14
HETATM   14  C3  UNL     1      -2.070  28.940  -7.220  1.00  0.00     0.046 C 
BRANCH  14  15
HETATM   15  C2  UNL     1      -0.968  29.352  -8.130  1.00  0.00     0.032 C 
BRANCH  15  16
HETATM   16  C1  UNL     1      -1.321  30.779  -8.585  1.00  0.00     0.230 C 
BRANCH  16  17
HETATM   17  N1  UNL     1      -2.729  30.865  -8.911  1.00  0.00    -0.079 N 
ATOM     18  H13 UNL     1      -2.916  31.592  -9.603  1.00  0.00     0.274 HD
ATOM     19  H12 UNL     1      -3.045  30.059  -9.451  1.00  0.00     0.274 HD
ATOM     20  H11 UNL     1      -3.279  30.995  -8.062  1.00  0.00     0.274 HD
ENDBRANCH  16  17
ENDBRANCH  15  16
ENDBRANCH  14  15
ENDBRANCH  13  14
ENDBRANCH  11  13
ENDBRANCH   1  11
BRANCH   3  21
HETATM   21  N3  UNL     1      -4.975  33.679  -5.815  1.00  0.00    -0.075 N 
ATOM     22  H33 UNL     1      -4.414  33.624  -6.665  1.00  0.00     0.274 HD
ATOM     23  H32 UNL     1      -5.901  33.544  -6.221  1.00  0.00     0.274 HD
ATOM     24  H31 UNL     1      -4.896  34.599  -5.381  1.00  0.00     0.274 HD
ENDBRANCH   3  21
TORSDOF 7
ENDMDL
MODEL 5
REMARK VINA RESULT: -5.293029462      1.164      1.272
REMARK  7 active torsions:
REMARK  status: ('A' for Active; 'I' for Inactive)
REMARK    1  A    between atoms: N1_1  and  C1_5 
REMARK    2  A    between atoms: C1_5  and  C2_6 
REMARK    3  A    between atoms: C2_6  and  C3_7 
REMARK    4  A    between atoms: C3_7  and  C4_8 
REMARK    5  A    between atoms: C4_8  and  N2_9 
REMARK    6  A    between atoms: N2_9  and  C5_11 
REMARK    7  A    between atoms: C7_13  and  N3_14 
ROOT
HETATM    1  C5  UNL     1      -2.328  30.831  -6.266  1.00  0.00     0.087 C 
HETATM    2  C6  UNL     1      -3.277  29.927  -5.453  1.00  0.00     0.058 C 
HETATM    3  C7  UNL     1      -2.748  30.072  -4.017  1.00  0.00     0.185 C 
HETATM    4  C8  UNL     1      -3.022  31.494  -3.607  1.00  0.00     0.037 C 
HETATM    5  C9  UNL     1      -2.358  32.474  -4.509  1.00  0.00    -0.006 C 
HETATM    6  C10 UNL     1      -2.533  33.902  -4.061  1.00  0.00     0.005 C 
HETATM    7  C11 UNL     1      -3.647  34.619  -4.744  1.00  0.00     0.000 C 
HETATM    8  C12 UNL     1      -4.644  33.700  -5.414  1.00  0.00     0.000 C 
HETATM    9  C13 UNL     1      -3.987  32.750  -6.373  1.00  0.00     0.007 C 
HETATM   10  C14 UNL     1      -2.641  32.271  -5.980  1.00  0.00     0.012 C 
ENDROOT
BRANCH   1  11
HETATM   11  N2  UNL     1      -2.201  30.419  -7.599  1.00  0.00    -0.397 N 
ATOM     12  H2  UNL     1      -2.893  29.778  -7.985  1.00  0.00     0.159 HD
BRANCH  11  13
HETATM   13  C4  UNL     1      -1.153  30.860  -8.418  1.00  0.00     0.056 C 
BRANCH  13  14
HETATM   14  C3  UNL     1      -1.664  31.757  -9.544  1.00  0.00     0.046 C 
BRANCH  14  15
HETATM   15  C2  UNL     1      -1.823  31.075 -10.857  1.00  0.00     0.032 C 
BRANCH  15  16
HETATM   16  C1  UNL     1      -3.300  31.267 -11.245  1.00  0.00     0.230 C 
BRANCH  16  17
HETATM   17  N1  UNL     1      -4.135  30.353 -10.495  1.00  0.00    -0.079 N 
ATOM     18  H13 UNL     1      -3.719  30.104  -9.597  1.00  0.00     0.274 HD
ATOM     19  H12 UNL     1      -4.980  30.806 -10.148  1.00  0.00     0.274 HD
ATOM     20  H11 UNL     1      -4.348  29.529 -11.057  1.00  0.00     0.274 HD
ENDBRANCH  16  17
ENDBRANCH  15  16
ENDBRANCH  14  15
ENDBRANCH  13  14
ENDBRANCH  11  13
ENDBRANCH   1  11
BRANCH   3  21
HETATM   21  N3  UNL     1      -3.338  29.130  -3.121  1.00  0.00    -0.075 N 
ATOM     22  H33 UNL     1      -2.872  28.224  -3.181  1.00  0.00     0.274 HD
ATOM     23  H32 UNL     1      -3.121  29.361  -2.151  1.00  0.00     0.274 HD
ATOM     24  H31 UNL     1      -4.343  29.036  -3.260  1.00  0.00     0.274 HD
ENDBRANCH   3  21
TORSDOF 7
ENDMDL
