MODEL 1
REMARK VINA RESULT: -5.848863925      0.000      0.000
REMARK  13 active torsions:
REMARK  status: ('A' for Active; 'I' for Inactive)
REMARK    1  A    between atoms: N1_1  and  C1_5 
REMARK    2  A    between atoms: C1_5  and  C2_6 
REMARK    3  A    between atoms: C2_6  and  C3_7 
REMARK    4  A    between atoms: C12_16  and  O1_17 
REMARK    5  A    between atoms: C13_19  and  O2_20 
REMARK    6  A    between atoms: O2_20  and  C14_21 
REMARK    7  A    between atoms: C15_23  and  C16_24 
REMARK    8  A    between atoms: C16_24  and  O4_25 
REMARK    9  A    between atoms: O4_25  and  C17_26 
REMARK   10  A    between atoms: C19_29  and  O6_30 
REMARK   11  A    between atoms: C20_32  and  O7_33 
REMARK   12  A    between atoms: C21_35  and  O8_36 
REMARK   13  A    between atoms: C22_38  and  O9_39 
ROOT
HETATM    1  C14 UNL     1       7.833  39.937  50.073  1.00  0.00     0.292 C 
HETATM    2  O3  UNL     1       6.554  40.407  49.679  1.00  0.00    -0.348 OA
HETATM    3  C15 UNL     1       6.304  39.090  49.285  1.00  0.00     0.182 C 
HETATM    4  C22 UNL     1       7.125  38.653  50.474  1.00  0.00     0.204 C 
ENDROOT
BRANCH   1   5
HETATM    5  O2  UNL     1       8.394  40.641  51.106  1.00  0.00    -0.350 OA
BRANCH   5   6
HETATM    6  C13 UNL     1       8.565  42.009  50.885  1.00  0.00     0.157 C 
HETATM    7  C3  UNL     1       7.930  42.797  51.978  1.00  0.00     0.019 C 
HETATM    8  C4  UNL     1       8.650  44.012  52.440  1.00  0.00     0.007 C 
HETATM    9  C5  UNL     1       8.601  45.181  51.490  1.00  0.00     0.000 C 
HETATM   10  C6  UNL     1       9.811  46.098  51.704  1.00  0.00     0.000 C 
HETATM   11  C7  UNL     1      10.412  46.491  50.384  1.00  0.00     0.000 C 
HETATM   12  C8  UNL     1      11.589  45.599  50.011  1.00  0.00     0.000 C 
HETATM   13  C9  UNL     1      11.235  44.824  48.786  1.00  0.00     0.000 C 
HETATM   14  C10 UNL     1      11.470  43.335  48.909  1.00  0.00     0.002 C 
HETATM   15  C11 UNL     1      10.192  42.571  49.141  1.00  0.00     0.034 C 
HETATM   16  C12 UNL     1      10.000  42.251  50.624  1.00  0.00     0.147 C 
BRANCH   7  17
HETATM   17  C2  UNL     1       6.535  43.155  51.538  1.00  0.00     0.034 C 
BRANCH  17  18
HETATM   18  C1  UNL     1       5.448  42.635  52.409  1.00  0.00     0.230 C 
BRANCH  18  19
HETATM   19  N1  UNL     1       4.930  41.350  51.919  1.00  0.00    -0.079 N 
ATOM     20  H13 UNL     1       3.915  41.304  51.997  1.00  0.00     0.274 HD
ATOM     21  H12 UNL     1       5.015  41.277  50.905  1.00  0.00     0.274 HD
ATOM     22  H11 UNL     1       5.376  40.563  52.389  1.00  0.00     0.274 HD
ENDBRANCH  18  19
ENDBRANCH  17  18
ENDBRANCH   7  17
BRANCH  16  23
HETATM   23  O1  UNL     1      10.811  41.130  50.847  1.00  0.00    -0.393 OA
ATOM     24  H1  UNL     1      11.508  41.450  51.408  1.00  0.00     0.210 HD
ENDBRANCH  16  23
ENDBRANCH   5   6
ENDBRANCH   1   5
BRANCH   4  25
HETATM   25  O9  UNL     1       6.422  38.745  51.672  1.00  0.00    -0.388 OA
ATOM     26  H9  UNL     1       5.693  39.354  51.645  1.00  0.00     0.210 HD
ENDBRANCH   4  25
BRANCH   3  27
HETATM   27  C16 UNL     1       4.855  38.684  49.331  1.00  0.00     0.205 C 
BRANCH  27  28
HETATM   28  O4  UNL     1       4.185  38.944  48.159  1.00  0.00    -0.356 OA
BRANCH  28  29
HETATM   29  C17 UNL     1       3.040  39.684  48.479  1.00  0.00     0.290 C 
HETATM   30  O5  UNL     1       2.985  39.980  49.838  1.00  0.00    -0.356 OA
HETATM   31  C18 UNL     1       1.726  40.517  50.092  1.00  0.00     0.205 C 
HETATM   32  C19 UNL     1       1.581  41.847  49.355  1.00  0.00     0.173 C 
HETATM   33  C20 UNL     1       2.853  42.137  48.555  1.00  0.00     0.182 C 
HETATM   34  C21 UNL     1       3.027  40.940  47.632  1.00  0.00     0.204 C 
BRANCH  32  35
HETATM   35  O6  UNL     1       1.433  42.905  50.256  1.00  0.00    -0.391 OA
ATOM     36  H6  UNL     1       2.250  43.086  50.704  1.00  0.00     0.210 HD
ENDBRANCH  32  35
BRANCH  33  37
HETATM   37  O7  UNL     1       3.941  42.279  49.390  1.00  0.00    -0.390 OA
ATOM     38  H7  UNL     1       4.574  42.885  49.024  1.00  0.00     0.210 HD
ENDBRANCH  33  37
BRANCH  34  39
HETATM   39  O8  UNL     1       1.946  40.965  46.751  1.00  0.00    -0.388 OA
ATOM     40  H8  UNL     1       2.198  41.271  45.888  1.00  0.00     0.210 HD
ENDBRANCH  34  39
ENDBRANCH  28  29
ENDBRANCH  27  28
ENDBRANCH   3  27
TORSDOF 13
ENDMDL
MODEL 2
REMARK VINA RESULT: -5.683736296      1.394      1.761
REMARK  13 active torsions:
REMARK  status: ('A' for Active; 'I' for Inactive)
REMARK    1  A    between atoms: N1_1  and  C1_5 
REMARK    2  A    between atoms: C1_5  and  C2_6 
REMARK    3  A    between atoms: C2_6  and  C3_7 
REMARK    4  A    between atoms: C12_16  and  O1_17 
REMARK    5  A    between atoms: C13_19  and  O2_20 
REMARK    6  A    between atoms: O2_20  and  C14_21 
REMARK    7  A    between atoms: C15_23  and  C16_24 
REMARK    8  A    between atoms: C16_24  and  O4_25 
REMARK    9  A    between atoms: O4_25  and  C17_26 
REMARK   10  A    between atoms: C19_29  and  O6_30 
REMARK   11  A    between atoms: C20_32  and  O7_33 
REMARK   12  A    between atoms: C21_35  and  O8_36 
REMARK   13  A    between atoms: C22_38  and  O9_39 
ROOT
HETATM    1  C14 UNL     1       7.523  40.686  50.865  1.00  0.00     0.292 C 
HETATM    2  O3  UNL     1       6.841  40.921  49.644  1.00  0.00    -0.348 OA
HETATM    3  C15 UNL     1       6.788  39.530  49.524  1.00  0.00     0.182 C 
HETATM    4  C22 UNL     1       6.614  39.478  51.023  1.00  0.00     0.204 C 
ENDROOT
BRANCH   1   5
HETATM    5  O2  UNL     1       7.350  41.672  51.801  1.00  0.00    -0.350 OA
BRANCH   5   6
HETATM    6  C13 UNL     1       7.750  42.952  51.414  1.00  0.00     0.157 C 
HETATM    7  C3  UNL     1       6.905  43.985  52.075  1.00  0.00     0.019 C 
HETATM    8  C4  UNL     1       7.586  45.224  52.530  1.00  0.00     0.007 C 
HETATM    9  C5  UNL     1       7.985  46.173  51.429  1.00  0.00     0.000 C 
HETATM   10  C6  UNL     1       9.169  47.042  51.871  1.00  0.00     0.000 C 
HETATM   11  C7  UNL     1      10.200  47.119  50.781  1.00  0.00     0.000 C 
HETATM   12  C8  UNL     1      11.315  46.101  50.985  1.00  0.00     0.000 C 
HETATM   13  C9  UNL     1      11.273  45.112  49.868  1.00  0.00     0.000 C 
HETATM   14  C10 UNL     1      11.271  43.669  50.322  1.00  0.00     0.002 C 
HETATM   15  C11 UNL     1       9.902  43.046  50.244  1.00  0.00     0.034 C 
HETATM   16  C12 UNL     1       9.212  43.051  51.609  1.00  0.00     0.147 C 
BRANCH   7  17
HETATM   17  C2  UNL     1       5.776  44.326  51.138  1.00  0.00     0.034 C 
BRANCH  17  18
HETATM   18  C1  UNL     1       4.549  43.503  51.306  1.00  0.00     0.230 C 
BRANCH  18  19
HETATM   19  N1  UNL     1       4.474  42.433  50.301  1.00  0.00    -0.079 N 
ATOM     20  H13 UNL     1       3.573  42.433  49.824  1.00  0.00     0.274 HD
ATOM     21  H12 UNL     1       5.077  42.630  49.502  1.00  0.00     0.274 HD
ATOM     22  H11 UNL     1       4.680  41.521  50.709  1.00  0.00     0.274 HD
ENDBRANCH  18  19
ENDBRANCH  17  18
ENDBRANCH   7  17
BRANCH  16  23
HETATM   23  O1  UNL     1       9.766  41.954  52.283  1.00  0.00    -0.393 OA
ATOM     24  H1  UNL     1      10.455  41.644  51.707  1.00  0.00     0.210 HD
ENDBRANCH  16  23
ENDBRANCH   5   6
ENDBRANCH   1   5
BRANCH   4  25
HETATM   25  O9  UNL     1       5.318  39.793  51.422  1.00  0.00    -0.388 OA
ATOM     26  H9  UNL     1       4.871  39.087  51.872  1.00  0.00     0.210 HD
ENDBRANCH   4  25
BRANCH   3  27
HETATM   27  C16 UNL     1       5.617  39.011  48.732  1.00  0.00     0.205 C 
BRANCH  27  28
HETATM   28  O4  UNL     1       4.705  39.989  48.414  1.00  0.00    -0.356 OA
BRANCH  28  29
HETATM   29  C17 UNL     1       3.427  39.424  48.503  1.00  0.00     0.290 C 
HETATM   30  O5  UNL     1       3.325  38.560  49.589  1.00  0.00    -0.356 OA
HETATM   31  C18 UNL     1       2.110  37.890  49.470  1.00  0.00     0.205 C 
HETATM   32  C19 UNL     1       0.962  38.889  49.604  1.00  0.00     0.173 C 
HETATM   33  C20 UNL     1       1.524  40.300  49.794  1.00  0.00     0.182 C 
HETATM   34  C21 UNL     1       2.411  40.545  48.583  1.00  0.00     0.204 C 
BRANCH  32  35
HETATM   35  O6  UNL     1       0.192  38.617  50.738  1.00  0.00    -0.391 OA
ATOM     36  H6  UNL     1       0.415  39.204  51.450  1.00  0.00     0.210 HD
ENDBRANCH  32  35
BRANCH  33  37
HETATM   37  O7  UNL     1       2.249  40.390  50.964  1.00  0.00    -0.390 OA
ATOM     38  H7  UNL     1       2.823  39.640  51.067  1.00  0.00     0.210 HD
ENDBRANCH  33  37
BRANCH  34  39
HETATM   39  O8  UNL     1       1.564  40.561  47.475  1.00  0.00    -0.388 OA
ATOM     40  H8  UNL     1       1.679  41.345  46.951  1.00  0.00     0.210 HD
ENDBRANCH  34  39
ENDBRANCH  28  29
ENDBRANCH  27  28
ENDBRANCH   3  27
TORSDOF 13
ENDMDL
MODEL 3
REMARK VINA RESULT: -5.608436909      3.663      7.644
REMARK  13 active torsions:
REMARK  status: ('A' for Active; 'I' for Inactive)
REMARK    1  A    between atoms: N1_1  and  C1_5 
REMARK    2  A    between atoms: C1_5  and  C2_6 
REMARK    3  A    between atoms: C2_6  and  C3_7 
REMARK    4  A    between atoms: C12_16  and  O1_17 
REMARK    5  A    between atoms: C13_19  and  O2_20 
REMARK    6  A    between atoms: O2_20  and  C14_21 
REMARK    7  A    between atoms: C15_23  and  C16_24 
REMARK    8  A    between atoms: C16_24  and  O4_25 
REMARK    9  A    between atoms: O4_25  and  C17_26 
REMARK   10  A    between atoms: C19_29  and  O6_30 
REMARK   11  A    between atoms: C20_32  and  O7_33 
REMARK   12  A    between atoms: C21_35  and  O8_36 
REMARK   13  A    between atoms: C22_38  and  O9_39 
ROOT
HETATM    1  C14 UNL     1       8.092  41.211  51.505  1.00  0.00     0.292 C 
HETATM    2  O3  UNL     1       7.361  40.841  52.662  1.00  0.00    -0.348 OA
HETATM    3  C15 UNL     1       8.587  40.893  53.329  1.00  0.00     0.182 C 
HETATM    4  C22 UNL     1       8.943  42.057  52.438  1.00  0.00     0.204 C 
ENDROOT
BRANCH   1   5
HETATM    5  O2  UNL     1       7.362  41.913  50.583  1.00  0.00    -0.350 OA
BRANCH   5   6
HETATM    6  C13 UNL     1       5.983  41.691  50.604  1.00  0.00     0.157 C 
HETATM    7  C3  UNL     1       5.249  42.984  50.687  1.00  0.00     0.019 C 
HETATM    8  C4  UNL     1       3.996  43.101  49.897  1.00  0.00     0.007 C 
HETATM    9  C5  UNL     1       2.822  42.333  50.446  1.00  0.00     0.000 C 
HETATM   10  C6  UNL     1       1.833  41.988  49.326  1.00  0.00     0.000 C 
HETATM   11  C7  UNL     1       1.389  40.558  49.440  1.00  0.00     0.000 C 
HETATM   12  C8  UNL     1       2.201  39.640  48.535  1.00  0.00     0.000 C 
HETATM   13  C9  UNL     1       2.983  38.696  49.386  1.00  0.00     0.000 C 
HETATM   14  C10 UNL     1       4.456  38.636  49.046  1.00  0.00     0.002 C 
HETATM   15  C11 UNL     1       5.301  39.411  50.023  1.00  0.00     0.034 C 
HETATM   16  C12 UNL     1       5.649  40.796  49.477  1.00  0.00     0.147 C 
BRANCH   7  17
HETATM   17  C2  UNL     1       4.974  43.267  52.141  1.00  0.00     0.034 C 
BRANCH  17  18
HETATM   18  C1  UNL     1       4.816  44.705  52.484  1.00  0.00     0.230 C 
BRANCH  18  19
HETATM   19  N1  UNL     1       3.448  45.008  52.925  1.00  0.00    -0.079 N 
ATOM     20  H13 UNL     1       2.756  44.645  52.271  1.00  0.00     0.274 HD
ATOM     21  H12 UNL     1       3.192  44.461  53.747  1.00  0.00     0.274 HD
ATOM     22  H11 UNL     1       3.319  46.007  53.087  1.00  0.00     0.274 HD
ENDBRANCH  18  19
ENDBRANCH  17  18
ENDBRANCH   7  17
BRANCH  16  23
HETATM   23  O1  UNL     1       6.719  40.568  48.602  1.00  0.00    -0.393 OA
ATOM     24  H1  UNL     1       6.758  41.352  48.066  1.00  0.00     0.210 HD
ENDBRANCH  16  23
ENDBRANCH   5   6
ENDBRANCH   1   5
BRANCH   4  25
HETATM   25  O9  UNL     1       8.334  43.244  52.839  1.00  0.00    -0.388 OA
ATOM     26  H9  UNL     1       8.357  43.391  53.776  1.00  0.00     0.210 HD
ENDBRANCH   4  25
BRANCH   3  27
HETATM   27  C16 UNL     1       8.492  41.223  54.796  1.00  0.00     0.205 C 
BRANCH  27  28
HETATM   28  O4  UNL     1       9.500  40.660  55.541  1.00  0.00    -0.356 OA
BRANCH  28  29
HETATM   29  C17 UNL     1       8.906  39.961  56.600  1.00  0.00     0.290 C 
HETATM   30  O5  UNL     1       7.568  40.307  56.754  1.00  0.00    -0.356 OA
HETATM   31  C18 UNL     1       7.129  39.737  57.946  1.00  0.00     0.205 C 
HETATM   32  C19 UNL     1       7.170  38.215  57.829  1.00  0.00     0.173 C 
HETATM   33  C20 UNL     1       7.709  37.817  56.452  1.00  0.00     0.182 C 
HETATM   34  C21 UNL     1       9.075  38.477  56.350  1.00  0.00     0.204 C 
BRANCH  32  35
HETATM   35  O6  UNL     1       5.886  37.671  57.921  1.00  0.00    -0.391 OA
ATOM     36  H6  UNL     1       5.791  37.158  58.715  1.00  0.00     0.210 HD
ENDBRANCH  32  35
BRANCH  33  37
HETATM   37  O7  UNL     1       6.871  38.256  55.448  1.00  0.00    -0.390 OA
ATOM     38  H7  UNL     1       6.221  37.598  55.235  1.00  0.00     0.210 HD
ENDBRANCH  33  37
BRANCH  34  39
HETATM   39  O8  UNL     1       9.875  37.872  57.320  1.00  0.00    -0.388 OA
ATOM     40  H8  UNL     1       9.447  37.121  57.715  1.00  0.00     0.210 HD
ENDBRANCH  34  39
ENDBRANCH  28  29
ENDBRANCH  27  28
ENDBRANCH   3  27
TORSDOF 13
ENDMDL
MODEL 4
REMARK VINA RESULT: -5.480958020      2.799      7.753
REMARK  13 active torsions:
REMARK  status: ('A' for Active; 'I' for Inactive)
REMARK    1  A    between atoms: N1_1  and  C1_5 
REMARK    2  A    between atoms: C1_5  and  C2_6 
REMARK    3  A    between atoms: C2_6  and  C3_7 
REMARK    4  A    between atoms: C12_16  and  O1_17 
REMARK    5  A    between atoms: C13_19  and  O2_20 
REMARK    6  A    between atoms: O2_20  and  C14_21 
REMARK    7  A    between atoms: C15_23  and  C16_24 
REMARK    8  A    between atoms: C16_24  and  O4_25 
REMARK    9  A    between atoms: O4_25  and  C17_26 
REMARK   10  A    between atoms: C19_29  and  O6_30 
REMARK   11  A    between atoms: C20_32  and  O7_33 
REMARK   12  A    between atoms: C21_35  and  O8_36 
REMARK   13  A    between atoms: C22_38  and  O9_39 
ROOT
HETATM    1  C14 UNL     1       7.880  42.033  51.819  1.00  0.00     0.292 C 
HETATM    2  O3  UNL     1       8.185  43.198  52.569  1.00  0.00    -0.348 OA
HETATM    3  C15 UNL     1       9.291  42.484  53.036  1.00  0.00     0.182 C 
HETATM    4  C22 UNL     1       9.383  41.863  51.664  1.00  0.00     0.204 C 
ENDROOT
BRANCH   1   5
HETATM    5  O2  UNL     1       7.197  42.279  50.657  1.00  0.00    -0.350 OA
BRANCH   5   6
HETATM    6  C13 UNL     1       5.848  41.920  50.659  1.00  0.00     0.157 C 
HETATM    7  C3  UNL     1       4.986  43.134  50.700  1.00  0.00     0.019 C 
HETATM    8  C4  UNL     1       3.745  43.108  49.884  1.00  0.00     0.007 C 
HETATM    9  C5  UNL     1       2.643  42.236  50.429  1.00  0.00     0.000 C 
HETATM   10  C6  UNL     1       1.716  41.771  49.300  1.00  0.00     0.000 C 
HETATM   11  C7  UNL     1       1.414  40.306  49.436  1.00  0.00     0.000 C 
HETATM   12  C8  UNL     1       2.333  39.457  48.567  1.00  0.00     0.000 C 
HETATM   13  C9  UNL     1       3.188  38.614  49.452  1.00  0.00     0.000 C 
HETATM   14  C10 UNL     1       4.666  38.695  49.140  1.00  0.00     0.002 C 
HETATM   15  C11 UNL     1       5.410  39.571  50.115  1.00  0.00     0.034 C 
HETATM   16  C12 UNL     1       5.628  40.973  49.545  1.00  0.00     0.147 C 
BRANCH   7  17
HETATM   17  C2  UNL     1       4.655  43.416  52.142  1.00  0.00     0.034 C 
BRANCH  17  18
HETATM   18  C1  UNL     1       4.678  44.853  52.523  1.00  0.00     0.230 C 
BRANCH  18  19
HETATM   19  N1  UNL     1       5.948  45.491  52.151  1.00  0.00    -0.079 N 
ATOM     20  H13 UNL     1       6.688  44.801  52.025  1.00  0.00     0.274 HD
ATOM     21  H12 UNL     1       5.915  45.863  51.202  1.00  0.00     0.274 HD
ATOM     22  H11 UNL     1       6.219  46.208  52.824  1.00  0.00     0.274 HD
ENDBRANCH  18  19
ENDBRANCH  17  18
ENDBRANCH   7  17
BRANCH  16  23
HETATM   23  O1  UNL     1       6.733  40.836  48.694  1.00  0.00    -0.393 OA
ATOM     24  H1  UNL     1       6.497  41.330  47.918  1.00  0.00     0.210 HD
ENDBRANCH  16  23
ENDBRANCH   5   6
ENDBRANCH   1   5
BRANCH   4  25
HETATM   25  O9  UNL     1       9.955  42.720  50.727  1.00  0.00    -0.388 OA
ATOM     26  H9  UNL     1      10.877  42.558  50.568  1.00  0.00     0.210 HD
ENDBRANCH   4  25
BRANCH   3  27
HETATM   27  C16 UNL     1      10.470  43.335  53.428  1.00  0.00     0.205 C 
BRANCH  27  28
HETATM   28  O4  UNL     1      10.116  44.439  54.167  1.00  0.00    -0.356 OA
BRANCH  28  29
HETATM   29  C17 UNL     1      10.513  45.575  53.451  1.00  0.00     0.290 C 
HETATM   30  O5  UNL     1      11.056  45.237  52.216  1.00  0.00    -0.356 OA
HETATM   31  C18 UNL     1      11.614  46.395  51.680  1.00  0.00     0.205 C 
HETATM   32  C19 UNL     1      10.509  47.412  51.401  1.00  0.00     0.173 C 
HETATM   33  C20 UNL     1       9.157  46.837  51.831  1.00  0.00     0.182 C 
HETATM   34  C21 UNL     1       9.318  46.493  53.305  1.00  0.00     0.204 C 
BRANCH  32  35
HETATM   35  O6  UNL     1      10.406  47.677  50.034  1.00  0.00    -0.391 OA
ATOM     36  H6  UNL     1      11.265  47.781  49.642  1.00  0.00     0.210 HD
ENDBRANCH  32  35
BRANCH  33  37
HETATM   37  O7  UNL     1       8.840  45.715  51.094  1.00  0.00    -0.390 OA
ATOM     38  H7  UNL     1       8.115  45.888  50.506  1.00  0.00     0.210 HD
ENDBRANCH  33  37
BRANCH  34  39
HETATM   39  O8  UNL     1       9.505  47.705  53.970  1.00  0.00    -0.388 OA
ATOM     40  H8  UNL     1       9.561  47.588  54.911  1.00  0.00     0.210 HD
ENDBRANCH  34  39
ENDBRANCH  28  29
ENDBRANCH  27  28
ENDBRANCH   3  27
TORSDOF 13
ENDMDL
MODEL 5
REMARK VINA RESULT: -5.457857054      2.656      4.535
REMARK  13 active torsions:
REMARK  status: ('A' for Active; 'I' for Inactive)
REMARK    1  A    between atoms: N1_1  and  C1_5 
REMARK    2  A    between atoms: C1_5  and  C2_6 
REMARK    3  A    between atoms: C2_6  and  C3_7 
REMARK    4  A    between atoms: C12_16  and  O1_17 
REMARK    5  A    between atoms: C13_19  and  O2_20 
REMARK    6  A    between atoms: O2_20  and  C14_21 
REMARK    7  A    between atoms: C15_23  and  C16_24 
REMARK    8  A    between atoms: C16_24  and  O4_25 
REMARK    9  A    between atoms: O4_25  and  C17_26 
REMARK   10  A    between atoms: C19_29  and  O6_30 
REMARK   11  A    between atoms: C20_32  and  O7_33 
REMARK   12  A    between atoms: C21_35  and  O8_36 
REMARK   13  A    between atoms: C22_38  and  O9_39 
ROOT
HETATM    1  C14 UNL     1       7.247  44.331  51.543  1.00  0.00     0.292 C 
HETATM    2  O3  UNL     1       5.875  44.636  51.735  1.00  0.00    -0.348 OA
HETATM    3  C15 UNL     1       5.622  43.594  50.840  1.00  0.00     0.182 C 
HETATM    4  C22 UNL     1       6.805  42.879  51.446  1.00  0.00     0.204 C 
ENDROOT
BRANCH   1   5
HETATM    5  O2  UNL     1       8.042  44.629  52.618  1.00  0.00    -0.350 OA
BRANCH   5   6
HETATM    6  C13 UNL     1       9.031  45.589  52.393  1.00  0.00     0.157 C 
HETATM    7  C3  UNL     1       9.629  45.413  51.040  1.00  0.00     0.019 C 
HETATM    8  C4  UNL     1       9.961  46.648  50.284  1.00  0.00     0.007 C 
HETATM    9  C5  UNL     1      11.169  47.396  50.784  1.00  0.00     0.000 C 
HETATM   10  C6  UNL     1      11.075  48.881  50.411  1.00  0.00     0.000 C 
HETATM   11  C7  UNL     1      11.449  49.742  51.584  1.00  0.00     0.000 C 
HETATM   12  C8  UNL     1      10.221  50.213  52.354  1.00  0.00     0.000 C 
HETATM   13  C9  UNL     1      10.254  49.614  53.720  1.00  0.00     0.000 C 
HETATM   14  C10 UNL     1       8.969  48.922  54.120  1.00  0.00     0.002 C 
HETATM   15  C11 UNL     1       9.071  47.422  54.018  1.00  0.00     0.034 C 
HETATM   16  C12 UNL     1       8.460  46.914  52.712  1.00  0.00     0.147 C 
BRANCH   7  17
HETATM   17  C2  UNL     1      10.853  44.548  51.186  1.00  0.00     0.034 C 
BRANCH  17  18
HETATM   18  C1  UNL     1      10.670  43.127  50.789  1.00  0.00     0.230 C 
BRANCH  18  19
HETATM   19  N1  UNL     1      10.304  42.288  51.938  1.00  0.00    -0.079 N 
ATOM     20  H13 UNL     1       9.533  42.696  52.467  1.00  0.00     0.274 HD
ATOM     21  H12 UNL     1       9.852  41.424  51.640  1.00  0.00     0.274 HD
ATOM     22  H11 UNL     1      11.108  42.100  52.538  1.00  0.00     0.274 HD
ENDBRANCH  18  19
ENDBRANCH  17  18
ENDBRANCH   7  17
BRANCH  16  23
HETATM   23  O1  UNL     1       7.080  46.889  52.958  1.00  0.00    -0.393 OA
ATOM     24  H1  UNL     1       6.894  45.982  53.173  1.00  0.00     0.210 HD
ENDBRANCH  16  23
ENDBRANCH   5   6
ENDBRANCH   1   5
BRANCH   4  25
HETATM   25  O9  UNL     1       6.505  42.297  52.675  1.00  0.00    -0.388 OA
ATOM     26  H9  UNL     1       6.241  41.387  52.616  1.00  0.00     0.210 HD
ENDBRANCH   4  25
BRANCH   3  27
HETATM   27  C16 UNL     1       4.297  42.905  51.034  1.00  0.00     0.205 C 
BRANCH  27  28
HETATM   28  O4  UNL     1       3.506  42.934  49.911  1.00  0.00    -0.356 OA
BRANCH  28  29
HETATM   29  C17 UNL     1       3.494  41.644  49.366  1.00  0.00     0.290 C 
HETATM   30  O5  UNL     1       3.961  40.700  50.275  1.00  0.00    -0.356 OA
HETATM   31  C18 UNL     1       4.117  39.502  49.583  1.00  0.00     0.205 C 
HETATM   32  C19 UNL     1       2.752  39.005  49.109  1.00  0.00     0.173 C 
HETATM   33  C20 UNL     1       1.667  40.003  49.524  1.00  0.00     0.182 C 
HETATM   34  C21 UNL     1       2.085  41.329  48.907  1.00  0.00     0.204 C 
BRANCH  32  35
HETATM   35  O6  UNL     1       2.423  37.791  49.717  1.00  0.00    -0.391 OA
ATOM     36  H6  UNL     1       2.048  37.187  49.088  1.00  0.00     0.210 HD
ENDBRANCH  32  35
BRANCH  33  37
HETATM   37  O7  UNL     1       1.584  40.100  50.897  1.00  0.00    -0.390 OA
ATOM     38  H7  UNL     1       1.245  39.297  51.275  1.00  0.00     0.210 HD
ENDBRANCH  33  37
BRANCH  34  39
HETATM   39  O8  UNL     1       2.011  41.158  47.525  1.00  0.00    -0.388 OA
ATOM     40  H8  UNL     1       2.315  40.299  47.256  1.00  0.00     0.210 HD
ENDBRANCH  34  39
ENDBRANCH  28  29
ENDBRANCH  27  28
ENDBRANCH   3  27
TORSDOF 13
ENDMDL
