MODEL 1
REMARK VINA RESULT: -7.327990997      0.000      0.000
REMARK  10 active torsions:
REMARK  status: ('A' for Active; 'I' for Inactive)
REMARK    1  A    between atoms: N1_1  and  C1_5 
REMARK    2  A    between atoms: C1_5  and  C2_6 
REMARK    3  A    between atoms: C2_6  and  C3_7 
REMARK    4  A    between atoms: C5_12  and  C6_13 
REMARK    5  A    between atoms: C6_13  and  O1_14 
REMARK    6  A    between atoms: O1_14  and  C7_15 
REMARK    7  A    between atoms: C8_19  and  C9_20 
REMARK    8  A    between atoms: C9_20  and  N4_21 
REMARK    9  A    between atoms: C10_25  and  O2_26 
REMARK   10  A    between atoms: C11_28  and  O3_29 
ROOT
HETATM    1  C7  UNL     1      43.894  29.861  16.923  1.00  0.00     0.353 C 
HETATM    2  N3  UNL     1      43.147  29.276  15.815  1.00  0.00    -0.038 N 
ATOM      3  H31 UNL     1      42.509  29.939  15.375  1.00  0.00     0.281 HD
ATOM      4  H32 UNL     1      42.449  28.598  16.123  1.00  0.00     0.281 HD
HETATM    5  C8  UNL     1      44.089  28.722  14.898  1.00  0.00     0.245 C 
HETATM    6  C10 UNL     1      45.465  29.184  15.323  1.00  0.00     0.183 C 
HETATM    7  C11 UNL     1      45.281  29.207  16.847  1.00  0.00     0.205 C 
ENDROOT
BRANCH   1   8
HETATM    8  O1  UNL     1      43.333  29.578  18.142  1.00  0.00    -0.355 OA
BRANCH   8   9
HETATM    9  C6  UNL     1      41.958  29.779  18.119  1.00  0.00     0.204 C 
BRANCH   9  10
HETATM   10  C5  UNL     1      41.498  30.137  19.503  1.00  0.00     0.215 C 
HETATM   11  C3  UNL     1      39.994  30.156  19.685  1.00  0.00     0.045 C 
HETATM   12  C4  UNL     1      40.097  31.521  19.092  1.00  0.00     0.239 C 
HETATM   13  N2  UNL     1      41.448  31.604  19.618  1.00  0.00    -0.068 N 
ATOM     14  H22 UNL     1      42.154  32.195  19.177  1.00  0.00     0.277 HD
ATOM     15  H21 UNL     1      41.647  32.074  20.501  1.00  0.00     0.277 HD
BRANCH  11  16
HETATM   16  C2  UNL     1      39.243  29.137  18.870  1.00  0.00     0.036 C 
BRANCH  16  17
HETATM   17  C1  UNL     1      38.231  28.457  19.768  1.00  0.00     0.230 C 
BRANCH  17  18
HETATM   18  N1  UNL     1      37.155  29.335  20.114  1.00  0.00    -0.079 N 
ATOM     19  H13 UNL     1      37.153  30.169  19.526  1.00  0.00     0.274 HD
ATOM     20  H12 UNL     1      36.254  28.945  19.839  1.00  0.00     0.274 HD
ATOM     21  H11 UNL     1      37.169  29.578  21.104  1.00  0.00     0.274 HD
ENDBRANCH  17  18
ENDBRANCH  16  17
ENDBRANCH  11  16
ENDBRANCH   9  10
ENDBRANCH   8   9
ENDBRANCH   1   8
BRANCH   7  22
HETATM   22  O3  UNL     1      45.230  27.898  17.321  1.00  0.00    -0.389 OA
ATOM     23  H3  UNL     1      45.999  27.414  17.046  1.00  0.00     0.210 HD
ENDBRANCH   7  22
BRANCH   5  24
HETATM   24  C9  UNL     1      43.848  29.098  13.470  1.00  0.00     0.265 C 
BRANCH  24  25
HETATM   25  N4  UNL     1      42.883  28.283  12.807  1.00  0.00    -0.077 N 
ATOM     26  H43 UNL     1      43.307  27.802  12.012  1.00  0.00     0.274 HD
ATOM     27  H42 UNL     1      42.637  27.479  13.385  1.00  0.00     0.274 HD
ATOM     28  H41 UNL     1      42.043  28.783  12.515  1.00  0.00     0.274 HD
ENDBRANCH  24  25
ENDBRANCH   5  24
BRANCH   6  29
HETATM   29  O2  UNL     1      45.698  30.476  14.917  1.00  0.00    -0.391 OA
ATOM     30  H2  UNL     1      46.504  30.811  15.292  1.00  0.00     0.210 HD
ENDBRANCH   6  29
TORSDOF 10
ENDMDL
MODEL 2
REMARK VINA RESULT: -6.849856992      2.042      3.044
REMARK  10 active torsions:
REMARK  status: ('A' for Active; 'I' for Inactive)
REMARK    1  A    between atoms: N1_1  and  C1_5 
REMARK    2  A    between atoms: C1_5  and  C2_6 
REMARK    3  A    between atoms: C2_6  and  C3_7 
REMARK    4  A    between atoms: C5_12  and  C6_13 
REMARK    5  A    between atoms: C6_13  and  O1_14 
REMARK    6  A    between atoms: O1_14  and  C7_15 
REMARK    7  A    between atoms: C8_19  and  C9_20 
REMARK    8  A    between atoms: C9_20  and  N4_21 
REMARK    9  A    between atoms: C10_25  and  O2_26 
REMARK   10  A    between atoms: C11_28  and  O3_29 
ROOT
HETATM    1  C7  UNL     1      42.346  29.638  18.121  1.00  0.00     0.353 C 
HETATM    2  N3  UNL     1      43.663  29.123  17.768  1.00  0.00    -0.038 N 
ATOM      3  H31 UNL     1      43.668  28.114  17.621  1.00  0.00     0.281 HD
ATOM      4  H32 UNL     1      44.321  29.150  18.547  1.00  0.00     0.281 HD
HETATM    5  C8  UNL     1      44.125  29.850  16.630  1.00  0.00     0.245 C 
HETATM    6  C10 UNL     1      42.966  30.672  16.113  1.00  0.00     0.183 C 
HETATM    7  C11 UNL     1      42.266  31.010  17.437  1.00  0.00     0.205 C 
ENDROOT
BRANCH   1   8
HETATM    8  O1  UNL     1      42.192  29.804  19.474  1.00  0.00    -0.355 OA
BRANCH   8   9
HETATM    9  C6  UNL     1      41.217  28.949  19.975  1.00  0.00     0.204 C 
BRANCH   9  10
HETATM   10  C5  UNL     1      40.262  28.601  18.869  1.00  0.00     0.215 C 
HETATM   11  C3  UNL     1      38.820  28.985  19.132  1.00  0.00     0.045 C 
HETATM   12  C4  UNL     1      38.787  27.710  19.905  1.00  0.00     0.239 C 
HETATM   13  N2  UNL     1      39.835  27.203  19.038  1.00  0.00    -0.068 N 
ATOM     14  H22 UNL     1      40.486  26.484  19.356  1.00  0.00     0.277 HD
ATOM     15  H21 UNL     1      39.621  26.612  18.234  1.00  0.00     0.277 HD
BRANCH  11  16
HETATM   16  C2  UNL     1      38.636  30.248  19.932  1.00  0.00     0.036 C 
BRANCH  16  17
HETATM   17  C1  UNL     1      39.118  31.417  19.098  1.00  0.00     0.230 C 
BRANCH  17  18
HETATM   18  N1  UNL     1      40.129  32.169  19.776  1.00  0.00    -0.079 N 
ATOM     19  H13 UNL     1      41.062  31.913  19.453  1.00  0.00     0.274 HD
ATOM     20  H12 UNL     1      40.123  33.146  19.485  1.00  0.00     0.274 HD
ATOM     21  H11 UNL     1      40.049  32.082  20.789  1.00  0.00     0.274 HD
ENDBRANCH  17  18
ENDBRANCH  16  17
ENDBRANCH  11  16
ENDBRANCH   9  10
ENDBRANCH   8   9
ENDBRANCH   1   8
BRANCH   7  22
HETATM   22  O3  UNL     1      43.029  31.946  18.132  1.00  0.00    -0.389 OA
ATOM     23  H3  UNL     1      43.669  32.347  17.556  1.00  0.00     0.210 HD
ENDBRANCH   7  22
BRANCH   5  24
HETATM   24  C9  UNL     1      44.665  28.989  15.531  1.00  0.00     0.265 C 
BRANCH  24  25
HETATM   25  N4  UNL     1      44.016  27.725  15.407  1.00  0.00    -0.077 N 
ATOM     26  H43 UNL     1      43.631  27.432  16.306  1.00  0.00     0.274 HD
ATOM     27  H42 UNL     1      43.153  27.817  14.870  1.00  0.00     0.274 HD
ATOM     28  H41 UNL     1      44.605  26.991  15.014  1.00  0.00     0.274 HD
ENDBRANCH  24  25
ENDBRANCH   5  24
BRANCH   6  29
HETATM   29  O2  UNL     1      42.102  29.898  15.377  1.00  0.00    -0.391 OA
ATOM     30  H2  UNL     1      42.104  30.158  14.464  1.00  0.00     0.210 HD
ENDBRANCH   6  29
TORSDOF 10
ENDMDL
MODEL 3
REMARK VINA RESULT: -6.756154222      1.094      1.357
REMARK  10 active torsions:
REMARK  status: ('A' for Active; 'I' for Inactive)
REMARK    1  A    between atoms: N1_1  and  C1_5 
REMARK    2  A    between atoms: C1_5  and  C2_6 
REMARK    3  A    between atoms: C2_6  and  C3_7 
REMARK    4  A    between atoms: C5_12  and  C6_13 
REMARK    5  A    between atoms: C6_13  and  O1_14 
REMARK    6  A    between atoms: O1_14  and  C7_15 
REMARK    7  A    between atoms: C8_19  and  C9_20 
REMARK    8  A    between atoms: C9_20  and  N4_21 
REMARK    9  A    between atoms: C10_25  and  O2_26 
REMARK   10  A    between atoms: C11_28  and  O3_29 
ROOT
HETATM    1  C7  UNL     1      43.901  30.507  16.596  1.00  0.00     0.353 C 
HETATM    2  N3  UNL     1      43.087  29.861  15.573  1.00  0.00    -0.038 N 
ATOM      3  H31 UNL     1      42.661  30.527  14.928  1.00  0.00     0.281 HD
ATOM      4  H32 UNL     1      42.225  29.463  15.946  1.00  0.00     0.281 HD
HETATM    5  C8  UNL     1      43.902  28.894  14.912  1.00  0.00     0.245 C 
HETATM    6  C10 UNL     1      45.327  29.110  15.371  1.00  0.00     0.183 C 
HETATM    7  C11 UNL     1      45.079  29.547  16.821  1.00  0.00     0.205 C 
ENDROOT
BRANCH   1   8
HETATM    8  O1  UNL     1      43.227  30.670  17.779  1.00  0.00    -0.355 OA
BRANCH   8   9
HETATM    9  C6  UNL     1      41.867  30.855  17.558  1.00  0.00     0.204 C 
BRANCH   9  10
HETATM   10  C5  UNL     1      41.134  29.615  17.981  1.00  0.00     0.215 C 
HETATM   11  C3  UNL     1      40.160  29.814  19.125  1.00  0.00     0.045 C 
HETATM   12  C4  UNL     1      41.379  29.690  19.976  1.00  0.00     0.239 C 
HETATM   13  N2  UNL     1      41.976  28.873  18.934  1.00  0.00    -0.068 N 
ATOM     14  H22 UNL     1      42.988  28.818  18.818  1.00  0.00     0.277 HD
ATOM     15  H21 UNL     1      41.954  27.854  18.980  1.00  0.00     0.277 HD
BRANCH  11  16
HETATM   16  C2  UNL     1      39.473  31.153  19.147  1.00  0.00     0.036 C 
BRANCH  16  17
HETATM   17  C1  UNL     1      38.147  30.998  19.864  1.00  0.00     0.230 C 
BRANCH  17  18
HETATM   18  N1  UNL     1      37.684  29.644  19.834  1.00  0.00    -0.079 N 
ATOM     19  H13 UNL     1      37.732  29.255  18.892  1.00  0.00     0.274 HD
ATOM     20  H12 UNL     1      38.341  29.017  20.298  1.00  0.00     0.274 HD
ATOM     21  H11 UNL     1      36.747  29.557  20.226  1.00  0.00     0.274 HD
ENDBRANCH  17  18
ENDBRANCH  16  17
ENDBRANCH  11  16
ENDBRANCH   9  10
ENDBRANCH   8   9
ENDBRANCH   1   8
BRANCH   7  22
HETATM   22  O3  UNL     1      44.673  28.444  17.569  1.00  0.00    -0.389 OA
ATOM     23  H3  UNL     1      44.855  28.581  18.491  1.00  0.00     0.210 HD
ENDBRANCH   7  22
BRANCH   5  24
HETATM   24  C9  UNL     1      43.836  28.955  13.418  1.00  0.00     0.265 C 
BRANCH  24  25
HETATM   25  N4  UNL     1      42.804  28.154  12.846  1.00  0.00    -0.077 N 
ATOM     26  H43 UNL     1      43.205  27.418  12.264  1.00  0.00     0.274 HD
ATOM     27  H42 UNL     1      42.356  27.583  13.564  1.00  0.00     0.274 HD
ATOM     28  H41 UNL     1      42.107  28.683  12.323  1.00  0.00     0.274 HD
ENDBRANCH  24  25
ENDBRANCH   5  24
BRANCH   6  29
HETATM   29  O2  UNL     1      45.901  30.171  14.714  1.00  0.00    -0.391 OA
ATOM     30  H2  UNL     1      46.846  30.078  14.676  1.00  0.00     0.210 HD
ENDBRANCH   6  29
TORSDOF 10
ENDMDL
MODEL 4
REMARK VINA RESULT: -6.518107805      1.763      6.309
REMARK  10 active torsions:
REMARK  status: ('A' for Active; 'I' for Inactive)
REMARK    1  A    between atoms: N1_1  and  C1_5 
REMARK    2  A    between atoms: C1_5  and  C2_6 
REMARK    3  A    between atoms: C2_6  and  C3_7 
REMARK    4  A    between atoms: C5_12  and  C6_13 
REMARK    5  A    between atoms: C6_13  and  O1_14 
REMARK    6  A    between atoms: O1_14  and  C7_15 
REMARK    7  A    between atoms: C8_19  and  C9_20 
REMARK    8  A    between atoms: C9_20  and  N4_21 
REMARK    9  A    between atoms: C10_25  and  O2_26 
REMARK   10  A    between atoms: C11_28  and  O3_29 
ROOT
HETATM    1  C7  UNL     1      41.862  30.324  18.000  1.00  0.00     0.353 C 
HETATM    2  N3  UNL     1      41.083  31.450  18.499  1.00  0.00    -0.038 N 
ATOM      3  H31 UNL     1      40.614  31.967  17.755  1.00  0.00     0.281 HD
ATOM      4  H32 UNL     1      41.667  32.212  18.846  1.00  0.00     0.281 HD
HETATM    5  C8  UNL     1      40.178  30.954  19.484  1.00  0.00     0.245 C 
HETATM    6  C10 UNL     1      40.225  29.444  19.425  1.00  0.00     0.183 C 
HETATM    7  C11 UNL     1      41.705  29.235  19.071  1.00  0.00     0.205 C 
ENDROOT
BRANCH   1   8
HETATM    8  O1  UNL     1      43.193  30.624  17.862  1.00  0.00    -0.355 OA
BRANCH   8   9
HETATM    9  C6  UNL     1      43.890  29.562  17.299  1.00  0.00     0.204 C 
BRANCH   9  10
HETATM   10  C5  UNL     1      44.842  30.098  16.270  1.00  0.00     0.215 C 
HETATM   11  C3  UNL     1      44.767  29.415  14.919  1.00  0.00     0.045 C 
HETATM   12  C4  UNL     1      45.641  28.392  15.564  1.00  0.00     0.239 C 
HETATM   13  N2  UNL     1      46.145  29.433  16.442  1.00  0.00    -0.068 N 
ATOM     14  H22 UNL     1      46.510  29.214  17.369  1.00  0.00     0.277 HD
ATOM     15  H21 UNL     1      47.019  29.919  16.242  1.00  0.00     0.277 HD
BRANCH  11  16
HETATM   16  C2  UNL     1      43.392  28.951  14.519  1.00  0.00     0.036 C 
BRANCH  16  17
HETATM   17  C1  UNL     1      43.429  28.549  13.059  1.00  0.00     0.230 C 
BRANCH  17  18
HETATM   18  N1  UNL     1      43.375  29.688  12.194  1.00  0.00    -0.079 N 
ATOM     19  H13 UNL     1      42.437  30.088  12.163  1.00  0.00     0.274 HD
ATOM     20  H12 UNL     1      43.874  30.482  12.595  1.00  0.00     0.274 HD
ATOM     21  H11 UNL     1      43.717  29.468  11.259  1.00  0.00     0.274 HD
ENDBRANCH  17  18
ENDBRANCH  16  17
ENDBRANCH  11  16
ENDBRANCH   9  10
ENDBRANCH   8   9
ENDBRANCH   1   8
BRANCH   7  22
HETATM   22  O3  UNL     1      42.488  29.530  20.185  1.00  0.00    -0.389 OA
ATOM     23  H3  UNL     1      42.597  28.758  20.728  1.00  0.00     0.210 HD
ENDBRANCH   7  22
BRANCH   5  24
HETATM   24  C9  UNL     1      38.767  31.423  19.312  1.00  0.00     0.265 C 
BRANCH  24  25
HETATM   25  N4  UNL     1      37.793  30.584  19.930  1.00  0.00    -0.077 N 
ATOM     26  H43 UNL     1      38.227  29.726  20.273  1.00  0.00     0.274 HD
ATOM     27  H42 UNL     1      37.483  30.987  20.814  1.00  0.00     0.274 HD
ATOM     28  H41 UNL     1      36.993  30.366  19.336  1.00  0.00     0.274 HD
ENDBRANCH  24  25
ENDBRANCH   5  24
BRANCH   6  29
HETATM   29  O2  UNL     1      39.479  28.967  18.374  1.00  0.00    -0.391 OA
ATOM     30  H2  UNL     1      39.949  28.291  17.901  1.00  0.00     0.210 HD
ENDBRANCH   6  29
TORSDOF 10
ENDMDL
MODEL 5
REMARK VINA RESULT: -6.460235502      2.197      6.251
REMARK  10 active torsions:
REMARK  status: ('A' for Active; 'I' for Inactive)
REMARK    1  A    between atoms: N1_1  and  C1_5 
REMARK    2  A    between atoms: C1_5  and  C2_6 
REMARK    3  A    between atoms: C2_6  and  C3_7 
REMARK    4  A    between atoms: C5_12  and  C6_13 
REMARK    5  A    between atoms: C6_13  and  O1_14 
REMARK    6  A    between atoms: O1_14  and  C7_15 
REMARK    7  A    between atoms: C8_19  and  C9_20 
REMARK    8  A    between atoms: C9_20  and  N4_21 
REMARK    9  A    between atoms: C10_25  and  O2_26 
REMARK   10  A    between atoms: C11_28  and  O3_29 
ROOT
HETATM    1  C7  UNL     1      41.718  29.888  17.558  1.00  0.00     0.353 C 
HETATM    2  N3  UNL     1      40.462  29.176  17.761  1.00  0.00    -0.038 N 
ATOM      3  H31 UNL     1      40.532  28.181  17.545  1.00  0.00     0.281 HD
ATOM      4  H32 UNL     1      39.754  29.416  17.067  1.00  0.00     0.281 HD
HETATM    5  C8  UNL     1      40.031  29.423  19.099  1.00  0.00     0.245 C 
HETATM    6  C10 UNL     1      41.167  30.108  19.824  1.00  0.00     0.183 C 
HETATM    7  C11 UNL     1      41.754  30.941  18.676  1.00  0.00     0.205 C 
ENDROOT
BRANCH   1   8
HETATM    8  O1  UNL     1      41.771  30.524  16.344  1.00  0.00    -0.355 OA
BRANCH   8   9
HETATM    9  C6  UNL     1      43.035  30.413  15.777  1.00  0.00     0.204 C 
BRANCH   9  10
HETATM   10  C5  UNL     1      43.307  28.967  15.477  1.00  0.00     0.215 C 
HETATM   11  C3  UNL     1      44.561  28.713  14.666  1.00  0.00     0.045 C 
HETATM   12  C4  UNL     1      43.689  29.053  13.504  1.00  0.00     0.239 C 
HETATM   13  N2  UNL     1      42.549  28.586  14.274  1.00  0.00    -0.068 N 
ATOM     14  H22 UNL     1      41.610  28.945  14.102  1.00  0.00     0.277 HD
ATOM     15  H21 UNL     1      42.179  27.642  14.156  1.00  0.00     0.277 HD
BRANCH  11  16
HETATM   16  C2  UNL     1      45.696  29.663  14.939  1.00  0.00     0.036 C 
BRANCH  16  17
HETATM   17  C1  UNL     1      46.476  29.146  16.132  1.00  0.00     0.230 C 
BRANCH  17  18
HETATM   18  N1  UNL     1      46.356  30.018  17.260  1.00  0.00    -0.079 N 
ATOM     19  H13 UNL     1      47.162  30.638  17.339  1.00  0.00     0.274 HD
ATOM     20  H12 UNL     1      45.630  30.719  17.113  1.00  0.00     0.274 HD
ATOM     21  H11 UNL     1      46.201  29.498  18.124  1.00  0.00     0.274 HD
ENDBRANCH  17  18
ENDBRANCH  16  17
ENDBRANCH  11  16
ENDBRANCH   9  10
ENDBRANCH   8   9
ENDBRANCH   1   8
BRANCH   7  22
HETATM   22  O3  UNL     1      40.889  31.993  18.383  1.00  0.00    -0.389 OA
ATOM     23  H3  UNL     1      40.339  31.774  17.641  1.00  0.00     0.210 HD
ENDBRANCH   7  22
BRANCH   5  24
HETATM   24  C9  UNL     1      39.621  28.193  19.848  1.00  0.00     0.265 C 
BRANCH  24  25
HETATM   25  N4  UNL     1      40.226  26.992  19.373  1.00  0.00    -0.077 N 
ATOM     26  H43 UNL     1      39.925  26.195  19.934  1.00  0.00     0.274 HD
ATOM     27  H42 UNL     1      39.833  26.727  18.469  1.00  0.00     0.274 HD
ATOM     28  H41 UNL     1      41.244  27.029  19.323  1.00  0.00     0.274 HD
ENDBRANCH  24  25
ENDBRANCH   5  24
BRANCH   6  29
HETATM   29  O2  UNL     1      42.125  29.203  20.208  1.00  0.00    -0.391 OA
ATOM     30  H2  UNL     1      42.350  29.311  21.125  1.00  0.00     0.210 HD
ENDBRANCH   6  29
TORSDOF 10
ENDMDL
