MODEL 1
REMARK VINA RESULT: -8.038463551      0.000      0.000
REMARK  16 active torsions:
REMARK  status: ('A' for Active; 'I' for Inactive)
REMARK    1  A    between atoms: C2_2  and  C3_3 
REMARK    2  A    between atoms: C3_3  and  C4_4 
REMARK    3  A    between atoms: C4_4  and  N1_5 
REMARK    4  A    between atoms: C4_4  and  C10_14 
REMARK       I    between atoms: N1_5  and  C5_7 
REMARK    5  A    between atoms: C5_7  and  O2_9 
REMARK    6  A    between atoms: O2_9  and  C6_10 
REMARK       I    between atoms: C10_14  and  N2_16 
REMARK    7  A    between atoms: N2_16  and  C11_18 
REMARK    8  A    between atoms: C11_18  and  C12_19 
REMARK    9  A    between atoms: C11_18  and  C30_49 
REMARK       I    between atoms: C12_19  and  N3_21 
REMARK   10  A    between atoms: N3_21  and  C13_23 
REMARK   11  A    between atoms: C13_23  and  C14_24 
REMARK   12  A    between atoms: C13_23  and  C18_28 
REMARK   13  A    between atoms: C14_24  and  C15_25 
REMARK       I    between atoms: C18_28  and  N4_30 
REMARK   14  A    between atoms: C23_35  and  N5_36 
REMARK   15  A    between atoms: C23_35  and  C24_40 
REMARK       I    between atoms: C24_40  and  N6_42 
REMARK   16  A    between atoms: N6_42  and  C25_44 
ROOT
HETATM    1  C13 UNL     1       5.570  27.337   6.792  1.00  0.00     0.177 C 
ENDROOT
BRANCH   1   2
HETATM    2  N3  UNL     1       7.024  27.440   7.007  1.00  0.00    -0.346 N 
HETATM    3  C12 UNL     1       7.766  26.525   7.782  1.00  0.00     0.241 C 
HETATM    4  O4  UNL     1       7.107  25.570   8.300  1.00  0.00    -0.271 OA
ATOM      5  H3  UNL     1       7.522  28.217   6.570  1.00  0.00     0.163 HD
BRANCH   3   6
HETATM    6  C11 UNL     1       9.191  26.565   8.039  1.00  0.00     0.180 C 
BRANCH   6   7
HETATM    7  N2  UNL     1       9.874  25.320   7.659  1.00  0.00    -0.346 N 
HETATM    8  C10 UNL     1      10.324  25.102   6.335  1.00  0.00     0.241 C 
HETATM    9  O3  UNL     1      10.113  26.043   5.483  1.00  0.00    -0.271 OA
ATOM     10  H2  UNL     1      10.027  24.599   8.363  1.00  0.00     0.163 HD
BRANCH   8  11
HETATM   11  C4  UNL     1      11.005  23.914   5.837  1.00  0.00     0.178 C 
BRANCH  11  12
HETATM   12  C3  UNL     1      11.622  24.266   4.468  1.00  0.00     0.034 C 
BRANCH  12  13
HETATM   13  C2  UNL     1      12.967  23.546   4.332  1.00  0.00    -0.002 C 
HETATM   14  C1  UNL     1      12.836  22.357   3.426  1.00  0.00     0.005 C 
ENDBRANCH  12  13
ENDBRANCH  11  12
BRANCH  11  15
HETATM   15  N1  UNL     1      12.090  23.486   6.730  1.00  0.00    -0.324 N 
HETATM   16  C5  UNL     1      12.321  22.108   7.009  1.00  0.00     0.362 C 
HETATM   17  O1  UNL     1      11.591  21.236   6.483  1.00  0.00    -0.238 OA
ATOM     18  H1  UNL     1      12.691  24.190   7.160  1.00  0.00     0.165 HD
BRANCH  16  19
HETATM   19  O2  UNL     1      13.337  21.690   7.850  1.00  0.00    -0.294 OA
BRANCH  19  20
HETATM   20  C6  UNL     1      14.675  21.596   7.414  1.00  0.00     0.061 C 
HETATM   21  C7  UNL     1      14.833  20.797   6.149  1.00  0.00     0.046 C 
HETATM   22  C8  UNL     1      15.353  22.942   7.313  1.00  0.00     0.046 C 
HETATM   23  C9  UNL     1      15.418  20.837   8.527  1.00  0.00     0.046 C 
ENDBRANCH  19  20
ENDBRANCH  16  19
ENDBRANCH  11  15
ENDBRANCH   8  11
ENDBRANCH   6   7
BRANCH   6  24
HETATM   24  C30 UNL     1       9.584  26.857   9.462  1.00  0.00     0.009 C 
HETATM   25  C31 UNL     1      11.079  26.761   9.630  1.00  0.00     0.012 C 
HETATM   26  C32 UNL     1       9.033  28.118  10.010  1.00  0.00     0.012 C 
ENDBRANCH   6  24
ENDBRANCH   3   6
ENDBRANCH   1   2
BRANCH   1  27
HETATM   27  C14 UNL     1       5.013  28.694   6.999  1.00  0.00     0.038 C 
BRANCH  27  28
HETATM   28  C15 UNL     1       3.490  28.692   7.102  1.00  0.00    -0.020 C 
HETATM   29  C16 UNL     1       2.923  30.080   7.065  1.00  0.00     0.009 C 
HETATM   30  C17 UNL     1       3.061  28.100   8.442  1.00  0.00     0.009 C 
ENDBRANCH  27  28
ENDBRANCH   1  27
BRANCH   1  31
HETATM   31  C18 UNL     1       5.316  26.765   5.428  1.00  0.00     0.245 C 
HETATM   32  O5  UNL     1       6.140  27.155   4.549  1.00  0.00    -0.271 OA
HETATM   33  N4  UNL     1       4.308  25.887   5.076  1.00  0.00    -0.310 N 
HETATM   34  C19 UNL     1       3.286  25.418   6.038  1.00  0.00     0.129 C 
HETATM   35  C23 UNL     1       4.062  25.352   3.757  1.00  0.00     0.280 C 
HETATM   36  C20 UNL     1       1.947  25.897   5.435  1.00  0.00     0.020 C 
HETATM   37  C21 UNL     1       2.169  26.860   4.291  1.00  0.00     0.006 C 
HETATM   38  C22 UNL     1       3.027  26.311   3.164  1.00  0.00     0.072 C 
BRANCH  35  39
HETATM   39  N5  UNL     1       3.284  24.082   3.915  1.00  0.00    -0.043 N 
ATOM     40  H53 UNL     1       3.878  23.253   3.932  1.00  0.00     0.278 HD
ATOM     41  H52 UNL     1       2.880  23.979   4.846  1.00  0.00     0.278 HD
ATOM     42  H51 UNL     1       2.582  24.052   3.176  1.00  0.00     0.278 HD
ENDBRANCH  35  39
BRANCH  35  43
HETATM   43  C24 UNL     1       5.153  24.997   2.915  1.00  0.00     0.275 C 
HETATM   44  O6  UNL     1       5.249  25.360   1.718  1.00  0.00    -0.269 OA
HETATM   45  N6  UNL     1       6.253  24.180   3.375  1.00  0.00    -0.353 N 
ATOM     46  H6  UNL     1       6.245  23.844   4.338  1.00  0.00     0.163 HD
BRANCH  45  47
HETATM   47  C25 UNL     1       7.347  23.828   2.535  1.00  0.00     0.084 C 
HETATM   48  C26 UNL     1       8.074  22.563   2.930  1.00  0.00     0.025 C 
HETATM   49  C27 UNL     1       9.378  22.617   2.128  1.00  0.00     0.002 C 
HETATM   50  C28 UNL     1       9.597  24.068   1.815  1.00  0.00     0.002 C 
HETATM   51  C29 UNL     1       8.484  24.818   2.509  1.00  0.00     0.025 C 
ENDBRANCH  45  47
ENDBRANCH  35  43
ENDBRANCH   1  31
TORSDOF 16
ENDMDL
MODEL 2
REMARK VINA RESULT: -7.764473776      5.542     14.090
REMARK  16 active torsions:
REMARK  status: ('A' for Active; 'I' for Inactive)
REMARK    1  A    between atoms: C2_2  and  C3_3 
REMARK    2  A    between atoms: C3_3  and  C4_4 
REMARK    3  A    between atoms: C4_4  and  N1_5 
REMARK    4  A    between atoms: C4_4  and  C10_14 
REMARK       I    between atoms: N1_5  and  C5_7 
REMARK    5  A    between atoms: C5_7  and  O2_9 
REMARK    6  A    between atoms: O2_9  and  C6_10 
REMARK       I    between atoms: C10_14  and  N2_16 
REMARK    7  A    between atoms: N2_16  and  C11_18 
REMARK    8  A    between atoms: C11_18  and  C12_19 
REMARK    9  A    between atoms: C11_18  and  C30_49 
REMARK       I    between atoms: C12_19  and  N3_21 
REMARK   10  A    between atoms: N3_21  and  C13_23 
REMARK   11  A    between atoms: C13_23  and  C14_24 
REMARK   12  A    between atoms: C13_23  and  C18_28 
REMARK   13  A    between atoms: C14_24  and  C15_25 
REMARK       I    between atoms: C18_28  and  N4_30 
REMARK   14  A    between atoms: C23_35  and  N5_36 
REMARK   15  A    between atoms: C23_35  and  C24_40 
REMARK       I    between atoms: C24_40  and  N6_42 
REMARK   16  A    between atoms: N6_42  and  C25_44 
ROOT
HETATM    1  C13 UNL     1      18.574  16.292   5.470  1.00  0.00     0.177 C 
ENDROOT
BRANCH   1   2
HETATM    2  N3  UNL     1      18.019  17.404   4.678  1.00  0.00    -0.346 N 
HETATM    3  C12 UNL     1      16.672  17.471   4.264  1.00  0.00     0.241 C 
HETATM    4  O4  UNL     1      15.930  16.503   4.621  1.00  0.00    -0.271 OA
ATOM      5  H3  UNL     1      18.643  18.167   4.415  1.00  0.00     0.163 HD
BRANCH   3   6
HETATM    6  C11 UNL     1      16.059  18.526   3.484  1.00  0.00     0.180 C 
BRANCH   6   7
HETATM    7  N2  UNL     1      14.828  19.046   4.096  1.00  0.00    -0.346 N 
HETATM    8  C10 UNL     1      14.766  20.357   4.624  1.00  0.00     0.241 C 
HETATM    9  O3  UNL     1      15.831  21.074   4.539  1.00  0.00    -0.271 OA
ATOM     10  H2  UNL     1      14.002  18.450   4.142  1.00  0.00     0.163 HD
BRANCH   8  11
HETATM   11  C4  UNL     1      13.612  20.981   5.258  1.00  0.00     0.178 C 
BRANCH  11  12
HETATM   12  C3  UNL     1      14.068  21.532   6.625  1.00  0.00     0.034 C 
BRANCH  12  13
HETATM   13  C2  UNL     1      14.366  23.027   6.481  1.00  0.00    -0.002 C 
HETATM   14  C1  UNL     1      13.607  23.815   7.509  1.00  0.00     0.005 C 
ENDBRANCH  12  13
ENDBRANCH  11  12
BRANCH  11  15
HETATM   15  N1  UNL     1      13.088  22.103   4.466  1.00  0.00    -0.324 N 
HETATM   16  C5  UNL     1      11.761  22.587   4.653  1.00  0.00     0.362 C 
HETATM   17  O1  UNL     1      11.020  22.054   5.511  1.00  0.00    -0.238 OA
ATOM     18  H1  UNL     1      13.687  22.545   3.768  1.00  0.00     0.165 HD
BRANCH  16  19
HETATM   19  O2  UNL     1      11.253  23.640   3.914  1.00  0.00    -0.294 OA
BRANCH  19  20
HETATM   20  C6  UNL     1      10.077  23.512   3.144  1.00  0.00     0.061 C 
HETATM   21  C7  UNL     1       9.786  22.093   2.736  1.00  0.00     0.046 C 
HETATM   22  C8  UNL     1       8.880  24.164   3.793  1.00  0.00     0.046 C 
HETATM   23  C9  UNL     1      10.340  24.310   1.856  1.00  0.00     0.046 C 
ENDBRANCH  19  20
ENDBRANCH  16  19
ENDBRANCH  11  15
ENDBRANCH   8  11
ENDBRANCH   6   7
BRANCH   6  24
HETATM   24  C30 UNL     1      15.716  18.165   2.064  1.00  0.00     0.009 C 
HETATM   25  C31 UNL     1      15.159  19.359   1.332  1.00  0.00     0.012 C 
HETATM   26  C32 UNL     1      16.807  17.500   1.313  1.00  0.00     0.012 C 
ENDBRANCH   6  24
ENDBRANCH   3   6
ENDBRANCH   1   2
BRANCH   1  27
HETATM   27  C14 UNL     1      19.796  15.838   4.765  1.00  0.00     0.038 C 
BRANCH  27  28
HETATM   28  C15 UNL     1      20.422  14.605   5.414  1.00  0.00    -0.020 C 
HETATM   29  C16 UNL     1      21.903  14.544   5.190  1.00  0.00     0.009 C 
HETATM   30  C17 UNL     1      19.849  13.339   4.783  1.00  0.00     0.009 C 
ENDBRANCH  27  28
ENDBRANCH   1  27
BRANCH   1  31
HETATM   31  C18 UNL     1      18.810  16.763   6.875  1.00  0.00     0.245 C 
HETATM   32  O5  UNL     1      19.172  17.974   6.955  1.00  0.00    -0.271 OA
HETATM   33  N4  UNL     1      18.665  16.018   8.031  1.00  0.00    -0.310 N 
HETATM   34  C19 UNL     1      18.284  14.588   8.016  1.00  0.00     0.129 C 
HETATM   35  C23 UNL     1      18.908  16.475   9.379  1.00  0.00     0.280 C 
HETATM   36  C20 UNL     1      19.473  13.869   8.689  1.00  0.00     0.020 C 
HETATM   37  C21 UNL     1      20.655  14.796   8.859  1.00  0.00     0.006 C 
HETATM   38  C22 UNL     1      20.356  16.059   9.648  1.00  0.00     0.072 C 
BRANCH  35  39
HETATM   39  N5  UNL     1      18.133  15.592  10.309  1.00  0.00    -0.043 N 
ATOM     40  H53 UNL     1      17.941  14.672   9.913  1.00  0.00     0.278 HD
ATOM     41  H52 UNL     1      18.682  15.283  11.111  1.00  0.00     0.278 HD
ATOM     42  H51 UNL     1      17.286  16.091  10.580  1.00  0.00     0.278 HD
ENDBRANCH  35  39
BRANCH  35  43
HETATM   43  C24 UNL     1      18.546  17.797   9.762  1.00  0.00     0.275 C 
HETATM   44  O6  UNL     1      19.295  18.553  10.426  1.00  0.00    -0.269 OA
HETATM   45  N6  UNL     1      17.274  18.384   9.411  1.00  0.00    -0.353 N 
ATOM     46  H6  UNL     1      16.609  17.829   8.872  1.00  0.00     0.163 HD
BRANCH  45  47
HETATM   47  C25 UNL     1      16.913  19.709   9.789  1.00  0.00     0.084 C 
HETATM   48  C26 UNL     1      15.452  19.900  10.127  1.00  0.00     0.025 C 
HETATM   49  C27 UNL     1      15.267  21.421  10.129  1.00  0.00     0.002 C 
HETATM   50  C28 UNL     1      16.371  21.961   9.269  1.00  0.00     0.002 C 
HETATM   51  C29 UNL     1      17.102  20.757   8.723  1.00  0.00     0.025 C 
ENDBRANCH  45  47
ENDBRANCH  35  43
ENDBRANCH   1  31
TORSDOF 16
ENDMDL
MODEL 3
REMARK VINA RESULT: -7.545429813      2.506     10.789
REMARK  16 active torsions:
REMARK  status: ('A' for Active; 'I' for Inactive)
REMARK    1  A    between atoms: C2_2  and  C3_3 
REMARK    2  A    between atoms: C3_3  and  C4_4 
REMARK    3  A    between atoms: C4_4  and  N1_5 
REMARK    4  A    between atoms: C4_4  and  C10_14 
REMARK       I    between atoms: N1_5  and  C5_7 
REMARK    5  A    between atoms: C5_7  and  O2_9 
REMARK    6  A    between atoms: O2_9  and  C6_10 
REMARK       I    between atoms: C10_14  and  N2_16 
REMARK    7  A    between atoms: N2_16  and  C11_18 
REMARK    8  A    between atoms: C11_18  and  C12_19 
REMARK    9  A    between atoms: C11_18  and  C30_49 
REMARK       I    between atoms: C12_19  and  N3_21 
REMARK   10  A    between atoms: N3_21  and  C13_23 
REMARK   11  A    between atoms: C13_23  and  C14_24 
REMARK   12  A    between atoms: C13_23  and  C18_28 
REMARK   13  A    between atoms: C14_24  and  C15_25 
REMARK       I    between atoms: C18_28  and  N4_30 
REMARK   14  A    between atoms: C23_35  and  N5_36 
REMARK   15  A    between atoms: C23_35  and  C24_40 
REMARK       I    between atoms: C24_40  and  N6_42 
REMARK   16  A    between atoms: N6_42  and  C25_44 
ROOT
HETATM    1  C13 UNL     1      13.728  20.931   4.108  1.00  0.00     0.177 C 
ENDROOT
BRANCH   1   2
HETATM    2  N3  UNL     1      12.961  22.162   3.851  1.00  0.00    -0.346 N 
HETATM    3  C12 UNL     1      11.728  22.457   4.468  1.00  0.00     0.241 C 
HETATM    4  O4  UNL     1      11.293  21.591   5.289  1.00  0.00    -0.271 OA
ATOM      5  H3  UNL     1      13.343  22.838   3.189  1.00  0.00     0.163 HD
BRANCH   3   6
HETATM    6  C11 UNL     1      10.918  23.641   4.261  1.00  0.00     0.180 C 
BRANCH   6   7
HETATM    7  N2  UNL     1       9.994  23.901   5.374  1.00  0.00    -0.346 N 
HETATM    8  C10 UNL     1      10.134  25.045   6.195  1.00  0.00     0.241 C 
HETATM    9  O3  UNL     1      11.100  25.848   5.920  1.00  0.00    -0.271 OA
ATOM     10  H2  UNL     1       9.236  23.243   5.559  1.00  0.00     0.163 HD
BRANCH   8  11
HETATM   11  C4  UNL     1       9.288  25.407   7.326  1.00  0.00     0.178 C 
BRANCH  11  12
HETATM   12  C3  UNL     1       9.907  26.652   7.993  1.00  0.00     0.034 C 
BRANCH  12  13
HETATM   13  C2  UNL     1       9.465  26.698   9.460  1.00  0.00    -0.002 C 
HETATM   14  C1  UNL     1       9.053  28.090   9.840  1.00  0.00     0.005 C 
ENDBRANCH  12  13
ENDBRANCH  11  12
BRANCH  11  15
HETATM   15  N1  UNL     1       7.921  25.746   6.906  1.00  0.00    -0.324 N 
HETATM   16  C5  UNL     1       7.649  26.922   6.150  1.00  0.00     0.362 C 
HETATM   17  O1  UNL     1       8.588  27.687   5.830  1.00  0.00    -0.238 OA
ATOM     18  H1  UNL     1       7.152  25.126   7.160  1.00  0.00     0.165 HD
BRANCH  16  19
HETATM   19  O2  UNL     1       6.367  27.257   5.749  1.00  0.00    -0.294 OA
BRANCH  19  20
HETATM   20  C6  UNL     1       5.396  27.715   6.664  1.00  0.00     0.061 C 
HETATM   21  C7  UNL     1       4.566  26.607   7.254  1.00  0.00     0.046 C 
HETATM   22  C8  UNL     1       5.976  28.610   7.733  1.00  0.00     0.046 C 
HETATM   23  C9  UNL     1       4.447  28.605   5.844  1.00  0.00     0.046 C 
ENDBRANCH  19  20
ENDBRANCH  16  19
ENDBRANCH  11  15
ENDBRANCH   8  11
ENDBRANCH   6   7
BRANCH   6  24
HETATM   24  C30 UNL     1      10.093  23.649   3.003  1.00  0.00     0.009 C 
HETATM   25  C31 UNL     1      10.863  24.275   1.868  1.00  0.00     0.012 C 
HETATM   26  C32 UNL     1       9.511  22.337   2.636  1.00  0.00     0.012 C 
ENDBRANCH   6  24
ENDBRANCH   3   6
ENDBRANCH   1   2
BRANCH   1  27
HETATM   27  C14 UNL     1      14.655  20.762   2.964  1.00  0.00     0.038 C 
BRANCH  27  28
HETATM   28  C15 UNL     1      15.041  19.302   2.735  1.00  0.00    -0.020 C 
HETATM   29  C16 UNL     1      16.394  18.984   3.299  1.00  0.00     0.009 C 
HETATM   30  C17 UNL     1      15.133  19.018   1.239  1.00  0.00     0.009 C 
ENDBRANCH  27  28
ENDBRANCH   1  27
BRANCH   1  31
HETATM   31  C18 UNL     1      14.406  21.047   5.442  1.00  0.00     0.245 C 
HETATM   32  O5  UNL     1      14.476  19.953   6.077  1.00  0.00    -0.271 OA
HETATM   33  N4  UNL     1      14.935  22.195   6.001  1.00  0.00    -0.310 N 
HETATM   34  C19 UNL     1      14.857  23.516   5.338  1.00  0.00     0.129 C 
HETATM   35  C23 UNL     1      15.574  22.301   7.292  1.00  0.00     0.280 C 
HETATM   36  C20 UNL     1      14.063  24.394   6.331  1.00  0.00     0.020 C 
HETATM   37  C21 UNL     1      13.445  23.563   7.431  1.00  0.00     0.006 C 
HETATM   38  C22 UNL     1      14.438  22.730   8.224  1.00  0.00     0.072 C 
BRANCH  35  39
HETATM   39  N5  UNL     1      16.456  23.511   7.270  1.00  0.00    -0.043 N 
ATOM     40  H53 UNL     1      16.391  24.032   6.395  1.00  0.00     0.278 HD
ATOM     41  H52 UNL     1      16.131  24.250   7.893  1.00  0.00     0.278 HD
ATOM     42  H51 UNL     1      17.407  23.209   7.480  1.00  0.00     0.278 HD
ENDBRANCH  35  39
BRANCH  35  43
HETATM   43  C24 UNL     1      16.418  21.255   7.761  1.00  0.00     0.275 C 
HETATM   44  O6  UNL     1      17.470  20.902   7.177  1.00  0.00    -0.269 OA
HETATM   45  N6  UNL     1      16.129  20.508   8.963  1.00  0.00    -0.353 N 
ATOM     46  H6  UNL     1      15.288  20.736   9.494  1.00  0.00     0.163 HD
BRANCH  45  47
HETATM   47  C25 UNL     1      16.976  19.465   9.436  1.00  0.00     0.084 C 
HETATM   48  C26 UNL     1      16.293  18.437  10.311  1.00  0.00     0.025 C 
HETATM   49  C27 UNL     1      17.452  17.677  10.965  1.00  0.00     0.002 C 
HETATM   50  C28 UNL     1      18.623  18.614  10.919  1.00  0.00     0.002 C 
HETATM   51  C29 UNL     1      18.102  19.906  10.334  1.00  0.00     0.025 C 
ENDBRANCH  45  47
ENDBRANCH  35  43
ENDBRANCH   1  31
TORSDOF 16
ENDMDL
MODEL 4
REMARK VINA RESULT: -7.543451082      5.292     13.109
REMARK  16 active torsions:
REMARK  status: ('A' for Active; 'I' for Inactive)
REMARK    1  A    between atoms: C2_2  and  C3_3 
REMARK    2  A    between atoms: C3_3  and  C4_4 
REMARK    3  A    between atoms: C4_4  and  N1_5 
REMARK    4  A    between atoms: C4_4  and  C10_14 
REMARK       I    between atoms: N1_5  and  C5_7 
REMARK    5  A    between atoms: C5_7  and  O2_9 
REMARK    6  A    between atoms: O2_9  and  C6_10 
REMARK       I    between atoms: C10_14  and  N2_16 
REMARK    7  A    between atoms: N2_16  and  C11_18 
REMARK    8  A    between atoms: C11_18  and  C12_19 
REMARK    9  A    between atoms: C11_18  and  C30_49 
REMARK       I    between atoms: C12_19  and  N3_21 
REMARK   10  A    between atoms: N3_21  and  C13_23 
REMARK   11  A    between atoms: C13_23  and  C14_24 
REMARK   12  A    between atoms: C13_23  and  C18_28 
REMARK   13  A    between atoms: C14_24  and  C15_25 
REMARK       I    between atoms: C18_28  and  N4_30 
REMARK   14  A    between atoms: C23_35  and  N5_36 
REMARK   15  A    between atoms: C23_35  and  C24_40 
REMARK       I    between atoms: C24_40  and  N6_42 
REMARK   16  A    between atoms: N6_42  and  C25_44 
ROOT
HETATM    1  C13 UNL     1      17.920  20.080   7.420  1.00  0.00     0.177 C 
ENDROOT
BRANCH   1   2
HETATM    2  N3  UNL     1      16.787  20.007   6.480  1.00  0.00    -0.346 N 
HETATM    3  C12 UNL     1      16.938  19.886   5.084  1.00  0.00     0.241 C 
HETATM    4  O4  UNL     1      18.132  19.833   4.654  1.00  0.00    -0.271 OA
ATOM      5  H3  UNL     1      15.842  20.047   6.862  1.00  0.00     0.163 HD
BRANCH   3   6
HETATM    6  C11 UNL     1      15.875  19.813   4.102  1.00  0.00     0.180 C 
BRANCH   6   7
HETATM    7  N2  UNL     1      14.571  20.221   4.643  1.00  0.00    -0.346 N 
HETATM    8  C10 UNL     1      14.114  21.556   4.533  1.00  0.00     0.241 C 
HETATM    9  O3  UNL     1      14.888  22.393   3.936  1.00  0.00    -0.271 OA
ATOM     10  H2  UNL     1      13.982  19.529   5.106  1.00  0.00     0.163 HD
BRANCH   8  11
HETATM   11  C4  UNL     1      12.849  22.082   5.032  1.00  0.00     0.178 C 
BRANCH  11  12
HETATM   12  C3  UNL     1      13.141  22.838   6.344  1.00  0.00     0.034 C 
BRANCH  12  13
HETATM   13  C2  UNL     1      11.865  23.556   6.795  1.00  0.00    -0.002 C 
HETATM   14  C1  UNL     1      12.181  24.952   7.248  1.00  0.00     0.005 C 
ENDBRANCH  12  13
ENDBRANCH  11  12
BRANCH  11  15
HETATM   15  N1  UNL     1      12.235  23.027   4.088  1.00  0.00    -0.324 N 
HETATM   16  C5  UNL     1      10.968  22.763   3.494  1.00  0.00     0.362 C 
HETATM   17  O1  UNL     1      10.355  21.708   3.780  1.00  0.00    -0.238 OA
ATOM     18  H1  UNL     1      12.727  23.889   3.853  1.00  0.00     0.165 HD
BRANCH  16  19
HETATM   19  O2  UNL     1      10.378  23.640   2.602  1.00  0.00    -0.294 OA
BRANCH  19  20
HETATM   20  C6  UNL     1       9.146  24.269   2.878  1.00  0.00     0.061 C 
HETATM   21  C7  UNL     1       7.954  23.411   2.549  1.00  0.00     0.046 C 
HETATM   22  C8  UNL     1       9.071  24.814   4.284  1.00  0.00     0.046 C 
HETATM   23  C9  UNL     1       9.092  25.495   1.951  1.00  0.00     0.046 C 
ENDBRANCH  19  20
ENDBRANCH  16  19
ENDBRANCH  11  15
ENDBRANCH   8  11
ENDBRANCH   6   7
BRANCH   6  24
HETATM   24  C30 UNL     1      15.675  18.465   3.464  1.00  0.00     0.009 C 
HETATM   25  C31 UNL     1      14.890  17.556   4.376  1.00  0.00     0.012 C 
HETATM   26  C32 UNL     1      15.120  18.505   2.091  1.00  0.00     0.012 C 
ENDBRANCH   6  24
ENDBRANCH   3   6
ENDBRANCH   1   2
BRANCH   1  27
HETATM   27  C14 UNL     1      17.544  21.063   8.464  1.00  0.00     0.038 C 
BRANCH  27  28
HETATM   28  C15 UNL     1      16.174  21.689   8.211  1.00  0.00    -0.020 C 
HETATM   29  C16 UNL     1      16.217  23.186   8.293  1.00  0.00     0.009 C 
HETATM   30  C17 UNL     1      15.190  21.237   9.286  1.00  0.00     0.009 C 
ENDBRANCH  27  28
ENDBRANCH   1  27
BRANCH   1  31
HETATM   31  C18 UNL     1      18.211  18.704   7.942  1.00  0.00     0.245 C 
HETATM   32  O5  UNL     1      18.242  17.811   7.043  1.00  0.00    -0.271 OA
HETATM   33  N4  UNL     1      18.441  18.352   9.259  1.00  0.00    -0.310 N 
HETATM   34  C19 UNL     1      18.384  19.330  10.368  1.00  0.00     0.129 C 
HETATM   35  C23 UNL     1      18.707  17.022   9.755  1.00  0.00     0.280 C 
HETATM   36  C20 UNL     1      17.264  18.797  11.289  1.00  0.00     0.020 C 
HETATM   37  C21 UNL     1      16.483  17.687  10.623  1.00  0.00     0.006 C 
HETATM   38  C22 UNL     1      17.327  16.508  10.171  1.00  0.00     0.072 C 
BRANCH  35  39
HETATM   39  N5  UNL     1      19.419  17.156  11.067  1.00  0.00    -0.043 N 
ATOM     40  H53 UNL     1      20.406  17.389  10.960  1.00  0.00     0.278 HD
ATOM     41  H52 UNL     1      19.138  17.987  11.586  1.00  0.00     0.278 HD
ATOM     42  H51 UNL     1      19.270  16.294  11.592  1.00  0.00     0.278 HD
ENDBRANCH  35  39
BRANCH  35  43
HETATM   43  C24 UNL     1      19.517  16.126   9.002  1.00  0.00     0.275 C 
HETATM   44  O6  UNL     1      20.771  16.137   9.031  1.00  0.00    -0.269 OA
HETATM   45  N6  UNL     1      18.954  15.118   8.133  1.00  0.00    -0.353 N 
ATOM     46  H6  UNL     1      17.940  15.048   8.055  1.00  0.00     0.163 HD
BRANCH  45  47
HETATM   47  C25 UNL     1      19.763  14.218   7.383  1.00  0.00     0.084 C 
HETATM   48  C26 UNL     1      19.465  14.176   5.901  1.00  0.00     0.025 C 
HETATM   49  C27 UNL     1      20.180  12.912   5.414  1.00  0.00     0.002 C 
HETATM   50  C28 UNL     1      20.322  12.039   6.625  1.00  0.00     0.002 C 
HETATM   51  C29 UNL     1      19.617  12.764   7.748  1.00  0.00     0.025 C 
ENDBRANCH  45  47
ENDBRANCH  35  43
ENDBRANCH   1  31
TORSDOF 16
ENDMDL
MODEL 5
REMARK VINA RESULT: -7.456747864      3.299     11.138
REMARK  16 active torsions:
REMARK  status: ('A' for Active; 'I' for Inactive)
REMARK    1  A    between atoms: C2_2  and  C3_3 
REMARK    2  A    between atoms: C3_3  and  C4_4 
REMARK    3  A    between atoms: C4_4  and  N1_5 
REMARK    4  A    between atoms: C4_4  and  C10_14 
REMARK       I    between atoms: N1_5  and  C5_7 
REMARK    5  A    between atoms: C5_7  and  O2_9 
REMARK    6  A    between atoms: O2_9  and  C6_10 
REMARK       I    between atoms: C10_14  and  N2_16 
REMARK    7  A    between atoms: N2_16  and  C11_18 
REMARK    8  A    between atoms: C11_18  and  C12_19 
REMARK    9  A    between atoms: C11_18  and  C30_49 
REMARK       I    between atoms: C12_19  and  N3_21 
REMARK   10  A    between atoms: N3_21  and  C13_23 
REMARK   11  A    between atoms: C13_23  and  C14_24 
REMARK   12  A    between atoms: C13_23  and  C18_28 
REMARK   13  A    between atoms: C14_24  and  C15_25 
REMARK       I    between atoms: C18_28  and  N4_30 
REMARK   14  A    between atoms: C23_35  and  N5_36 
REMARK   15  A    between atoms: C23_35  and  C24_40 
REMARK       I    between atoms: C24_40  and  N6_42 
REMARK   16  A    between atoms: N6_42  and  C25_44 
ROOT
HETATM    1  C13 UNL     1      14.230  20.634   4.952  1.00  0.00     0.177 C 
ENDROOT
BRANCH   1   2
HETATM    2  N3  UNL     1      13.663  21.959   5.261  1.00  0.00    -0.346 N 
HETATM    3  C12 UNL     1      12.368  22.151   5.783  1.00  0.00     0.241 C 
HETATM    4  O4  UNL     1      11.688  21.098   5.991  1.00  0.00    -0.271 OA
ATOM      5  H3  UNL     1      14.240  22.782   5.087  1.00  0.00     0.163 HD
BRANCH   3   6
HETATM    6  C11 UNL     1      11.745  23.418   6.106  1.00  0.00     0.180 C 
BRANCH   6   7
HETATM    7  N2  UNL     1      10.932  23.951   5.004  1.00  0.00    -0.346 N 
HETATM    8  C10 UNL     1       9.640  24.482   5.233  1.00  0.00     0.241 C 
HETATM    9  O3  UNL     1       9.213  24.483   6.446  1.00  0.00    -0.271 OA
ATOM     10  H2  UNL     1      11.306  23.939   4.055  1.00  0.00     0.163 HD
BRANCH   8  11
HETATM   11  C4  UNL     1       8.740  25.032   4.227  1.00  0.00     0.178 C 
BRANCH  11  12
HETATM   12  C3  UNL     1       8.274  23.868   3.329  1.00  0.00     0.034 C 
BRANCH  12  13
HETATM   13  C2  UNL     1       7.644  24.445   2.057  1.00  0.00    -0.002 C 
HETATM   14  C1  UNL     1       8.466  25.588   1.537  1.00  0.00     0.005 C 
ENDBRANCH  12  13
ENDBRANCH  11  12
BRANCH  11  15
HETATM   15  N1  UNL     1       7.549  25.647   4.830  1.00  0.00    -0.324 N 
HETATM   16  C5  UNL     1       7.553  27.006   5.256  1.00  0.00     0.362 C 
HETATM   17  O1  UNL     1       8.586  27.700   5.114  1.00  0.00    -0.238 OA
ATOM     18  H1  UNL     1       6.703  25.090   4.946  1.00  0.00     0.165 HD
BRANCH  16  19
HETATM   19  O2  UNL     1       6.441  27.600   5.829  1.00  0.00    -0.294 OA
BRANCH  19  20
HETATM   20  C6  UNL     1       6.162  27.485   7.207  1.00  0.00     0.061 C 
HETATM   21  C7  UNL     1       4.755  27.034   7.492  1.00  0.00     0.046 C 
HETATM   22  C8  UNL     1       7.179  26.645   7.941  1.00  0.00     0.046 C 
HETATM   23  C9  UNL     1       6.306  28.907   7.775  1.00  0.00     0.046 C 
ENDBRANCH  19  20
ENDBRANCH  16  19
ENDBRANCH  11  15
ENDBRANCH   8  11
ENDBRANCH   6   7
BRANCH   6  24
HETATM   24  C30 UNL     1      12.688  24.516   6.518  1.00  0.00     0.009 C 
HETATM   25  C31 UNL     1      13.079  25.355   5.328  1.00  0.00     0.012 C 
HETATM   26  C32 UNL     1      12.221  25.338   7.660  1.00  0.00     0.012 C 
ENDBRANCH   6  24
ENDBRANCH   3   6
ENDBRANCH   1   2
BRANCH   1  27
HETATM   27  C14 UNL     1      14.707  20.692   3.550  1.00  0.00     0.038 C 
BRANCH  27  28
HETATM   28  C15 UNL     1      15.065  19.315   2.996  1.00  0.00    -0.020 C 
HETATM   29  C16 UNL     1      16.547  19.129   2.869  1.00  0.00     0.009 C 
HETATM   30  C17 UNL     1      14.500  19.160   1.587  1.00  0.00     0.009 C 
ENDBRANCH  27  28
ENDBRANCH   1  27
BRANCH   1  31
HETATM   31  C18 UNL     1      15.298  20.313   5.956  1.00  0.00     0.245 C 
HETATM   32  O5  UNL     1      15.609  19.085   5.997  1.00  0.00    -0.271 OA
HETATM   33  N4  UNL     1      15.938  21.207   6.794  1.00  0.00    -0.310 N 
HETATM   34  C19 UNL     1      15.602  22.647   6.832  1.00  0.00     0.129 C 
HETATM   35  C23 UNL     1      16.956  20.887   7.768  1.00  0.00     0.280 C 
HETATM   36  C20 UNL     1      15.141  22.893   8.285  1.00  0.00     0.020 C 
HETATM   37  C21 UNL     1      14.943  21.592   9.029  1.00  0.00     0.006 C 
HETATM   38  C22 UNL     1      16.168  20.695   9.066  1.00  0.00     0.072 C 
BRANCH  35  39
HETATM   39  N5  UNL     1      17.739  22.135   8.039  1.00  0.00    -0.043 N 
ATOM     40  H53 UNL     1      17.302  22.732   8.742  1.00  0.00     0.278 HD
ATOM     41  H52 UNL     1      18.611  21.955   8.537  1.00  0.00     0.278 HD
ATOM     42  H51 UNL     1      17.885  22.612   7.150  1.00  0.00     0.278 HD
ENDBRANCH  35  39
BRANCH  35  43
HETATM   43  C24 UNL     1      17.943  19.905   7.475  1.00  0.00     0.275 C 
HETATM   44  O6  UNL     1      19.003  20.154   6.851  1.00  0.00    -0.269 OA
HETATM   45  N6  UNL     1      17.806  18.524   7.878  1.00  0.00    -0.353 N 
ATOM     46  H6  UNL     1      16.968  18.243   8.389  1.00  0.00     0.163 HD
BRANCH  45  47
HETATM   47  C25 UNL     1      18.795  17.542   7.590  1.00  0.00     0.084 C 
HETATM   48  C26 UNL     1      18.641  16.854   6.252  1.00  0.00     0.025 C 
HETATM   49  C27 UNL     1      19.564  15.635   6.352  1.00  0.00     0.002 C 
HETATM   50  C28 UNL     1      19.714  15.365   7.820  1.00  0.00     0.002 C 
HETATM   51  C29 UNL     1      18.817  16.358   8.522  1.00  0.00     0.025 C 
ENDBRANCH  45  47
ENDBRANCH  35  43
ENDBRANCH   1  31
TORSDOF 16
ENDMDL
