MODEL 1
REMARK VINA RESULT: -9.322007908      0.000      0.000
REMARK  14 active torsions:
REMARK  status: ('A' for Active; 'I' for Inactive)
REMARK    1  A    between atoms: O1_2  and  C2_3 
REMARK    2  A    between atoms: C4_5  and  O2_6 
REMARK    3  A    between atoms: C5_8  and  C6_9 
REMARK    4  A    between atoms: C6_9  and  C7_10 
REMARK    5  A    between atoms: C7_10  and  C8_11 
REMARK    6  A    between atoms: C8_11  and  O3_12 
REMARK    7  A    between atoms: C8_11  and  C9_14 
REMARK    8  A    between atoms: C13_18  and  C14_19 
REMARK    9  A    between atoms: C15_20  and  C16_21 
REMARK   10  A    between atoms: C16_21  and  C17_23 
REMARK   11  A    between atoms: C17_23  and  C18_24 
REMARK   12  A    between atoms: C18_24  and  C19_26 
REMARK   13  A    between atoms: C20_27  and  C21_28 
REMARK   14  A    between atoms: C27_37  and  O6_38 
ROOT
HETATM    1  C2  UNL     1       8.199  27.073   2.688  1.00  0.00     0.073 A 
HETATM    2  C3  UNL     1       8.298  27.813   3.840  1.00  0.00     0.074 A 
HETATM    3  C4  UNL     1       8.973  27.301   4.943  1.00  0.00     0.081 A 
HETATM    4  C5  UNL     1       9.543  26.051   4.885  1.00  0.00     0.031 A 
HETATM    5  C28 UNL     1       9.455  25.276   3.727  1.00  0.00     0.083 A 
HETATM    6  O7  UNL     1       9.929  24.090   3.550  1.00  0.00    -0.355 OA
HETATM    7  C29 UNL     1      10.338  22.919   3.219  1.00  0.00     0.210 C 
HETATM    8  C30 UNL     1       8.745  25.849   2.603  1.00  0.00     0.074 A 
ENDROOT
BRANCH   4   9
HETATM    9  C6  UNL     1      10.143  25.512   6.148  1.00  0.00     0.020 C 
BRANCH   9  10
HETATM   10  C7  UNL     1      11.416  25.439   6.282  1.00  0.00     0.038 C 
BRANCH  10  11
HETATM   11  C8  UNL     1      12.577  24.814   5.798  1.00  0.00     0.078 C 
BRANCH  11  12
HETATM   12  O3  UNL     1      13.085  25.512   4.734  1.00  0.00    -0.360 OA
ATOM     13  H3  UNL     1      12.518  25.419   3.978  1.00  0.00     0.217 HD
ENDBRANCH  11  12
BRANCH  11  14
HETATM   14  C9  UNL     1      13.379  23.688   6.072  1.00  0.00     0.031 A 
HETATM   15  C10 UNL     1      13.599  23.376   7.440  1.00  0.00     0.017 A 
HETATM   16  C11 UNL     1      14.367  22.319   7.826  1.00  0.00     0.002 A 
HETATM   17  C12 UNL     1      14.969  21.502   6.912  1.00  0.00     0.014 A 
HETATM   18  C13 UNL     1      14.790  21.761   5.533  1.00  0.00    -0.002 A 
HETATM   19  C27 UNL     1      13.998  22.845   5.133  1.00  0.00     0.088 A 
BRANCH  18  20
HETATM   20  C14 UNL     1      15.432  20.831   4.642  1.00  0.00     0.018 C 
HETATM   21  C15 UNL     1      15.110  19.615   4.341  1.00  0.00     0.051 C 
BRANCH  21  22
HETATM   22  C16 UNL     1      15.987  18.899   3.380  1.00  0.00     0.156 C 
HETATM   23  O4  UNL     1      16.078  19.279   2.217  1.00  0.00    -0.293 OA
BRANCH  22  24
HETATM   24  C17 UNL     1      16.736  17.723   3.872  1.00  0.00     0.165 C 
BRANCH  24  25
HETATM   25  C18 UNL     1      18.052  18.154   4.342  1.00  0.00     0.156 C 
HETATM   26  O5  UNL     1      18.854  18.584   3.451  1.00  0.00    -0.293 OA
BRANCH  25  27
HETATM   27  C19 UNL     1      18.472  18.113   5.744  1.00  0.00     0.051 C 
HETATM   28  C20 UNL     1      18.081  19.001   6.605  1.00  0.00     0.017 C 
BRANCH  28  29
HETATM   29  C21 UNL     1      18.350  19.176   8.000  1.00  0.00    -0.013 A 
HETATM   30  C22 UNL     1      17.738  18.305   8.912  1.00  0.00     0.038 A 
HETATM   31  C23 UNL     1      17.881  18.360  10.261  1.00  0.00     0.056 A 
HETATM   32 CL1  UNL     1      17.055  17.203  11.290  1.00  0.00    -0.083 Cl
HETATM   33  C24 UNL     1      18.689  19.346  10.789  1.00  0.00     0.057 A 
HETATM   34 CL2  UNL     1      18.904  19.459  12.521  1.00  0.00    -0.082 Cl
HETATM   35  C25 UNL     1      19.312  20.222   9.968  1.00  0.00     0.050 A 
HETATM   36  C26 UNL     1      19.137  20.131   8.565  1.00  0.00     0.046 A 
HETATM   37 CL3  UNL     1      19.973  21.327   7.602  1.00  0.00    -0.083 Cl
ENDBRANCH  28  29
ENDBRANCH  25  27
ENDBRANCH  24  25
ENDBRANCH  22  24
ENDBRANCH  21  22
ENDBRANCH  18  20
BRANCH  19  38
HETATM   38  O6  UNL     1      13.827  23.071   3.848  1.00  0.00    -0.359 OA
ATOM     39  H6  UNL     1      14.576  23.040   3.263  1.00  0.00     0.217 HD
ENDBRANCH  19  38
ENDBRANCH  11  14
ENDBRANCH  10  11
ENDBRANCH   9  10
ENDBRANCH   4   9
BRANCH   3  40
HETATM   40  O2  UNL     1       9.067  28.066   6.104  1.00  0.00    -0.360 OA
ATOM     41  H2  UNL     1       8.315  28.130   6.683  1.00  0.00     0.217 HD
ENDBRANCH   3  40
BRANCH   1  42
HETATM   42  O1  UNL     1       7.525  27.574   1.569  1.00  0.00    -0.356 OA
HETATM   43  C1  UNL     1       7.776  27.104   0.269  1.00  0.00     0.210 C 
ENDBRANCH   1  42
TORSDOF 14
ENDMDL
MODEL 2
REMARK VINA RESULT: -9.285083894      0.783      1.527
REMARK  14 active torsions:
REMARK  status: ('A' for Active; 'I' for Inactive)
REMARK    1  A    between atoms: O1_2  and  C2_3 
REMARK    2  A    between atoms: C4_5  and  O2_6 
REMARK    3  A    between atoms: C5_8  and  C6_9 
REMARK    4  A    between atoms: C6_9  and  C7_10 
REMARK    5  A    between atoms: C7_10  and  C8_11 
REMARK    6  A    between atoms: C8_11  and  O3_12 
REMARK    7  A    between atoms: C8_11  and  C9_14 
REMARK    8  A    between atoms: C13_18  and  C14_19 
REMARK    9  A    between atoms: C15_20  and  C16_21 
REMARK   10  A    between atoms: C16_21  and  C17_23 
REMARK   11  A    between atoms: C17_23  and  C18_24 
REMARK   12  A    between atoms: C18_24  and  C19_26 
REMARK   13  A    between atoms: C20_27  and  C21_28 
REMARK   14  A    between atoms: C27_37  and  O6_38 
ROOT
HETATM    1  C2  UNL     1       8.123  27.024   2.651  1.00  0.00     0.073 A 
HETATM    2  C3  UNL     1       8.221  27.798   3.780  1.00  0.00     0.074 A 
HETATM    3  C4  UNL     1       8.907  27.324   4.895  1.00  0.00     0.081 A 
HETATM    4  C5  UNL     1       9.486  26.077   4.870  1.00  0.00     0.031 A 
HETATM    5  C28 UNL     1       9.399  25.268   3.735  1.00  0.00     0.083 A 
HETATM    6  O7  UNL     1       9.882  24.081   3.590  1.00  0.00    -0.355 OA
HETATM    7  C29 UNL     1      10.299  22.905   3.291  1.00  0.00     0.210 C 
HETATM    8  C30 UNL     1       8.679  25.802   2.598  1.00  0.00     0.074 A 
ENDROOT
BRANCH   4   9
HETATM    9  C6  UNL     1      10.098  25.580   6.144  1.00  0.00     0.020 C 
BRANCH   9  10
HETATM   10  C7  UNL     1      11.372  25.528   6.277  1.00  0.00     0.038 C 
BRANCH  10  11
HETATM   11  C8  UNL     1      12.540  24.909   5.802  1.00  0.00     0.078 C 
BRANCH  11  12
HETATM   12  O3  UNL     1      13.087  25.643   4.782  1.00  0.00    -0.360 OA
ATOM     13  H3  UNL     1      13.698  25.113   4.285  1.00  0.00     0.217 HD
ENDBRANCH  11  12
BRANCH  11  14
HETATM   14  C9  UNL     1      13.322  23.765   6.054  1.00  0.00     0.031 A 
HETATM   15  C10 UNL     1      13.524  23.414   7.416  1.00  0.00     0.017 A 
HETATM   16  C11 UNL     1      14.272  22.336   7.781  1.00  0.00     0.002 A 
HETATM   17  C12 UNL     1      14.871  21.534   6.852  1.00  0.00     0.014 A 
HETATM   18  C13 UNL     1      14.709  21.830   5.479  1.00  0.00    -0.002 A 
HETATM   19  C27 UNL     1      13.938  22.937   5.099  1.00  0.00     0.088 A 
BRANCH  18  20
HETATM   20  C14 UNL     1      15.345  20.914   4.570  1.00  0.00     0.018 C 
HETATM   21  C15 UNL     1      14.976  19.735   4.188  1.00  0.00     0.051 C 
BRANCH  21  22
HETATM   22  C16 UNL     1      15.861  19.022   3.232  1.00  0.00     0.156 C 
HETATM   23  O4  UNL     1      15.893  19.349   2.050  1.00  0.00    -0.293 OA
BRANCH  22  24
HETATM   24  C17 UNL     1      16.692  17.916   3.754  1.00  0.00     0.165 C 
BRANCH  24  25
HETATM   25  C18 UNL     1      18.042  18.412   4.019  1.00  0.00     0.156 C 
HETATM   26  O5  UNL     1      18.856  18.377   3.041  1.00  0.00    -0.293 OA
BRANCH  25  27
HETATM   27  C19 UNL     1      18.481  18.930   5.317  1.00  0.00     0.051 C 
HETATM   28  C20 UNL     1      18.341  18.248   6.412  1.00  0.00     0.017 C 
BRANCH  28  29
HETATM   29  C21 UNL     1      18.679  18.530   7.774  1.00  0.00    -0.013 A 
HETATM   30  C22 UNL     1      19.016  19.847   8.119  1.00  0.00     0.038 A 
HETATM   31  C23 UNL     1      19.375  20.261   9.361  1.00  0.00     0.056 A 
HETATM   32 CL1  UNL     1      19.774  21.945   9.655  1.00  0.00    -0.083 Cl
HETATM   33  C24 UNL     1      19.417  19.323  10.372  1.00  0.00     0.057 A 
HETATM   34 CL2  UNL     1      19.876  19.806  11.989  1.00  0.00    -0.082 Cl
HETATM   35  C25 UNL     1      19.104  18.033  10.112  1.00  0.00     0.050 A 
HETATM   36  C26 UNL     1      18.733  17.641   8.802  1.00  0.00     0.046 A 
HETATM   37 CL3  UNL     1      18.368  15.946   8.575  1.00  0.00    -0.083 Cl
ENDBRANCH  28  29
ENDBRANCH  25  27
ENDBRANCH  24  25
ENDBRANCH  22  24
ENDBRANCH  21  22
ENDBRANCH  18  20
BRANCH  19  38
HETATM   38  O6  UNL     1      13.783  23.199   3.819  1.00  0.00    -0.359 OA
ATOM     39  H6  UNL     1      14.546  23.384   3.284  1.00  0.00     0.217 HD
ENDBRANCH  19  38
ENDBRANCH  11  14
ENDBRANCH  10  11
ENDBRANCH   9  10
ENDBRANCH   4   9
BRANCH   3  40
HETATM   40  O2  UNL     1       8.999  28.123   6.033  1.00  0.00    -0.360 OA
ATOM     41  H2  UNL     1       9.058  27.712   6.888  1.00  0.00     0.217 HD
ENDBRANCH   3  40
BRANCH   1  42
HETATM   42  O1  UNL     1       7.440  27.487   1.522  1.00  0.00    -0.356 OA
HETATM   43  C1  UNL     1       7.108  26.645   0.447  1.00  0.00     0.210 C 
ENDBRANCH   1  42
TORSDOF 14
ENDMDL
MODEL 3
REMARK VINA RESULT: -9.258916129      4.864     11.768
REMARK  14 active torsions:
REMARK  status: ('A' for Active; 'I' for Inactive)
REMARK    1  A    between atoms: O1_2  and  C2_3 
REMARK    2  A    between atoms: C4_5  and  O2_6 
REMARK    3  A    between atoms: C5_8  and  C6_9 
REMARK    4  A    between atoms: C6_9  and  C7_10 
REMARK    5  A    between atoms: C7_10  and  C8_11 
REMARK    6  A    between atoms: C8_11  and  O3_12 
REMARK    7  A    between atoms: C8_11  and  C9_14 
REMARK    8  A    between atoms: C13_18  and  C14_19 
REMARK    9  A    between atoms: C15_20  and  C16_21 
REMARK   10  A    between atoms: C16_21  and  C17_23 
REMARK   11  A    between atoms: C17_23  and  C18_24 
REMARK   12  A    between atoms: C18_24  and  C19_26 
REMARK   13  A    between atoms: C20_27  and  C21_28 
REMARK   14  A    between atoms: C27_37  and  O6_38 
ROOT
HETATM    1  C2  UNL     1      18.559  20.162   7.479  1.00  0.00     0.073 A 
HETATM    2  C3  UNL     1      18.722  19.703   6.195  1.00  0.00     0.074 A 
HETATM    3  C4  UNL     1      17.694  19.844   5.268  1.00  0.00     0.081 A 
HETATM    4  C5  UNL     1      16.510  20.441   5.633  1.00  0.00     0.031 A 
HETATM    5  C28 UNL     1      16.318  20.914   6.933  1.00  0.00     0.083 A 
HETATM    6  O7  UNL     1      15.257  21.475   7.404  1.00  0.00    -0.355 OA
HETATM    7  C29 UNL     1      14.284  22.046   8.017  1.00  0.00     0.210 C 
HETATM    8  C30 UNL     1      17.414  20.750   7.864  1.00  0.00     0.074 A 
ENDROOT
BRANCH   4   9
HETATM    9  C6  UNL     1      15.404  20.444   4.623  1.00  0.00     0.020 C 
BRANCH   9  10
HETATM   10  C7  UNL     1      15.015  21.544   4.090  1.00  0.00     0.038 C 
BRANCH  10  11
HETATM   11  C8  UNL     1      14.411  22.784   4.352  1.00  0.00     0.078 C 
BRANCH  11  12
HETATM   12  O3  UNL     1      15.365  23.730   4.624  1.00  0.00    -0.360 OA
ATOM     13  H3  UNL     1      14.982  24.456   5.101  1.00  0.00     0.217 HD
ENDBRANCH  11  12
BRANCH  11  14
HETATM   14  C9  UNL     1      13.124  23.353   4.423  1.00  0.00     0.031 A 
HETATM   15  C10 UNL     1      12.180  22.925   3.452  1.00  0.00     0.017 A 
HETATM   16  C11 UNL     1      10.909  23.414   3.414  1.00  0.00     0.002 A 
HETATM   17  C12 UNL     1      10.476  24.348   4.311  1.00  0.00     0.014 A 
HETATM   18  C13 UNL     1      11.369  24.816   5.303  1.00  0.00    -0.002 A 
HETATM   19  C27 UNL     1      12.676  24.313   5.347  1.00  0.00     0.088 A 
BRANCH  18  20
HETATM   20  C14 UNL     1      10.819  25.773   6.227  1.00  0.00     0.018 C 
HETATM   21  C15 UNL     1       9.985  25.600   7.200  1.00  0.00     0.051 C 
BRANCH  21  22
HETATM   22  C16 UNL     1       9.595  26.802   7.981  1.00  0.00     0.156 C 
HETATM   23  O4  UNL     1      10.441  27.458   8.579  1.00  0.00    -0.293 OA
BRANCH  22  24
HETATM   24  C17 UNL     1       8.163  27.171   8.010  1.00  0.00     0.165 C 
BRANCH  24  25
HETATM   25  C18 UNL     1       7.870  28.050   6.879  1.00  0.00     0.156 C 
HETATM   26  O5  UNL     1       8.387  29.213   6.923  1.00  0.00    -0.293 OA
BRANCH  25  27
HETATM   27  C19 UNL     1       7.037  27.662   5.739  1.00  0.00     0.051 C 
HETATM   28  C20 UNL     1       7.513  26.992   4.736  1.00  0.00     0.017 C 
BRANCH  28  29
HETATM   29  C21 UNL     1       6.917  26.508   3.528  1.00  0.00    -0.013 A 
HETATM   30  C22 UNL     1       5.938  25.508   3.622  1.00  0.00     0.038 A 
HETATM   31  C23 UNL     1       5.300  24.939   2.567  1.00  0.00     0.056 A 
HETATM   32 CL1  UNL     1       4.091  23.693   2.828  1.00  0.00    -0.083 Cl
HETATM   33  C24 UNL     1       5.631  25.368   1.298  1.00  0.00     0.057 A 
HETATM   34 CL2  UNL     1       4.838  24.665  -0.092  1.00  0.00    -0.082 Cl
HETATM   35  C25 UNL     1       6.567  26.330   1.132  1.00  0.00     0.050 A 
HETATM   36  C26 UNL     1       7.210  26.900   2.260  1.00  0.00     0.046 A 
HETATM   37 CL3  UNL     1       8.418  28.121   1.927  1.00  0.00    -0.083 Cl
ENDBRANCH  28  29
ENDBRANCH  25  27
ENDBRANCH  24  25
ENDBRANCH  22  24
ENDBRANCH  21  22
ENDBRANCH  18  20
BRANCH  19  38
HETATM   38  O6  UNL     1      13.496  24.745   6.281  1.00  0.00    -0.359 OA
ATOM     39  H6  UNL     1      13.442  24.380   7.156  1.00  0.00     0.217 HD
ENDBRANCH  19  38
ENDBRANCH  11  14
ENDBRANCH  10  11
ENDBRANCH   9  10
ENDBRANCH   4   9
BRANCH   3  40
HETATM   40  O2  UNL     1      17.876  19.374   3.968  1.00  0.00    -0.360 OA
ATOM     41  H2  UNL     1      18.714  19.503   3.538  1.00  0.00     0.217 HD
ENDBRANCH   3  40
BRANCH   1  42
HETATM   42  O1  UNL     1      19.583  20.031   8.422  1.00  0.00    -0.356 OA
HETATM   43  C1  UNL     1      19.511  20.622   9.695  1.00  0.00     0.210 C 
ENDBRANCH   1  42
TORSDOF 14
ENDMDL
MODEL 4
REMARK VINA RESULT: -9.210928959      4.298     11.241
REMARK  14 active torsions:
REMARK  status: ('A' for Active; 'I' for Inactive)
REMARK    1  A    between atoms: O1_2  and  C2_3 
REMARK    2  A    between atoms: C4_5  and  O2_6 
REMARK    3  A    between atoms: C5_8  and  C6_9 
REMARK    4  A    between atoms: C6_9  and  C7_10 
REMARK    5  A    between atoms: C7_10  and  C8_11 
REMARK    6  A    between atoms: C8_11  and  O3_12 
REMARK    7  A    between atoms: C8_11  and  C9_14 
REMARK    8  A    between atoms: C13_18  and  C14_19 
REMARK    9  A    between atoms: C15_20  and  C16_21 
REMARK   10  A    between atoms: C16_21  and  C17_23 
REMARK   11  A    between atoms: C17_23  and  C18_24 
REMARK   12  A    between atoms: C18_24  and  C19_26 
REMARK   13  A    between atoms: C20_27  and  C21_28 
REMARK   14  A    between atoms: C27_37  and  O6_38 
ROOT
HETATM    1  C2  UNL     1      18.733  18.320   8.772  1.00  0.00     0.073 A 
HETATM    2  C3  UNL     1      18.710  19.380   7.901  1.00  0.00     0.074 A 
HETATM    3  C4  UNL     1      18.776  19.158   6.529  1.00  0.00     0.081 A 
HETATM    4  C5  UNL     1      18.866  17.875   6.040  1.00  0.00     0.031 A 
HETATM    5  C28 UNL     1      18.894  16.779   6.905  1.00  0.00     0.083 A 
HETATM    6  O7  UNL     1      18.990  15.536   6.577  1.00  0.00    -0.355 OA
HETATM    7  C29 UNL     1      19.080  14.266   6.415  1.00  0.00     0.210 C 
HETATM    8  C30 UNL     1      18.820  17.057   8.324  1.00  0.00     0.074 A 
ENDROOT
BRANCH   4   9
HETATM    9  C6  UNL     1      19.060  17.717   4.563  1.00  0.00     0.020 C 
BRANCH   9  10
HETATM   10  C7  UNL     1      18.049  17.599   3.784  1.00  0.00     0.038 C 
BRANCH  10  11
HETATM   11  C8  UNL     1      17.223  18.287   2.880  1.00  0.00     0.078 C 
BRANCH  11  12
HETATM   12  O3  UNL     1      17.595  18.011   1.590  1.00  0.00    -0.360 OA
ATOM     13  H3  UNL     1      17.264  18.679   1.002  1.00  0.00     0.217 HD
ENDBRANCH  11  12
BRANCH  11  14
HETATM   14  C9  UNL     1      16.129  19.174   2.894  1.00  0.00     0.031 A 
HETATM   15  C10 UNL     1      15.603  19.563   1.633  1.00  0.00     0.017 A 
HETATM   16  C11 UNL     1      14.555  20.427   1.522  1.00  0.00     0.002 A 
HETATM   17  C12 UNL     1      13.954  20.966   2.623  1.00  0.00     0.014 A 
HETATM   18  C13 UNL     1      14.432  20.619   3.908  1.00  0.00    -0.002 A 
HETATM   19  C27 UNL     1      15.508  19.730   4.027  1.00  0.00     0.088 A 
BRANCH  18  20
HETATM   20  C14 UNL     1      13.719  21.207   5.011  1.00  0.00     0.018 C 
HETATM   21  C15 UNL     1      13.801  22.398   5.510  1.00  0.00     0.051 C 
BRANCH  21  22
HETATM   22  C16 UNL     1      12.927  22.709   6.670  1.00  0.00     0.156 C 
HETATM   23  O4  UNL     1      11.949  22.010   6.919  1.00  0.00    -0.293 OA
BRANCH  22  24
HETATM   24  C17 UNL     1      13.275  23.880   7.503  1.00  0.00     0.165 C 
BRANCH  24  25
HETATM   25  C18 UNL     1      12.230  24.894   7.368  1.00  0.00     0.156 C 
HETATM   26  O5  UNL     1      11.741  25.344   8.453  1.00  0.00    -0.293 OA
BRANCH  25  27
HETATM   27  C19 UNL     1      11.739  25.394   6.082  1.00  0.00     0.051 C 
HETATM   28  C20 UNL     1      10.604  25.013   5.583  1.00  0.00     0.017 C 
BRANCH  28  29
HETATM   29  C21 UNL     1       9.922  25.346   4.370  1.00  0.00    -0.013 A 
HETATM   30  C22 UNL     1       8.802  26.187   4.444  1.00  0.00     0.038 A 
HETATM   31  C23 UNL     1       8.046  26.574   3.386  1.00  0.00     0.056 A 
HETATM   32 CL1  UNL     1       6.665  27.632   3.621  1.00  0.00    -0.083 Cl
HETATM   33  C24 UNL     1       8.394  26.111   2.133  1.00  0.00     0.057 A 
HETATM   34 CL2  UNL     1       7.449  26.579   0.739  1.00  0.00    -0.082 Cl
HETATM   35  C25 UNL     1       9.464  25.296   1.987  1.00  0.00     0.050 A 
HETATM   36  C26 UNL     1      10.229  24.916   3.117  1.00  0.00     0.046 A 
HETATM   37 CL3  UNL     1      11.578  23.844   2.814  1.00  0.00    -0.083 Cl
ENDBRANCH  28  29
ENDBRANCH  25  27
ENDBRANCH  24  25
ENDBRANCH  22  24
ENDBRANCH  21  22
ENDBRANCH  18  20
BRANCH  19  38
HETATM   38  O6  UNL     1      15.938  19.404   5.226  1.00  0.00    -0.359 OA
ATOM     39  H6  UNL     1      15.332  19.026   5.854  1.00  0.00     0.217 HD
ENDBRANCH  19  38
ENDBRANCH  11  14
ENDBRANCH  10  11
ENDBRANCH   9  10
ENDBRANCH   4   9
BRANCH   3  40
HETATM   40  O2  UNL     1      18.750  20.245   5.657  1.00  0.00    -0.360 OA
ATOM     41  H2  UNL     1      18.927  20.107   4.733  1.00  0.00     0.217 HD
ENDBRANCH   3  40
BRANCH   1  42
HETATM   42  O1  UNL     1      18.665  18.526  10.154  1.00  0.00    -0.356 OA
HETATM   43  C1  UNL     1      17.582  19.180  10.764  1.00  0.00     0.210 C 
ENDBRANCH   1  42
TORSDOF 14
ENDMDL
MODEL 5
REMARK VINA RESULT: -9.140796408      2.392      4.227
REMARK  14 active torsions:
REMARK  status: ('A' for Active; 'I' for Inactive)
REMARK    1  A    between atoms: O1_2  and  C2_3 
REMARK    2  A    between atoms: C4_5  and  O2_6 
REMARK    3  A    between atoms: C5_8  and  C6_9 
REMARK    4  A    between atoms: C6_9  and  C7_10 
REMARK    5  A    between atoms: C7_10  and  C8_11 
REMARK    6  A    between atoms: C8_11  and  O3_12 
REMARK    7  A    between atoms: C8_11  and  C9_14 
REMARK    8  A    between atoms: C13_18  and  C14_19 
REMARK    9  A    between atoms: C15_20  and  C16_21 
REMARK   10  A    between atoms: C16_21  and  C17_23 
REMARK   11  A    between atoms: C17_23  and  C18_24 
REMARK   12  A    between atoms: C18_24  and  C19_26 
REMARK   13  A    between atoms: C20_27  and  C21_28 
REMARK   14  A    between atoms: C27_37  and  O6_38 
ROOT
HETATM    1  C2  UNL     1       6.110  27.035   3.041  1.00  0.00     0.073 A 
HETATM    2  C3  UNL     1       7.446  27.319   3.175  1.00  0.00     0.074 A 
HETATM    3  C4  UNL     1       7.952  27.734   4.403  1.00  0.00     0.081 A 
HETATM    4  C5  UNL     1       7.115  27.863   5.487  1.00  0.00     0.031 A 
HETATM    5  C28 UNL     1       5.752  27.583   5.377  1.00  0.00     0.083 A 
HETATM    6  O7  UNL     1       4.863  27.679   6.307  1.00  0.00    -0.355 OA
HETATM    7  C29 UNL     1       3.869  27.722   7.118  1.00  0.00     0.210 C 
HETATM    8  C30 UNL     1       5.269  27.152   4.082  1.00  0.00     0.074 A 
ENDROOT
BRANCH   4   9
HETATM    9  C6  UNL     1       7.702  28.434   6.742  1.00  0.00     0.020 C 
BRANCH   9  10
HETATM   10  C7  UNL     1       8.221  27.664   7.625  1.00  0.00     0.038 C 
BRANCH  10  11
HETATM   11  C8  UNL     1       8.858  26.428   7.824  1.00  0.00     0.078 C 
BRANCH  11  12
HETATM   12  O3  UNL     1       8.105  25.631   8.646  1.00  0.00    -0.360 OA
ATOM     13  H3  UNL     1       8.636  24.926   8.998  1.00  0.00     0.217 HD
ENDBRANCH  11  12
BRANCH  11  14
HETATM   14  C9  UNL     1      10.035  25.758   7.437  1.00  0.00     0.031 A 
HETATM   15  C10 UNL     1      11.127  25.804   8.345  1.00  0.00     0.017 A 
HETATM   16  C11 UNL     1      12.319  25.204   8.074  1.00  0.00     0.002 A 
HETATM   17  C12 UNL     1      12.528  24.525   6.908  1.00  0.00     0.014 A 
HETATM   18  C13 UNL     1      11.480  24.442   5.962  1.00  0.00    -0.002 A 
HETATM   19  C27 UNL     1      10.252  25.056   6.238  1.00  0.00     0.088 A 
BRANCH  18  20
HETATM   20  C14 UNL     1      11.776  23.679   4.778  1.00  0.00     0.018 C 
HETATM   21  C15 UNL     1      12.912  23.254   4.328  1.00  0.00     0.051 C 
BRANCH  21  22
HETATM   22  C16 UNL     1      12.894  22.487   3.057  1.00  0.00     0.156 C 
HETATM   23  O4  UNL     1      11.833  22.096   2.579  1.00  0.00    -0.293 OA
BRANCH  22  24
HETATM   24  C17 UNL     1      14.189  22.214   2.397  1.00  0.00     0.165 C 
BRANCH  24  25
HETATM   25  C18 UNL     1      14.501  20.791   2.520  1.00  0.00     0.156 C 
HETATM   26  O5  UNL     1      14.332  20.086   1.474  1.00  0.00    -0.293 OA
BRANCH  25  27
HETATM   27  C19 UNL     1      14.983  20.165   3.753  1.00  0.00     0.051 C 
HETATM   28  C20 UNL     1      15.722  20.804   4.606  1.00  0.00     0.017 C 
BRANCH  28  29
HETATM   29  C21 UNL     1      16.308  20.420   5.854  1.00  0.00    -0.013 A 
HETATM   30  C22 UNL     1      15.684  20.834   7.039  1.00  0.00     0.038 A 
HETATM   31  C23 UNL     1      16.132  20.564   8.292  1.00  0.00     0.056 A 
HETATM   32 CL1  UNL     1      15.252  21.147   9.695  1.00  0.00    -0.083 Cl
HETATM   33  C24 UNL     1      17.291  19.827   8.424  1.00  0.00     0.057 A 
HETATM   34 CL2  UNL     1      17.909  19.455  10.017  1.00  0.00    -0.082 Cl
HETATM   35  C25 UNL     1      17.945  19.393   7.323  1.00  0.00     0.050 A 
HETATM   36  C26 UNL     1      17.445  19.695   6.032  1.00  0.00     0.046 A 
HETATM   37 CL3  UNL     1      18.382  19.101   4.680  1.00  0.00    -0.083 Cl
ENDBRANCH  28  29
ENDBRANCH  25  27
ENDBRANCH  24  25
ENDBRANCH  22  24
ENDBRANCH  21  22
ENDBRANCH  18  20
BRANCH  19  38
HETATM   38  O6  UNL     1       9.279  24.965   5.357  1.00  0.00    -0.359 OA
ATOM     39  H6  UNL     1       9.411  24.456   4.565  1.00  0.00     0.217 HD
ENDBRANCH  19  38
ENDBRANCH  11  14
ENDBRANCH  10  11
ENDBRANCH   9  10
ENDBRANCH   4   9
BRANCH   3  40
HETATM   40  O2  UNL     1       9.311  28.016   4.524  1.00  0.00    -0.360 OA
ATOM     41  H2  UNL     1       9.666  28.249   5.374  1.00  0.00     0.217 HD
ENDBRANCH   3  40
BRANCH   1  42
HETATM   42  O1  UNL     1       5.586  26.614   1.815  1.00  0.00    -0.356 OA
HETATM   43  C1  UNL     1       6.345  25.887   0.883  1.00  0.00     0.210 C 
ENDBRANCH   1  42
TORSDOF 14
ENDMDL
