MODEL 1
REMARK VINA RESULT: -7.742953648      0.000      0.000
REMARK  12 active torsions:
REMARK  status: ('A' for Active; 'I' for Inactive)
REMARK    1  A    between atoms: O1_2  and  C2_3 
REMARK    2  A    between atoms: C2_3  and  C3_5 
REMARK    3  A    between atoms: C4_6  and  O3_7 
REMARK    4  A    between atoms: C5_9  and  O4_10 
REMARK    5  A    between atoms: C6_12  and  S1_13 
REMARK    6  A    between atoms: S1_13  and  C7_14 
REMARK    7  A    between atoms: C8_15  and  C9_16 
REMARK    8  A    between atoms: C17_27  and  S2_28 
REMARK    9  A    between atoms: C19_30  and  C20_31 
REMARK   10  A    between atoms: C20_31  and  N4_37 
REMARK   11  A    between atoms: N2_32  and  N3_34 
REMARK   12  A    between atoms: N4_37  and  N5_38 
ROOT
HETATM    1  C3  UNL     1      12.351 -14.396  20.113  1.00  0.00     0.130 C 
HETATM    2  C4  UNL     1      12.340 -15.898  20.020  1.00  0.00     0.162 C 
HETATM    3  C5  UNL     1      13.676 -16.507  19.759  1.00  0.00     0.163 C 
HETATM    4  C6  UNL     1      14.692 -15.794  20.634  1.00  0.00     0.098 C 
HETATM    5  C17 UNL     1      14.863 -14.353  20.196  1.00  0.00     0.077 C 
HETATM    6  C19 UNL     1      13.600 -13.756  19.664  1.00  0.00     0.103 C 
ENDROOT
BRANCH   4   7
HETATM    7  S1  UNL     1      16.241 -16.671  20.635  1.00  0.00    -0.123 SA
BRANCH   7   8
HETATM    8  C7  UNL     1      17.252 -16.587  22.037  1.00  0.00     0.016 C 
HETATM    9  C8  UNL     1      16.917 -17.457  23.053  1.00  0.00     0.122 C 
HETATM   10  N1  UNL     1      17.719 -17.332  24.192  1.00  0.00    -0.361 N 
HETATM   11  C10 UNL     1      18.543 -17.025  25.415  1.00  0.00     0.104 A 
HETATM   12  C12 UNL     1      17.821 -15.934  24.777  1.00  0.00     0.112 A 
HETATM   13  C11 UNL     1      18.002 -17.651  26.656  1.00  0.00     0.034 C 
HETATM   14  C13 UNL     1      18.299 -15.031  23.689  1.00  0.00     0.015 C 
HETATM   15  C14 UNL     1      19.598 -14.352  24.016  1.00  0.00     0.012 C 
HETATM   16  C15 UNL     1      18.432 -15.789  22.364  1.00  0.00     0.029 C 
HETATM   17  C16 UNL     1      19.034 -14.952  21.308  1.00  0.00     0.016 C 
BRANCH   9  18
HETATM   18  C9  UNL     1      15.811 -18.373  22.938  1.00  0.00     0.227 C 
HETATM   19  O5  UNL     1      15.933 -19.526  22.429  1.00  0.00    -0.643 OA
HETATM   20  O6  UNL     1      14.563 -18.032  23.382  1.00  0.00    -0.643 OA
ENDBRANCH   9  18
ENDBRANCH   7   8
ENDBRANCH   4   7
BRANCH   3  21
HETATM   21  O4  UNL     1      14.081 -16.372  18.431  1.00  0.00    -0.392 OA
ATOM     22  H4  UNL     1      14.866 -15.846  18.339  1.00  0.00     0.210 HD
ENDBRANCH   3  21
BRANCH   5  23
HETATM   23  S2  UNL     1      16.150 -14.330  18.921  1.00  0.00    -0.167 SA
HETATM   24  C18 UNL     1      17.047 -12.780  18.853  1.00  0.00     0.090 C 
ENDBRANCH   5  23
BRANCH   2  25
HETATM   25  O3  UNL     1      11.492 -16.334  18.981  1.00  0.00    -0.392 OA
ATOM     26  H3  UNL     1      11.949 -16.341  18.148  1.00  0.00     0.210 HD
ENDBRANCH   2  25
BRANCH   6  27
HETATM   27  C20 UNL     1      13.573 -12.317  20.001  1.00  0.00     0.204 C 
HETATM   28  N2  UNL     1      13.971 -11.864  21.156  1.00  0.00    -0.215 N 
ATOM     29  H2  UNL     1      14.313 -12.530  21.850  1.00  0.00     0.195 HD
BRANCH  28  30
HETATM   30  N3  UNL     1      13.951 -10.524  21.484  1.00  0.00    -0.037 N 
HETATM   31  O7  UNL     1      14.433  -9.683  20.732  1.00  0.00    -0.516 OA
HETATM   32  O8  UNL     1      13.383 -10.116  22.676  1.00  0.00    -0.516 OA
ENDBRANCH  28  30
BRANCH  27  33
HETATM   33  N4  UNL     1      13.130 -11.367  19.083  1.00  0.00    -0.317 NA
BRANCH  33  34
HETATM   34  N5  UNL     1      12.773 -10.599  18.339  1.00  0.00    -0.279 N 
ATOM     35  H52 UNL     1      13.091 -11.234  19.071  1.00  0.00     0.191 HD
ATOM     36  H51 UNL     1      12.450  -9.905  17.665  1.00  0.00     0.191 HD
ENDBRANCH  33  34
ENDBRANCH  27  33
ENDBRANCH   6  27
BRANCH   1  37
HETATM   37  C2  UNL     1      11.890 -14.043  21.474  1.00  0.00     0.266 C 
HETATM   38  O2  UNL     1      12.213 -14.772  22.437  1.00  0.00    -0.265 OA
BRANCH  37  39
HETATM   39  O1  UNL     1      11.110 -12.942  21.751  1.00  0.00    -0.326 OA
HETATM   40  C1  UNL     1      10.927 -12.401  23.038  1.00  0.00     0.213 C 
ENDBRANCH  37  39
ENDBRANCH   1  37
TORSDOF 12
ENDMDL
MODEL 2
REMARK VINA RESULT: -7.439678338      2.209      3.177
REMARK  12 active torsions:
REMARK  status: ('A' for Active; 'I' for Inactive)
REMARK    1  A    between atoms: O1_2  and  C2_3 
REMARK    2  A    between atoms: C2_3  and  C3_5 
REMARK    3  A    between atoms: C4_6  and  O3_7 
REMARK    4  A    between atoms: C5_9  and  O4_10 
REMARK    5  A    between atoms: C6_12  and  S1_13 
REMARK    6  A    between atoms: S1_13  and  C7_14 
REMARK    7  A    between atoms: C8_15  and  C9_16 
REMARK    8  A    between atoms: C17_27  and  S2_28 
REMARK    9  A    between atoms: C19_30  and  C20_31 
REMARK   10  A    between atoms: C20_31  and  N4_37 
REMARK   11  A    between atoms: N2_32  and  N3_34 
REMARK   12  A    between atoms: N4_37  and  N5_38 
ROOT
HETATM    1  C3  UNL     1      12.687 -14.333  20.674  1.00  0.00     0.130 C 
HETATM    2  C4  UNL     1      12.614 -15.565  21.536  1.00  0.00     0.162 C 
HETATM    3  C5  UNL     1      13.841 -16.413  21.502  1.00  0.00     0.163 C 
HETATM    4  C6  UNL     1      15.046 -15.491  21.570  1.00  0.00     0.098 C 
HETATM    5  C17 UNL     1      15.155 -14.652  20.313  1.00  0.00     0.077 C 
HETATM    6  C19 UNL     1      13.822 -14.302  19.734  1.00  0.00     0.103 C 
ENDROOT
BRANCH   4   7
HETATM    7  S1  UNL     1      16.531 -16.426  21.869  1.00  0.00    -0.123 SA
BRANCH   7   8
HETATM    8  C7  UNL     1      17.432 -16.130  23.317  1.00  0.00     0.016 C 
HETATM    9  C8  UNL     1      18.297 -15.059  23.258  1.00  0.00     0.122 C 
HETATM   10  N1  UNL     1      19.049 -14.874  24.423  1.00  0.00    -0.361 N 
HETATM   11  C10 UNL     1      19.904 -14.846  25.663  1.00  0.00     0.104 A 
HETATM   12  C12 UNL     1      19.825 -16.088  24.907  1.00  0.00     0.112 A 
HETATM   13  C11 UNL     1      21.101 -13.966  25.526  1.00  0.00     0.034 C 
HETATM   14  C13 UNL     1      18.847 -17.202  25.076  1.00  0.00     0.015 C 
HETATM   15  C14 UNL     1      18.790 -17.728  26.482  1.00  0.00     0.012 C 
HETATM   16  C15 UNL     1      17.445 -16.776  24.627  1.00  0.00     0.029 C 
HETATM   17  C16 UNL     1      16.435 -17.814  24.914  1.00  0.00     0.016 C 
BRANCH   9  18
HETATM   18  C9  UNL     1      18.424 -14.245  22.077  1.00  0.00     0.227 C 
HETATM   19  O5  UNL     1      17.755 -13.183  21.907  1.00  0.00    -0.643 OA
HETATM   20  O6  UNL     1      19.287 -14.588  21.072  1.00  0.00    -0.643 OA
ENDBRANCH   9  18
ENDBRANCH   7   8
ENDBRANCH   4   7
BRANCH   3  21
HETATM   21  O4  UNL     1      13.941 -17.169  20.334  1.00  0.00    -0.392 OA
ATOM     22  H4  UNL     1      13.943 -18.104  20.501  1.00  0.00     0.210 HD
ENDBRANCH   3  21
BRANCH   5  23
HETATM   23  S2  UNL     1      16.123 -15.605  19.115  1.00  0.00    -0.167 SA
HETATM   24  C18 UNL     1      15.285 -15.827  17.547  1.00  0.00     0.090 C 
ENDBRANCH   5  23
BRANCH   2  25
HETATM   25  O3  UNL     1      11.543 -16.394  21.144  1.00  0.00    -0.392 OA
ATOM     26  H3  UNL     1      11.649 -17.273  21.488  1.00  0.00     0.210 HD
ENDBRANCH   2  25
BRANCH   6  27
HETATM   27  C20 UNL     1      13.910 -12.967  19.104  1.00  0.00     0.204 C 
HETATM   28  N2  UNL     1      13.597 -12.764  17.855  1.00  0.00    -0.215 N 
ATOM     29  H2  UNL     1      13.280 -13.558  17.297  1.00  0.00     0.195 HD
BRANCH  28  30
HETATM   30  N3  UNL     1      13.675 -11.525  17.254  1.00  0.00    -0.037 N 
HETATM   31  O7  UNL     1      14.379 -11.346  16.266  1.00  0.00    -0.516 OA
HETATM   32  O8  UNL     1      12.952 -10.465  17.769  1.00  0.00    -0.516 OA
ENDBRANCH  28  30
BRANCH  27  33
HETATM   33  N4  UNL     1      14.322 -11.850  19.828  1.00  0.00    -0.317 NA
BRANCH  33  34
HETATM   34  N5  UNL     1      14.654 -10.948  20.415  1.00  0.00    -0.279 N 
ATOM     35  H52 UNL     1      14.433 -11.774  19.859  1.00  0.00     0.191 HD
ATOM     36  H51 UNL     1      14.953 -10.130  20.947  1.00  0.00     0.191 HD
ENDBRANCH  33  34
ENDBRANCH  27  33
ENDBRANCH   6  27
BRANCH   1  37
HETATM   37  C2  UNL     1      12.552 -13.167  21.574  1.00  0.00     0.266 C 
HETATM   38  O2  UNL     1      13.290 -13.081  22.579  1.00  0.00    -0.265 OA
BRANCH  37  39
HETATM   39  O1  UNL     1      11.645 -12.150  21.370  1.00  0.00    -0.326 OA
HETATM   40  C1  UNL     1      11.477 -11.050  22.232  1.00  0.00     0.213 C 
ENDBRANCH  37  39
ENDBRANCH   1  37
TORSDOF 12
ENDMDL
MODEL 3
REMARK VINA RESULT: -7.408613560      1.371      1.728
REMARK  12 active torsions:
REMARK  status: ('A' for Active; 'I' for Inactive)
REMARK    1  A    between atoms: O1_2  and  C2_3 
REMARK    2  A    between atoms: C2_3  and  C3_5 
REMARK    3  A    between atoms: C4_6  and  O3_7 
REMARK    4  A    between atoms: C5_9  and  O4_10 
REMARK    5  A    between atoms: C6_12  and  S1_13 
REMARK    6  A    between atoms: S1_13  and  C7_14 
REMARK    7  A    between atoms: C8_15  and  C9_16 
REMARK    8  A    between atoms: C17_27  and  S2_28 
REMARK    9  A    between atoms: C19_30  and  C20_31 
REMARK   10  A    between atoms: C20_31  and  N4_37 
REMARK   11  A    between atoms: N2_32  and  N3_34 
REMARK   12  A    between atoms: N4_37  and  N5_38 
ROOT
HETATM    1  C3  UNL     1      12.648 -14.429  21.017  1.00  0.00     0.130 C 
HETATM    2  C4  UNL     1      12.619 -15.826  21.579  1.00  0.00     0.162 C 
HETATM    3  C5  UNL     1      13.840 -16.631  21.290  1.00  0.00     0.163 C 
HETATM    4  C6  UNL     1      15.049 -15.737  21.504  1.00  0.00     0.098 C 
HETATM    5  C17 UNL     1      15.094 -14.632  20.467  1.00  0.00     0.077 C 
HETATM    6  C19 UNL     1      13.733 -14.173  20.053  1.00  0.00     0.103 C 
ENDROOT
BRANCH   4   7
HETATM    7  S1  UNL     1      16.546 -16.700  21.507  1.00  0.00    -0.123 SA
BRANCH   7   8
HETATM    8  C7  UNL     1      17.498 -16.768  22.950  1.00  0.00     0.016 C 
HETATM    9  C8  UNL     1      17.215 -17.824  23.788  1.00  0.00     0.122 C 
HETATM   10  N1  UNL     1      17.963 -17.826  24.970  1.00  0.00    -0.361 N 
HETATM   11  C10 UNL     1      18.715 -17.661  26.265  1.00  0.00     0.104 A 
HETATM   12  C12 UNL     1      17.913 -16.545  25.785  1.00  0.00     0.112 A 
HETATM   13  C11 UNL     1      18.196 -18.535  27.356  1.00  0.00     0.034 C 
HETATM   14  C13 UNL     1      18.338 -15.431  24.887  1.00  0.00     0.015 C 
HETATM   15  C14 UNL     1      19.555 -14.705  25.385  1.00  0.00     0.012 C 
HETATM   16  C15 UNL     1      18.585 -15.936  23.462  1.00  0.00     0.029 C 
HETATM   17  C16 UNL     1      19.139 -14.881  22.591  1.00  0.00     0.016 C 
BRANCH   9  18
HETATM   18  C9  UNL     1      16.206 -18.801  23.469  1.00  0.00     0.227 C 
HETATM   19  O5  UNL     1      16.444 -19.815  22.749  1.00  0.00    -0.643 OA
HETATM   20  O6  UNL     1      14.926 -18.675  23.938  1.00  0.00    -0.643 OA
ENDBRANCH   9  18
ENDBRANCH   7   8
ENDBRANCH   4   7
BRANCH   3  21
HETATM   21  O4  UNL     1      13.879 -17.100  19.976  1.00  0.00    -0.392 OA
ATOM     22  H4  UNL     1      14.416 -17.877  19.880  1.00  0.00     0.210 HD
ENDBRANCH   3  21
BRANCH   5  23
HETATM   23  S2  UNL     1      15.997 -15.278  19.036  1.00  0.00    -0.167 SA
HETATM   24  C18 UNL     1      15.157 -14.984  17.481  1.00  0.00     0.090 C 
ENDBRANCH   5  23
BRANCH   2  25
HETATM   25  O3  UNL     1      11.527 -16.554  21.063  1.00  0.00    -0.392 OA
ATOM     26  H3  UNL     1      11.224 -17.203  21.687  1.00  0.00     0.210 HD
ENDBRANCH   2  25
BRANCH   6  27
HETATM   27  C20 UNL     1      13.791 -12.729  19.739  1.00  0.00     0.204 C 
HETATM   28  N2  UNL     1      12.890 -12.139  19.005  1.00  0.00    -0.215 N 
ATOM     29  H2  UNL     1      12.120 -12.697  18.636  1.00  0.00     0.195 HD
BRANCH  28  30
HETATM   30  N3  UNL     1      12.931 -10.793  18.705  1.00  0.00    -0.037 N 
HETATM   31  O7  UNL     1      12.998 -10.407  17.542  1.00  0.00    -0.516 OA
HETATM   32  O8  UNL     1      12.899  -9.859  19.724  1.00  0.00    -0.516 OA
ENDBRANCH  28  30
BRANCH  27  33
HETATM   33  N4  UNL     1      14.813 -11.922  20.233  1.00  0.00    -0.317 NA
BRANCH  33  34
HETATM   34  N5  UNL     1      15.639 -11.268  20.633  1.00  0.00    -0.279 N 
ATOM     35  H52 UNL     1      14.896 -11.815  20.199  1.00  0.00     0.191 HD
ATOM     36  H51 UNL     1      16.387 -10.676  20.996  1.00  0.00     0.191 HD
ENDBRANCH  33  34
ENDBRANCH  27  33
ENDBRANCH   6  27
BRANCH   1  37
HETATM   37  C2  UNL     1      12.562 -13.500  22.165  1.00  0.00     0.266 C 
HETATM   38  O2  UNL     1      13.614 -13.038  22.658  1.00  0.00    -0.265 OA
BRANCH  37  39
HETATM   39  O1  UNL     1      11.373 -13.103  22.735  1.00  0.00    -0.326 OA
HETATM   40  C1  UNL     1      11.207 -11.929  23.493  1.00  0.00     0.213 C 
ENDBRANCH  37  39
ENDBRANCH   1  37
TORSDOF 12
ENDMDL
MODEL 4
REMARK VINA RESULT: -7.259485806      2.769      3.803
REMARK  12 active torsions:
REMARK  status: ('A' for Active; 'I' for Inactive)
REMARK    1  A    between atoms: O1_2  and  C2_3 
REMARK    2  A    between atoms: C2_3  and  C3_5 
REMARK    3  A    between atoms: C4_6  and  O3_7 
REMARK    4  A    between atoms: C5_9  and  O4_10 
REMARK    5  A    between atoms: C6_12  and  S1_13 
REMARK    6  A    between atoms: S1_13  and  C7_14 
REMARK    7  A    between atoms: C8_15  and  C9_16 
REMARK    8  A    between atoms: C17_27  and  S2_28 
REMARK    9  A    between atoms: C19_30  and  C20_31 
REMARK   10  A    between atoms: C20_31  and  N4_37 
REMARK   11  A    between atoms: N2_32  and  N3_34 
REMARK   12  A    between atoms: N4_37  and  N5_38 
ROOT
HETATM    1  C3  UNL     1      14.677 -15.056  20.699  1.00  0.00     0.130 C 
HETATM    2  C4  UNL     1      15.204 -16.195  21.530  1.00  0.00     0.162 C 
HETATM    3  C5  UNL     1      16.604 -16.010  22.008  1.00  0.00     0.163 C 
HETATM    4  C6  UNL     1      16.750 -14.575  22.482  1.00  0.00     0.098 C 
HETATM    5  C17 UNL     1      16.637 -13.609  21.320  1.00  0.00     0.077 C 
HETATM    6  C19 UNL     1      15.696 -14.085  20.261  1.00  0.00     0.103 C 
ENDROOT
BRANCH   4   7
HETATM    7  S1  UNL     1      18.277 -14.362  23.372  1.00  0.00    -0.123 SA
BRANCH   7   8
HETATM    8  C7  UNL     1      18.980 -15.725  24.171  1.00  0.00     0.016 C 
HETATM    9  C8  UNL     1      20.202 -16.127  23.676  1.00  0.00     0.122 C 
HETATM   10  N1  UNL     1      20.724 -17.262  24.307  1.00  0.00    -0.361 N 
HETATM   11  C10 UNL     1      21.130 -18.560  24.952  1.00  0.00     0.104 A 
HETATM   12  C12 UNL     1      19.807 -18.472  24.351  1.00  0.00     0.112 A 
HETATM   13  C11 UNL     1      22.233 -19.253  24.226  1.00  0.00     0.034 C 
HETATM   14  C13 UNL     1      18.534 -18.040  24.998  1.00  0.00     0.015 C 
HETATM   15  C14 UNL     1      18.219 -18.810  26.250  1.00  0.00     0.012 C 
HETATM   16  C15 UNL     1      18.553 -16.539  25.307  1.00  0.00     0.029 C 
HETATM   17  C16 UNL     1      17.363 -16.118  26.071  1.00  0.00     0.016 C 
BRANCH   9  18
HETATM   18  C9  UNL     1      20.843 -15.445  22.581  1.00  0.00     0.227 C 
HETATM   19  O5  UNL     1      21.596 -14.441  22.751  1.00  0.00    -0.643 OA
HETATM   20  O6  UNL     1      20.663 -15.859  21.289  1.00  0.00    -0.643 OA
ENDBRANCH   9  18
ENDBRANCH   7   8
ENDBRANCH   4   7
BRANCH   3  21
HETATM   21  O4  UNL     1      17.550 -16.230  21.006  1.00  0.00    -0.392 OA
ATOM     22  H4  UNL     1      17.798 -17.144  20.930  1.00  0.00     0.210 HD
ENDBRANCH   3  21
BRANCH   5  23
HETATM   23  S2  UNL     1      18.300 -13.404  20.631  1.00  0.00    -0.167 SA
HETATM   24  C18 UNL     1      18.294 -12.998  18.886  1.00  0.00     0.090 C 
ENDBRANCH   5  23
BRANCH   2  25
HETATM   25  O3  UNL     1      15.185 -17.403  20.802  1.00  0.00    -0.392 OA
ATOM     26  H3  UNL     1      14.710 -18.077  21.273  1.00  0.00     0.210 HD
ENDBRANCH   2  25
BRANCH   6  27
HETATM   27  C20 UNL     1      15.037 -12.914  19.645  1.00  0.00     0.204 C 
HETATM   28  N2  UNL     1      14.469 -12.971  18.473  1.00  0.00    -0.215 N 
ATOM     29  H2  UNL     1      14.482 -13.857  17.967  1.00  0.00     0.195 HD
BRANCH  28  30
HETATM   30  N3  UNL     1      13.850 -11.886  17.886  1.00  0.00    -0.037 N 
HETATM   31  O7  UNL     1      13.079 -11.178  18.524  1.00  0.00    -0.516 OA
HETATM   32  O8  UNL     1      14.098 -11.589  16.559  1.00  0.00    -0.516 OA
ENDBRANCH  28  30
BRANCH  27  33
HETATM   33  N4  UNL     1      14.979 -11.687  20.302  1.00  0.00    -0.317 NA
BRANCH  33  34
HETATM   34  N5  UNL     1      14.931 -10.694  20.833  1.00  0.00    -0.279 N 
ATOM     35  H52 UNL     1      15.015 -11.623  20.420  1.00  0.00     0.191 HD
ATOM     36  H51 UNL     1      14.886  -9.795  21.312  1.00  0.00     0.191 HD
ENDBRANCH  33  34
ENDBRANCH  27  33
ENDBRANCH   6  27
BRANCH   1  37
HETATM   37  C2  UNL     1      13.511 -14.498  21.419  1.00  0.00     0.266 C 
HETATM   38  O2  UNL     1      12.400 -15.060  21.312  1.00  0.00    -0.265 OA
BRANCH  37  39
HETATM   39  O1  UNL     1      13.574 -13.376  22.215  1.00  0.00    -0.326 OA
HETATM   40  C1  UNL     1      12.454 -12.632  22.631  1.00  0.00     0.213 C 
ENDBRANCH  37  39
ENDBRANCH   1  37
TORSDOF 12
ENDMDL
MODEL 5
REMARK VINA RESULT: -7.220897731      2.372      3.333
REMARK  12 active torsions:
REMARK  status: ('A' for Active; 'I' for Inactive)
REMARK    1  A    between atoms: O1_2  and  C2_3 
REMARK    2  A    between atoms: C2_3  and  C3_5 
REMARK    3  A    between atoms: C4_6  and  O3_7 
REMARK    4  A    between atoms: C5_9  and  O4_10 
REMARK    5  A    between atoms: C6_12  and  S1_13 
REMARK    6  A    between atoms: S1_13  and  C7_14 
REMARK    7  A    between atoms: C8_15  and  C9_16 
REMARK    8  A    between atoms: C17_27  and  S2_28 
REMARK    9  A    between atoms: C19_30  and  C20_31 
REMARK   10  A    between atoms: C20_31  and  N4_37 
REMARK   11  A    between atoms: N2_32  and  N3_34 
REMARK   12  A    between atoms: N4_37  and  N5_38 
ROOT
HETATM    1  C3  UNL     1      13.653 -13.095  19.173  1.00  0.00     0.130 C 
HETATM    2  C4  UNL     1      13.142 -13.815  20.392  1.00  0.00     0.162 C 
HETATM    3  C5  UNL     1      13.684 -15.193  20.565  1.00  0.00     0.163 C 
HETATM    4  C6  UNL     1      15.171 -15.151  20.259  1.00  0.00     0.098 C 
HETATM    5  C17 UNL     1      15.411 -14.852  18.793  1.00  0.00     0.077 C 
HETATM    6  C19 UNL     1      14.376 -13.945  18.210  1.00  0.00     0.103 C 
ENDROOT
BRANCH   4   7
HETATM    7  S1  UNL     1      15.955 -16.669  20.759  1.00  0.00    -0.123 SA
BRANCH   7   8
HETATM    8  C7  UNL     1      17.041 -16.648  22.106  1.00  0.00     0.016 C 
HETATM    9  C8  UNL     1      16.759 -17.562  23.098  1.00  0.00     0.122 C 
HETATM   10  N1  UNL     1      17.622 -17.489  24.197  1.00  0.00    -0.361 N 
HETATM   11  C10 UNL     1      18.513 -17.238  25.386  1.00  0.00     0.104 A 
HETATM   12  C12 UNL     1      17.759 -16.119  24.838  1.00  0.00     0.112 A 
HETATM   13  C11 UNL     1      18.038 -17.919  26.625  1.00  0.00     0.034 C 
HETATM   14  C13 UNL     1      18.179 -15.168  23.767  1.00  0.00     0.015 C 
HETATM   15  C14 UNL     1      19.496 -14.503  24.054  1.00  0.00     0.012 C 
HETATM   16  C15 UNL     1      18.238 -15.865  22.404  1.00  0.00     0.029 C 
HETATM   17  C16 UNL     1      18.784 -14.981  21.356  1.00  0.00     0.016 C 
BRANCH   9  18
HETATM   18  C9  UNL     1      15.647 -18.473  23.003  1.00  0.00     0.227 C 
HETATM   19  O5  UNL     1      15.761 -19.638  22.520  1.00  0.00    -0.643 OA
HETATM   20  O6  UNL     1      14.400 -18.113  23.438  1.00  0.00    -0.643 OA
ENDBRANCH   9  18
ENDBRANCH   7   8
ENDBRANCH   4   7
BRANCH   3  21
HETATM   21  O4  UNL     1      13.093 -16.117  19.702  1.00  0.00    -0.392 OA
ATOM     22  H4  UNL     1      12.854 -15.737  18.865  1.00  0.00     0.210 HD
ENDBRANCH   3  21
BRANCH   5  23
HETATM   23  S2  UNL     1      15.416 -16.437  17.916  1.00  0.00    -0.167 SA
HETATM   24  C18 UNL     1      15.635 -16.263  16.146  1.00  0.00     0.090 C 
ENDBRANCH   5  23
BRANCH   2  25
HETATM   25  O3  UNL     1      11.737 -13.938  20.353  1.00  0.00    -0.392 OA
ATOM     26  H3  UNL     1      11.325 -13.092  20.227  1.00  0.00     0.210 HD
ENDBRANCH   2  25
BRANCH   6  27
HETATM   27  C20 UNL     1      15.009 -13.099  17.175  1.00  0.00     0.204 C 
HETATM   28  N2  UNL     1      14.325 -12.544  16.214  1.00  0.00    -0.215 N 
ATOM     29  H2  UNL     1      13.318 -12.702  16.179  1.00  0.00     0.195 HD
BRANCH  28  30
HETATM   30  N3  UNL     1      14.902 -11.753  15.243  1.00  0.00    -0.037 N 
HETATM   31  O7  UNL     1      14.508 -10.609  15.043  1.00  0.00    -0.516 OA
HETATM   32  O8  UNL     1      15.941 -12.251  14.478  1.00  0.00    -0.516 OA
ENDBRANCH  28  30
BRANCH  27  33
HETATM   33  N4  UNL     1      16.378 -12.841  17.190  1.00  0.00    -0.317 NA
BRANCH  33  34
HETATM   34  N5  UNL     1      17.485 -12.630  17.201  1.00  0.00    -0.279 N 
ATOM     35  H52 UNL     1      16.502 -12.902  17.201  1.00  0.00     0.191 HD
ATOM     36  H51 UNL     1      18.487 -12.438  17.211  1.00  0.00     0.191 HD
ENDBRANCH  33  34
ENDBRANCH  27  33
ENDBRANCH   6  27
BRANCH   1  37
HETATM   37  C2  UNL     1      14.372 -11.893  19.650  1.00  0.00     0.266 C 
HETATM   38  O2  UNL     1      13.717 -10.892  20.012  1.00  0.00    -0.265 OA
BRANCH  37  39
HETATM   39  O1  UNL     1      15.745 -11.806  19.722  1.00  0.00    -0.326 OA
HETATM   40  C1  UNL     1      16.500 -12.068  20.880  1.00  0.00     0.213 C 
ENDBRANCH  37  39
ENDBRANCH   1  37
TORSDOF 12
ENDMDL
