MODEL 1
REMARK VINA RESULT: -3.798704333      0.000      0.000
REMARK  1 active torsions:
REMARK  status: ('A' for Active; 'I' for Inactive)
REMARK    1  A    between atoms: C2_2  and  C3_3 
ROOT
HETATM    1  C3  UNL     1      60.451  -4.644  -2.111  1.00  0.00     0.154 C 
HETATM    2  C4  UNL     1      60.637  -5.926  -1.372  1.00  0.00     0.223 C 
HETATM    3  O1  UNL     1      59.477  -6.345  -2.054  1.00  0.00    -0.284 OA
HETATM    4  N1  UNL     1      59.050  -5.057  -2.070  1.00  0.00    -0.090 NA
ENDROOT
BRANCH   1   5
HETATM    5  C2  UNL     1      60.755  -3.398  -1.410  1.00  0.00    -0.011 C 
HETATM    6  C1  UNL     1      61.163  -3.419  -0.158  1.00  0.00     0.008 C 
ENDBRANCH   1   5
TORSDOF 1
ENDMDL
MODEL 2
REMARK VINA RESULT: -3.777482054      1.575      1.888
REMARK  1 active torsions:
REMARK  status: ('A' for Active; 'I' for Inactive)
REMARK    1  A    between atoms: C2_2  and  C3_3 
ROOT
HETATM    1  C3  UNL     1      59.332  -3.761  -1.979  1.00  0.00     0.154 C 
HETATM    2  C4  UNL     1      58.826  -3.567  -3.369  1.00  0.00     0.223 C 
HETATM    3  O1  UNL     1      58.130  -4.774  -3.153  1.00  0.00    -0.284 OA
HETATM    4  N1  UNL     1      59.122  -5.168  -2.316  1.00  0.00    -0.090 NA
ENDROOT
BRANCH   1   5
HETATM    5  C2  UNL     1      60.716  -3.388  -1.696  1.00  0.00    -0.011 C 
HETATM    6  C1  UNL     1      61.006  -2.645  -0.648  1.00  0.00     0.008 C 
ENDBRANCH   1   5
TORSDOF 1
ENDMDL
MODEL 3
REMARK VINA RESULT: -3.749898968      0.952      1.135
REMARK  1 active torsions:
REMARK  status: ('A' for Active; 'I' for Inactive)
REMARK    1  A    between atoms: C2_2  and  C3_3 
ROOT
HETATM    1  C3  UNL     1      60.858  -5.078  -0.867  1.00  0.00     0.154 C 
HETATM    2  C4  UNL     1      60.214  -6.202  -0.128  1.00  0.00     0.223 C 
HETATM    3  O1  UNL     1      59.448  -6.371  -1.299  1.00  0.00    -0.284 OA
HETATM    4  N1  UNL     1      59.558  -5.039  -1.534  1.00  0.00    -0.090 NA
ENDROOT
BRANCH   1   5
HETATM    5  C2  UNL     1      61.207  -3.875  -0.115  1.00  0.00    -0.011 C 
HETATM    6  C1  UNL     1      61.006  -2.680  -0.632  1.00  0.00     0.008 C 
ENDBRANCH   1   5
TORSDOF 1
ENDMDL
MODEL 4
REMARK VINA RESULT: -3.741057361      1.848      2.294
REMARK  1 active torsions:
REMARK  status: ('A' for Active; 'I' for Inactive)
REMARK    1  A    between atoms: C2_2  and  C3_3 
ROOT
HETATM    1  C3  UNL     1      59.546  -4.744  -1.824  1.00  0.00     0.154 C 
HETATM    2  C4  UNL     1      59.841  -3.524  -2.629  1.00  0.00     0.223 C 
HETATM    3  O1  UNL     1      58.514  -3.652  -3.084  1.00  0.00    -0.284 OA
HETATM    4  N1  UNL     1      58.613  -4.995  -2.920  1.00  0.00    -0.090 NA
ENDROOT
BRANCH   1   5
HETATM    5  C2  UNL     1      60.607  -5.737  -1.671  1.00  0.00    -0.011 C 
HETATM    6  C1  UNL     1      61.073  -6.037  -0.476  1.00  0.00     0.008 C 
ENDBRANCH   1   5
TORSDOF 1
ENDMDL
MODEL 5
REMARK VINA RESULT: -3.699714782      1.272      1.466
REMARK  1 active torsions:
REMARK  status: ('A' for Active; 'I' for Inactive)
REMARK    1  A    between atoms: C2_2  and  C3_3 
ROOT
HETATM    1  C3  UNL     1      60.481  -5.487  -1.549  1.00  0.00     0.154 C 
HETATM    2  C4  UNL     1      61.207  -5.706  -0.265  1.00  0.00     0.223 C 
HETATM    3  O1  UNL     1      60.126  -6.550   0.060  1.00  0.00    -0.284 OA
HETATM    4  N1  UNL     1      59.321  -5.775  -0.709  1.00  0.00    -0.090 NA
ENDROOT
BRANCH   1   5
HETATM    5  C2  UNL     1      60.511  -4.148  -2.133  1.00  0.00    -0.011 C 
HETATM    6  C1  UNL     1      60.800  -3.101  -1.388  1.00  0.00     0.008 C 
ENDBRANCH   1   5
TORSDOF 1
ENDMDL
