MODEL 1
REMARK VINA RESULT: -7.297564190      0.000      0.000
REMARK  11 active torsions:
REMARK  status: ('A' for Active; 'I' for Inactive)
REMARK    1  A    between atoms: N1_1  and  C1_4 
REMARK    2  A    between atoms: C2_5  and  N2_6 
REMARK    3  A    between atoms: N3_9  and  C3_10 
REMARK    4  A    between atoms: C3_10  and  C4_11 
REMARK    5  A    between atoms: C4_11  and  O1_12 
REMARK    6  A    between atoms: C4_11  and  C5_14 
REMARK    7  A    between atoms: C8_17  and  N4_18 
REMARK    8  A    between atoms: C14_34  and  C15_35 
REMARK    9  A    between atoms: C15_35  and  O3_36 
REMARK   10  A    between atoms: N11_38  and  O4_40 
REMARK   11  A    between atoms: N12_42  and  O5_43 
ROOT
HETATM    1  C1  UNL     1      38.855  32.150 -21.991  1.00  0.00     0.171 A 
HETATM    2  C2  UNL     1      38.318  30.903 -22.260  1.00  0.00     0.149 A 
HETATM    3  N3  UNL     1      37.099  30.552 -21.759  1.00  0.00    -0.311 N 
HETATM    4  C13 UNL     1      36.431  31.456 -20.990  1.00  0.00     0.154 A 
HETATM    5  N10 UNL     1      35.172  31.102 -20.441  1.00  0.00    -0.080 NA
HETATM    6  C14 UNL     1      36.941  32.698 -20.708  1.00  0.00     0.158 A 
HETATM    7  N12 UNL     1      38.138  33.015 -21.215  1.00  0.00    -0.197 N 
ENDROOT
BRANCH   3   8
HETATM    8  C3  UNL     1      36.530  29.275 -22.061  1.00  0.00     0.197 C 
BRANCH   8   9
HETATM    9  C4  UNL     1      36.953  28.122 -21.246  1.00  0.00     0.073 C 
BRANCH   9  10
HETATM   10  O1  UNL     1      38.176  28.274 -20.580  1.00  0.00    -0.362 OA
ATOM     11  H1  UNL     1      38.228  27.864 -19.725  1.00  0.00     0.217 HD
ENDBRANCH   9  10
BRANCH   9  12
HETATM   12  C5  UNL     1      35.941  27.490 -20.410  1.00  0.00     0.010 A 
HETATM   13  C6  UNL     1      35.846  27.836 -19.078  1.00  0.00     0.019 A 
HETATM   14  C7  UNL     1      34.884  27.289 -18.267  1.00  0.00     0.050 A 
HETATM   15  C8  UNL     1      33.975  26.366 -18.766  1.00  0.00     0.118 A 
HETATM   16  N9  UNL     1      34.062  26.023 -20.061  1.00  0.00    -0.351 N 
HETATM   17  C12 UNL     1      35.004  26.557 -20.858  1.00  0.00     0.103 A 
ATOM     18  H9  UNL     1      33.404  25.346 -20.447  1.00  0.00     0.166 HD
BRANCH  15  19
HETATM   19  N4  UNL     1      32.991  25.818 -17.897  1.00  0.00    -0.222 N 
HETATM   20  C9  UNL     1      33.228  24.714 -17.164  1.00  0.00     0.206 A 
HETATM   21  N5  UNL     1      34.507  24.085 -17.271  1.00  0.00    -0.062 NA
HETATM   22  N6  UNL     1      32.302  24.199 -16.346  1.00  0.00    -0.304 N 
HETATM   23  C10 UNL     1      31.084  24.766 -16.220  1.00  0.00     0.198 A 
ATOM     24  H6  UNL     1      32.520  23.361 -15.808  1.00  0.00     0.171 HD
HETATM   25  N7  UNL     1      30.085  24.234 -15.355  1.00  0.00    -0.063 NA
HETATM   26  N8  UNL     1      30.859  25.868 -16.957  1.00  0.00    -0.282 N 
HETATM   27  C11 UNL     1      31.779  26.390 -17.778  1.00  0.00     0.337 A 
ATOM     28  H8  UNL     1      29.950  26.326 -16.888  1.00  0.00     0.173 HD
HETATM   29  O2  UNL     1      31.551  27.414 -18.454  1.00  0.00    -0.246 OA
ENDBRANCH  15  19
ENDBRANCH   9  12
ENDBRANCH   8   9
ENDBRANCH   3   8
BRANCH   2  30
HETATM   30  N2  UNL     1      38.949  30.017 -22.940  1.00  0.00    -0.382 N 
ATOM     31  H22 UNL     1      38.538  29.733 -23.829  1.00  0.00     0.157 HD
ATOM     32  H21 UNL     1      39.805  29.578 -22.601  1.00  0.00     0.157 HD
ENDBRANCH   2  30
BRANCH   1  33
HETATM   33  N1  UNL     1      39.998  32.518 -22.448  1.00  0.00    -0.381 N 
ATOM     34  H12 UNL     1      40.290  32.200 -23.372  1.00  0.00     0.157 HD
ATOM     35  H11 UNL     1      40.629  33.119 -21.918  1.00  0.00     0.157 HD
ENDBRANCH   1  33
BRANCH   6  36
HETATM   36  C15 UNL     1      36.244  33.676 -19.884  1.00  0.00     0.193 C 
HETATM   37  N11 UNL     1      36.296  34.940 -20.217  1.00  0.00    -0.245 N 
ATOM     38  H11 UNL     1      36.828  35.195 -21.050  1.00  0.00     0.196 HD
BRANCH  36  39
HETATM   39  O3  UNL     1      35.514  33.380 -18.757  1.00  0.00    -0.343 OA
ATOM     40  H3  UNL     1      34.685  33.782 -18.523  1.00  0.00     0.219 HD
ENDBRANCH  36  39
BRANCH  37  41
HETATM   41  O4  UNL     1      35.686  35.929 -19.526  1.00  0.00    -0.288 OA
ATOM     42  H4  UNL     1      34.776  36.173 -19.639  1.00  0.00     0.244 HD
ENDBRANCH  37  41
ENDBRANCH   6  36
BRANCH   7  43
HETATM   43  O5  UNL     1      38.679  34.237 -20.962  1.00  0.00    -0.280 OA
ATOM     44  H5  UNL     1      39.206  34.335 -20.177  1.00  0.00     0.245 HD
ENDBRANCH   7  43
TORSDOF 11
ENDMDL
MODEL 2
REMARK VINA RESULT: -7.284821167      1.047      1.642
REMARK  11 active torsions:
REMARK  status: ('A' for Active; 'I' for Inactive)
REMARK    1  A    between atoms: N1_1  and  C1_4 
REMARK    2  A    between atoms: C2_5  and  N2_6 
REMARK    3  A    between atoms: N3_9  and  C3_10 
REMARK    4  A    between atoms: C3_10  and  C4_11 
REMARK    5  A    between atoms: C4_11  and  O1_12 
REMARK    6  A    between atoms: C4_11  and  C5_14 
REMARK    7  A    between atoms: C8_17  and  N4_18 
REMARK    8  A    between atoms: C14_34  and  C15_35 
REMARK    9  A    between atoms: C15_35  and  O3_36 
REMARK   10  A    between atoms: N11_38  and  O4_40 
REMARK   11  A    between atoms: N12_42  and  O5_43 
ROOT
HETATM    1  C1  UNL     1      38.856  32.090 -21.986  1.00  0.00     0.171 A 
HETATM    2  C2  UNL     1      38.305  30.847 -22.241  1.00  0.00     0.149 A 
HETATM    3  N3  UNL     1      37.081  30.517 -21.738  1.00  0.00    -0.311 N 
HETATM    4  C13 UNL     1      36.423  31.438 -20.981  1.00  0.00     0.154 A 
HETATM    5  N10 UNL     1      35.158  31.105 -20.430  1.00  0.00    -0.080 NA
HETATM    6  C14 UNL     1      36.948  32.676 -20.712  1.00  0.00     0.158 A 
HETATM    7  N12 UNL     1      38.149  32.972 -21.221  1.00  0.00    -0.197 N 
ENDROOT
BRANCH   3   8
HETATM    8  C3  UNL     1      36.497  29.244 -22.027  1.00  0.00     0.197 C 
BRANCH   8   9
HETATM    9  C4  UNL     1      36.917  28.092 -21.210  1.00  0.00     0.073 C 
BRANCH   9  10
HETATM   10  O1  UNL     1      38.187  28.200 -20.627  1.00  0.00    -0.362 OA
ATOM     11  H1  UNL     1      38.515  27.409 -20.216  1.00  0.00     0.217 HD
ENDBRANCH   9  10
BRANCH   9  12
HETATM   12  C5  UNL     1      35.933  27.530 -20.293  1.00  0.00     0.010 A 
HETATM   13  C6  UNL     1      35.170  26.452 -20.692  1.00  0.00     0.019 A 
HETATM   14  C7  UNL     1      34.258  25.873 -19.846  1.00  0.00     0.050 A 
HETATM   15  C8  UNL     1      34.077  26.357 -18.557  1.00  0.00     0.118 A 
HETATM   16  N9  UNL     1      34.816  27.406 -18.162  1.00  0.00    -0.351 N 
HETATM   17  C12 UNL     1      35.709  27.976 -18.989  1.00  0.00     0.103 A 
ATOM     18  H9  UNL     1      34.698  27.777 -17.220  1.00  0.00     0.166 HD
BRANCH  15  19
HETATM   19  N4  UNL     1      33.123  25.733 -17.706  1.00  0.00    -0.222 N 
HETATM   20  C9  UNL     1      31.859  26.185 -17.607  1.00  0.00     0.206 A 
HETATM   21  N5  UNL     1      31.478  27.323 -18.382  1.00  0.00    -0.062 NA
HETATM   22  N6  UNL     1      30.961  25.597 -16.806  1.00  0.00    -0.304 N 
HETATM   23  C10 UNL     1      31.286  24.521 -16.061  1.00  0.00     0.198 A 
ATOM     24  H6  UNL     1      30.014  25.971 -16.759  1.00  0.00     0.171 HD
HETATM   25  N7  UNL     1      30.346  23.881 -15.202  1.00  0.00    -0.063 NA
HETATM   26  N8  UNL     1      32.552  24.079 -16.168  1.00  0.00    -0.282 N 
HETATM   27  C11 UNL     1      33.457  24.661 -16.966  1.00  0.00     0.337 A 
ATOM     28  H8  UNL     1      32.834  23.266 -15.619  1.00  0.00     0.173 HD
HETATM   29  O2  UNL     1      34.626  24.235 -17.052  1.00  0.00    -0.246 OA
ENDBRANCH  15  19
ENDBRANCH   9  12
ENDBRANCH   8   9
ENDBRANCH   3   8
BRANCH   2  30
HETATM   30  N2  UNL     1      38.926  29.946 -22.910  1.00  0.00    -0.382 N 
ATOM     31  H22 UNL     1      39.898  30.134 -23.153  1.00  0.00     0.157 HD
ATOM     32  H21 UNL     1      38.471  29.089 -23.223  1.00  0.00     0.157 HD
ENDBRANCH   2  30
BRANCH   1  33
HETATM   33  N1  UNL     1      40.005  32.440 -22.445  1.00  0.00    -0.381 N 
ATOM     34  H12 UNL     1      40.276  32.144 -23.382  1.00  0.00     0.157 HD
ATOM     35  H11 UNL     1      40.660  33.003 -21.904  1.00  0.00     0.157 HD
ENDBRANCH   1  33
BRANCH   6  36
HETATM   36  C15 UNL     1      36.261  33.672 -19.901  1.00  0.00     0.193 C 
HETATM   37  N11 UNL     1      36.342  34.933 -20.239  1.00  0.00    -0.245 N 
ATOM     38  H11 UNL     1      36.890  35.174 -21.066  1.00  0.00     0.196 HD
BRANCH  36  39
HETATM   39  O3  UNL     1      35.512  33.396 -18.781  1.00  0.00    -0.343 OA
ATOM     40  H3  UNL     1      35.126  32.552 -18.578  1.00  0.00     0.219 HD
ENDBRANCH  36  39
BRANCH  37  41
HETATM   41  O4  UNL     1      35.745  35.937 -19.558  1.00  0.00    -0.288 OA
ATOM     42  H4  UNL     1      36.217  36.627 -19.107  1.00  0.00     0.244 HD
ENDBRANCH  37  41
ENDBRANCH   6  36
BRANCH   7  43
HETATM   43  O5  UNL     1      38.705  34.191 -20.980  1.00  0.00    -0.280 OA
ATOM     44  H5  UNL     1      38.536  34.597 -20.138  1.00  0.00     0.245 HD
ENDBRANCH   7  43
TORSDOF 11
ENDMDL
MODEL 3
REMARK VINA RESULT: -7.090877205      2.241      9.143
REMARK  11 active torsions:
REMARK  status: ('A' for Active; 'I' for Inactive)
REMARK    1  A    between atoms: N1_1  and  C1_4 
REMARK    2  A    between atoms: C2_5  and  N2_6 
REMARK    3  A    between atoms: N3_9  and  C3_10 
REMARK    4  A    between atoms: C3_10  and  C4_11 
REMARK    5  A    between atoms: C4_11  and  O1_12 
REMARK    6  A    between atoms: C4_11  and  C5_14 
REMARK    7  A    between atoms: C8_17  and  N4_18 
REMARK    8  A    between atoms: C14_34  and  C15_35 
REMARK    9  A    between atoms: C15_35  and  O3_36 
REMARK   10  A    between atoms: N11_38  and  O4_40 
REMARK   11  A    between atoms: N12_42  and  O5_43 
ROOT
HETATM    1  C1  UNL     1      33.390  23.893 -16.466  1.00  0.00     0.171 A 
HETATM    2  C2  UNL     1      34.317  24.375 -17.372  1.00  0.00     0.149 A 
HETATM    3  N3  UNL     1      33.988  25.386 -18.228  1.00  0.00    -0.311 N 
HETATM    4  C13 UNL     1      32.729  25.900 -18.166  1.00  0.00     0.154 A 
HETATM    5  N10 UNL     1      32.360  26.937 -19.062  1.00  0.00    -0.080 NA
HETATM    6  C14 UNL     1      31.791  25.440 -17.277  1.00  0.00     0.158 A 
HETATM    7  N12 UNL     1      32.144  24.449 -16.450  1.00  0.00    -0.197 N 
ENDROOT
BRANCH   3   8
HETATM    8  C3  UNL     1      34.956  25.906 -19.144  1.00  0.00     0.197 C 
BRANCH   8   9
HETATM    9  C4  UNL     1      36.026  26.762 -18.601  1.00  0.00     0.073 C 
BRANCH   9  10
HETATM   10  O1  UNL     1      37.218  26.100 -18.277  1.00  0.00    -0.362 OA
ATOM     11  H1  UNL     1      37.983  26.658 -18.191  1.00  0.00     0.217 HD
ENDBRANCH   9  10
BRANCH   9  12
HETATM   12  C5  UNL     1      36.263  28.036 -19.268  1.00  0.00     0.010 A 
HETATM   13  C6  UNL     1      35.201  28.879 -19.520  1.00  0.00     0.019 A 
HETATM   14  C7  UNL     1      35.388  30.103 -20.114  1.00  0.00     0.050 A 
HETATM   15  C8  UNL     1      36.659  30.528 -20.478  1.00  0.00     0.118 A 
HETATM   16  N9  UNL     1      37.697  29.712 -20.236  1.00  0.00    -0.351 N 
HETATM   17  C12 UNL     1      37.517  28.514 -19.656  1.00  0.00     0.103 A 
ATOM     18  H9  UNL     1      38.639  30.007 -20.496  1.00  0.00     0.166 HD
BRANCH  15  19
HETATM   19  N4  UNL     1      36.817  31.802 -21.091  1.00  0.00    -0.222 N 
HETATM   20  C9  UNL     1      36.302  32.920 -20.546  1.00  0.00     0.206 A 
HETATM   21  N5  UNL     1      35.579  32.810 -19.318  1.00  0.00    -0.062 NA
HETATM   22  N6  UNL     1      36.451  34.119 -21.123  1.00  0.00    -0.304 N 
HETATM   23  C10 UNL     1      37.127  34.260 -22.281  1.00  0.00     0.198 A 
ATOM     24  H6  UNL     1      36.044  34.942 -20.678  1.00  0.00     0.171 HD
HETATM   25  N7  UNL     1      37.297  35.526 -22.912  1.00  0.00    -0.063 NA
HETATM   26  N8  UNL     1      37.637  33.136 -22.817  1.00  0.00    -0.282 N 
HETATM   27  C11 UNL     1      37.493  31.933 -22.247  1.00  0.00     0.337 A 
ATOM     28  H8  UNL     1      38.156  33.204 -23.693  1.00  0.00     0.173 HD
HETATM   29  O2  UNL     1      37.974  30.902 -22.759  1.00  0.00    -0.246 OA
ENDBRANCH  15  19
ENDBRANCH   9  12
ENDBRANCH   8   9
ENDBRANCH   3   8
BRANCH   2  30
HETATM   30  N2  UNL     1      35.493  23.874 -17.484  1.00  0.00    -0.382 N 
ATOM     31  H22 UNL     1      35.677  23.005 -16.983  1.00  0.00     0.157 HD
ATOM     32  H21 UNL     1      36.233  24.332 -18.015  1.00  0.00     0.157 HD
ENDBRANCH   2  30
BRANCH   1  33
HETATM   33  N1  UNL     1      33.664  22.945 -15.642  1.00  0.00    -0.381 N 
ATOM     34  H12 UNL     1      34.584  22.918 -15.204  1.00  0.00     0.157 HD
ATOM     35  H11 UNL     1      32.992  22.214 -15.410  1.00  0.00     0.157 HD
ENDBRANCH   1  33
BRANCH   6  36
HETATM   36  C15 UNL     1      30.439  25.975 -17.200  1.00  0.00     0.193 C 
HETATM   37  N11 UNL     1      29.690  25.664 -16.173  1.00  0.00    -0.245 N 
ATOM     38  H11 UNL     1      30.086  25.052 -15.459  1.00  0.00     0.196 HD
BRANCH  36  39
HETATM   39  O3  UNL     1      29.863  26.802 -18.136  1.00  0.00    -0.343 OA
ATOM     40  H3  UNL     1      29.109  27.359 -17.981  1.00  0.00     0.219 HD
ENDBRANCH  36  39
BRANCH  37  41
HETATM   41  O4  UNL     1      28.423  26.104 -16.001  1.00  0.00    -0.288 OA
ATOM     42  H4  UNL     1      27.651  25.586 -16.192  1.00  0.00     0.244 HD
ENDBRANCH  37  41
ENDBRANCH   6  36
BRANCH   7  43
HETATM   43  O5  UNL     1      31.244  23.964 -15.551  1.00  0.00    -0.280 OA
ATOM     44  H5  UNL     1      30.688  23.244 -15.825  1.00  0.00     0.245 HD
ENDBRANCH   7  43
TORSDOF 11
ENDMDL
MODEL 4
REMARK VINA RESULT: -7.054848945      2.014      9.377
REMARK  11 active torsions:
REMARK  status: ('A' for Active; 'I' for Inactive)
REMARK    1  A    between atoms: N1_1  and  C1_4 
REMARK    2  A    between atoms: C2_5  and  N2_6 
REMARK    3  A    between atoms: N3_9  and  C3_10 
REMARK    4  A    between atoms: C3_10  and  C4_11 
REMARK    5  A    between atoms: C4_11  and  O1_12 
REMARK    6  A    between atoms: C4_11  and  C5_14 
REMARK    7  A    between atoms: C8_17  and  N4_18 
REMARK    8  A    between atoms: C14_34  and  C15_35 
REMARK    9  A    between atoms: C15_35  and  O3_36 
REMARK   10  A    between atoms: N11_38  and  O4_40 
REMARK   11  A    between atoms: N12_42  and  O5_43 
ROOT
HETATM    1  C1  UNL     1      33.304  23.907 -16.366  1.00  0.00     0.171 A 
HETATM    2  C2  UNL     1      34.255  24.485 -17.188  1.00  0.00     0.149 A 
HETATM    3  N3  UNL     1      33.929  25.540 -17.988  1.00  0.00    -0.311 N 
HETATM    4  C13 UNL     1      32.649  26.004 -17.956  1.00  0.00     0.154 A 
HETATM    5  N10 UNL     1      32.284  27.087 -18.798  1.00  0.00    -0.080 NA
HETATM    6  C14 UNL     1      31.688  25.449 -17.151  1.00  0.00     0.158 A 
HETATM    7  N12 UNL     1      32.038  24.416 -16.376  1.00  0.00    -0.197 N 
ENDROOT
BRANCH   3   8
HETATM    8  C3  UNL     1      34.919  26.157 -18.815  1.00  0.00     0.197 C 
BRANCH   8   9
HETATM    9  C4  UNL     1      35.587  27.367 -18.302  1.00  0.00     0.073 C 
BRANCH   9  10
HETATM   10  O1  UNL     1      36.415  27.170 -17.189  1.00  0.00    -0.362 OA
ATOM     11  H1  UNL     1      37.188  27.720 -17.154  1.00  0.00     0.217 HD
ENDBRANCH   9  10
BRANCH   9  12
HETATM   12  C5  UNL     1      36.183  28.266 -19.282  1.00  0.00     0.010 A 
HETATM   13  C6  UNL     1      35.447  29.327 -19.767  1.00  0.00     0.019 A 
HETATM   14  C7  UNL     1      35.984  30.216 -20.664  1.00  0.00     0.050 A 
HETATM   15  C8  UNL     1      37.291  30.072 -21.111  1.00  0.00     0.118 A 
HETATM   16  N9  UNL     1      38.013  29.041 -20.644  1.00  0.00    -0.351 N 
HETATM   17  C12 UNL     1      37.489  28.169 -19.766  1.00  0.00     0.103 A 
ATOM     18  H9  UNL     1      38.975  28.918 -20.961  1.00  0.00     0.166 HD
BRANCH  15  19
HETATM   19  N4  UNL     1      37.816  31.012 -22.041  1.00  0.00    -0.222 N 
HETATM   20  C9  UNL     1      37.885  30.743 -23.358  1.00  0.00     0.206 A 
HETATM   21  N5  UNL     1      37.415  29.475 -23.822  1.00  0.00    -0.062 NA
HETATM   22  N6  UNL     1      38.379  31.627 -24.234  1.00  0.00    -0.304 N 
HETATM   23  C10 UNL     1      38.831  32.833 -23.832  1.00  0.00     0.198 A 
ATOM     24  H6  UNL     1      38.415  31.384 -25.224  1.00  0.00     0.171 HD
HETATM   25  N7  UNL     1      39.361  33.788 -24.746  1.00  0.00    -0.063 NA
HETATM   26  N8  UNL     1      38.757  33.090 -22.514  1.00  0.00    -0.282 N 
HETATM   27  C11 UNL     1      38.265  32.211 -21.631  1.00  0.00     0.337 A 
ATOM     28  H8  UNL     1      39.089  33.993 -22.173  1.00  0.00     0.173 HD
HETATM   29  O2  UNL     1      38.204  32.469 -20.412  1.00  0.00    -0.246 OA
ENDBRANCH  15  19
ENDBRANCH   9  12
ENDBRANCH   8   9
ENDBRANCH   3   8
BRANCH   2  30
HETATM   30  N2  UNL     1      35.454  24.035 -17.272  1.00  0.00    -0.382 N 
ATOM     31  H22 UNL     1      35.631  23.109 -16.884  1.00  0.00     0.157 HD
ATOM     32  H21 UNL     1      36.215  24.582 -17.673  1.00  0.00     0.157 HD
ENDBRANCH   2  30
BRANCH   1  33
HETATM   33  N1  UNL     1      33.574  22.915 -15.595  1.00  0.00    -0.381 N 
ATOM     34  H12 UNL     1      34.434  22.930 -15.047  1.00  0.00     0.157 HD
ATOM     35  H11 UNL     1      32.959  22.106 -15.512  1.00  0.00     0.157 HD
ENDBRANCH   1  33
BRANCH   6  36
HETATM   36  C15 UNL     1      30.313  25.928 -17.107  1.00  0.00     0.193 C 
HETATM   37  N11 UNL     1      29.589  25.686 -16.045  1.00  0.00    -0.245 N 
ATOM     38  H11 UNL     1      30.019  25.165 -15.280  1.00  0.00     0.196 HD
BRANCH  36  39
HETATM   39  O3  UNL     1      29.692  26.634 -18.111  1.00  0.00    -0.343 OA
ATOM     40  H3  UNL     1      28.794  26.944 -18.084  1.00  0.00     0.219 HD
ENDBRANCH  36  39
BRANCH  37  41
HETATM   41  O4  UNL     1      28.305  26.084 -15.899  1.00  0.00    -0.288 OA
ATOM     42  H4  UNL     1      27.554  25.526 -16.063  1.00  0.00     0.244 HD
ENDBRANCH  37  41
ENDBRANCH   6  36
BRANCH   7  43
HETATM   43  O5  UNL     1      31.115  23.838 -15.560  1.00  0.00    -0.280 OA
ATOM     44  H5  UNL     1      30.916  22.919 -15.697  1.00  0.00     0.245 HD
ENDBRANCH   7  43
TORSDOF 11
ENDMDL
MODEL 5
REMARK VINA RESULT: -6.815244762      2.154      8.966
REMARK  11 active torsions:
REMARK  status: ('A' for Active; 'I' for Inactive)
REMARK    1  A    between atoms: N1_1  and  C1_4 
REMARK    2  A    between atoms: C2_5  and  N2_6 
REMARK    3  A    between atoms: N3_9  and  C3_10 
REMARK    4  A    between atoms: C3_10  and  C4_11 
REMARK    5  A    between atoms: C4_11  and  O1_12 
REMARK    6  A    between atoms: C4_11  and  C5_14 
REMARK    7  A    between atoms: C8_17  and  N4_18 
REMARK    8  A    between atoms: C14_34  and  C15_35 
REMARK    9  A    between atoms: C15_35  and  O3_36 
REMARK   10  A    between atoms: N11_38  and  O4_40 
REMARK   11  A    between atoms: N12_42  and  O5_43 
ROOT
HETATM    1  C1  UNL     1      35.002  23.717 -18.742  1.00  0.00     0.171 A 
HETATM    2  C2  UNL     1      35.845  24.754 -19.100  1.00  0.00     0.149 A 
HETATM    3  N3  UNL     1      35.441  26.051 -18.967  1.00  0.00    -0.311 N 
HETATM    4  C13 UNL     1      34.193  26.292 -18.478  1.00  0.00     0.154 A 
HETATM    5  N10 UNL     1      33.747  27.633 -18.354  1.00  0.00    -0.080 NA
HETATM    6  C14 UNL     1      33.339  25.282 -18.117  1.00  0.00     0.158 A 
HETATM    7  N12 UNL     1      33.763  24.021 -18.256  1.00  0.00    -0.197 N 
ENDROOT
BRANCH   3   8
HETATM    8  C3  UNL     1      36.323  27.124 -19.308  1.00  0.00     0.197 C 
BRANCH   8   9
HETATM    9  C4  UNL     1      36.138  27.778 -20.616  1.00  0.00     0.073 C 
BRANCH   9  10
HETATM   10  O1  UNL     1      35.017  27.358 -21.344  1.00  0.00    -0.362 OA
ATOM     11  H1  UNL     1      35.144  26.579 -21.873  1.00  0.00     0.217 HD
ENDBRANCH   9  10
BRANCH   9  12
HETATM   12  C5  UNL     1      36.326  29.222 -20.673  1.00  0.00     0.010 A 
HETATM   13  C6  UNL     1      35.238  30.042 -20.887  1.00  0.00     0.019 A 
HETATM   14  C7  UNL     1      35.369  31.407 -20.911  1.00  0.00     0.050 A 
HETATM   15  C8  UNL     1      36.608  32.006 -20.720  1.00  0.00     0.118 A 
HETATM   16  N9  UNL     1      37.672  31.213 -20.512  1.00  0.00    -0.351 N 
HETATM   17  C12 UNL     1      37.547  29.876 -20.488  1.00  0.00     0.103 A 
ATOM     18  H9  UNL     1      38.590  31.634 -20.370  1.00  0.00     0.166 HD
BRANCH  15  19
HETATM   19  N4  UNL     1      36.708  33.424 -20.752  1.00  0.00    -0.222 N 
HETATM   20  C9  UNL     1      36.149  34.196 -19.802  1.00  0.00     0.206 A 
HETATM   21  N5  UNL     1      35.438  33.560 -18.737  1.00  0.00    -0.062 NA
HETATM   22  N6  UNL     1      36.243  35.531 -19.831  1.00  0.00    -0.304 N 
HETATM   23  C10 UNL     1      36.907  36.165 -20.820  1.00  0.00     0.198 A 
ATOM     24  H6  UNL     1      35.804  36.080 -19.092  1.00  0.00     0.171 HD
HETATM   25  N7  UNL     1      37.019  37.584 -20.871  1.00  0.00    -0.063 NA
HETATM   26  N8  UNL     1      37.462  35.383 -21.764  1.00  0.00    -0.282 N 
HETATM   27  C11 UNL     1      37.371  34.047 -21.743  1.00  0.00     0.337 A 
ATOM     28  H8  UNL     1      37.972  35.827 -22.528  1.00  0.00     0.173 HD
HETATM   29  O2  UNL     1      37.893  33.340 -22.628  1.00  0.00    -0.246 OA
ENDBRANCH  15  19
ENDBRANCH   9  12
ENDBRANCH   8   9
ENDBRANCH   3   8
BRANCH   2  30
HETATM   30  N2  UNL     1      37.005  24.551 -19.608  1.00  0.00    -0.382 N 
ATOM     31  H22 UNL     1      37.089  23.796 -20.288  1.00  0.00     0.157 HD
ATOM     32  H21 UNL     1      37.825  25.089 -19.328  1.00  0.00     0.157 HD
ENDBRANCH   2  30
BRANCH   1  33
HETATM   33  N1  UNL     1      35.348  22.484 -18.848  1.00  0.00    -0.381 N 
ATOM     34  H12 UNL     1      34.782  21.856 -19.418  1.00  0.00     0.157 HD
ATOM     35  H11 UNL     1      36.170  22.106 -18.379  1.00  0.00     0.157 HD
ENDBRANCH   1  33
BRANCH   6  36
HETATM   36  C15 UNL     1      31.999  25.522 -17.597  1.00  0.00     0.193 C 
HETATM   37  N11 UNL     1      31.179  26.280 -18.279  1.00  0.00    -0.245 N 
ATOM     38  H11 UNL     1      31.513  26.679 -19.157  1.00  0.00     0.196 HD
BRANCH  36  39
HETATM   39  O3  UNL     1      31.506  25.007 -16.422  1.00  0.00    -0.343 OA
ATOM     40  H3  UNL     1      31.813  24.210 -16.004  1.00  0.00     0.219 HD
ENDBRANCH  36  39
BRANCH  37  41
HETATM   41  O4  UNL     1      29.917  26.567 -17.890  1.00  0.00    -0.288 OA
ATOM     42  H4  UNL     1      29.258  26.944 -18.461  1.00  0.00     0.244 HD
ENDBRANCH  37  41
ENDBRANCH   6  36
BRANCH   7  43
HETATM   43  O5  UNL     1      32.947  22.989 -17.907  1.00  0.00    -0.280 OA
ATOM     44  H5  UNL     1      32.029  23.052 -18.141  1.00  0.00     0.245 HD
ENDBRANCH   7  43
TORSDOF 11
ENDMDL
