MODEL 1
REMARK VINA RESULT: -7.477381555      0.000      0.000
REMARK  7 active torsions:
REMARK  status: ('A' for Active; 'I' for Inactive)
REMARK    1  A    between atoms: N1_1  and  C1_5 
REMARK    2  A    between atoms: C1_5  and  O1_6 
REMARK    3  A    between atoms: C1_5  and  C2_8 
REMARK    4  A    between atoms: C2_8  and  N2_9 
REMARK    5  A    between atoms: C2_8  and  C3_13 
REMARK       I    between atoms: C3_13  and  N3_15 
REMARK    6  A    between atoms: N3_15  and  C4_17 
REMARK    7  A    between atoms: C5_18  and  C6_19 
ROOT
HETATM    1  C4  UNL     1      63.987  60.795  29.212  1.00  0.00     0.104 A 
HETATM    2  C5  UNL     1      63.008  60.095  28.524  1.00  0.00     0.050 A 
HETATM    3  C12 UNL     1      63.600  60.538  27.340  1.00  0.00     0.236 A 
HETATM    4  O5  UNL     1      63.407  60.417  26.101  1.00  0.00    -0.283 OA
HETATM    5  C13 UNL     1      64.556  61.222  28.039  1.00  0.00     0.250 A 
HETATM    6  O6  UNL     1      65.558  61.951  27.715  1.00  0.00    -0.282 OA
ENDROOT
BRANCH   1   7
HETATM    7  N3  UNL     1      64.334  61.054  30.580  1.00  0.00    -0.321 N 
HETATM    8  C3  UNL     1      64.990  60.100  31.380  1.00  0.00     0.257 C 
HETATM    9  O2  UNL     1      65.276  58.991  30.846  1.00  0.00    -0.271 OA
ATOM     10  H3  UNL     1      64.097  61.960  30.987  1.00  0.00     0.169 HD
BRANCH   8  11
HETATM   11  C2  UNL     1      65.366  60.295  32.786  1.00  0.00     0.330 C 
BRANCH  11  12
HETATM   12  C1  UNL     1      64.303  59.727  33.693  1.00  0.00     0.356 C 
BRANCH  12  13
HETATM   13  N1  UNL     1      64.393  58.267  33.648  1.00  0.00    -0.051 N 
ATOM     14  H13 UNL     1      63.506  57.851  33.365  1.00  0.00     0.277 HD
ATOM     15  H12 UNL     1      64.974  57.958  32.870  1.00  0.00     0.277 HD
ATOM     16  H11 UNL     1      64.719  57.874  34.531  1.00  0.00     0.277 HD
ENDBRANCH  12  13
BRANCH  12  17
HETATM   17  O1  UNL     1      63.032  60.174  33.447  1.00  0.00    -0.368 OA
ATOM     18  H1  UNL     1      62.645  60.592  34.207  1.00  0.00     0.212 HD
ENDBRANCH  12  17
ENDBRANCH  11  12
BRANCH  11  19
HETATM   19  N2  UNL     1      65.545  61.729  33.071  1.00  0.00    -0.062 N 
ATOM     20  H23 UNL     1      65.367  61.951  34.050  1.00  0.00     0.275 HD
ATOM     21  H22 UNL     1      66.525  62.009  33.033  1.00  0.00     0.275 HD
ATOM     22  H21 UNL     1      64.963  62.280  32.439  1.00  0.00     0.275 HD
ENDBRANCH  11  19
ENDBRANCH   8  11
ENDBRANCH   1   7
BRANCH   2  23
HETATM   23  C6  UNL     1      61.856  59.299  28.886  1.00  0.00     0.030 C 
HETATM   24  C7  UNL     1      61.598  58.105  28.441  1.00  0.00     0.011 C 
HETATM   25  C8  UNL     1      60.356  57.350  28.874  1.00  0.00     0.053 C 
HETATM   26  C11 UNL     1      62.473  57.377  27.541  1.00  0.00     0.254 C 
HETATM   27  C9  UNL     1      59.562  57.131  27.604  1.00  0.00     0.108 C 
HETATM   28  C10 UNL     1      60.421  56.530  26.557  1.00  0.00     0.224 C 
HETATM   29  O3  UNL     1      59.824  55.951  25.591  1.00  0.00    -0.273 OA
HETATM   30  N4  UNL     1      61.831  56.558  26.564  1.00  0.00    -0.294 N 
ATOM     31  H4  UNL     1      62.373  56.013  25.894  1.00  0.00     0.172 HD
HETATM   32  O4  UNL     1      63.708  57.477  27.644  1.00  0.00    -0.268 OA
ENDBRANCH   2  23
TORSDOF 7
ENDMDL
MODEL 2
REMARK VINA RESULT: -7.027031094      2.549      4.190
REMARK  7 active torsions:
REMARK  status: ('A' for Active; 'I' for Inactive)
REMARK    1  A    between atoms: N1_1  and  C1_5 
REMARK    2  A    between atoms: C1_5  and  O1_6 
REMARK    3  A    between atoms: C1_5  and  C2_8 
REMARK    4  A    between atoms: C2_8  and  N2_9 
REMARK    5  A    between atoms: C2_8  and  C3_13 
REMARK       I    between atoms: C3_13  and  N3_15 
REMARK    6  A    between atoms: N3_15  and  C4_17 
REMARK    7  A    between atoms: C5_18  and  C6_19 
ROOT
HETATM    1  C4  UNL     1      64.722  59.821  31.941  1.00  0.00     0.104 A 
HETATM    2  C5  UNL     1      64.373  58.783  31.092  1.00  0.00     0.050 A 
HETATM    3  C12 UNL     1      64.223  57.979  32.223  1.00  0.00     0.236 A 
HETATM    4  O5  UNL     1      63.909  56.788  32.483  1.00  0.00    -0.283 OA
HETATM    5  C13 UNL     1      64.570  59.018  33.043  1.00  0.00     0.250 A 
HETATM    6  O6  UNL     1      64.695  59.161  34.309  1.00  0.00    -0.282 OA
ENDROOT
BRANCH   1   7
HETATM    7  N3  UNL     1      65.120  61.195  31.820  1.00  0.00    -0.321 N 
HETATM    8  C3  UNL     1      64.183  62.241  31.726  1.00  0.00     0.257 C 
HETATM    9  O2  UNL     1      62.958  61.930  31.757  1.00  0.00    -0.271 OA
ATOM     10  H3  UNL     1      66.115  61.421  31.802  1.00  0.00     0.169 HD
BRANCH   8  11
HETATM   11  C2  UNL     1      64.520  63.664  31.591  1.00  0.00     0.330 C 
BRANCH  11  12
HETATM   12  C1  UNL     1      65.303  64.130  32.792  1.00  0.00     0.356 C 
BRANCH  12  13
HETATM   13  N1  UNL     1      65.610  65.550  32.618  1.00  0.00    -0.051 N 
ATOM     14  H13 UNL     1      66.553  65.766  32.942  1.00  0.00     0.277 HD
ATOM     15  H12 UNL     1      65.719  65.785  31.632  1.00  0.00     0.277 HD
ATOM     16  H11 UNL     1      64.920  66.152  33.067  1.00  0.00     0.277 HD
ENDBRANCH  12  13
BRANCH  12  17
HETATM   17  O1  UNL     1      66.420  63.391  33.078  1.00  0.00    -0.368 OA
ATOM     18  H1  UNL     1      66.947  63.223  32.306  1.00  0.00     0.212 HD
ENDBRANCH  12  17
ENDBRANCH  11  12
BRANCH  11  19
HETATM   19  N2  UNL     1      63.293  64.467  31.457  1.00  0.00    -0.062 N 
ATOM     20  H23 UNL     1      63.059  64.957  32.320  1.00  0.00     0.275 HD
ATOM     21  H22 UNL     1      63.430  65.281  30.858  1.00  0.00     0.275 HD
ATOM     22  H21 UNL     1      62.529  63.874  31.131  1.00  0.00     0.275 HD
ENDBRANCH  11  19
ENDBRANCH   8  11
ENDBRANCH   1   7
BRANCH   2  23
HETATM   23  C6  UNL     1      64.263  58.608  29.660  1.00  0.00     0.030 C 
HETATM   24  C7  UNL     1      63.149  58.562  28.992  1.00  0.00     0.011 C 
HETATM   25  C8  UNL     1      63.136  58.366  27.488  1.00  0.00     0.053 C 
HETATM   26  C11 UNL     1      61.842  58.732  29.597  1.00  0.00     0.254 C 
HETATM   27  C9  UNL     1      62.397  57.064  27.264  1.00  0.00     0.108 C 
HETATM   28  C10 UNL     1      61.102  57.076  27.983  1.00  0.00     0.224 C 
HETATM   29  O3  UNL     1      60.225  56.237  27.594  1.00  0.00    -0.273 OA
HETATM   30  N4  UNL     1      60.786  57.943  29.050  1.00  0.00    -0.294 N 
ATOM     31  H4  UNL     1      59.837  58.003  29.417  1.00  0.00     0.172 HD
HETATM   32  O4  UNL     1      61.681  59.532  30.535  1.00  0.00    -0.268 OA
ENDBRANCH   2  23
TORSDOF 7
ENDMDL
MODEL 3
REMARK VINA RESULT: -6.930961966      2.566      4.215
REMARK  7 active torsions:
REMARK  status: ('A' for Active; 'I' for Inactive)
REMARK    1  A    between atoms: N1_1  and  C1_5 
REMARK    2  A    between atoms: C1_5  and  O1_6 
REMARK    3  A    between atoms: C1_5  and  C2_8 
REMARK    4  A    between atoms: C2_8  and  N2_9 
REMARK    5  A    between atoms: C2_8  and  C3_13 
REMARK       I    between atoms: C3_13  and  N3_15 
REMARK    6  A    between atoms: N3_15  and  C4_17 
REMARK    7  A    between atoms: C5_18  and  C6_19 
ROOT
HETATM    1  C4  UNL     1      64.289  60.089  31.994  1.00  0.00     0.104 A 
HETATM    2  C5  UNL     1      64.336  59.026  31.106  1.00  0.00     0.050 A 
HETATM    3  C12 UNL     1      64.549  58.190  32.203  1.00  0.00     0.236 A 
HETATM    4  O5  UNL     1      64.727  56.961  32.417  1.00  0.00    -0.283 OA
HETATM    5  C13 UNL     1      64.498  59.254  33.061  1.00  0.00     0.250 A 
HETATM    6  O6  UNL     1      64.604  59.392  34.330  1.00  0.00    -0.282 OA
ENDROOT
BRANCH   1   7
HETATM    7  N3  UNL     1      64.123  61.514  31.926  1.00  0.00    -0.321 N 
HETATM    8  C3  UNL     1      64.979  62.401  32.605  1.00  0.00     0.257 C 
HETATM    9  O2  UNL     1      65.919  61.897  33.284  1.00  0.00    -0.271 OA
ATOM     10  H3  UNL     1      63.360  61.895  31.366  1.00  0.00     0.169 HD
BRANCH   8  11
HETATM   11  C2  UNL     1      64.861  63.864  32.586  1.00  0.00     0.330 C 
BRANCH  11  12
HETATM   12  C1  UNL     1      64.353  64.329  31.245  1.00  0.00     0.356 C 
BRANCH  12  13
HETATM   13  N1  UNL     1      64.987  65.610  30.932  1.00  0.00    -0.051 N 
ATOM     14  H13 UNL     1      65.848  65.735  31.464  1.00  0.00     0.277 HD
ATOM     15  H12 UNL     1      65.378  65.607  29.990  1.00  0.00     0.277 HD
ATOM     16  H11 UNL     1      64.354  66.397  31.066  1.00  0.00     0.277 HD
ENDBRANCH  12  13
BRANCH  12  17
HETATM   17  O1  UNL     1      62.989  64.386  31.130  1.00  0.00    -0.368 OA
ATOM     18  H1  UNL     1      62.708  65.053  30.516  1.00  0.00     0.212 HD
ENDBRANCH  12  17
ENDBRANCH  11  12
BRANCH  11  19
HETATM   19  N2  UNL     1      66.169  64.483  32.862  1.00  0.00    -0.062 N 
ATOM     20  H23 UNL     1      66.261  64.766  33.837  1.00  0.00     0.275 HD
ATOM     21  H22 UNL     1      66.929  63.804  32.834  1.00  0.00     0.275 HD
ATOM     22  H21 UNL     1      66.323  65.260  32.219  1.00  0.00     0.275 HD
ENDBRANCH  11  19
ENDBRANCH   8  11
ENDBRANCH   1   7
BRANCH   2  23
HETATM   23  C6  UNL     1      64.251  58.869  29.671  1.00  0.00     0.030 C 
HETATM   24  C7  UNL     1      63.148  58.763  28.991  1.00  0.00     0.011 C 
HETATM   25  C8  UNL     1      63.161  58.594  27.484  1.00  0.00     0.053 C 
HETATM   26  C11 UNL     1      61.827  58.838  29.586  1.00  0.00     0.254 C 
HETATM   27  C9  UNL     1      62.510  57.251  27.230  1.00  0.00     0.108 C 
HETATM   28  C10 UNL     1      61.211  57.166  27.936  1.00  0.00     0.224 C 
HETATM   29  O3  UNL     1      60.394  56.278  27.524  1.00  0.00    -0.273 OA
HETATM   30  N4  UNL     1      60.830  57.991  29.014  1.00  0.00    -0.294 N 
ATOM     31  H4  UNL     1      59.875  57.983  29.373  1.00  0.00     0.172 HD
HETATM   32  O4  UNL     1      61.606  59.609  30.536  1.00  0.00    -0.268 OA
ENDBRANCH   2  23
TORSDOF 7
ENDMDL
MODEL 4
REMARK VINA RESULT: -6.927110900      2.967      4.788
REMARK  7 active torsions:
REMARK  status: ('A' for Active; 'I' for Inactive)
REMARK    1  A    between atoms: N1_1  and  C1_5 
REMARK    2  A    between atoms: C1_5  and  O1_6 
REMARK    3  A    between atoms: C1_5  and  C2_8 
REMARK    4  A    between atoms: C2_8  and  N2_9 
REMARK    5  A    between atoms: C2_8  and  C3_13 
REMARK       I    between atoms: C3_13  and  N3_15 
REMARK    6  A    between atoms: N3_15  and  C4_17 
REMARK    7  A    between atoms: C5_18  and  C6_19 
ROOT
HETATM    1  C4  UNL     1      64.822  60.955  32.611  1.00  0.00     0.104 A 
HETATM    2  C5  UNL     1      64.563  59.917  31.729  1.00  0.00     0.050 A 
HETATM    3  C12 UNL     1      64.313  59.109  32.839  1.00  0.00     0.236 A 
HETATM    4  O5  UNL     1      63.985  57.914  33.065  1.00  0.00    -0.283 OA
HETATM    5  C13 UNL     1      64.573  60.147  33.690  1.00  0.00     0.250 A 
HETATM    6  O6  UNL     1      64.576  60.287  34.964  1.00  0.00    -0.282 OA
ENDROOT
BRANCH   1   7
HETATM    7  N3  UNL     1      65.220  62.332  32.531  1.00  0.00    -0.321 N 
HETATM    8  C3  UNL     1      64.428  63.305  31.892  1.00  0.00     0.257 C 
HETATM    9  O2  UNL     1      63.334  62.924  31.386  1.00  0.00    -0.271 OA
ATOM     10  H3  UNL     1      66.105  62.615  32.953  1.00  0.00     0.169 HD
BRANCH   8  11
HETATM   11  C2  UNL     1      64.778  64.725  31.767  1.00  0.00     0.330 C 
BRANCH  11  12
HETATM   12  C1  UNL     1      65.135  65.295  33.116  1.00  0.00     0.356 C 
BRANCH  12  13
HETATM   13  N1  UNL     1      64.229  66.409  33.399  1.00  0.00    -0.051 N 
ATOM     14  H13 UNL     1      63.359  66.079  33.816  1.00  0.00     0.277 HD
ATOM     15  H12 UNL     1      64.575  66.978  34.171  1.00  0.00     0.277 HD
ATOM     16  H11 UNL     1      64.049  66.978  32.573  1.00  0.00     0.277 HD
ENDBRANCH  12  13
BRANCH  12  17
HETATM   17  O1  UNL     1      66.451  65.647  33.267  1.00  0.00    -0.368 OA
ATOM     18  H1  UNL     1      66.551  66.463  33.742  1.00  0.00     0.212 HD
ENDBRANCH  12  17
ENDBRANCH  11  12
BRANCH  11  19
HETATM   19  N2  UNL     1      63.649  65.478  31.194  1.00  0.00    -0.062 N 
ATOM     20  H23 UNL     1      62.995  65.793  31.909  1.00  0.00     0.275 HD
ATOM     21  H22 UNL     1      63.935  66.392  30.843  1.00  0.00     0.275 HD
ATOM     22  H21 UNL     1      63.192  64.916  30.475  1.00  0.00     0.275 HD
ENDBRANCH  11  19
ENDBRANCH   8  11
ENDBRANCH   1   7
BRANCH   2  23
HETATM   23  C6  UNL     1      64.592  59.746  30.293  1.00  0.00     0.030 C 
HETATM   24  C7  UNL     1      63.555  59.520  29.543  1.00  0.00     0.011 C 
HETATM   25  C8  UNL     1      63.686  59.345  28.042  1.00  0.00     0.053 C 
HETATM   26  C11 UNL     1      62.196  59.455  30.048  1.00  0.00     0.254 C 
HETATM   27  C9  UNL     1      63.201  57.939  27.761  1.00  0.00     0.108 C 
HETATM   28  C10 UNL     1      61.874  57.719  28.381  1.00  0.00     0.224 C 
HETATM   29  O3  UNL     1      61.185  56.747  27.926  1.00  0.00    -0.273 OA
HETATM   30  N4  UNL     1      61.336  58.504  29.422  1.00  0.00    -0.294 N 
ATOM     31  H4  UNL     1      60.365  58.395  29.717  1.00  0.00     0.172 HD
HETATM   32  O4  UNL     1      61.831  60.202  30.973  1.00  0.00    -0.268 OA
ENDBRANCH   2  23
TORSDOF 7
ENDMDL
MODEL 5
REMARK VINA RESULT: -6.866939784      2.611      4.642
REMARK  7 active torsions:
REMARK  status: ('A' for Active; 'I' for Inactive)
REMARK    1  A    between atoms: N1_1  and  C1_5 
REMARK    2  A    between atoms: C1_5  and  O1_6 
REMARK    3  A    between atoms: C1_5  and  C2_8 
REMARK    4  A    between atoms: C2_8  and  N2_9 
REMARK    5  A    between atoms: C2_8  and  C3_13 
REMARK       I    between atoms: C3_13  and  N3_15 
REMARK    6  A    between atoms: N3_15  and  C4_17 
REMARK    7  A    between atoms: C5_18  and  C6_19 
ROOT
HETATM    1  C4  UNL     1      64.999  60.709  32.572  1.00  0.00     0.104 A 
HETATM    2  C5  UNL     1      64.666  59.892  31.503  1.00  0.00     0.050 A 
HETATM    3  C12 UNL     1      64.467  58.861  32.423  1.00  0.00     0.236 A 
HETATM    4  O5  UNL     1      64.128  57.648  32.402  1.00  0.00    -0.283 OA
HETATM    5  C13 UNL     1      64.798  59.686  33.463  1.00  0.00     0.250 A 
HETATM    6  O6  UNL     1      64.881  59.542  34.733  1.00  0.00    -0.282 OA
ENDROOT
BRANCH   1   7
HETATM    7  N3  UNL     1      65.419  62.067  32.771  1.00  0.00    -0.321 N 
HETATM    8  C3  UNL     1      64.630  63.162  32.373  1.00  0.00     0.257 C 
HETATM    9  O2  UNL     1      63.516  62.909  31.830  1.00  0.00    -0.271 OA
ATOM     10  H3  UNL     1      66.320  62.244  33.217  1.00  0.00     0.169 HD
BRANCH   8  11
HETATM   11  C2  UNL     1      65.002  64.573  32.537  1.00  0.00     0.330 C 
BRANCH  11  12
HETATM   12  C1  UNL     1      64.670  65.348  31.287  1.00  0.00     0.356 C 
BRANCH  12  13
HETATM   13  N1  UNL     1      63.435  66.097  31.525  1.00  0.00    -0.051 N 
ATOM     14  H13 UNL     1      63.228  66.158  32.522  1.00  0.00     0.277 HD
ATOM     15  H12 UNL     1      63.561  67.088  31.324  1.00  0.00     0.277 HD
ATOM     16  H11 UNL     1      62.645  65.712  31.007  1.00  0.00     0.277 HD
ENDBRANCH  12  13
BRANCH  12  17
HETATM   17  O1  UNL     1      64.609  64.600  30.140  1.00  0.00    -0.368 OA
ATOM     18  H1  UNL     1      65.436  64.177  29.945  1.00  0.00     0.212 HD
ENDBRANCH  12  17
ENDBRANCH  11  12
BRANCH  11  19
HETATM   19  N2  UNL     1      66.441  64.689  32.824  1.00  0.00    -0.062 N 
ATOM     20  H23 UNL     1      66.847  65.532  32.420  1.00  0.00     0.275 HD
ATOM     21  H22 UNL     1      66.622  64.896  33.807  1.00  0.00     0.275 HD
ATOM     22  H21 UNL     1      66.922  63.844  32.515  1.00  0.00     0.275 HD
ENDBRANCH  11  19
ENDBRANCH   8  11
ENDBRANCH   1   7
BRANCH   2  23
HETATM   23  C6  UNL     1      64.605  60.040  30.066  1.00  0.00     0.030 C 
HETATM   24  C7  UNL     1      63.565  59.785  29.328  1.00  0.00     0.011 C 
HETATM   25  C8  UNL     1      63.600  59.964  27.822  1.00  0.00     0.053 C 
HETATM   26  C11 UNL     1      62.287  59.356  29.863  1.00  0.00     0.254 C 
HETATM   27  C9  UNL     1      63.350  58.584  27.253  1.00  0.00     0.108 C 
HETATM   28  C10 UNL     1      62.138  57.987  27.862  1.00  0.00     0.224 C 
HETATM   29  O3  UNL     1      61.597  57.022  27.229  1.00  0.00    -0.273 OA
HETATM   30  N4  UNL     1      61.559  58.414  29.075  1.00  0.00    -0.294 N 
ATOM     31  H4  UNL     1      60.651  58.062  29.378  1.00  0.00     0.172 HD
HETATM   32  O4  UNL     1      61.874  59.804  30.946  1.00  0.00    -0.268 OA
ENDBRANCH   2  23
TORSDOF 7
ENDMDL
