MODEL 1
REMARK VINA RESULT: -7.776020515      0.000      0.000
REMARK  6 active torsions:
REMARK  status: ('A' for Active; 'I' for Inactive)
REMARK    1  A    between atoms: C1_2  and  N1_3 
REMARK    2  A    between atoms: N1_3  and  C2_5 
REMARK    3  A    between atoms: C3_8  and  N3_9 
REMARK    4  A    between atoms: C8_19  and  N6_20 
REMARK    5  A    between atoms: N6_20  and  N7_22 
REMARK       I    between atoms: N7_22  and  C9_24 
REMARK    6  A    between atoms: C9_24  and  C10_26 
ROOT
HETATM    1  C2  UNL     1      64.279  59.530  32.236  1.00  0.00     0.713 A 
HETATM    2  N2  UNL     1      63.844  58.849  31.163  1.00  0.00    -0.021 N 
ATOM      3  H2  UNL     1      63.835  57.830  31.221  1.00  0.00     0.203 HD
HETATM    4  C3  UNL     1      63.422  59.412  30.022  1.00  0.00     0.709 A 
HETATM    5  N5  UNL     1      63.446  60.769  29.971  1.00  0.00    -0.020 N 
ATOM      6  H5  UNL     1      63.134  61.246  29.126  1.00  0.00     0.203 HD
HETATM    7  C8  UNL     1      63.873  61.492  31.018  1.00  0.00     0.726 A 
HETATM    8  N8  UNL     1      64.293  60.873  32.160  1.00  0.00    -0.020 N 
ATOM      9  H8  UNL     1      64.616  61.427  32.953  1.00  0.00     0.203 HD
ENDROOT
BRANCH   4  10
HETATM   10  N3  UNL     1      62.969  58.651  28.914  1.00  0.00    -0.213 N 
HETATM   11  C4  UNL     1      61.721  58.983  28.272  1.00  0.00     0.168 C 
HETATM   12  C5  UNL     1      60.952  57.704  27.918  1.00  0.00     0.252 C 
HETATM   13  N4  UNL     1      61.751  56.828  27.109  1.00  0.00    -0.072 N 
HETATM   14  C6  UNL     1      63.129  57.206  27.030  1.00  0.00     0.252 C 
ATOM     15  H42 UNL     1      61.662  55.863  27.428  1.00  0.00     0.277 HD
ATOM     16  H41 UNL     1      61.350  56.738  26.175  1.00  0.00     0.277 HD
HETATM   17  C7  UNL     1      63.721  57.536  28.397  1.00  0.00     0.168 C 
ENDBRANCH   4  10
BRANCH   1  18
HETATM   18  N1  UNL     1      64.673  58.913  33.306  1.00  0.00    -0.166 N 
ATOM     19  H1  UNL     1      65.243  59.434  33.973  1.00  0.00     0.186 HD
BRANCH  18  20
HETATM   20  C1  UNL     1      64.368  57.583  33.605  1.00  0.00     0.368 C 
HETATM   21  O1  UNL     1      63.210  57.250  33.968  1.00  0.00    -0.283 OA
ENDBRANCH  18  20
ENDBRANCH   1  18
BRANCH   7  22
HETATM   22  N6  UNL     1      63.874  62.770  30.917  1.00  0.00    -0.128 N 
ATOM     23  H6  UNL     1      63.496  63.193  30.069  1.00  0.00     0.205 HD
BRANCH  22  24
HETATM   24  N7  UNL     1      64.371  63.611  31.919  1.00  0.00    -0.255 N 
HETATM   25  C9  UNL     1      64.207  65.007  31.914  1.00  0.00     0.246 C 
HETATM   26  O2  UNL     1      63.573  65.522  30.947  1.00  0.00    -0.271 OA
ATOM     27  H7  UNL     1      64.881  63.188  32.694  1.00  0.00     0.190 HD
BRANCH  25  28
HETATM   28  C10 UNL     1      64.761  65.826  33.008  1.00  0.00     0.190 C 
HETATM   29  S1  UNL     1      66.547  65.506  33.154  1.00  0.00    -0.088 SA
ENDBRANCH  25  28
ENDBRANCH  22  24
ENDBRANCH   7  22
TORSDOF 6
ENDMDL
MODEL 2
REMARK VINA RESULT: -7.553520823      0.381      1.104
REMARK  6 active torsions:
REMARK  status: ('A' for Active; 'I' for Inactive)
REMARK    1  A    between atoms: C1_2  and  N1_3 
REMARK    2  A    between atoms: N1_3  and  C2_5 
REMARK    3  A    between atoms: C3_8  and  N3_9 
REMARK    4  A    between atoms: C8_19  and  N6_20 
REMARK    5  A    between atoms: N6_20  and  N7_22 
REMARK       I    between atoms: N7_22  and  C9_24 
REMARK    6  A    between atoms: C9_24  and  C10_26 
ROOT
HETATM    1  C2  UNL     1      64.249  59.557  32.564  1.00  0.00     0.713 A 
HETATM    2  N2  UNL     1      63.723  58.828  31.565  1.00  0.00    -0.021 N 
ATOM      3  H2  UNL     1      63.664  57.818  31.696  1.00  0.00     0.203 HD
HETATM    4  C3  UNL     1      63.272  59.333  30.408  1.00  0.00     0.709 A 
HETATM    5  N5  UNL     1      63.364  60.680  30.259  1.00  0.00    -0.020 N 
ATOM      6  H5  UNL     1      63.034  61.114  29.397  1.00  0.00     0.203 HD
HETATM    7  C8  UNL     1      63.882  61.449  31.229  1.00  0.00     0.726 A 
HETATM    8  N8  UNL     1      64.328  60.888  32.391  1.00  0.00    -0.020 N 
ATOM      9  H8  UNL     1      64.721  61.477  33.125  1.00  0.00     0.203 HD
ENDROOT
BRANCH   4  10
HETATM   10  N3  UNL     1      62.723  58.524  29.381  1.00  0.00    -0.213 N 
HETATM   11  C4  UNL     1      63.571  57.622  28.641  1.00  0.00     0.168 C 
HETATM   12  C5  UNL     1      63.197  57.646  27.153  1.00  0.00     0.252 C 
HETATM   13  N4  UNL     1      61.805  57.344  26.966  1.00  0.00    -0.072 N 
HETATM   14  C6  UNL     1      61.042  57.345  28.176  1.00  0.00     0.252 C 
ATOM     15  H42 UNL     1      61.391  57.976  26.281  1.00  0.00     0.277 HD
ATOM     16  H41 UNL     1      61.694  56.458  26.472  1.00  0.00     0.277 HD
HETATM   17  C7  UNL     1      61.324  58.570  29.041  1.00  0.00     0.168 C 
ENDBRANCH   4  10
BRANCH   1  18
HETATM   18  N1  UNL     1      64.665  58.995  33.655  1.00  0.00    -0.166 N 
ATOM     19  H1  UNL     1      65.129  59.584  34.347  1.00  0.00     0.186 HD
BRANCH  18  20
HETATM   20  C1  UNL     1      64.521  57.635  33.946  1.00  0.00     0.368 C 
HETATM   21  O1  UNL     1      63.381  57.117  34.069  1.00  0.00    -0.283 OA
ENDBRANCH  18  20
ENDBRANCH   1  18
BRANCH   7  22
HETATM   22  N6  UNL     1      63.944  62.715  31.036  1.00  0.00    -0.128 N 
ATOM     23  H6  UNL     1      63.640  63.087  30.136  1.00  0.00     0.205 HD
BRANCH  22  24
HETATM   24  N7  UNL     1      64.411  63.609  32.005  1.00  0.00    -0.255 N 
HETATM   25  C9  UNL     1      64.219  64.999  31.938  1.00  0.00     0.246 C 
HETATM   26  O2  UNL     1      63.587  65.459  30.941  1.00  0.00    -0.271 OA
ATOM     27  H7  UNL     1      64.919  63.231  32.805  1.00  0.00     0.190 HD
BRANCH  25  28
HETATM   28  C10 UNL     1      64.742  65.877  33.001  1.00  0.00     0.190 C 
HETATM   29  S1  UNL     1      66.528  65.588  33.195  1.00  0.00    -0.088 SA
ENDBRANCH  25  28
ENDBRANCH  22  24
ENDBRANCH   7  22
TORSDOF 6
ENDMDL
MODEL 3
REMARK VINA RESULT: -6.964730429      1.021      1.471
REMARK  6 active torsions:
REMARK  status: ('A' for Active; 'I' for Inactive)
REMARK    1  A    between atoms: C1_2  and  N1_3 
REMARK    2  A    between atoms: N1_3  and  C2_5 
REMARK    3  A    between atoms: C3_8  and  N3_9 
REMARK    4  A    between atoms: C8_19  and  N6_20 
REMARK    5  A    between atoms: N6_20  and  N7_22 
REMARK       I    between atoms: N7_22  and  C9_24 
REMARK    6  A    between atoms: C9_24  and  C10_26 
ROOT
HETATM    1  C2  UNL     1      64.438  59.494  32.069  1.00  0.00     0.713 A 
HETATM    2  N2  UNL     1      63.964  58.726  31.074  1.00  0.00    -0.021 N 
ATOM      3  H2  UNL     1      63.991  57.714  31.202  1.00  0.00     0.203 HD
HETATM    4  C3  UNL     1      63.458  59.194  29.924  1.00  0.00     0.709 A 
HETATM    5  N5  UNL     1      63.434  60.545  29.778  1.00  0.00    -0.020 N 
ATOM      6  H5  UNL     1      63.059  60.952  28.922  1.00  0.00     0.203 HD
HETATM    7  C8  UNL     1      63.898  61.353  30.745  1.00  0.00     0.726 A 
HETATM    8  N8  UNL     1      64.404  60.828  31.899  1.00  0.00    -0.020 N 
ATOM      9  H8  UNL     1      64.755  61.446  32.631  1.00  0.00     0.203 HD
ENDROOT
BRANCH   4  10
HETATM   10  N3  UNL     1      62.966  58.344  28.901  1.00  0.00    -0.213 N 
HETATM   11  C4  UNL     1      63.740  57.205  28.475  1.00  0.00     0.168 C 
HETATM   12  C5  UNL     1      63.676  57.063  26.949  1.00  0.00     0.252 C 
HETATM   13  N4  UNL     1      62.316  56.983  26.494  1.00  0.00    -0.072 N 
HETATM   14  C6  UNL     1      61.348  57.305  27.498  1.00  0.00     0.252 C 
ATOM     15  H42 UNL     1      62.180  57.564  25.666  1.00  0.00     0.277 HD
ATOM     16  H41 UNL     1      62.125  56.065  26.094  1.00  0.00     0.277 HD
HETATM   17  C7  UNL     1      61.699  58.581  28.257  1.00  0.00     0.168 C 
ENDBRANCH   4  10
BRANCH   1  18
HETATM   18  N1  UNL     1      64.913  58.966  33.153  1.00  0.00    -0.166 N 
ATOM     19  H1  UNL     1      65.639  58.255  33.057  1.00  0.00     0.186 HD
BRANCH  18  20
HETATM   20  C1  UNL     1      64.498  59.307  34.443  1.00  0.00     0.368 C 
HETATM   21  O1  UNL     1      64.456  60.509  34.814  1.00  0.00    -0.283 OA
ENDBRANCH  18  20
ENDBRANCH   1  18
BRANCH   7  22
HETATM   22  N6  UNL     1      63.852  62.619  30.555  1.00  0.00    -0.128 N 
ATOM     23  H6  UNL     1      63.749  62.967  29.602  1.00  0.00     0.205 HD
BRANCH  22  24
HETATM   24  N7  UNL     1      63.936  63.547  31.599  1.00  0.00    -0.255 N 
HETATM   25  C9  UNL     1      64.260  64.901  31.411  1.00  0.00     0.246 C 
HETATM   26  O2  UNL     1      64.488  65.294  30.229  1.00  0.00    -0.271 OA
ATOM     27  H7  UNL     1      63.751  63.223  32.549  1.00  0.00     0.190 HD
BRANCH  25  28
HETATM   28  C10 UNL     1      64.329  65.818  32.564  1.00  0.00     0.190 C 
HETATM   29  S1  UNL     1      66.029  65.844  33.213  1.00  0.00    -0.088 SA
ENDBRANCH  25  28
ENDBRANCH  22  24
ENDBRANCH   7  22
TORSDOF 6
ENDMDL
MODEL 4
REMARK VINA RESULT: -6.747961385      4.253      7.153
REMARK  6 active torsions:
REMARK  status: ('A' for Active; 'I' for Inactive)
REMARK    1  A    between atoms: C1_2  and  N1_3 
REMARK    2  A    between atoms: N1_3  and  C2_5 
REMARK    3  A    between atoms: C3_8  and  N3_9 
REMARK    4  A    between atoms: C8_19  and  N6_20 
REMARK    5  A    between atoms: N6_20  and  N7_22 
REMARK       I    between atoms: N7_22  and  C9_24 
REMARK    6  A    between atoms: C9_24  and  C10_26 
ROOT
HETATM    1  C2  UNL     1      64.452  61.343  28.267  1.00  0.00     0.713 A 
HETATM    2  N2  UNL     1      64.730  60.887  29.500  1.00  0.00    -0.021 N 
ATOM      3  H2  UNL     1      65.606  61.187  29.929  1.00  0.00     0.203 HD
HETATM    4  C3  UNL     1      63.939  60.068  30.207  1.00  0.00     0.709 A 
HETATM    5  N5  UNL     1      62.779  59.684  29.612  1.00  0.00    -0.020 N 
ATOM      6  H5  UNL     1      62.142  59.061  30.108  1.00  0.00     0.203 HD
HETATM    7  C8  UNL     1      62.459  60.113  28.381  1.00  0.00     0.726 A 
HETATM    8  N8  UNL     1      63.298  60.948  27.700  1.00  0.00    -0.020 N 
ATOM      9  H8  UNL     1      63.050  61.271  26.766  1.00  0.00     0.203 HD
ENDROOT
BRANCH   4  10
HETATM   10  N3  UNL     1      64.273  59.614  31.507  1.00  0.00    -0.213 N 
HETATM   11  C4  UNL     1      65.092  58.439  31.674  1.00  0.00     0.168 C 
HETATM   12  C5  UNL     1      64.559  57.582  32.829  1.00  0.00     0.252 C 
HETATM   13  N4  UNL     1      64.471  58.346  34.041  1.00  0.00    -0.072 N 
HETATM   14  C6  UNL     1      64.645  59.754  33.854  1.00  0.00     0.252 C 
ATOM     15  H42 UNL     1      63.592  58.155  34.523  1.00  0.00     0.277 HD
ATOM     16  H41 UNL     1      65.129  57.993  34.736  1.00  0.00     0.277 HD
HETATM   17  C7  UNL     1      63.816  60.293  32.693  1.00  0.00     0.168 C 
ENDBRANCH   4  10
BRANCH   1  18
HETATM   18  N1  UNL     1      65.269  62.134  27.645  1.00  0.00    -0.166 N 
ATOM     19  H1  UNL     1      65.991  62.600  28.196  1.00  0.00     0.186 HD
BRANCH  18  20
HETATM   20  C1  UNL     1      65.227  62.390  26.272  1.00  0.00     0.368 C 
HETATM   21  O1  UNL     1      64.899  61.491  25.455  1.00  0.00    -0.283 OA
ENDBRANCH  18  20
ENDBRANCH   1  18
BRANCH   7  22
HETATM   22  N6  UNL     1      61.352  59.720  27.867  1.00  0.00    -0.128 N 
ATOM     23  H6  UNL     1      60.540  60.335  27.930  1.00  0.00     0.205 HD
BRANCH  22  24
HETATM   24  N7  UNL     1      61.208  58.486  27.225  1.00  0.00    -0.255 N 
HETATM   25  C9  UNL     1      60.774  57.318  27.874  1.00  0.00     0.246 C 
HETATM   26  O2  UNL     1      60.502  57.396  29.108  1.00  0.00    -0.271 OA
ATOM     27  H7  UNL     1      61.429  58.431  26.230  1.00  0.00     0.190 HD
BRANCH  25  28
HETATM   28  C10 UNL     1      60.648  56.053  27.126  1.00  0.00     0.190 C 
HETATM   29  S1  UNL     1      58.889  55.606  26.994  1.00  0.00    -0.088 SA
ENDBRANCH  25  28
ENDBRANCH  22  24
ENDBRANCH   7  22
TORSDOF 6
ENDMDL
MODEL 5
REMARK VINA RESULT: -6.694693250      4.207      7.460
REMARK  6 active torsions:
REMARK  status: ('A' for Active; 'I' for Inactive)
REMARK    1  A    between atoms: C1_2  and  N1_3 
REMARK    2  A    between atoms: N1_3  and  C2_5 
REMARK    3  A    between atoms: C3_8  and  N3_9 
REMARK    4  A    between atoms: C8_19  and  N6_20 
REMARK    5  A    between atoms: N6_20  and  N7_22 
REMARK       I    between atoms: N7_22  and  C9_24 
REMARK    6  A    between atoms: C9_24  and  C10_26 
ROOT
HETATM    1  C2  UNL     1      63.726  60.719  27.555  1.00  0.00     0.713 A 
HETATM    2  N2  UNL     1      64.055  60.776  28.857  1.00  0.00    -0.021 N 
ATOM      3  H2  UNL     1      64.363  61.675  29.229  1.00  0.00     0.203 HD
HETATM    4  C3  UNL     1      64.009  59.736  29.701  1.00  0.00     0.709 A 
HETATM    5  N5  UNL     1      63.596  58.551  29.180  1.00  0.00    -0.020 N 
ATOM      6  H5  UNL     1      63.543  57.729  29.781  1.00  0.00     0.203 HD
HETATM    7  C8  UNL     1      63.258  58.445  27.886  1.00  0.00     0.726 A 
HETATM    8  N8  UNL     1      63.322  59.534  27.065  1.00  0.00    -0.020 N 
ATOM      9  H8  UNL     1      63.063  59.449  26.082  1.00  0.00     0.203 HD
ENDROOT
BRANCH   4  10
HETATM   10  N3  UNL     1      64.364  59.844  31.070  1.00  0.00    -0.213 N 
HETATM   11  C4  UNL     1      65.002  58.737  31.739  1.00  0.00     0.168 C 
HETATM   12  C5  UNL     1      64.430  58.574  33.153  1.00  0.00     0.252 C 
HETATM   13  N4  UNL     1      64.551  59.792  33.903  1.00  0.00    -0.072 N 
HETATM   14  C6  UNL     1      64.925  60.925  33.115  1.00  0.00     0.252 C 
ATOM     15  H42 UNL     1      63.691  59.982  34.419  1.00  0.00     0.277 HD
ATOM     16  H41 UNL     1      65.196  59.669  34.684  1.00  0.00     0.277 HD
HETATM   17  C7  UNL     1      64.106  61.038  31.833  1.00  0.00     0.168 C 
ENDBRANCH   4  10
BRANCH   1  18
HETATM   18  N1  UNL     1      63.798  61.770  26.801  1.00  0.00    -0.166 N 
ATOM     19  H1  UNL     1      63.041  62.452  26.861  1.00  0.00     0.186 HD
BRANCH  18  20
HETATM   20  C1  UNL     1      64.843  62.031  25.910  1.00  0.00     0.368 C 
HETATM   21  O1  UNL     1      64.951  61.392  24.832  1.00  0.00    -0.283 OA
ENDBRANCH  18  20
ENDBRANCH   1  18
BRANCH   7  22
HETATM   22  N6  UNL     1      62.875  57.304  27.446  1.00  0.00    -0.128 N 
ATOM     23  H6  UNL     1      63.557  56.545  27.400  1.00  0.00     0.205 HD
BRANCH  22  24
HETATM   24  N7  UNL     1      61.565  57.051  27.027  1.00  0.00    -0.255 N 
HETATM   25  C9  UNL     1      60.447  57.140  27.873  1.00  0.00     0.246 C 
HETATM   26  O2  UNL     1      60.646  57.467  29.080  1.00  0.00    -0.271 OA
ATOM     27  H7  UNL     1      61.413  56.788  26.053  1.00  0.00     0.190 HD
BRANCH  25  28
HETATM   28  C10 UNL     1      59.096  56.858  27.355  1.00  0.00     0.190 C 
HETATM   29  S1  UNL     1      58.911  55.066  27.100  1.00  0.00    -0.088 SA
ENDBRANCH  25  28
ENDBRANCH  22  24
ENDBRANCH   7  22
TORSDOF 6
ENDMDL
