MODEL 1
REMARK VINA RESULT: -7.585271363      0.000      0.000
REMARK  15 active torsions:
REMARK  status: ('A' for Active; 'I' for Inactive)
REMARK    1  A    between atoms: C2_2  and  C3_3 
REMARK    2  A    between atoms: C3_3  and  C4_4 
REMARK    3  A    between atoms: C4_4  and  C5_5 
REMARK    4  A    between atoms: C5_5  and  C6_6 
REMARK    5  A    between atoms: C7_7  and  C8_8 
REMARK    6  A    between atoms: C8_8  and  C9_9 
REMARK    7  A    between atoms: C10_11  and  C11_12 
REMARK    8  A    between atoms: C11_12  and  O2_13 
REMARK    9  A    between atoms: O2_13  and  C12_14 
REMARK   10  A    between atoms: C13_17  and  N1_18 
REMARK   11  A    between atoms: C18_23  and  O5_24 
REMARK   12  A    between atoms: C19_26  and  O6_27 
REMARK   13  A    between atoms: C20_29  and  O7_30 
REMARK   14  A    between atoms: C21_32  and  O8_33 
REMARK   15  A    between atoms: C22_35  and  O9_36 
ROOT
HETATM    1  C9  UNL     1      19.730  64.890  48.268  1.00  0.00     0.157 C 
HETATM    2  O1  UNL     1      19.813  64.278  47.019  1.00  0.00    -0.373 OA
HETATM    3  C10 UNL     1      20.773  63.269  47.074  1.00  0.00     0.177 C 
HETATM    4  C20 UNL     1      22.074  63.796  47.687  1.00  0.00     0.180 C 
HETATM    5  C21 UNL     1      22.095  65.310  47.648  1.00  0.00     0.180 C 
HETATM    6  C22 UNL     1      20.942  65.771  48.546  1.00  0.00     0.178 C 
ENDROOT
BRANCH   3   7
HETATM    7  C11 UNL     1      21.107  62.851  45.641  1.00  0.00     0.205 C 
BRANCH   7   8
HETATM    8  O2  UNL     1      20.346  63.664  44.803  1.00  0.00    -0.353 OA
BRANCH   8   9
HETATM    9  C12 UNL     1      21.005  64.024  43.655  1.00  0.00     0.328 C 
HETATM   10  O3  UNL     1      21.555  65.317  43.722  1.00  0.00    -0.203 OA
HETATM   11  O4  UNL     1      22.110  65.510  42.521  1.00  0.00    -0.209 OA
HETATM   12  C13 UNL     1      23.412  65.006  42.627  1.00  0.00     0.296 C 
HETATM   13  C18 UNL     1      23.380  63.553  42.984  1.00  0.00     0.204 C 
HETATM   14  C19 UNL     1      22.012  63.008  43.234  1.00  0.00     0.209 C 
BRANCH  12  15
HETATM   15  N1  UNL     1      24.063  65.185  41.359  1.00  0.00    -0.335 N 
HETATM   16  C14 UNL     1      23.440  65.233  40.181  1.00  0.00     0.093 A 
HETATM   17  C15 UNL     1      24.348  65.414  39.172  1.00  0.00     0.019 A 
HETATM   18  C16 UNL     1      25.597  65.478  39.790  1.00  0.00     0.019 A 
HETATM   19  C17 UNL     1      25.367  65.331  41.158  1.00  0.00     0.093 A 
ENDBRANCH  12  15
BRANCH  13  20
HETATM   20  O5  UNL     1      23.955  62.798  41.956  1.00  0.00    -0.388 OA
ATOM     21  H5  UNL     1      23.639  61.902  41.997  1.00  0.00     0.210 HD
ENDBRANCH  13  20
BRANCH  14  22
HETATM   22  O6  UNL     1      21.543  62.269  42.124  1.00  0.00    -0.388 OA
ATOM     23  H6  UNL     1      21.886  62.625  41.314  1.00  0.00     0.210 HD
ENDBRANCH  14  22
ENDBRANCH   8   9
ENDBRANCH   7   8
ENDBRANCH   3   7
BRANCH   4  24
HETATM   24  O7  UNL     1      22.056  63.425  49.034  1.00  0.00    -0.390 OA
ATOM     25  H7  UNL     1      21.614  64.126  49.500  1.00  0.00     0.210 HD
ENDBRANCH   4  24
BRANCH   1  26
HETATM   26  C8  UNL     1      18.529  65.809  48.243  1.00  0.00     0.061 C 
BRANCH  26  27
HETATM   27  C7  UNL     1      17.670  65.556  47.050  1.00  0.00    -0.028 C 
HETATM   28  C6  UNL     1      16.358  65.644  47.082  1.00  0.00    -0.031 C 
BRANCH  28  29
HETATM   29  C5  UNL     1      15.579  65.371  45.827  1.00  0.00     0.027 C 
BRANCH  29  30
HETATM   30  C4  UNL     1      16.368  65.665  44.613  1.00  0.00     0.004 C 
BRANCH  30  31
HETATM   31  C3  UNL     1      16.298  64.625  43.565  1.00  0.00    -0.000 C 
BRANCH  31  32
HETATM   32  C2  UNL     1      17.254  63.509  43.613  1.00  0.00    -0.005 C 
HETATM   33  C1  UNL     1      16.776  62.130  43.365  1.00  0.00     0.005 C 
ENDBRANCH  31  32
ENDBRANCH  30  31
ENDBRANCH  29  30
ENDBRANCH  28  29
ENDBRANCH  26  27
ENDBRANCH   1  26
BRANCH   5  34
HETATM   34  O8  UNL     1      21.927  65.822  46.379  1.00  0.00    -0.390 OA
ATOM     35  H8  UNL     1      21.964  66.770  46.351  1.00  0.00     0.210 HD
ENDBRANCH   5  34
BRANCH   6  36
HETATM   36  O9  UNL     1      21.398  65.578  49.862  1.00  0.00    -0.390 OA
ATOM     37  H9  UNL     1      22.324  65.776  49.925  1.00  0.00     0.210 HD
ENDBRANCH   6  36
TORSDOF 15
ENDMDL
MODEL 2
REMARK VINA RESULT: -7.582632870      2.015      2.727
REMARK  15 active torsions:
REMARK  status: ('A' for Active; 'I' for Inactive)
REMARK    1  A    between atoms: C2_2  and  C3_3 
REMARK    2  A    between atoms: C3_3  and  C4_4 
REMARK    3  A    between atoms: C4_4  and  C5_5 
REMARK    4  A    between atoms: C5_5  and  C6_6 
REMARK    5  A    between atoms: C7_7  and  C8_8 
REMARK    6  A    between atoms: C8_8  and  C9_9 
REMARK    7  A    between atoms: C10_11  and  C11_12 
REMARK    8  A    between atoms: C11_12  and  O2_13 
REMARK    9  A    between atoms: O2_13  and  C12_14 
REMARK   10  A    between atoms: C13_17  and  N1_18 
REMARK   11  A    between atoms: C18_23  and  O5_24 
REMARK   12  A    between atoms: C19_26  and  O6_27 
REMARK   13  A    between atoms: C20_29  and  O7_30 
REMARK   14  A    between atoms: C21_32  and  O8_33 
REMARK   15  A    between atoms: C22_35  and  O9_36 
ROOT
HETATM    1  C9  UNL     1      19.657  65.111  47.979  1.00  0.00     0.157 C 
HETATM    2  O1  UNL     1      20.520  65.829  47.154  1.00  0.00    -0.373 OA
HETATM    3  C10 UNL     1      21.277  64.932  46.403  1.00  0.00     0.177 C 
HETATM    4  C20 UNL     1      21.895  63.861  47.307  1.00  0.00     0.180 C 
HETATM    5  C21 UNL     1      21.878  64.320  48.750  1.00  0.00     0.180 C 
HETATM    6  C22 UNL     1      20.400  64.449  49.133  1.00  0.00     0.178 C 
ENDROOT
BRANCH   3   7
HETATM    7  C11 UNL     1      22.444  65.699  45.778  1.00  0.00     0.205 C 
BRANCH   7   8
HETATM    8  O2  UNL     1      22.904  64.923  44.716  1.00  0.00    -0.353 OA
BRANCH   8   9
HETATM    9  C12 UNL     1      21.925  64.619  43.804  1.00  0.00     0.328 C 
HETATM   10  O3  UNL     1      21.716  65.646  42.864  1.00  0.00    -0.203 OA
HETATM   11  O4  UNL     1      20.715  65.201  42.097  1.00  0.00    -0.209 OA
HETATM   12  C13 UNL     1      21.328  64.462  41.077  1.00  0.00     0.296 C 
HETATM   13  C18 UNL     1      22.113  63.328  41.658  1.00  0.00     0.204 C 
HETATM   14  C19 UNL     1      22.146  63.298  43.150  1.00  0.00     0.209 C 
BRANCH  12  15
HETATM   15  N1  UNL     1      20.296  63.955  40.216  1.00  0.00    -0.335 N 
HETATM   16  C14 UNL     1      19.072  63.607  40.613  1.00  0.00     0.093 A 
HETATM   17  C15 UNL     1      18.335  63.164  39.547  1.00  0.00     0.019 A 
HETATM   18  C16 UNL     1      19.179  63.253  38.438  1.00  0.00     0.019 A 
HETATM   19  C17 UNL     1      20.392  63.753  38.908  1.00  0.00     0.093 A 
ENDBRANCH  12  15
BRANCH  13  20
HETATM   20  O5  UNL     1      21.582  62.109  41.220  1.00  0.00    -0.388 OA
ATOM     21  H5  UNL     1      22.246  61.431  41.270  1.00  0.00     0.210 HD
ENDBRANCH  13  20
BRANCH  14  22
HETATM   22  O6  UNL     1      21.253  62.330  43.664  1.00  0.00    -0.388 OA
ATOM     23  H6  UNL     1      20.576  62.127  43.029  1.00  0.00     0.210 HD
ENDBRANCH  14  22
ENDBRANCH   8   9
ENDBRANCH   7   8
ENDBRANCH   3   7
BRANCH   4  24
HETATM   24  O7  UNL     1      21.060  62.744  47.226  1.00  0.00    -0.390 OA
ATOM     25  H7  UNL     1      21.278  62.303  46.413  1.00  0.00     0.210 HD
ENDBRANCH   4  24
BRANCH   1  26
HETATM   26  C8  UNL     1      18.696  66.101  48.599  1.00  0.00     0.061 C 
BRANCH  26  27
HETATM   27  C7  UNL     1      17.390  66.124  47.876  1.00  0.00    -0.028 C 
HETATM   28  C6  UNL     1      17.182  65.469  46.755  1.00  0.00    -0.031 C 
BRANCH  28  29
HETATM   29  C5  UNL     1      15.832  65.554  46.101  1.00  0.00     0.027 C 
BRANCH  29  30
HETATM   30  C4  UNL     1      15.930  65.511  44.627  1.00  0.00     0.004 C 
BRANCH  30  31
HETATM   31  C3  UNL     1      17.010  64.647  44.106  1.00  0.00    -0.000 C 
BRANCH  31  32
HETATM   32  C2  UNL     1      16.686  63.666  43.061  1.00  0.00    -0.005 C 
HETATM   33  C1  UNL     1      16.830  62.221  43.349  1.00  0.00     0.005 C 
ENDBRANCH  31  32
ENDBRANCH  30  31
ENDBRANCH  29  30
ENDBRANCH  28  29
ENDBRANCH  26  27
ENDBRANCH   1  26
BRANCH   5  34
HETATM   34  O8  UNL     1      22.513  65.528  48.942  1.00  0.00    -0.390 OA
ATOM     35  H8  UNL     1      21.928  66.273  48.873  1.00  0.00     0.210 HD
ENDBRANCH   5  34
BRANCH   6  36
HETATM   36  O9  UNL     1      19.947  63.130  49.316  1.00  0.00    -0.390 OA
ATOM     37  H9  UNL     1      19.898  62.923  50.241  1.00  0.00     0.210 HD
ENDBRANCH   6  36
TORSDOF 15
ENDMDL
MODEL 3
REMARK VINA RESULT: -7.562010264      2.228      2.802
REMARK  15 active torsions:
REMARK  status: ('A' for Active; 'I' for Inactive)
REMARK    1  A    between atoms: C2_2  and  C3_3 
REMARK    2  A    between atoms: C3_3  and  C4_4 
REMARK    3  A    between atoms: C4_4  and  C5_5 
REMARK    4  A    between atoms: C5_5  and  C6_6 
REMARK    5  A    between atoms: C7_7  and  C8_8 
REMARK    6  A    between atoms: C8_8  and  C9_9 
REMARK    7  A    between atoms: C10_11  and  C11_12 
REMARK    8  A    between atoms: C11_12  and  O2_13 
REMARK    9  A    between atoms: O2_13  and  C12_14 
REMARK   10  A    between atoms: C13_17  and  N1_18 
REMARK   11  A    between atoms: C18_23  and  O5_24 
REMARK   12  A    between atoms: C19_26  and  O6_27 
REMARK   13  A    between atoms: C20_29  and  O7_30 
REMARK   14  A    between atoms: C21_32  and  O8_33 
REMARK   15  A    between atoms: C22_35  and  O9_36 
ROOT
HETATM    1  C9  UNL     1      19.702  64.725  47.623  1.00  0.00     0.157 C 
HETATM    2  O1  UNL     1      20.105  64.096  46.447  1.00  0.00    -0.373 OA
HETATM    3  C10 UNL     1      21.164  63.237  46.736  1.00  0.00     0.177 C 
HETATM    4  C20 UNL     1      22.239  63.963  47.552  1.00  0.00     0.180 C 
HETATM    5  C21 UNL     1      22.063  65.462  47.434  1.00  0.00     0.180 C 
HETATM    6  C22 UNL     1      20.707  65.778  48.074  1.00  0.00     0.178 C 
ENDROOT
BRANCH   3   7
HETATM    7  C11 UNL     1      21.822  62.831  45.416  1.00  0.00     0.205 C 
BRANCH   7   8
HETATM    8  O2  UNL     1      20.870  63.037  44.419  1.00  0.00    -0.353 OA
BRANCH   8   9
HETATM    9  C12 UNL     1      21.384  63.636  43.297  1.00  0.00     0.328 C 
HETATM   10  O3  UNL     1      22.247  64.707  43.595  1.00  0.00    -0.203 OA
HETATM   11  O4  UNL     1      22.610  65.189  42.402  1.00  0.00    -0.209 OA
HETATM   12  C13 UNL     1      23.740  64.449  42.030  1.00  0.00     0.296 C 
HETATM   13  C18 UNL     1      23.404  62.993  41.949  1.00  0.00     0.204 C 
HETATM   14  C19 UNL     1      22.010  62.656  42.364  1.00  0.00     0.209 C 
BRANCH  12  15
HETATM   15  N1  UNL     1      24.179  64.924  40.747  1.00  0.00    -0.335 N 
HETATM   16  C14 UNL     1      23.397  65.515  39.843  1.00  0.00     0.093 A 
HETATM   17  C15 UNL     1      24.124  65.845  38.731  1.00  0.00     0.019 A 
HETATM   18  C16 UNL     1      25.429  65.421  38.989  1.00  0.00     0.019 A 
HETATM   19  C17 UNL     1      25.412  64.852  40.262  1.00  0.00     0.093 A 
ENDBRANCH  12  15
BRANCH  13  20
HETATM   20  O5  UNL     1      23.578  62.537  40.637  1.00  0.00    -0.388 OA
ATOM     21  H5  UNL     1      23.104  61.723  40.513  1.00  0.00     0.210 HD
ENDBRANCH  13  20
BRANCH  14  22
HETATM   22  O6  UNL     1      21.179  62.433  41.242  1.00  0.00    -0.388 OA
ATOM     23  H6  UNL     1      21.518  62.885  40.478  1.00  0.00     0.210 HD
ENDBRANCH  14  22
ENDBRANCH   8   9
ENDBRANCH   7   8
ENDBRANCH   3   7
BRANCH   4  24
HETATM   24  O7  UNL     1      22.012  63.631  48.889  1.00  0.00    -0.390 OA
ATOM     25  H7  UNL     1      22.032  64.447  49.376  1.00  0.00     0.210 HD
ENDBRANCH   4  24
BRANCH   1  26
HETATM   26  C8  UNL     1      18.415  65.461  47.324  1.00  0.00     0.061 C 
BRANCH  26  27
HETATM   27  C7  UNL     1      18.663  66.693  46.519  1.00  0.00    -0.028 C 
HETATM   28  C6  UNL     1      18.320  66.802  45.253  1.00  0.00    -0.031 C 
BRANCH  28  29
HETATM   29  C5  UNL     1      18.612  68.084  44.527  1.00  0.00     0.027 C 
BRANCH  29  30
HETATM   30  C4  UNL     1      19.907  68.666  44.936  1.00  0.00     0.004 C 
BRANCH  30  31
HETATM   31  C3  UNL     1      20.209  69.981  44.332  1.00  0.00    -0.000 C 
BRANCH  31  32
HETATM   32  C2  UNL     1      19.749  70.251  42.963  1.00  0.00    -0.005 C 
HETATM   33  C1  UNL     1      20.743  70.546  41.905  1.00  0.00     0.005 C 
ENDBRANCH  31  32
ENDBRANCH  30  31
ENDBRANCH  29  30
ENDBRANCH  28  29
ENDBRANCH  26  27
ENDBRANCH   1  26
BRANCH   5  34
HETATM   34  O8  UNL     1      22.075  65.908  46.130  1.00  0.00    -0.390 OA
ATOM     35  H8  UNL     1      22.808  66.481  45.938  1.00  0.00     0.210 HD
ENDBRANCH   5  34
BRANCH   6  36
HETATM   36  O9  UNL     1      20.921  65.690  49.461  1.00  0.00    -0.390 OA
ATOM     37  H9  UNL     1      21.851  65.682  49.652  1.00  0.00     0.210 HD
ENDBRANCH   6  36
TORSDOF 15
ENDMDL
MODEL 4
REMARK VINA RESULT: -7.557891343      1.216      1.846
REMARK  15 active torsions:
REMARK  status: ('A' for Active; 'I' for Inactive)
REMARK    1  A    between atoms: C2_2  and  C3_3 
REMARK    2  A    between atoms: C3_3  and  C4_4 
REMARK    3  A    between atoms: C4_4  and  C5_5 
REMARK    4  A    between atoms: C5_5  and  C6_6 
REMARK    5  A    between atoms: C7_7  and  C8_8 
REMARK    6  A    between atoms: C8_8  and  C9_9 
REMARK    7  A    between atoms: C10_11  and  C11_12 
REMARK    8  A    between atoms: C11_12  and  O2_13 
REMARK    9  A    between atoms: O2_13  and  C12_14 
REMARK   10  A    between atoms: C13_17  and  N1_18 
REMARK   11  A    between atoms: C18_23  and  O5_24 
REMARK   12  A    between atoms: C19_26  and  O6_27 
REMARK   13  A    between atoms: C20_29  and  O7_30 
REMARK   14  A    between atoms: C21_32  and  O8_33 
REMARK   15  A    between atoms: C22_35  and  O9_36 
ROOT
HETATM    1  C9  UNL     1      18.294  65.495  47.675  1.00  0.00     0.157 C 
HETATM    2  O1  UNL     1      19.038  64.746  46.765  1.00  0.00    -0.373 OA
HETATM    3  C10 UNL     1      20.137  64.198  47.424  1.00  0.00     0.177 C 
HETATM    4  C20 UNL     1      20.878  65.276  48.222  1.00  0.00     0.180 C 
HETATM    5  C21 UNL     1      20.488  66.653  47.731  1.00  0.00     0.180 C 
HETATM    6  C22 UNL     1      18.993  66.801  48.035  1.00  0.00     0.178 C 
ENDROOT
BRANCH   3   7
HETATM    7  C11 UNL     1      21.119  63.687  46.369  1.00  0.00     0.205 C 
BRANCH   7   8
HETATM    8  O2  UNL     1      20.375  63.456  45.214  1.00  0.00    -0.353 OA
BRANCH   8   9
HETATM    9  C12 UNL     1      21.006  63.878  44.071  1.00  0.00     0.328 C 
HETATM   10  O3  UNL     1      21.570  65.161  44.198  1.00  0.00    -0.203 OA
HETATM   11  O4  UNL     1      22.094  65.420  42.996  1.00  0.00    -0.209 OA
HETATM   12  C13 UNL     1      23.394  64.900  43.037  1.00  0.00     0.296 C 
HETATM   13  C18 UNL     1      23.358  63.429  43.309  1.00  0.00     0.204 C 
HETATM   14  C19 UNL     1      21.993  62.881  43.564  1.00  0.00     0.209 C 
BRANCH  12  15
HETATM   15  N1  UNL     1      24.012  65.149  41.764  1.00  0.00    -0.335 N 
HETATM   16  C14 UNL     1      25.308  65.397  41.580  1.00  0.00     0.093 A 
HETATM   17  C15 UNL     1      25.570  65.590  40.250  1.00  0.00     0.019 A 
HETATM   18  C16 UNL     1      24.345  65.448  39.596  1.00  0.00     0.019 A 
HETATM   19  C17 UNL     1      23.402  65.172  40.586  1.00  0.00     0.093 A 
ENDBRANCH  12  15
BRANCH  13  20
HETATM   20  O5  UNL     1      23.899  62.731  42.224  1.00  0.00    -0.388 OA
ATOM     21  H5  UNL     1      23.263  62.110  41.890  1.00  0.00     0.210 HD
ENDBRANCH  13  20
BRANCH  14  22
HETATM   22  O6  UNL     1      21.487  62.211  42.426  1.00  0.00    -0.388 OA
ATOM     23  H6  UNL     1      21.421  62.806  41.689  1.00  0.00     0.210 HD
ENDBRANCH  14  22
ENDBRANCH   8   9
ENDBRANCH   7   8
ENDBRANCH   3   7
BRANCH   4  24
HETATM   24  O7  UNL     1      20.428  65.172  49.540  1.00  0.00    -0.390 OA
ATOM     25  H7  UNL     1      19.900  65.944  49.706  1.00  0.00     0.210 HD
ENDBRANCH   4  24
BRANCH   1  26
HETATM   26  C8  UNL     1      16.998  65.877  46.995  1.00  0.00     0.061 C 
BRANCH  26  27
HETATM   27  C7  UNL     1      17.056  65.625  45.525  1.00  0.00    -0.028 C 
HETATM   28  C6  UNL     1      16.182  64.872  44.893  1.00  0.00    -0.031 C 
BRANCH  28  29
HETATM   29  C5  UNL     1      16.324  64.679  43.410  1.00  0.00     0.027 C 
BRANCH  29  30
HETATM   30  C4  UNL     1      17.308  63.627  43.083  1.00  0.00     0.004 C 
BRANCH  30  31
HETATM   31  C3  UNL     1      16.958  62.798  41.912  1.00  0.00    -0.000 C 
BRANCH  31  32
HETATM   32  C2  UNL     1      17.694  63.002  40.656  1.00  0.00    -0.005 C 
HETATM   33  C1  UNL     1      18.936  63.809  40.664  1.00  0.00     0.005 C 
ENDBRANCH  31  32
ENDBRANCH  30  31
ENDBRANCH  29  30
ENDBRANCH  28  29
ENDBRANCH  26  27
ENDBRANCH   1  26
BRANCH   5  34
HETATM   34  O8  UNL     1      20.704  66.829  46.381  1.00  0.00    -0.390 OA
ATOM     35  H8  UNL     1      19.960  67.209  45.929  1.00  0.00     0.210 HD
ENDBRANCH   5  34
BRANCH   6  36
HETATM   36  O9  UNL     1      18.918  67.031  49.420  1.00  0.00    -0.390 OA
ATOM     37  H9  UNL     1      19.104  67.942  49.615  1.00  0.00     0.210 HD
ENDBRANCH   6  36
TORSDOF 15
ENDMDL
MODEL 5
REMARK VINA RESULT: -7.542526842      3.246      7.156
REMARK  15 active torsions:
REMARK  status: ('A' for Active; 'I' for Inactive)
REMARK    1  A    between atoms: C2_2  and  C3_3 
REMARK    2  A    between atoms: C3_3  and  C4_4 
REMARK    3  A    between atoms: C4_4  and  C5_5 
REMARK    4  A    between atoms: C5_5  and  C6_6 
REMARK    5  A    between atoms: C7_7  and  C8_8 
REMARK    6  A    between atoms: C8_8  and  C9_9 
REMARK    7  A    between atoms: C10_11  and  C11_12 
REMARK    8  A    between atoms: C11_12  and  O2_13 
REMARK    9  A    between atoms: O2_13  and  C12_14 
REMARK   10  A    between atoms: C13_17  and  N1_18 
REMARK   11  A    between atoms: C18_23  and  O5_24 
REMARK   12  A    between atoms: C19_26  and  O6_27 
REMARK   13  A    between atoms: C20_29  and  O7_30 
REMARK   14  A    between atoms: C21_32  and  O8_33 
REMARK   15  A    between atoms: C22_35  and  O9_36 
ROOT
HETATM    1  C9  UNL     1      26.513  63.928  44.023  1.00  0.00     0.157 C 
HETATM    2  O1  UNL     1      25.710  63.528  45.089  1.00  0.00    -0.373 OA
HETATM    3  C10 UNL     1      26.294  63.957  46.279  1.00  0.00     0.177 C 
HETATM    4  C20 UNL     1      27.774  63.564  46.325  1.00  0.00     0.180 C 
HETATM    5  C21 UNL     1      28.059  62.477  45.311  1.00  0.00     0.180 C 
HETATM    6  C22 UNL     1      27.791  63.102  43.937  1.00  0.00     0.178 C 
ENDROOT
BRANCH   3   7
HETATM    7  C11 UNL     1      25.614  63.223  47.436  1.00  0.00     0.205 C 
BRANCH   7   8
HETATM    8  O2  UNL     1      25.205  64.201  48.340  1.00  0.00    -0.353 OA
BRANCH   8   9
HETATM    9  C12 UNL     1      24.059  64.850  47.954  1.00  0.00     0.328 C 
HETATM   10  O3  UNL     1      23.315  64.126  47.003  1.00  0.00    -0.203 OA
HETATM   11  O4  UNL     1      22.276  64.917  46.716  1.00  0.00    -0.209 OA
HETATM   12  C13 UNL     1      21.291  64.592  47.659  1.00  0.00     0.296 C 
HETATM   13  C18 UNL     1      21.796  64.840  49.045  1.00  0.00     0.204 C 
HETATM   14  C19 UNL     1      23.224  65.271  49.115  1.00  0.00     0.209 C 
BRANCH  12  15
HETATM   15  N1  UNL     1      20.142  65.415  47.400  1.00  0.00    -0.335 N 
HETATM   16  C14 UNL     1      18.886  65.092  47.709  1.00  0.00     0.093 A 
HETATM   17  C15 UNL     1      18.032  66.093  47.329  1.00  0.00     0.019 A 
HETATM   18  C16 UNL     1      18.834  67.080  46.753  1.00  0.00     0.019 A 
HETATM   19  C17 UNL     1      20.145  66.610  46.822  1.00  0.00     0.093 A 
ENDBRANCH  12  15
BRANCH  13  20
HETATM   20  O5  UNL     1      21.024  65.830  49.663  1.00  0.00    -0.388 OA
ATOM     21  H5  UNL     1      21.478  66.163  50.429  1.00  0.00     0.210 HD
ENDBRANCH  13  20
BRANCH  14  22
HETATM   22  O6  UNL     1      23.331  66.665  49.328  1.00  0.00    -0.388 OA
ATOM     23  H6  UNL     1      22.478  67.078  49.276  1.00  0.00     0.210 HD
ENDBRANCH  14  22
ENDBRANCH   8   9
ENDBRANCH   7   8
ENDBRANCH   3   7
BRANCH   4  24
HETATM   24  O7  UNL     1      28.496  64.691  45.926  1.00  0.00    -0.390 OA
ATOM     25  H7  UNL     1      29.260  64.371  45.462  1.00  0.00     0.210 HD
ENDBRANCH   4  24
BRANCH   1  26
HETATM   26  C8  UNL     1      25.743  63.658  42.749  1.00  0.00     0.061 C 
BRANCH  26  27
HETATM   27  C7  UNL     1      24.307  63.361  43.030  1.00  0.00    -0.028 C 
HETATM   28  C6  UNL     1      23.443  63.051  42.087  1.00  0.00    -0.031 C 
BRANCH  28  29
HETATM   29  C5  UNL     1      22.019  62.768  42.470  1.00  0.00     0.027 C 
BRANCH  29  30
HETATM   30  C4  UNL     1      21.816  62.836  43.932  1.00  0.00     0.004 C 
BRANCH  30  31
HETATM   31  C3  UNL     1      20.415  63.047  44.351  1.00  0.00    -0.000 C 
BRANCH  31  32
HETATM   32  C2  UNL     1      19.725  64.270  43.917  1.00  0.00    -0.005 C 
HETATM   33  C1  UNL     1      18.250  64.348  44.017  1.00  0.00     0.005 C 
ENDBRANCH  31  32
ENDBRANCH  30  31
ENDBRANCH  29  30
ENDBRANCH  28  29
ENDBRANCH  26  27
ENDBRANCH   1  26
BRANCH   5  34
HETATM   34  O8  UNL     1      27.266  61.361  45.474  1.00  0.00    -0.390 OA
ATOM     35  H8  UNL     1      27.255  61.039  46.368  1.00  0.00     0.210 HD
ENDBRANCH   5  34
BRANCH   6  36
HETATM   36  O9  UNL     1      28.897  63.933  43.686  1.00  0.00    -0.390 OA
ATOM     37  H9  UNL     1      29.669  63.411  43.504  1.00  0.00     0.210 HD
ENDBRANCH   6  36
TORSDOF 15
ENDMDL
