MODEL 1
REMARK VINA RESULT: -7.835363480      0.000      0.000
REMARK  14 active torsions:
REMARK  status: ('A' for Active; 'I' for Inactive)
REMARK    1  A    between atoms: C2_2  and  C3_3 
REMARK    2  A    between atoms: C3_3  and  O1_4 
REMARK    3  A    between atoms: C3_3  and  C20_35 
REMARK    4  A    between atoms: O1_4  and  C4_5 
REMARK    5  A    between atoms: C4_5  and  C5_7 
REMARK    6  A    between atoms: C5_7  and  O3_8 
REMARK    7  A    between atoms: O3_8  and  C6_9 
REMARK    8  A    between atoms: C9_13  and  O5_14 
REMARK    9  A    between atoms: C10_17  and  C11_18 
REMARK   10  A    between atoms: C11_18  and  O7_19 
REMARK   11  A    between atoms: C13_22  and  O8_23 
REMARK   12  A    between atoms: C14_25  and  O9_26 
REMARK   13  A    between atoms: C15_28  and  O10_29 
REMARK   14  A    between atoms: C16_31  and  C17_32 
ROOT
HETATM    1  C6  UNL     1      22.110  66.164  46.780  1.00  0.00     0.161 C 
HETATM    2  C7  UNL     1      22.953  65.765  45.551  1.00  0.00     0.189 C 
HETATM    3  O4  UNL     1      23.480  64.513  45.605  1.00  0.00    -0.369 OA
HETATM    4  C8  UNL     1      23.531  63.767  44.476  1.00  0.00     0.186 C 
HETATM    5  C9  UNL     1      24.822  62.927  44.359  1.00  0.00     0.286 C 
HETATM    6  O6  UNL     1      24.630  62.498  43.019  1.00  0.00    -0.351 OA
HETATM    7  C10 UNL     1      24.608  63.766  42.389  1.00  0.00     0.157 C 
HETATM    8  C12 UNL     1      23.676  64.568  43.198  1.00  0.00     0.082 C 
HETATM    9  C13 UNL     1      22.401  65.017  42.627  1.00  0.00     0.159 C 
HETATM   10  C14 UNL     1      21.961  66.272  43.425  1.00  0.00     0.184 C 
HETATM   11  C15 UNL     1      21.632  65.863  44.785  1.00  0.00     0.121 C 
HETATM   12  C16 UNL     1      21.072  66.707  45.831  1.00  0.00     0.060 C 
ENDROOT
BRANCH   1  13
HETATM   13  O3  UNL     1      21.792  65.082  47.560  1.00  0.00    -0.373 OA
BRANCH  13  14
HETATM   14  C5  UNL     1      20.944  65.317  48.613  1.00  0.00     0.279 C 
BRANCH  14  15
HETATM   15  C4  UNL     1      19.798  64.406  48.740  1.00  0.00     0.283 C 
HETATM   16  O2  UNL     1      19.717  63.637  49.718  1.00  0.00    -0.263 OA
BRANCH  15  17
HETATM   17  O1  UNL     1      18.776  64.375  47.781  1.00  0.00    -0.310 OA
BRANCH  17  18
HETATM   18  C3  UNL     1      18.149  65.548  47.322  1.00  0.00     0.157 C 
BRANCH  18  19
HETATM   19  C2  UNL     1      17.372  66.122  48.437  1.00  0.00    -0.005 C 
HETATM   20  C1  UNL     1      17.767  67.251  48.999  1.00  0.00     0.009 C 
ENDBRANCH  18  19
BRANCH  18  21
HETATM   21  C20 UNL     1      17.276  65.234  46.126  1.00  0.00     0.011 C 
HETATM   22  C21 UNL     1      17.427  66.246  45.034  1.00  0.00     0.012 C 
HETATM   23  C22 UNL     1      15.821  65.172  46.521  1.00  0.00     0.012 C 
ENDBRANCH  18  21
ENDBRANCH  17  18
ENDBRANCH  15  17
ENDBRANCH  14  15
ENDBRANCH  13  14
ENDBRANCH   1  13
BRANCH  12  24
HETATM   24  C17 UNL     1      20.853  68.146  45.724  1.00  0.00    -0.013 C 
HETATM   25  C18 UNL     1      19.975  68.752  44.734  1.00  0.00     0.010 C 
HETATM   26  C19 UNL     1      20.433  68.637  47.126  1.00  0.00     0.010 C 
ENDBRANCH  12  24
BRANCH  11  27
HETATM   27  O10 UNL     1      20.961  64.614  44.743  1.00  0.00    -0.384 OA
ATOM     28  H10 UNL     1      20.816  64.326  43.849  1.00  0.00     0.210 HD
ENDBRANCH  11  27
BRANCH  10  29
HETATM   29  O9  UNL     1      23.077  67.100  43.267  1.00  0.00    -0.390 OA
ATOM     30  H9  UNL     1      22.785  67.890  43.706  1.00  0.00     0.210 HD
ENDBRANCH  10  29
BRANCH   5  31
HETATM   31  O5  UNL     1      25.941  63.713  44.492  1.00  0.00    -0.369 OA
ATOM     32  H5  UNL     1      26.540  63.353  45.137  1.00  0.00     0.212 HD
ENDBRANCH   5  31
BRANCH   9  33
HETATM   33  O8  UNL     1      21.400  64.121  42.466  1.00  0.00    -0.392 OA
ATOM     34  H8  UNL     1      20.630  64.372  41.968  1.00  0.00     0.210 HD
ENDBRANCH   9  33
BRANCH   7  35
HETATM   35  C11 UNL     1      24.398  63.695  40.929  1.00  0.00     0.196 C 
BRANCH  35  36
HETATM   36  O7  UNL     1      23.526  62.744  40.466  1.00  0.00    -0.398 OA
ATOM     37  H7  UNL     1      23.703  62.371  39.610  1.00  0.00     0.209 HD
ENDBRANCH  35  36
ENDBRANCH   7  35
TORSDOF 14
ENDMDL
MODEL 2
REMARK VINA RESULT: -7.815077482      1.991      3.874
REMARK  14 active torsions:
REMARK  status: ('A' for Active; 'I' for Inactive)
REMARK    1  A    between atoms: C2_2  and  C3_3 
REMARK    2  A    between atoms: C3_3  and  O1_4 
REMARK    3  A    between atoms: C3_3  and  C20_35 
REMARK    4  A    between atoms: O1_4  and  C4_5 
REMARK    5  A    between atoms: C4_5  and  C5_7 
REMARK    6  A    between atoms: C5_7  and  O3_8 
REMARK    7  A    between atoms: O3_8  and  C6_9 
REMARK    8  A    between atoms: C9_13  and  O5_14 
REMARK    9  A    between atoms: C10_17  and  C11_18 
REMARK   10  A    between atoms: C11_18  and  O7_19 
REMARK   11  A    between atoms: C13_22  and  O8_23 
REMARK   12  A    between atoms: C14_25  and  O9_26 
REMARK   13  A    between atoms: C15_28  and  O10_29 
REMARK   14  A    between atoms: C16_31  and  C17_32 
ROOT
HETATM    1  C6  UNL     1      21.649  64.433  46.480  1.00  0.00     0.161 C 
HETATM    2  C7  UNL     1      22.933  63.744  45.973  1.00  0.00     0.189 C 
HETATM    3  O4  UNL     1      23.319  64.111  44.722  1.00  0.00    -0.369 OA
HETATM    4  C8  UNL     1      24.637  64.259  44.451  1.00  0.00     0.186 C 
HETATM    5  C9  UNL     1      25.032  63.755  43.047  1.00  0.00     0.286 C 
HETATM    6  O6  UNL     1      26.439  63.848  43.216  1.00  0.00    -0.351 OA
HETATM    7  C10 UNL     1      26.584  62.952  44.304  1.00  0.00     0.157 C 
HETATM    8  C12 UNL     1      25.552  63.367  45.268  1.00  0.00     0.082 C 
HETATM    9  C13 UNL     1      25.939  63.936  46.564  1.00  0.00     0.159 C 
HETATM   10  C14 UNL     1      24.754  63.700  47.537  1.00  0.00     0.184 C 
HETATM   11  C15 UNL     1      23.627  64.514  47.099  1.00  0.00     0.121 C 
HETATM   12  C16 UNL     1      22.355  64.676  47.790  1.00  0.00     0.060 C 
ENDROOT
BRANCH   1  13
HETATM   13  O3  UNL     1      21.302  65.510  45.707  1.00  0.00    -0.373 OA
BRANCH  13  14
HETATM   14  C5  UNL     1      20.037  66.009  45.887  1.00  0.00     0.279 C 
BRANCH  14  15
HETATM   15  C4  UNL     1      18.929  65.082  45.620  1.00  0.00     0.283 C 
HETATM   16  O2  UNL     1      18.812  64.555  44.496  1.00  0.00    -0.263 OA
BRANCH  15  17
HETATM   17  O1  UNL     1      17.984  64.765  46.606  1.00  0.00    -0.310 OA
BRANCH  17  18
HETATM   18  C3  UNL     1      16.876  65.591  46.869  1.00  0.00     0.157 C 
BRANCH  18  19
HETATM   19  C2  UNL     1      16.922  65.985  48.290  1.00  0.00    -0.005 C 
HETATM   20  C1  UNL     1      17.900  66.762  48.724  1.00  0.00     0.009 C 
ENDBRANCH  18  19
BRANCH  18  21
HETATM   21  C20 UNL     1      15.594  64.864  46.525  1.00  0.00     0.011 C 
HETATM   22  C21 UNL     1      15.280  64.932  45.063  1.00  0.00     0.012 C 
HETATM   23  C22 UNL     1      14.426  65.436  47.290  1.00  0.00     0.012 C 
ENDBRANCH  18  21
ENDBRANCH  17  18
ENDBRANCH  15  17
ENDBRANCH  14  15
ENDBRANCH  13  14
ENDBRANCH   1  13
BRANCH  12  24
HETATM   24  C17 UNL     1      21.951  63.950  48.990  1.00  0.00    -0.013 C 
HETATM   25  C18 UNL     1      22.492  64.224  50.314  1.00  0.00     0.010 C 
HETATM   26  C19 UNL     1      20.412  64.025  49.058  1.00  0.00     0.010 C 
ENDBRANCH  12  24
BRANCH  11  27
HETATM   27  O10 UNL     1      24.110  65.771  46.650  1.00  0.00    -0.384 OA
ATOM     28  H10 UNL     1      25.059  65.814  46.693  1.00  0.00     0.210 HD
ENDBRANCH  11  27
BRANCH  10  29
HETATM   29  O9  UNL     1      24.602  62.312  47.450  1.00  0.00    -0.390 OA
ATOM     30  H9  UNL     1      24.164  62.227  46.611  1.00  0.00     0.210 HD
ENDBRANCH  10  29
BRANCH   5  31
HETATM   31  O5  UNL     1      24.623  62.458  42.850  1.00  0.00    -0.369 OA
ATOM     32  H5  UNL     1      25.160  62.022  42.199  1.00  0.00     0.212 HD
ENDBRANCH   5  31
BRANCH   9  33
HETATM   33  O8  UNL     1      26.411  65.202  46.613  1.00  0.00    -0.392 OA
ATOM     34  H8  UNL     1      27.269  65.362  46.992  1.00  0.00     0.210 HD
ENDBRANCH   9  33
BRANCH   7  35
HETATM   35  C11 UNL     1      27.977  62.815  44.773  1.00  0.00     0.196 C 
BRANCH  35  36
HETATM   36  O7  UNL     1      28.404  61.557  45.113  1.00  0.00    -0.398 OA
ATOM     37  H7  UNL     1      28.399  61.330  46.035  1.00  0.00     0.209 HD
ENDBRANCH  35  36
ENDBRANCH   7  35
TORSDOF 14
ENDMDL
MODEL 3
REMARK VINA RESULT: -7.753582182      2.600      3.977
REMARK  14 active torsions:
REMARK  status: ('A' for Active; 'I' for Inactive)
REMARK    1  A    between atoms: C2_2  and  C3_3 
REMARK    2  A    between atoms: C3_3  and  O1_4 
REMARK    3  A    between atoms: C3_3  and  C20_35 
REMARK    4  A    between atoms: O1_4  and  C4_5 
REMARK    5  A    between atoms: C4_5  and  C5_7 
REMARK    6  A    between atoms: C5_7  and  O3_8 
REMARK    7  A    between atoms: O3_8  and  C6_9 
REMARK    8  A    between atoms: C9_13  and  O5_14 
REMARK    9  A    between atoms: C10_17  and  C11_18 
REMARK   10  A    between atoms: C11_18  and  O7_19 
REMARK   11  A    between atoms: C13_22  and  O8_23 
REMARK   12  A    between atoms: C14_25  and  O9_26 
REMARK   13  A    between atoms: C15_28  and  O10_29 
REMARK   14  A    between atoms: C16_31  and  C17_32 
ROOT
HETATM    1  C6  UNL     1      22.087  66.126  47.340  1.00  0.00     0.161 C 
HETATM    2  C7  UNL     1      23.515  65.552  47.445  1.00  0.00     0.189 C 
HETATM    3  O4  UNL     1      23.833  65.034  48.661  1.00  0.00    -0.369 OA
HETATM    4  C8  UNL     1      24.586  63.911  48.727  1.00  0.00     0.186 C 
HETATM    5  C9  UNL     1      25.606  63.929  49.887  1.00  0.00     0.286 C 
HETATM    6  O6  UNL     1      26.326  62.767  49.504  1.00  0.00    -0.351 OA
HETATM    7  C10 UNL     1      26.769  63.199  48.229  1.00  0.00     0.157 C 
HETATM    8  C12 UNL     1      25.564  63.741  47.581  1.00  0.00     0.082 C 
HETATM    9  C13 UNL     1      24.994  63.072  46.405  1.00  0.00     0.159 C 
HETATM   10  C14 UNL     1      24.183  64.138  45.623  1.00  0.00     0.184 C 
HETATM   11  C15 UNL     1      23.027  64.520  46.426  1.00  0.00     0.121 C 
HETATM   12  C16 UNL     1      21.947  65.409  46.021  1.00  0.00     0.060 C 
ENDROOT
BRANCH   1  13
HETATM   13  O3  UNL     1      21.297  65.737  48.391  1.00  0.00    -0.373 OA
BRANCH  13  14
HETATM   14  C5  UNL     1      19.949  65.950  48.252  1.00  0.00     0.279 C 
BRANCH  14  15
HETATM   15  C4  UNL     1      19.114  64.751  48.092  1.00  0.00     0.283 C 
HETATM   16  O2  UNL     1      19.637  63.619  48.105  1.00  0.00    -0.263 OA
BRANCH  15  17
HETATM   17  O1  UNL     1      17.726  64.842  47.922  1.00  0.00    -0.310 OA
BRANCH  17  18
HETATM   18  C3  UNL     1      17.147  65.675  46.947  1.00  0.00     0.157 C 
BRANCH  18  19
HETATM   19  C2  UNL     1      15.758  65.230  46.726  1.00  0.00    -0.005 C 
HETATM   20  C1  UNL     1      14.856  65.399  47.677  1.00  0.00     0.009 C 
ENDBRANCH  18  19
BRANCH  18  21
HETATM   21  C20 UNL     1      17.966  65.630  45.674  1.00  0.00     0.011 C 
HETATM   22  C21 UNL     1      17.964  66.940  44.952  1.00  0.00     0.012 C 
HETATM   23  C22 UNL     1      17.446  64.568  44.736  1.00  0.00     0.012 C 
ENDBRANCH  18  21
ENDBRANCH  17  18
ENDBRANCH  15  17
ENDBRANCH  14  15
ENDBRANCH  13  14
ENDBRANCH   1  13
BRANCH  12  24
HETATM   24  C17 UNL     1      21.903  66.165  44.773  1.00  0.00    -0.013 C 
HETATM   25  C18 UNL     1      21.182  65.719  43.590  1.00  0.00     0.010 C 
HETATM   26  C19 UNL     1      21.432  67.590  45.134  1.00  0.00     0.010 C 
ENDBRANCH  12  24
BRANCH  11  27
HETATM   27  O10 UNL     1      22.505  63.365  47.064  1.00  0.00    -0.384 OA
ATOM     28  H10 UNL     1      23.137  62.655  47.070  1.00  0.00     0.210 HD
ENDBRANCH  11  27
BRANCH  10  29
HETATM   29  O9  UNL     1      25.156  65.120  45.411  1.00  0.00    -0.390 OA
ATOM     30  H9  UNL     1      24.616  65.884  45.251  1.00  0.00     0.210 HD
ENDBRANCH  10  29
BRANCH   5  31
HETATM   31  O5  UNL     1      26.389  65.057  49.845  1.00  0.00    -0.369 OA
ATOM     32  H5  UNL     1      27.246  64.896  50.222  1.00  0.00     0.212 HD
ENDBRANCH   5  31
BRANCH   9  33
HETATM   33  O8  UNL     1      24.314  61.915  46.571  1.00  0.00    -0.392 OA
ATOM     34  H8  UNL     1      23.505  61.781  46.091  1.00  0.00     0.210 HD
ENDBRANCH   9  33
BRANCH   7  35
HETATM   35  C11 UNL     1      27.567  62.188  47.508  1.00  0.00     0.196 C 
BRANCH  35  36
HETATM   36  O7  UNL     1      28.325  61.331  48.264  1.00  0.00    -0.398 OA
ATOM     37  H7  UNL     1      28.679  60.564  47.829  1.00  0.00     0.209 HD
ENDBRANCH  35  36
ENDBRANCH   7  35
TORSDOF 14
ENDMDL
MODEL 4
REMARK VINA RESULT: -7.714835879      1.998      3.685
REMARK  14 active torsions:
REMARK  status: ('A' for Active; 'I' for Inactive)
REMARK    1  A    between atoms: C2_2  and  C3_3 
REMARK    2  A    between atoms: C3_3  and  O1_4 
REMARK    3  A    between atoms: C3_3  and  C20_35 
REMARK    4  A    between atoms: O1_4  and  C4_5 
REMARK    5  A    between atoms: C4_5  and  C5_7 
REMARK    6  A    between atoms: C5_7  and  O3_8 
REMARK    7  A    between atoms: O3_8  and  C6_9 
REMARK    8  A    between atoms: C9_13  and  O5_14 
REMARK    9  A    between atoms: C10_17  and  C11_18 
REMARK   10  A    between atoms: C11_18  and  O7_19 
REMARK   11  A    between atoms: C13_22  and  O8_23 
REMARK   12  A    between atoms: C14_25  and  O9_26 
REMARK   13  A    between atoms: C15_28  and  O10_29 
REMARK   14  A    between atoms: C16_31  and  C17_32 
ROOT
HETATM    1  C6  UNL     1      21.105  64.252  48.080  1.00  0.00     0.161 C 
HETATM    2  C7  UNL     1      21.374  63.583  46.716  1.00  0.00     0.189 C 
HETATM    3  O4  UNL     1      20.523  63.954  45.722  1.00  0.00    -0.369 OA
HETATM    4  C8  UNL     1      21.002  64.122  44.468  1.00  0.00     0.186 C 
HETATM    5  C9  UNL     1      20.035  63.621  43.373  1.00  0.00     0.286 C 
HETATM    6  O6  UNL     1      20.933  63.737  42.279  1.00  0.00    -0.351 OA
HETATM    7  C10 UNL     1      21.937  62.845  42.731  1.00  0.00     0.157 C 
HETATM    8  C12 UNL     1      22.191  63.246  44.125  1.00  0.00     0.082 C 
HETATM    9  C13 UNL     1      23.486  63.823  44.502  1.00  0.00     0.159 C 
HETATM   10  C14 UNL     1      23.672  63.570  46.021  1.00  0.00     0.184 C 
HETATM   11  C15 UNL     1      22.689  64.365  46.746  1.00  0.00     0.121 C 
HETATM   12  C16 UNL     1      22.587  64.509  48.192  1.00  0.00     0.060 C 
ENDROOT
BRANCH   1  13
HETATM   13  O3  UNL     1      20.256  65.323  47.970  1.00  0.00    -0.373 OA
BRANCH  13  14
HETATM   14  C5  UNL     1      19.272  65.421  48.921  1.00  0.00     0.279 C 
BRANCH  14  15
HETATM   15  C4  UNL     1      17.939  65.806  48.439  1.00  0.00     0.283 C 
HETATM   16  O2  UNL     1      17.446  66.902  48.774  1.00  0.00    -0.263 OA
BRANCH  15  17
HETATM   17  O1  UNL     1      17.191  64.968  47.601  1.00  0.00    -0.310 OA
BRANCH  17  18
HETATM   18  C3  UNL     1      16.283  65.477  46.655  1.00  0.00     0.157 C 
BRANCH  18  19
HETATM   19  C2  UNL     1      14.993  64.784  46.834  1.00  0.00    -0.005 C 
HETATM   20  C1  UNL     1      14.071  65.308  47.622  1.00  0.00     0.009 C 
ENDBRANCH  18  19
BRANCH  18  21
HETATM   21  C20 UNL     1      16.835  65.295  45.257  1.00  0.00     0.011 C 
HETATM   22  C21 UNL     1      17.672  66.457  44.822  1.00  0.00     0.012 C 
HETATM   23  C22 UNL     1      15.721  65.109  44.256  1.00  0.00     0.012 C 
ENDBRANCH  18  21
ENDBRANCH  17  18
ENDBRANCH  15  17
ENDBRANCH  14  15
ENDBRANCH  13  14
ENDBRANCH   1  13
BRANCH  12  24
HETATM   24  C17 UNL     1      23.388  63.778  49.168  1.00  0.00    -0.013 C 
HETATM   25  C18 UNL     1      24.819  63.982  49.345  1.00  0.00     0.010 C 
HETATM   26  C19 UNL     1      22.690  63.949  50.533  1.00  0.00     0.010 C 
ENDBRANCH  12  24
BRANCH  11  27
HETATM   27  O10 UNL     1      22.558  65.628  46.112  1.00  0.00    -0.384 OA
ATOM     28  H10 UNL     1      23.401  66.057  46.012  1.00  0.00     0.210 HD
ENDBRANCH  11  27
BRANCH  10  29
HETATM   29  O9  UNL     1      23.530  62.180  46.085  1.00  0.00    -0.390 OA
ATOM     30  H9  UNL     1      22.751  62.098  46.622  1.00  0.00     0.210 HD
ENDBRANCH  10  29
BRANCH   5  31
HETATM   31  O5  UNL     1      19.661  62.318  43.597  1.00  0.00    -0.369 OA
ATOM     32  H5  UNL     1      18.771  62.160  43.305  1.00  0.00     0.212 HD
ENDBRANCH   5  31
BRANCH   9  33
HETATM   33  O8  UNL     1      23.769  65.096  44.145  1.00  0.00    -0.392 OA
ATOM     34  H8  UNL     1      24.188  65.671  44.776  1.00  0.00     0.210 HD
ENDBRANCH   9  33
BRANCH   7  35
HETATM   35  C11 UNL     1      23.082  62.731  41.807  1.00  0.00     0.196 C 
BRANCH  35  36
HETATM   36  O7  UNL     1      23.007  61.772  40.829  1.00  0.00    -0.398 OA
ATOM     37  H7  UNL     1      23.791  61.264  40.657  1.00  0.00     0.209 HD
ENDBRANCH  35  36
ENDBRANCH   7  35
TORSDOF 14
ENDMDL
MODEL 5
REMARK VINA RESULT: -7.712237295      2.102      4.206
REMARK  14 active torsions:
REMARK  status: ('A' for Active; 'I' for Inactive)
REMARK    1  A    between atoms: C2_2  and  C3_3 
REMARK    2  A    between atoms: C3_3  and  O1_4 
REMARK    3  A    between atoms: C3_3  and  C20_35 
REMARK    4  A    between atoms: O1_4  and  C4_5 
REMARK    5  A    between atoms: C4_5  and  C5_7 
REMARK    6  A    between atoms: C5_7  and  O3_8 
REMARK    7  A    between atoms: O3_8  and  C6_9 
REMARK    8  A    between atoms: C9_13  and  O5_14 
REMARK    9  A    between atoms: C10_17  and  C11_18 
REMARK   10  A    between atoms: C11_18  and  O7_19 
REMARK   11  A    between atoms: C13_22  and  O8_23 
REMARK   12  A    between atoms: C14_25  and  O9_26 
REMARK   13  A    between atoms: C15_28  and  O10_29 
REMARK   14  A    between atoms: C16_31  and  C17_32 
ROOT
HETATM    1  C6  UNL     1      21.609  64.318  46.620  1.00  0.00     0.161 C 
HETATM    2  C7  UNL     1      22.889  63.669  46.054  1.00  0.00     0.189 C 
HETATM    3  O4  UNL     1      23.223  64.071  44.799  1.00  0.00    -0.369 OA
HETATM    4  C8  UNL     1      24.527  64.255  44.486  1.00  0.00     0.186 C 
HETATM    5  C9  UNL     1      24.884  63.788  43.058  1.00  0.00     0.286 C 
HETATM    6  O6  UNL     1      26.293  63.910  43.181  1.00  0.00    -0.351 OA
HETATM    7  C10 UNL     1      26.496  62.995  44.244  1.00  0.00     0.157 C 
HETATM    8  C12 UNL     1      25.489  63.367  45.252  1.00  0.00     0.082 C 
HETATM    9  C13 UNL     1      25.908  63.917  46.546  1.00  0.00     0.159 C 
HETATM   10  C14 UNL     1      24.764  63.633  47.554  1.00  0.00     0.184 C 
HETATM   11  C15 UNL     1      23.604  64.431  47.172  1.00  0.00     0.121 C 
HETATM   12  C16 UNL     1      22.354  64.550  47.910  1.00  0.00     0.060 C 
ENDROOT
BRANCH   1  13
HETATM   13  O3  UNL     1      21.211  65.403  45.882  1.00  0.00    -0.373 OA
BRANCH  13  14
HETATM   14  C5  UNL     1      20.111  66.082  46.341  1.00  0.00     0.279 C 
BRANCH  14  15
HETATM   15  C4  UNL     1      18.988  66.209  45.403  1.00  0.00     0.283 C 
HETATM   16  O2  UNL     1      19.198  66.215  44.174  1.00  0.00    -0.263 OA
BRANCH  15  17
HETATM   17  O1  UNL     1      17.665  66.324  45.854  1.00  0.00    -0.310 OA
BRANCH  17  18
HETATM   18  C3  UNL     1      16.828  65.203  46.000  1.00  0.00     0.157 C 
BRANCH  18  19
HETATM   19  C2  UNL     1      15.797  65.258  44.947  1.00  0.00    -0.005 C 
HETATM   20  C1  UNL     1      15.881  64.451  43.903  1.00  0.00     0.009 C 
ENDBRANCH  18  19
BRANCH  18  21
HETATM   21  C20 UNL     1      16.221  65.187  47.387  1.00  0.00     0.011 C 
HETATM   22  C21 UNL     1      14.765  65.533  47.372  1.00  0.00     0.012 C 
HETATM   23  C22 UNL     1      16.932  66.158  48.298  1.00  0.00     0.012 C 
ENDBRANCH  18  21
ENDBRANCH  17  18
ENDBRANCH  15  17
ENDBRANCH  14  15
ENDBRANCH  13  14
ENDBRANCH   1  13
BRANCH  12  24
HETATM   24  C17 UNL     1      22.008  63.789  49.107  1.00  0.00    -0.013 C 
HETATM   25  C18 UNL     1      22.595  64.043  50.415  1.00  0.00     0.010 C 
HETATM   26  C19 UNL     1      20.472  63.836  49.234  1.00  0.00     0.010 C 
ENDBRANCH  12  24
BRANCH  11  27
HETATM   27  O10 UNL     1      24.044  65.707  46.734  1.00  0.00    -0.384 OA
ATOM     28  H10 UNL     1      24.443  65.661  45.873  1.00  0.00     0.210 HD
ENDBRANCH  11  27
BRANCH  10  29
HETATM   29  O9  UNL     1      24.639  62.245  47.441  1.00  0.00    -0.390 OA
ATOM     30  H9  UNL     1      24.729  62.126  46.503  1.00  0.00     0.210 HD
ENDBRANCH  10  29
BRANCH   5  31
HETATM   31  O5  UNL     1      24.496  62.487  42.848  1.00  0.00    -0.369 OA
ATOM     32  H5  UNL     1      23.668  62.301  43.274  1.00  0.00     0.212 HD
ENDBRANCH   5  31
BRANCH   9  33
HETATM   33  O8  UNL     1      26.355  65.192  46.606  1.00  0.00    -0.392 OA
ATOM     34  H8  UNL     1      25.927  65.805  47.194  1.00  0.00     0.210 HD
ENDBRANCH   9  33
BRANCH   7  35
HETATM   35  C11 UNL     1      27.907  62.880  44.662  1.00  0.00     0.196 C 
BRANCH  35  36
HETATM   36  O7  UNL     1      28.353  61.638  45.033  1.00  0.00    -0.398 OA
ATOM     37  H7  UNL     1      28.093  61.320  45.890  1.00  0.00     0.209 HD
ENDBRANCH  35  36
ENDBRANCH   7  35
TORSDOF 14
ENDMDL
