MODEL 1
REMARK VINA RESULT: -6.973517231      0.000      0.000
REMARK  8 active torsions:
REMARK  status: ('A' for Active; 'I' for Inactive)
REMARK    1  A    between atoms: C2_3  and  N2_4 
REMARK    2  A    between atoms: C2_3  and  C12_19 
REMARK    3  A    between atoms: N2_4  and  C3_6 
REMARK    4  A    between atoms: C9_12  and  N3_13 
REMARK    5  A    between atoms: N3_13  and  O1_14 
REMARK    6  A    between atoms: O1_14  and  C10_15 
REMARK    7  A    between atoms: C10_15  and  C11_16 
REMARK    8  A    between atoms: C12_19  and  C13_21 
ROOT
HETATM    1  N1  UNL     1     107.704  22.412  25.599  1.00  0.00    -0.195 NA
HETATM    2  C1  UNL     1     108.347  22.056  24.677  1.00  0.00     0.092 C 
HETATM    3  C2  UNL     1     109.129  21.625  23.486  1.00  0.00     0.256 C 
ENDROOT
BRANCH   3   4
HETATM    4  N2  UNL     1     108.293  21.712  22.366  1.00  0.00    -0.390 N 
ATOM      5  H2  UNL     1     107.991  20.864  21.887  1.00  0.00     0.155 HD
BRANCH   4   6
HETATM    6  C3  UNL     1     107.869  22.976  21.901  1.00  0.00     0.141 C 
HETATM    7  C4  UNL     1     108.881  23.984  21.551  1.00  0.00     0.032 C 
HETATM    8  C5  UNL     1     109.046  24.359  20.123  1.00  0.00     0.002 C 
HETATM    9  C6  UNL     1     107.851  24.840  19.392  1.00  0.00     0.000 C 
HETATM   10  C7  UNL     1     107.088  23.792  18.634  1.00  0.00     0.007 C 
HETATM   11  C8  UNL     1     107.331  22.416  19.282  1.00  0.00     0.073 C 
HETATM   12  C9  UNL     1     106.981  22.627  20.740  1.00  0.00     0.117 C 
BRANCH  12  13
HETATM   13  N3  UNL     1     105.811  22.574  20.990  1.00  0.00    -0.288 NA
BRANCH  13  14
HETATM   14  O1  UNL     1     104.604  22.432  21.100  1.00  0.00    -0.199 OA
BRANCH  14  15
HETATM   15  C10 UNL     1     103.597  22.305  20.058  1.00  0.00     0.330 C 
BRANCH  15  16
HETATM   16  C11 UNL     1     102.996  20.929  20.332  1.00  0.00     0.201 C 
HETATM   17  O2  UNL     1     103.167  20.367  21.418  1.00  0.00    -0.646 OA
HETATM   18  O3  UNL     1     102.276  20.379  19.333  1.00  0.00    -0.646 OA
ENDBRANCH  15  16
ENDBRANCH  14  15
ENDBRANCH  13  14
ENDBRANCH  12  13
ENDBRANCH   4   6
ENDBRANCH   3   4
BRANCH   3  19
HETATM   19  C12 UNL     1     109.435  20.194  23.704  1.00  0.00     0.167 C 
HETATM   20  O4  UNL     1     109.983  19.576  22.764  1.00  0.00    -0.294 OA
BRANCH  19  21
HETATM   21  C13 UNL     1     109.161  19.449  24.905  1.00  0.00     0.058 A 
HETATM   22  C14 UNL     1     110.412  19.242  25.812  1.00  0.00     0.013 A 
HETATM   23  C15 UNL     1     109.772  18.095  25.140  1.00  0.00     0.013 A 
ENDBRANCH  19  21
ENDBRANCH   3  19
TORSDOF 8
ENDMDL
MODEL 2
REMARK VINA RESULT: -6.441444411      5.006      7.764
REMARK  8 active torsions:
REMARK  status: ('A' for Active; 'I' for Inactive)
REMARK    1  A    between atoms: C2_3  and  N2_4 
REMARK    2  A    between atoms: C2_3  and  C12_19 
REMARK    3  A    between atoms: N2_4  and  C3_6 
REMARK    4  A    between atoms: C9_12  and  N3_13 
REMARK    5  A    between atoms: N3_13  and  O1_14 
REMARK    6  A    between atoms: O1_14  and  C10_15 
REMARK    7  A    between atoms: C10_15  and  C11_16 
REMARK    8  A    between atoms: C12_19  and  C13_21 
ROOT
HETATM    1  N1  UNL     1     109.692  24.661  20.449  1.00  0.00    -0.195 NA
HETATM    2  C1  UNL     1     108.702  24.437  19.848  1.00  0.00     0.092 C 
HETATM    3  C2  UNL     1     107.453  24.195  19.075  1.00  0.00     0.256 C 
ENDROOT
BRANCH   3   4
HETATM    4  N2  UNL     1     106.896  25.440  18.757  1.00  0.00    -0.390 N 
ATOM      5  H2  UNL     1     106.338  25.941  19.448  1.00  0.00     0.155 HD
BRANCH   4   6
HETATM    6  C3  UNL     1     107.105  25.999  17.478  1.00  0.00     0.141 C 
HETATM    7  C4  UNL     1     105.987  26.039  16.523  1.00  0.00     0.032 C 
HETATM    8  C5  UNL     1     105.402  27.357  16.170  1.00  0.00     0.002 C 
HETATM    9  C6  UNL     1     106.313  28.397  15.636  1.00  0.00     0.000 C 
HETATM   10  C7  UNL     1     106.878  29.347  16.650  1.00  0.00     0.007 C 
HETATM   11  C8  UNL     1     106.899  28.665  18.031  1.00  0.00     0.073 C 
HETATM   12  C9  UNL     1     107.640  27.368  17.792  1.00  0.00     0.117 C 
BRANCH  12  13
HETATM   13  N3  UNL     1     108.835  27.463  17.785  1.00  0.00    -0.288 NA
BRANCH  13  14
HETATM   14  O1  UNL     1     110.028  27.681  17.661  1.00  0.00    -0.199 OA
BRANCH  14  15
HETATM   15  C10 UNL     1     110.864  28.638  18.368  1.00  0.00     0.330 C 
BRANCH  15  16
HETATM   16  C11 UNL     1     110.308  29.983  17.906  1.00  0.00     0.201 C 
HETATM   17  O2  UNL     1     110.423  30.347  16.732  1.00  0.00    -0.646 OA
HETATM   18  O3  UNL     1     109.690  30.730  18.843  1.00  0.00    -0.646 OA
ENDBRANCH  15  16
ENDBRANCH  14  15
ENDBRANCH  13  14
ENDBRANCH  12  13
ENDBRANCH   4   6
ENDBRANCH   3   4
BRANCH   3  19
HETATM   19  C12 UNL     1     106.529  23.518  20.010  1.00  0.00     0.167 C 
HETATM   20  O4  UNL     1     106.622  23.813  21.222  1.00  0.00    -0.294 OA
BRANCH  19  21
HETATM   21  C13 UNL     1     105.528  22.548  19.648  1.00  0.00     0.058 A 
HETATM   22  C14 UNL     1     104.098  23.151  19.497  1.00  0.00     0.013 A 
HETATM   23  C15 UNL     1     104.403  22.200  20.584  1.00  0.00     0.013 A 
ENDBRANCH  19  21
ENDBRANCH   3  19
TORSDOF 8
ENDMDL
MODEL 3
REMARK VINA RESULT: -6.319366509      4.510      8.642
REMARK  8 active torsions:
REMARK  status: ('A' for Active; 'I' for Inactive)
REMARK    1  A    between atoms: C2_3  and  N2_4 
REMARK    2  A    between atoms: C2_3  and  C12_19 
REMARK    3  A    between atoms: N2_4  and  C3_6 
REMARK    4  A    between atoms: C9_12  and  N3_13 
REMARK    5  A    between atoms: N3_13  and  O1_14 
REMARK    6  A    between atoms: O1_14  and  C10_15 
REMARK    7  A    between atoms: C10_15  and  C11_16 
REMARK    8  A    between atoms: C12_19  and  C13_21 
ROOT
HETATM    1  N1  UNL     1      97.804  24.469  19.883  1.00  0.00    -0.195 NA
HETATM    2  C1  UNL     1      98.602  23.604  19.802  1.00  0.00     0.092 C 
HETATM    3  C2  UNL     1      99.641  22.541  19.712  1.00  0.00     0.256 C 
ENDROOT
BRANCH   3   4
HETATM    4  N2  UNL     1     100.892  23.166  19.648  1.00  0.00    -0.390 N 
ATOM      5  H2  UNL     1     101.096  23.825  18.897  1.00  0.00     0.155 HD
BRANCH   4   6
HETATM    6  C3  UNL     1     101.872  22.882  20.623  1.00  0.00     0.141 C 
HETATM    7  C4  UNL     1     101.485  22.129  21.826  1.00  0.00     0.032 C 
HETATM    8  C5  UNL     1     102.003  20.747  21.997  1.00  0.00     0.002 C 
HETATM    9  C6  UNL     1     103.471  20.550  21.957  1.00  0.00     0.000 C 
HETATM   10  C7  UNL     1     104.041  20.190  20.616  1.00  0.00     0.007 C 
HETATM   11  C8  UNL     1     103.110  20.718  19.508  1.00  0.00     0.073 C 
HETATM   12  C9  UNL     1     102.944  22.187  19.833  1.00  0.00     0.117 C 
BRANCH  12  13
HETATM   13  N3  UNL     1     103.840  22.889  19.459  1.00  0.00    -0.288 NA
BRANCH  13  14
HETATM   14  O1  UNL     1     104.806  23.601  19.239  1.00  0.00    -0.199 OA
BRANCH  14  15
HETATM   15  C10 UNL     1     106.008  23.788  20.036  1.00  0.00     0.330 C 
BRANCH  15  16
HETATM   16  C11 UNL     1     107.123  23.680  19.000  1.00  0.00     0.201 C 
HETATM   17  O2  UNL     1     107.598  22.583  18.691  1.00  0.00    -0.646 OA
HETATM   18  O3  UNL     1     107.546  24.837  18.451  1.00  0.00    -0.646 OA
ENDBRANCH  15  16
ENDBRANCH  14  15
ENDBRANCH  13  14
ENDBRANCH  12  13
ENDBRANCH   4   6
ENDBRANCH   3   4
BRANCH   3  19
HETATM   19  C12 UNL     1      99.412  21.867  18.416  1.00  0.00     0.167 C 
HETATM   20  O4  UNL     1      99.459  22.575  17.385  1.00  0.00    -0.294 OA
BRANCH  19  21
HETATM   21  C13 UNL     1      99.140  20.465  18.233  1.00  0.00     0.058 A 
HETATM   22  C14 UNL     1      97.637  20.150  17.958  1.00  0.00     0.013 A 
HETATM   23  C15 UNL     1      98.284  19.702  19.207  1.00  0.00     0.013 A 
ENDBRANCH  19  21
ENDBRANCH   3  19
TORSDOF 8
ENDMDL
MODEL 4
REMARK VINA RESULT: -6.218215644      5.388      8.238
REMARK  8 active torsions:
REMARK  status: ('A' for Active; 'I' for Inactive)
REMARK    1  A    between atoms: C2_3  and  N2_4 
REMARK    2  A    between atoms: C2_3  and  C12_19 
REMARK    3  A    between atoms: N2_4  and  C3_6 
REMARK    4  A    between atoms: C9_12  and  N3_13 
REMARK    5  A    between atoms: N3_13  and  O1_14 
REMARK    6  A    between atoms: O1_14  and  C10_15 
REMARK    7  A    between atoms: C10_15  and  C11_16 
REMARK    8  A    between atoms: C12_19  and  C13_21 
ROOT
HETATM    1  N1  UNL     1     108.662  23.983  20.616  1.00  0.00    -0.195 NA
HETATM    2  C1  UNL     1     107.938  24.235  19.720  1.00  0.00     0.092 C 
HETATM    3  C2  UNL     1     107.041  24.594  18.587  1.00  0.00     0.256 C 
ENDROOT
BRANCH   3   4
HETATM    4  N2  UNL     1     107.065  25.987  18.442  1.00  0.00    -0.390 N 
ATOM      5  H2  UNL     1     106.798  26.586  19.224  1.00  0.00     0.155 HD
BRANCH   4   6
HETATM    6  C3  UNL     1     107.459  26.560  17.215  1.00  0.00     0.141 C 
HETATM    7  C4  UNL     1     106.478  26.654  16.123  1.00  0.00     0.032 C 
HETATM    8  C5  UNL     1     105.985  27.997  15.723  1.00  0.00     0.002 C 
HETATM    9  C6  UNL     1     106.990  29.015  15.336  1.00  0.00     0.000 C 
HETATM   10  C7  UNL     1     107.445  29.928  16.436  1.00  0.00     0.007 C 
HETATM   11  C8  UNL     1     107.263  29.222  17.793  1.00  0.00     0.073 C 
HETATM   12  C9  UNL     1     107.989  27.905  17.625  1.00  0.00     0.117 C 
BRANCH  12  13
HETATM   13  N3  UNL     1     109.176  27.962  17.777  1.00  0.00    -0.288 NA
BRANCH  13  14
HETATM   14  O1  UNL     1     110.396  27.995  17.765  1.00  0.00    -0.199 OA
BRANCH  14  15
HETATM   15  C10 UNL     1     111.295  28.926  18.428  1.00  0.00     0.330 C 
BRANCH  15  16
HETATM   16  C11 UNL     1     110.831  30.281  17.898  1.00  0.00     0.201 C 
HETATM   17  O2  UNL     1     111.071  30.624  16.737  1.00  0.00    -0.646 OA
HETATM   18  O3  UNL     1     110.152  31.063  18.763  1.00  0.00    -0.646 OA
ENDBRANCH  15  16
ENDBRANCH  14  15
ENDBRANCH  13  14
ENDBRANCH  12  13
ENDBRANCH   4   6
ENDBRANCH   3   4
BRANCH   3  19
HETATM   19  C12 UNL     1     105.679  24.213  19.018  1.00  0.00     0.167 C 
HETATM   20  O4  UNL     1     104.725  24.594  18.303  1.00  0.00    -0.294 OA
BRANCH  19  21
HETATM   21  C13 UNL     1     105.352  23.440  20.187  1.00  0.00     0.058 A 
HETATM   22  C14 UNL     1     105.113  21.927  19.890  1.00  0.00     0.013 A 
HETATM   23  C15 UNL     1     104.004  22.790  20.342  1.00  0.00     0.013 A 
ENDBRANCH  19  21
ENDBRANCH   3  19
TORSDOF 8
ENDMDL
MODEL 5
REMARK VINA RESULT: -6.179139590      3.796      6.464
REMARK  8 active torsions:
REMARK  status: ('A' for Active; 'I' for Inactive)
REMARK    1  A    between atoms: C2_3  and  N2_4 
REMARK    2  A    between atoms: C2_3  and  C12_19 
REMARK    3  A    between atoms: N2_4  and  C3_6 
REMARK    4  A    between atoms: C9_12  and  N3_13 
REMARK    5  A    between atoms: N3_13  and  O1_14 
REMARK    6  A    between atoms: O1_14  and  C10_15 
REMARK    7  A    between atoms: C10_15  and  C11_16 
REMARK    8  A    between atoms: C12_19  and  C13_21 
ROOT
HETATM    1  N1  UNL     1     100.925  22.875  18.373  1.00  0.00    -0.195 NA
HETATM    2  C1  UNL     1     101.827  22.753  19.122  1.00  0.00     0.092 C 
HETATM    3  C2  UNL     1     102.990  22.624  20.042  1.00  0.00     0.256 C 
ENDROOT
BRANCH   3   4
HETATM    4  N2  UNL     1     104.142  22.988  19.333  1.00  0.00    -0.390 N 
ATOM      5  H2  UNL     1     104.257  22.697  18.362  1.00  0.00     0.155 HD
BRANCH   4   6
HETATM    6  C3  UNL     1     105.144  23.756  19.964  1.00  0.00     0.141 C 
HETATM    7  C4  UNL     1     105.719  23.280  21.231  1.00  0.00     0.032 C 
HETATM    8  C5  UNL     1     107.131  22.819  21.241  1.00  0.00     0.002 C 
HETATM    9  C6  UNL     1     108.168  23.759  20.755  1.00  0.00     0.000 C 
HETATM   10  C7  UNL     1     108.535  23.628  19.306  1.00  0.00     0.007 C 
HETATM   11  C8  UNL     1     107.350  23.018  18.533  1.00  0.00     0.073 C 
HETATM   12  C9  UNL     1     106.180  23.910  18.886  1.00  0.00     0.117 C 
BRANCH  12  13
HETATM   13  N3  UNL     1     106.111  24.925  18.253  1.00  0.00    -0.288 NA
BRANCH  13  14
HETATM   14  O1  UNL     1     105.940  25.873  17.505  1.00  0.00    -0.199 OA
BRANCH  14  15
HETATM   15  C10 UNL     1     106.905  26.566  16.666  1.00  0.00     0.330 C 
BRANCH  15  16
HETATM   16  C11 UNL     1     107.789  27.281  17.685  1.00  0.00     0.201 C 
HETATM   17  O2  UNL     1     107.446  28.362  18.174  1.00  0.00    -0.646 OA
HETATM   18  O3  UNL     1     108.943  26.666  18.015  1.00  0.00    -0.646 OA
ENDBRANCH  15  16
ENDBRANCH  14  15
ENDBRANCH  13  14
ENDBRANCH  12  13
ENDBRANCH   4   6
ENDBRANCH   3   4
BRANCH   3  19
HETATM   19  C12 UNL     1     103.095  21.183  20.355  1.00  0.00     0.167 C 
HETATM   20  O4  UNL     1     103.774  20.476  19.577  1.00  0.00    -0.294 OA
BRANCH  19  21
HETATM   21  C13 UNL     1     102.487  20.519  21.479  1.00  0.00     0.058 A 
HETATM   22  C14 UNL     1     102.135  21.480  22.657  1.00  0.00     0.013 A 
HETATM   23  C15 UNL     1     103.179  20.447  22.812  1.00  0.00     0.013 A 
ENDBRANCH  19  21
ENDBRANCH   3  19
TORSDOF 8
ENDMDL
