MODEL 1
REMARK VINA RESULT: -9.212583285      0.000      0.000
REMARK  11 active torsions:
REMARK  status: ('A' for Active; 'I' for Inactive)
REMARK    1  A    between atoms: C2_2  and  C3_3 
REMARK    2  A    between atoms: C3_3  and  C5_5 
REMARK    3  A    between atoms: C5_5  and  N1_6 
REMARK    4  A    between atoms: C5_5  and  C26_34 
REMARK       I    between atoms: N1_6  and  C6_8 
REMARK    5  A    between atoms: C6_8  and  C7_10 
REMARK    6  A    between atoms: C7_10  and  C8_11 
REMARK    7  A    between atoms: C8_11  and  C9_12 
REMARK    8  A    between atoms: C9_12  and  C10_14 
REMARK    9  A    between atoms: C20_24  and  O3_25 
REMARK   10  A    between atoms: C20_24  and  C21_27 
REMARK       I    between atoms: C26_34  and  N2_36 
REMARK   11  A    between atoms: N2_36  and  C27_38 
ROOT
HETATM    1  C9  UNL     1      -9.967  15.378  30.923  1.00  0.00     0.132 C 
HETATM    2  O2  UNL     1      -8.933  14.734  31.184  1.00  0.00    -0.298 OA
ENDROOT
BRANCH   1   3
HETATM    3  C8  UNL     1     -10.719  15.840  32.105  1.00  0.00     0.088 C 
BRANCH   3   4
HETATM    4  C7  UNL     1     -11.136  14.742  33.021  1.00  0.00     0.110 C 
BRANCH   4   5
HETATM    5  C6  UNL     1     -12.484  14.245  32.531  1.00  0.00     0.218 C 
HETATM    6  N1  UNL     1     -12.548  13.011  31.865  1.00  0.00    -0.347 N 
ATOM      7  H1  UNL     1     -11.652  12.539  31.745  1.00  0.00     0.163 HD
HETATM    8  O1  UNL     1     -13.513  14.925  32.723  1.00  0.00    -0.274 OA
BRANCH   6   9
HETATM    9  C5  UNL     1     -13.678  12.312  31.326  1.00  0.00     0.180 C 
BRANCH   9  10
HETATM   10  C3  UNL     1     -13.730  12.262  29.816  1.00  0.00     0.013 C 
HETATM   11  C4  UNL     1     -14.279  13.587  29.270  1.00  0.00     0.012 C 
BRANCH  10  12
HETATM   12  C2  UNL     1     -12.395  12.092  29.158  1.00  0.00     0.002 C 
HETATM   13  C1  UNL     1     -12.407  12.423  27.672  1.00  0.00     0.005 C 
ENDBRANCH  10  12
ENDBRANCH   9  10
BRANCH   9  14
HETATM   14  C26 UNL     1     -13.852  10.988  31.907  1.00  0.00     0.241 C 
HETATM   15  O6  UNL     1     -14.831  10.703  32.687  1.00  0.00    -0.271 OA
HETATM   16  N2  UNL     1     -12.961   9.926  31.646  1.00  0.00    -0.351 N 
ATOM     17  H2  UNL     1     -12.169  10.110  31.030  1.00  0.00     0.163 HD
BRANCH  16  18
HETATM   18  C27 UNL     1     -13.092   8.600  32.190  1.00  0.00     0.022 C 
HETATM   19  C28 UNL     1     -12.067   7.704  31.507  1.00  0.00     0.037 C 
HETATM   20  C29 UNL     1     -14.476   8.082  31.875  1.00  0.00     0.037 C 
HETATM   21  C30 UNL     1     -12.847   8.650  33.675  1.00  0.00     0.037 C 
ENDBRANCH  16  18
ENDBRANCH   9  14
ENDBRANCH   6   9
ENDBRANCH   4   5
ENDBRANCH   3   4
ENDBRANCH   1   3
BRANCH   1  22
HETATM   22  C10 UNL     1     -10.333  15.612  29.547  1.00  0.00     0.064 C 
HETATM   23  C11 UNL     1     -11.805  15.705  29.235  1.00  0.00     0.013 C 
HETATM   24  C12 UNL     1     -11.841  16.421  27.880  1.00  0.00     0.011 C 
HETATM   25  C13 UNL     1     -10.385  16.705  27.516  1.00  0.00    -0.031 C 
HETATM   26  C14 UNL     1     -10.170  17.869  26.641  1.00  0.00     0.019 C 
HETATM   27  C19 UNL     1      -9.721  15.562  26.810  1.00  0.00     0.019 C 
HETATM   28  C24 UNL     1      -9.863  16.911  28.947  1.00  0.00    -0.026 C 
HETATM   29  C15 UNL     1      -8.867  17.511  25.876  1.00  0.00     0.039 C 
HETATM   30  C16 UNL     1      -9.203  16.152  25.484  1.00  0.00    -0.040 C 
HETATM   31  C20 UNL     1      -7.710  17.925  26.643  1.00  0.00     0.150 C 
HETATM   32  C17 UNL     1     -10.442  16.271  24.561  1.00  0.00     0.015 C 
HETATM   33  C18 UNL     1      -8.248  15.283  24.786  1.00  0.00     0.015 C 
HETATM   34  C22 UNL     1      -7.880  18.185  28.115  1.00  0.00     0.050 C 
HETATM   35  C23 UNL     1      -8.369  17.069  28.944  1.00  0.00     0.014 C 
HETATM   36  C25 UNL     1     -10.578  18.112  29.497  1.00  0.00     0.016 C 
BRANCH  31  37
HETATM   37  O3  UNL     1      -7.463  19.274  26.183  1.00  0.00    -0.378 OA
ATOM     38  H3  UNL     1      -6.874  19.155  25.447  1.00  0.00     0.211 HD
ENDBRANCH  31  37
BRANCH  31  39
HETATM   39  C21 UNL     1      -6.404  17.277  26.409  1.00  0.00     0.209 C 
HETATM   40  O4  UNL     1      -5.951  16.436  27.223  1.00  0.00    -0.646 OA
HETATM   41  O5  UNL     1      -5.572  17.515  25.318  1.00  0.00    -0.646 OA
ENDBRANCH  31  39
ENDBRANCH   1  22
TORSDOF 11
ENDMDL
MODEL 2
REMARK VINA RESULT: -8.905988595      2.136      3.522
REMARK  11 active torsions:
REMARK  status: ('A' for Active; 'I' for Inactive)
REMARK    1  A    between atoms: C2_2  and  C3_3 
REMARK    2  A    between atoms: C3_3  and  C5_5 
REMARK    3  A    between atoms: C5_5  and  N1_6 
REMARK    4  A    between atoms: C5_5  and  C26_34 
REMARK       I    between atoms: N1_6  and  C6_8 
REMARK    5  A    between atoms: C6_8  and  C7_10 
REMARK    6  A    between atoms: C7_10  and  C8_11 
REMARK    7  A    between atoms: C8_11  and  C9_12 
REMARK    8  A    between atoms: C9_12  and  C10_14 
REMARK    9  A    between atoms: C20_24  and  O3_25 
REMARK   10  A    between atoms: C20_24  and  C21_27 
REMARK       I    between atoms: C26_34  and  N2_36 
REMARK   11  A    between atoms: N2_36  and  C27_38 
ROOT
HETATM    1  C9  UNL     1     -10.943  16.298  33.412  1.00  0.00     0.132 C 
HETATM    2  O2  UNL     1     -10.848  16.683  34.593  1.00  0.00    -0.298 OA
ENDROOT
BRANCH   1   3
HETATM    3  C8  UNL     1     -12.070  15.383  33.152  1.00  0.00     0.088 C 
BRANCH   3   4
HETATM    4  C7  UNL     1     -11.992  14.102  33.909  1.00  0.00     0.110 C 
BRANCH   4   5
HETATM    5  C6  UNL     1     -13.037  13.174  33.317  1.00  0.00     0.218 C 
HETATM    6  N1  UNL     1     -12.815  12.631  32.042  1.00  0.00    -0.347 N 
ATOM      7  H1  UNL     1     -11.948  12.925  31.593  1.00  0.00     0.163 HD
HETATM    8  O1  UNL     1     -14.073  12.902  33.959  1.00  0.00    -0.274 OA
BRANCH   6   9
HETATM    9  C5  UNL     1     -13.619  11.727  31.273  1.00  0.00     0.180 C 
BRANCH   9  10
HETATM   10  C3  UNL     1     -13.757  12.090  29.812  1.00  0.00     0.013 C 
HETATM   11  C4  UNL     1     -14.139  13.570  29.676  1.00  0.00     0.012 C 
BRANCH  10  12
HETATM   12  C2  UNL     1     -12.496  11.938  29.016  1.00  0.00     0.002 C 
HETATM   13  C1  UNL     1     -12.688  12.187  27.527  1.00  0.00     0.005 C 
ENDBRANCH  10  12
ENDBRANCH   9  10
BRANCH   9  14
HETATM   14  C26 UNL     1     -13.220  10.336  31.438  1.00  0.00     0.241 C 
HETATM   15  O6  UNL     1     -12.089   9.892  31.023  1.00  0.00    -0.271 OA
HETATM   16  N2  UNL     1     -14.045   9.384  32.071  1.00  0.00    -0.351 N 
ATOM     17  H2  UNL     1     -14.953   9.696  32.416  1.00  0.00     0.163 HD
BRANCH  16  18
HETATM   18  C27 UNL     1     -13.694   8.001  32.263  1.00  0.00     0.022 C 
HETATM   19  C28 UNL     1     -14.979   7.214  32.484  1.00  0.00     0.037 C 
HETATM   20  C29 UNL     1     -12.836   7.887  33.500  1.00  0.00     0.037 C 
HETATM   21  C30 UNL     1     -12.971   7.502  31.040  1.00  0.00     0.037 C 
ENDBRANCH  16  18
ENDBRANCH   9  14
ENDBRANCH   6   9
ENDBRANCH   4   5
ENDBRANCH   3   4
ENDBRANCH   1   3
BRANCH   1  22
HETATM   22  C10 UNL     1      -9.987  16.757  32.432  1.00  0.00     0.064 C 
HETATM   23  C11 UNL     1      -8.637  17.191  32.942  1.00  0.00     0.013 C 
HETATM   24  C12 UNL     1      -7.746  17.133  31.696  1.00  0.00     0.011 C 
HETATM   25  C13 UNL     1      -8.645  16.653  30.559  1.00  0.00    -0.031 C 
HETATM   26  C14 UNL     1      -7.957  15.940  29.469  1.00  0.00     0.019 C 
HETATM   27  C19 UNL     1      -9.388  17.766  29.885  1.00  0.00     0.019 C 
HETATM   28  C24 UNL     1      -9.557  15.746  31.401  1.00  0.00    -0.026 C 
HETATM   29  C15 UNL     1      -8.849  16.225  28.231  1.00  0.00     0.039 C 
HETATM   30  C16 UNL     1      -9.008  17.661  28.394  1.00  0.00    -0.040 C 
HETATM   31  C20 UNL     1      -9.911  15.244  28.146  1.00  0.00     0.150 C 
HETATM   32  C17 UNL     1      -7.586  18.262  28.276  1.00  0.00     0.015 C 
HETATM   33  C18 UNL     1      -9.870  18.455  27.511  1.00  0.00     0.015 C 
HETATM   34  C22 UNL     1     -10.259  14.456  29.380  1.00  0.00     0.050 C 
HETATM   35  C23 UNL     1     -10.688  15.216  30.566  1.00  0.00     0.014 C 
HETATM   36  C25 UNL     1      -8.685  14.660  31.962  1.00  0.00     0.016 C 
BRANCH  31  37
HETATM   37  O3  UNL     1      -9.336  14.190  27.337  1.00  0.00    -0.378 OA
ATOM     38  H3  UNL     1     -10.007  13.517  27.340  1.00  0.00     0.211 HD
ENDBRANCH  31  37
BRANCH  31  39
HETATM   39  C21 UNL     1     -11.146  15.561  27.404  1.00  0.00     0.209 C 
HETATM   40  O4  UNL     1     -11.195  15.434  26.156  1.00  0.00    -0.646 OA
HETATM   41  O5  UNL     1     -12.333  16.013  27.973  1.00  0.00    -0.646 OA
ENDBRANCH  31  39
ENDBRANCH   1  22
TORSDOF 11
ENDMDL
MODEL 3
REMARK VINA RESULT: -8.889973558      2.039      3.227
REMARK  11 active torsions:
REMARK  status: ('A' for Active; 'I' for Inactive)
REMARK    1  A    between atoms: C2_2  and  C3_3 
REMARK    2  A    between atoms: C3_3  and  C5_5 
REMARK    3  A    between atoms: C5_5  and  N1_6 
REMARK    4  A    between atoms: C5_5  and  C26_34 
REMARK       I    between atoms: N1_6  and  C6_8 
REMARK    5  A    between atoms: C6_8  and  C7_10 
REMARK    6  A    between atoms: C7_10  and  C8_11 
REMARK    7  A    between atoms: C8_11  and  C9_12 
REMARK    8  A    between atoms: C9_12  and  C10_14 
REMARK    9  A    between atoms: C20_24  and  O3_25 
REMARK   10  A    between atoms: C20_24  and  C21_27 
REMARK       I    between atoms: C26_34  and  N2_36 
REMARK   11  A    between atoms: N2_36  and  C27_38 
ROOT
HETATM    1  C9  UNL     1      -8.068  15.173  27.706  1.00  0.00     0.132 C 
HETATM    2  O2  UNL     1      -7.738  13.984  27.876  1.00  0.00    -0.298 OA
ENDROOT
BRANCH   1   3
HETATM    3  C8  UNL     1      -8.067  15.994  28.931  1.00  0.00     0.088 C 
BRANCH   3   4
HETATM    4  C7  UNL     1      -8.637  15.302  30.121  1.00  0.00     0.110 C 
BRANCH   4   5
HETATM    5  C6  UNL     1     -10.140  15.508  30.075  1.00  0.00     0.218 C 
HETATM    6  N1  UNL     1     -10.979  14.388  30.174  1.00  0.00    -0.347 N 
ATOM      7  H1  UNL     1     -10.496  13.493  30.256  1.00  0.00     0.163 HD
HETATM    8  O1  UNL     1     -10.613  16.657  29.954  1.00  0.00    -0.274 OA
BRANCH   6   9
HETATM    9  C5  UNL     1     -12.410  14.306  30.178  1.00  0.00     0.180 C 
BRANCH   9  10
HETATM   10  C3  UNL     1     -13.035  14.075  28.821  1.00  0.00     0.013 C 
HETATM   11  C4  UNL     1     -13.461  15.416  28.208  1.00  0.00     0.012 C 
BRANCH  10  12
HETATM   12  C2  UNL     1     -12.111  13.462  27.813  1.00  0.00     0.002 C 
HETATM   13  C1  UNL     1     -12.512  12.051  27.405  1.00  0.00     0.005 C 
ENDBRANCH  10  12
ENDBRANCH   9  10
BRANCH   9  14
HETATM   14  C26 UNL     1     -12.920  13.362  31.163  1.00  0.00     0.241 C 
HETATM   15  O6  UNL     1     -13.457  13.743  32.265  1.00  0.00    -0.271 OA
HETATM   16  N2  UNL     1     -12.864  11.966  30.971  1.00  0.00    -0.351 N 
ATOM     17  H2  UNL     1     -12.444  11.621  30.108  1.00  0.00     0.163 HD
BRANCH  16  18
HETATM   18  C27 UNL     1     -13.357  10.994  31.911  1.00  0.00     0.022 C 
HETATM   19  C28 UNL     1     -12.760   9.640  31.549  1.00  0.00     0.037 C 
HETATM   20  C29 UNL     1     -14.860  10.913  31.779  1.00  0.00     0.037 C 
HETATM   21  C30 UNL     1     -12.947  11.400  33.302  1.00  0.00     0.037 C 
ENDBRANCH  16  18
ENDBRANCH   9  14
ENDBRANCH   6   9
ENDBRANCH   4   5
ENDBRANCH   3   4
ENDBRANCH   1   3
BRANCH   1  22
HETATM   22  C10 UNL     1      -8.410  15.636  26.382  1.00  0.00     0.064 C 
HETATM   23  C11 UNL     1      -9.863  15.562  25.985  1.00  0.00     0.013 C 
HETATM   24  C12 UNL     1      -9.962  16.537  24.805  1.00  0.00     0.011 C 
HETATM   25  C13 UNL     1      -8.561  17.116  24.619  1.00  0.00    -0.031 C 
HETATM   26  C14 UNL     1      -8.509  18.459  24.019  1.00  0.00     0.019 C 
HETATM   27  C19 UNL     1      -7.685  16.268  23.748  1.00  0.00     0.019 C 
HETATM   28  C24 UNL     1      -8.141  17.091  26.098  1.00  0.00    -0.026 C 
HETATM   29  C15 UNL     1      -7.134  18.481  23.299  1.00  0.00     0.039 C 
HETATM   30  C16 UNL     1      -7.219  17.202  22.613  1.00  0.00    -0.040 C 
HETATM   31  C20 UNL     1      -6.097  18.897  24.221  1.00  0.00     0.150 C 
HETATM   32  C17 UNL     1      -8.421  17.320  21.642  1.00  0.00     0.015 C 
HETATM   33  C18 UNL     1      -6.103  16.662  21.828  1.00  0.00     0.015 C 
HETATM   34  C22 UNL     1      -6.370  18.807  25.697  1.00  0.00     0.050 C 
HETATM   35  C23 UNL     1      -6.697  17.478  26.242  1.00  0.00     0.014 C 
HETATM   36  C25 UNL     1      -9.071  18.020  26.825  1.00  0.00     0.016 C 
BRANCH  31  37
HETATM   37  O3  UNL     1      -6.062  20.335  24.066  1.00  0.00    -0.378 OA
ATOM     38  H3  UNL     1      -5.625  20.460  23.232  1.00  0.00     0.211 HD
ENDBRANCH  31  37
BRANCH  31  39
HETATM   39  C21 UNL     1      -4.691  18.527  23.960  1.00  0.00     0.209 C 
HETATM   40  O4  UNL     1      -3.991  19.194  23.159  1.00  0.00    -0.646 OA
HETATM   41  O5  UNL     1      -4.021  17.455  24.543  1.00  0.00    -0.646 OA
ENDBRANCH  31  39
ENDBRANCH   1  22
TORSDOF 11
ENDMDL
MODEL 4
REMARK VINA RESULT: -8.790318469      4.559     10.427
REMARK  11 active torsions:
REMARK  status: ('A' for Active; 'I' for Inactive)
REMARK    1  A    between atoms: C2_2  and  C3_3 
REMARK    2  A    between atoms: C3_3  and  C5_5 
REMARK    3  A    between atoms: C5_5  and  N1_6 
REMARK    4  A    between atoms: C5_5  and  C26_34 
REMARK       I    between atoms: N1_6  and  C6_8 
REMARK    5  A    between atoms: C6_8  and  C7_10 
REMARK    6  A    between atoms: C7_10  and  C8_11 
REMARK    7  A    between atoms: C8_11  and  C9_12 
REMARK    8  A    between atoms: C9_12  and  C10_14 
REMARK    9  A    between atoms: C20_24  and  O3_25 
REMARK   10  A    between atoms: C20_24  and  C21_27 
REMARK       I    between atoms: C26_34  and  N2_36 
REMARK   11  A    between atoms: N2_36  and  C27_38 
ROOT
HETATM    1  C9  UNL     1      -8.315  16.204  24.617  1.00  0.00     0.132 C 
HETATM    2  O2  UNL     1      -7.929  15.047  24.360  1.00  0.00    -0.298 OA
ENDROOT
BRANCH   1   3
HETATM    3  C8  UNL     1      -8.768  16.976  23.446  1.00  0.00     0.088 C 
BRANCH   3   4
HETATM    4  C7  UNL     1      -7.801  16.977  22.313  1.00  0.00     0.110 C 
BRANCH   4   5
HETATM    5  C6  UNL     1      -6.784  18.066  22.599  1.00  0.00     0.218 C 
HETATM    6  N1  UNL     1      -5.472  17.695  22.931  1.00  0.00    -0.347 N 
ATOM      7  H1  UNL     1      -5.305  16.690  22.970  1.00  0.00     0.163 HD
HETATM    8  O1  UNL     1      -7.115  19.268  22.536  1.00  0.00    -0.274 OA
BRANCH   6   9
HETATM    9  C5  UNL     1      -4.330  18.511  23.224  1.00  0.00     0.180 C 
BRANCH   9  10
HETATM   10  C3  UNL     1      -3.926  18.534  24.681  1.00  0.00     0.013 C 
HETATM   11  C4  UNL     1      -4.833  19.497  25.458  1.00  0.00     0.012 C 
BRANCH  10  12
HETATM   12  C2  UNL     1      -4.065  17.217  25.381  1.00  0.00     0.002 C 
HETATM   13  C1  UNL     1      -4.271  17.349  26.883  1.00  0.00     0.005 C 
ENDBRANCH  10  12
ENDBRANCH   9  10
BRANCH   9  14
HETATM   14  C26 UNL     1      -3.192  18.220  22.363  1.00  0.00     0.241 C 
HETATM   15  O6  UNL     1      -2.599  19.129  21.677  1.00  0.00    -0.271 OA
HETATM   16  N2  UNL     1      -2.659  16.921  22.228  1.00  0.00    -0.351 N 
ATOM     17  H2  UNL     1      -3.101  16.169  22.757  1.00  0.00     0.163 HD
BRANCH  16  18
HETATM   18  C27 UNL     1      -1.534  16.584  21.395  1.00  0.00     0.022 C 
HETATM   19  C28 UNL     1      -1.175  15.127  21.654  1.00  0.00     0.037 C 
HETATM   20  C29 UNL     1      -0.362  17.451  21.791  1.00  0.00     0.037 C 
HETATM   21  C30 UNL     1      -1.910  16.790  19.952  1.00  0.00     0.037 C 
ENDBRANCH  16  18
ENDBRANCH   9  14
ENDBRANCH   6   9
ENDBRANCH   4   5
ENDBRANCH   3   4
ENDBRANCH   1   3
BRANCH   1  22
HETATM   22  C10 UNL     1      -8.290  16.677  25.980  1.00  0.00     0.064 C 
HETATM   23  C11 UNL     1      -7.618  18.002  26.234  1.00  0.00     0.013 C 
HETATM   24  C12 UNL     1      -8.177  18.434  27.595  1.00  0.00     0.011 C 
HETATM   25  C13 UNL     1      -9.145  17.332  28.020  1.00  0.00    -0.031 C 
HETATM   26  C14 UNL     1     -10.232  17.760  28.918  1.00  0.00     0.019 C 
HETATM   27  C19 UNL     1      -8.472  16.202  28.738  1.00  0.00     0.019 C 
HETATM   28  C24 UNL     1      -9.631  16.945  26.614  1.00  0.00    -0.026 C 
HETATM   29  C15 UNL     1     -10.557  16.477  29.729  1.00  0.00     0.039 C 
HETATM   30  C16 UNL     1      -9.203  16.092  30.092  1.00  0.00    -0.040 C 
HETATM   31  C20 UNL     1     -11.521  15.667  29.014  1.00  0.00     0.150 C 
HETATM   32  C17 UNL     1      -8.652  17.247  30.966  1.00  0.00     0.015 C 
HETATM   33  C18 UNL     1      -8.913  14.849  30.817  1.00  0.00     0.015 C 
HETATM   34  C22 UNL     1     -11.704  15.903  27.540  1.00  0.00     0.050 C 
HETATM   35  C23 UNL     1     -10.521  15.737  26.679  1.00  0.00     0.014 C 
HETATM   36  C25 UNL     1     -10.322  18.153  26.051  1.00  0.00     0.016 C 
BRANCH  31  37
HETATM   37  O3  UNL     1     -12.796  16.149  29.500  1.00  0.00    -0.378 OA
ATOM     38  H3  UNL     1     -13.213  15.368  29.846  1.00  0.00     0.211 HD
ENDBRANCH  31  37
BRANCH  31  39
HETATM   39  C21 UNL     1     -11.615  14.220  29.292  1.00  0.00     0.209 C 
HETATM   40  O4  UNL     1     -12.037  13.807  30.400  1.00  0.00    -0.646 OA
HETATM   41  O5  UNL     1     -11.264  13.206  28.405  1.00  0.00    -0.646 OA
ENDBRANCH  31  39
ENDBRANCH   1  22
TORSDOF 11
ENDMDL
MODEL 5
REMARK VINA RESULT: -8.744300676      1.993      3.020
REMARK  11 active torsions:
REMARK  status: ('A' for Active; 'I' for Inactive)
REMARK    1  A    between atoms: C2_2  and  C3_3 
REMARK    2  A    between atoms: C3_3  and  C5_5 
REMARK    3  A    between atoms: C5_5  and  N1_6 
REMARK    4  A    between atoms: C5_5  and  C26_34 
REMARK       I    between atoms: N1_6  and  C6_8 
REMARK    5  A    between atoms: C6_8  and  C7_10 
REMARK    6  A    between atoms: C7_10  and  C8_11 
REMARK    7  A    between atoms: C8_11  and  C9_12 
REMARK    8  A    between atoms: C9_12  and  C10_14 
REMARK    9  A    between atoms: C20_24  and  O3_25 
REMARK   10  A    between atoms: C20_24  and  C21_27 
REMARK       I    between atoms: C26_34  and  N2_36 
REMARK   11  A    between atoms: N2_36  and  C27_38 
ROOT
HETATM    1  C9  UNL     1      -8.401  15.046  28.027  1.00  0.00     0.132 C 
HETATM    2  O2  UNL     1      -7.780  13.972  28.144  1.00  0.00    -0.298 OA
ENDROOT
BRANCH   1   3
HETATM    3  C8  UNL     1      -8.722  15.714  29.302  1.00  0.00     0.088 C 
BRANCH   3   4
HETATM    4  C7  UNL     1      -9.214  14.788  30.360  1.00  0.00     0.110 C 
BRANCH   4   5
HETATM    5  C6  UNL     1     -10.731  14.839  30.322  1.00  0.00     0.218 C 
HETATM    6  N1  UNL     1     -11.455  13.687  30.666  1.00  0.00    -0.347 N 
ATOM      7  H1  UNL     1     -10.886  12.876  30.907  1.00  0.00     0.163 HD
HETATM    8  O1  UNL     1     -11.316  15.891  29.992  1.00  0.00    -0.274 OA
BRANCH   6   9
HETATM    9  C5  UNL     1     -12.871  13.474  30.731  1.00  0.00     0.180 C 
BRANCH   9  10
HETATM   10  C3  UNL     1     -13.475  12.855  29.491  1.00  0.00     0.013 C 
HETATM   11  C4  UNL     1     -13.929  13.958  28.526  1.00  0.00     0.012 C 
BRANCH  10  12
HETATM   12  C2  UNL     1     -12.526  12.008  28.699  1.00  0.00     0.002 C 
HETATM   13  C1  UNL     1     -12.171  12.605  27.344  1.00  0.00     0.005 C 
ENDBRANCH  10  12
ENDBRANCH   9  10
BRANCH   9  14
HETATM   14  C26 UNL     1     -13.280  12.761  31.933  1.00  0.00     0.241 C 
HETATM   15  O6  UNL     1     -14.301  11.982  31.956  1.00  0.00    -0.271 OA
HETATM   16  N2  UNL     1     -12.580  12.871  33.152  1.00  0.00    -0.351 N 
ATOM     17  H2  UNL     1     -11.761  13.479  33.177  1.00  0.00     0.163 HD
BRANCH  16  18
HETATM   18  C27 UNL     1     -12.941  12.183  34.365  1.00  0.00     0.022 C 
HETATM   19  C28 UNL     1     -11.894  12.508  35.422  1.00  0.00     0.037 C 
HETATM   20  C29 UNL     1     -12.920  10.696  34.102  1.00  0.00     0.037 C 
HETATM   21  C30 UNL     1     -14.304  12.647  34.807  1.00  0.00     0.037 C 
ENDBRANCH  16  18
ENDBRANCH   9  14
ENDBRANCH   6   9
ENDBRANCH   4   5
ENDBRANCH   3   4
ENDBRANCH   1   3
BRANCH   1  22
HETATM   22  C10 UNL     1      -8.744  15.532  26.712  1.00  0.00     0.064 C 
HETATM   23  C11 UNL     1     -10.207  15.552  26.348  1.00  0.00     0.013 C 
HETATM   24  C12 UNL     1     -10.271  16.534  25.172  1.00  0.00     0.011 C 
HETATM   25  C13 UNL     1      -8.841  17.022  24.954  1.00  0.00    -0.031 C 
HETATM   26  C14 UNL     1      -8.717  18.361  24.353  1.00  0.00     0.019 C 
HETATM   27  C19 UNL     1      -8.041  16.123  24.062  1.00  0.00     0.019 C 
HETATM   28  C24 UNL     1      -8.389  16.968  26.422  1.00  0.00    -0.026 C 
HETATM   29  C15 UNL     1      -7.360  18.297  23.602  1.00  0.00     0.039 C 
HETATM   30  C16 UNL     1      -7.543  17.027  22.917  1.00  0.00    -0.040 C 
HETATM   31  C20 UNL     1      -6.278  18.644  24.499  1.00  0.00     0.150 C 
HETATM   32  C17 UNL     1      -8.756  17.223  21.974  1.00  0.00     0.015 C 
HETATM   33  C18 UNL     1      -6.482  16.419  22.106  1.00  0.00     0.015 C 
HETATM   34  C22 UNL     1      -6.522  18.568  25.981  1.00  0.00     0.050 C 
HETATM   35  C23 UNL     1      -6.921  17.261  26.533  1.00  0.00     0.014 C 
HETATM   36  C25 UNL     1      -9.241  17.952  27.171  1.00  0.00     0.016 C 
BRANCH  31  37
HETATM   37  O3  UNL     1      -6.155  20.077  24.345  1.00  0.00    -0.378 OA
ATOM     38  H3  UNL     1      -6.249  20.406  25.231  1.00  0.00     0.211 HD
ENDBRANCH  31  37
BRANCH  31  39
HETATM   39  C21 UNL     1      -4.905  18.185  24.206  1.00  0.00     0.209 C 
HETATM   40  O4  UNL     1      -4.343  17.336  24.940  1.00  0.00    -0.646 OA
HETATM   41  O5  UNL     1      -4.122  18.620  23.140  1.00  0.00    -0.646 OA
ENDBRANCH  31  39
ENDBRANCH   1  22
TORSDOF 11
ENDMDL
