MODEL 1
REMARK VINA RESULT: -6.119958579      0.000      0.000
REMARK  10 active torsions:
REMARK  status: ('A' for Active; 'I' for Inactive)
REMARK    1  A    between atoms: N1_1  and  C1_5 
REMARK    2  A    between atoms: C3_7  and  O1_8 
REMARK    3  A    between atoms: O1_8  and  C4_9 
REMARK    4  A    between atoms: C5_10  and  N2_11 
REMARK    5  A    between atoms: C6_15  and  N3_16 
REMARK       I    between atoms: N3_16  and  C7_18 
REMARK    6  A    between atoms: C7_18  and  C8_20 
REMARK    7  A    between atoms: C11_26  and  N5_27 
REMARK    8  A    between atoms: C13_32  and  N6_33 
REMARK    9  A    between atoms: C14_37  and  O3_38 
REMARK   10  A    between atoms: C15_40  and  N7_41 
ROOT
HETATM    1  C4  UNL     1      20.785   3.976  49.433  1.00  0.00     0.187 C 
HETATM    2  C5  UNL     1      20.751   5.202  48.544  1.00  0.00     0.237 C 
HETATM    3  C6  UNL     1      20.353   6.449  49.271  1.00  0.00     0.119 C 
HETATM    4  C12 UNL     1      19.017   6.517  49.844  1.00  0.00     0.062 C 
HETATM    5  C13 UNL     1      18.067   5.397  49.605  1.00  0.00     0.216 C 
HETATM    6  C14 UNL     1      18.472   4.122  50.344  1.00  0.00     0.181 C 
HETATM    7  C15 UNL     1      19.431   3.315  49.531  1.00  0.00     0.244 C 
ENDROOT
BRANCH   3   8
HETATM    8  N3  UNL     1      20.601   7.567  48.373  1.00  0.00    -0.352 N 
HETATM    9  C7  UNL     1      21.363   8.695  48.729  1.00  0.00     0.251 C 
HETATM   10  O2  UNL     1      21.862   8.766  49.868  1.00  0.00    -0.271 OA
ATOM     11  H3  UNL     1      20.202   7.531  47.435  1.00  0.00     0.163 HD
BRANCH   9  12
HETATM   12  C8  UNL     1      21.590   9.802  47.789  1.00  0.00     0.307 C 
HETATM   13  N4  UNL     1      21.481   9.433  46.415  1.00  0.00    -0.060 N 
HETATM   14  C9  UNL     1      21.968  10.643  45.735  1.00  0.00     0.235 C 
ATOM     15  H42 UNL     1      21.962   8.571  46.161  1.00  0.00     0.278 HD
ATOM     16  H41 UNL     1      20.557   9.117  46.124  1.00  0.00     0.278 HD
HETATM   17  C10 UNL     1      23.103  11.151  46.594  1.00  0.00     0.063 C 
HETATM   18  C11 UNL     1      22.983  10.377  47.890  1.00  0.00     0.225 C 
BRANCH  18  19
HETATM   19  N5  UNL     1      23.985   9.348  47.888  1.00  0.00    -0.072 N 
ATOM     20  H53 UNL     1      23.599   8.455  47.582  1.00  0.00     0.274 HD
ATOM     21  H52 UNL     1      24.664   9.493  47.141  1.00  0.00     0.274 HD
ATOM     22  H51 UNL     1      24.443   9.264  48.796  1.00  0.00     0.274 HD
ENDBRANCH  18  19
ENDBRANCH   9  12
ENDBRANCH   3   8
BRANCH   2  23
HETATM   23  N2  UNL     1      20.068   4.968  47.310  1.00  0.00    -0.070 N 
ATOM     24  H23 UNL     1      19.207   4.442  47.461  1.00  0.00     0.274 HD
ATOM     25  H22 UNL     1      19.671   5.832  46.941  1.00  0.00     0.274 HD
ATOM     26  H21 UNL     1      20.660   4.510  46.615  1.00  0.00     0.274 HD
ENDBRANCH   2  23
BRANCH   1  27
HETATM   27  O1  UNL     1      21.638   3.064  48.809  1.00  0.00    -0.376 OA
BRANCH  27  28
HETATM   28  C3  UNL     1      22.965   3.255  49.174  1.00  0.00     0.126 C 
HETATM   29  C2  UNL     1      23.121   2.890  50.653  1.00  0.00     0.065 C 
HETATM   30  C1  UNL     1      24.421   2.188  50.255  1.00  0.00     0.188 C 
HETATM   31  C16 UNL     1      23.843   2.073  48.848  1.00  0.00     0.065 C 
BRANCH  30  32
HETATM   32  N1  UNL     1      24.645   0.937  50.911  1.00  0.00    -0.075 N 
ATOM     33  H13 UNL     1      25.629   0.675  50.848  1.00  0.00     0.274 HD
ATOM     34  H12 UNL     1      24.557   1.045  51.921  1.00  0.00     0.274 HD
ATOM     35  H11 UNL     1      24.052   0.174  50.582  1.00  0.00     0.274 HD
ENDBRANCH  30  32
ENDBRANCH  27  28
ENDBRANCH   1  27
BRANCH   5  36
HETATM   36  N6  UNL     1      16.789   5.791  50.233  1.00  0.00    -0.072 N 
ATOM     37  H63 UNL     1      16.226   4.996  50.536  1.00  0.00     0.274 HD
ATOM     38  H62 UNL     1      16.905   6.220  51.151  1.00  0.00     0.274 HD
ATOM     39  H61 UNL     1      16.311   6.393  49.564  1.00  0.00     0.274 HD
ENDBRANCH   5  36
BRANCH   7  40
HETATM   40  N7  UNL     1      19.611   2.036  50.197  1.00  0.00    -0.070 N 
ATOM     41  H73 UNL     1      20.503   1.594  49.974  1.00  0.00     0.274 HD
ATOM     42  H72 UNL     1      19.755   2.129  51.202  1.00  0.00     0.274 HD
ATOM     43  H71 UNL     1      18.810   1.449  49.963  1.00  0.00     0.274 HD
ENDBRANCH   7  40
BRANCH   6  44
HETATM   44  O3  UNL     1      18.919   4.432  51.605  1.00  0.00    -0.391 OA
ATOM     45  H3  UNL     1      18.444   3.923  52.251  1.00  0.00     0.210 HD
ENDBRANCH   6  44
TORSDOF 10
ENDMDL
MODEL 2
REMARK VINA RESULT: -6.028061547      3.752      5.935
REMARK  10 active torsions:
REMARK  status: ('A' for Active; 'I' for Inactive)
REMARK    1  A    between atoms: N1_1  and  C1_5 
REMARK    2  A    between atoms: C3_7  and  O1_8 
REMARK    3  A    between atoms: O1_8  and  C4_9 
REMARK    4  A    between atoms: C5_10  and  N2_11 
REMARK    5  A    between atoms: C6_15  and  N3_16 
REMARK       I    between atoms: N3_16  and  C7_18 
REMARK    6  A    between atoms: C7_18  and  C8_20 
REMARK    7  A    between atoms: C11_26  and  N5_27 
REMARK    8  A    between atoms: C13_32  and  N6_33 
REMARK    9  A    between atoms: C14_37  and  O3_38 
REMARK   10  A    between atoms: C15_40  and  N7_41 
ROOT
HETATM    1  C4  UNL     1      20.462   8.281  50.540  1.00  0.00     0.187 C 
HETATM    2  C5  UNL     1      21.845   8.871  50.356  1.00  0.00     0.237 C 
HETATM    3  C6  UNL     1      21.865  10.068  49.457  1.00  0.00     0.119 C 
HETATM    4  C12 UNL     1      21.480   9.892  48.064  1.00  0.00     0.062 C 
HETATM    5  C13 UNL     1      21.180   8.524  47.562  1.00  0.00     0.216 C 
HETATM    6  C14 UNL     1      19.880   7.963  48.139  1.00  0.00     0.181 C 
HETATM    7  C15 UNL     1      20.123   7.292  49.452  1.00  0.00     0.244 C 
ENDROOT
BRANCH   3   8
HETATM    8  N3  UNL     1      23.186  10.668  49.569  1.00  0.00    -0.352 N 
HETATM    9  C7  UNL     1      23.596  11.444  50.669  1.00  0.00     0.251 C 
HETATM   10  O2  UNL     1      22.805  11.644  51.610  1.00  0.00    -0.271 OA
ATOM     11  H3  UNL     1      23.851  10.517  48.811  1.00  0.00     0.163 HD
BRANCH   9  12
HETATM   12  C8  UNL     1      24.942  12.030  50.741  1.00  0.00     0.307 C 
HETATM   13  N4  UNL     1      25.919  11.348  49.957  1.00  0.00    -0.060 N 
HETATM   14  C9  UNL     1      27.166  11.994  50.393  1.00  0.00     0.235 C 
ATOM     15  H42 UNL     1      25.907  10.332  50.041  1.00  0.00     0.278 HD
ATOM     16  H41 UNL     1      25.754  11.364  48.951  1.00  0.00     0.278 HD
HETATM   17  C10 UNL     1      26.994  12.228  51.877  1.00  0.00     0.063 C 
HETATM   18  C11 UNL     1      25.521  11.991  52.136  1.00  0.00     0.225 C 
BRANCH  18  19
HETATM   19  N5  UNL     1      25.378  10.695  52.737  1.00  0.00    -0.072 N 
ATOM     20  H53 UNL     1      24.946  10.033  52.092  1.00  0.00     0.274 HD
ATOM     21  H52 UNL     1      26.282  10.238  52.853  1.00  0.00     0.274 HD
ATOM     22  H51 UNL     1      24.868  10.741  53.619  1.00  0.00     0.274 HD
ENDBRANCH  18  19
ENDBRANCH   9  12
ENDBRANCH   3   8
BRANCH   2  23
HETATM   23  N2  UNL     1      22.833   7.876  50.073  1.00  0.00    -0.070 N 
ATOM     24  H23 UNL     1      23.767   8.210  50.312  1.00  0.00     0.274 HD
ATOM     25  H22 UNL     1      22.765   7.095  50.726  1.00  0.00     0.274 HD
ATOM     26  H21 UNL     1      22.796   7.550  49.107  1.00  0.00     0.274 HD
ENDBRANCH   2  23
BRANCH   1  27
HETATM   27  O1  UNL     1      20.496   7.571  51.740  1.00  0.00    -0.376 OA
BRANCH  27  28
HETATM   28  C3  UNL     1      20.204   8.376  52.834  1.00  0.00     0.126 C 
HETATM   29  C2  UNL     1      18.694   8.633  52.860  1.00  0.00     0.065 C 
HETATM   30  C1  UNL     1      18.767   8.403  54.370  1.00  0.00     0.188 C 
HETATM   31  C16 UNL     1      20.035   7.596  54.114  1.00  0.00     0.065 C 
BRANCH  30  32
HETATM   32  N1  UNL     1      17.679   7.646  54.909  1.00  0.00    -0.075 N 
ATOM     33  H13 UNL     1      16.828   7.816  54.373  1.00  0.00     0.274 HD
ATOM     34  H12 UNL     1      17.810   6.653  54.720  1.00  0.00     0.274 HD
ATOM     35  H11 UNL     1      17.508   7.799  55.903  1.00  0.00     0.274 HD
ENDBRANCH  30  32
ENDBRANCH  27  28
ENDBRANCH   1  27
BRANCH   5  36
HETATM   36  N6  UNL     1      20.907   8.659  46.117  1.00  0.00    -0.072 N 
ATOM     37  H63 UNL     1      20.243   7.970  45.764  1.00  0.00     0.274 HD
ATOM     38  H62 UNL     1      20.362   9.490  45.885  1.00  0.00     0.274 HD
ATOM     39  H61 UNL     1      21.811   8.626  45.647  1.00  0.00     0.274 HD
ENDBRANCH   5  36
BRANCH   7  40
HETATM   40  N7  UNL     1      18.898   6.613  49.837  1.00  0.00    -0.070 N 
ATOM     41  H73 UNL     1      18.962   5.598  49.751  1.00  0.00     0.274 HD
ATOM     42  H72 UNL     1      18.722   6.652  50.841  1.00  0.00     0.274 HD
ATOM     43  H71 UNL     1      18.137   7.010  49.286  1.00  0.00     0.274 HD
ENDBRANCH   7  40
BRANCH   6  44
HETATM   44  O3  UNL     1      18.921   8.945  48.175  1.00  0.00    -0.391 OA
ATOM     45  H3  UNL     1      18.912   9.359  49.030  1.00  0.00     0.210 HD
ENDBRANCH   6  44
TORSDOF 10
ENDMDL
MODEL 3
REMARK VINA RESULT: -6.019716836      3.255      5.350
REMARK  10 active torsions:
REMARK  status: ('A' for Active; 'I' for Inactive)
REMARK    1  A    between atoms: N1_1  and  C1_5 
REMARK    2  A    between atoms: C3_7  and  O1_8 
REMARK    3  A    between atoms: O1_8  and  C4_9 
REMARK    4  A    between atoms: C5_10  and  N2_11 
REMARK    5  A    between atoms: C6_15  and  N3_16 
REMARK       I    between atoms: N3_16  and  C7_18 
REMARK    6  A    between atoms: C7_18  and  C8_20 
REMARK    7  A    between atoms: C11_26  and  N5_27 
REMARK    8  A    between atoms: C13_32  and  N6_33 
REMARK    9  A    between atoms: C14_37  and  O3_38 
REMARK   10  A    between atoms: C15_40  and  N7_41 
ROOT
HETATM    1  C4  UNL     1      21.867   6.934  48.857  1.00  0.00     0.187 C 
HETATM    2  C5  UNL     1      20.861   7.807  49.578  1.00  0.00     0.237 C 
HETATM    3  C6  UNL     1      20.259   7.149  50.780  1.00  0.00     0.119 C 
HETATM    4  C12 UNL     1      19.456   5.951  50.582  1.00  0.00     0.062 C 
HETATM    5  C13 UNL     1      19.180   5.483  49.197  1.00  0.00     0.216 C 
HETATM    6  C14 UNL     1      20.429   4.931  48.510  1.00  0.00     0.181 C 
HETATM    7  C15 UNL     1      21.205   6.025  47.851  1.00  0.00     0.244 C 
ENDROOT
BRANCH   3   8
HETATM    8  N3  UNL     1      19.515   8.172  51.502  1.00  0.00    -0.352 N 
HETATM    9  C7  UNL     1      20.120   9.121  52.346  1.00  0.00     0.251 C 
HETATM   10  O2  UNL     1      21.356   9.108  52.502  1.00  0.00    -0.271 OA
ATOM     11  H3  UNL     1      18.502   8.201  51.390  1.00  0.00     0.163 HD
BRANCH   9  12
HETATM   12  C8  UNL     1      19.330  10.137  53.056  1.00  0.00     0.307 C 
HETATM   13  N4  UNL     1      18.030  10.354  52.509  1.00  0.00    -0.060 N 
HETATM   14  C9  UNL     1      17.580  11.540  53.251  1.00  0.00     0.235 C 
ATOM     15  H42 UNL     1      17.998  10.441  51.493  1.00  0.00     0.278 HD
ATOM     16  H41 UNL     1      17.403   9.551  52.556  1.00  0.00     0.278 HD
HETATM   17  C10 UNL     1      18.810  12.407  53.397  1.00  0.00     0.063 C 
HETATM   18  C11 UNL     1      19.964  11.507  53.007  1.00  0.00     0.225 C 
BRANCH  18  19
HETATM   19  N5  UNL     1      20.372  11.859  51.676  1.00  0.00    -0.072 N 
ATOM     20  H53 UNL     1      21.309  11.512  51.472  1.00  0.00     0.274 HD
ATOM     21  H52 UNL     1      19.850  11.333  50.976  1.00  0.00     0.274 HD
ATOM     22  H51 UNL     1      20.304  12.864  51.512  1.00  0.00     0.274 HD
ENDBRANCH  18  19
ENDBRANCH   9  12
ENDBRANCH   3   8
BRANCH   2  23
HETATM   23  N2  UNL     1      19.928   8.422  48.685  1.00  0.00    -0.070 N 
ATOM     24  H23 UNL     1      19.827   7.877  47.828  1.00  0.00     0.274 HD
ATOM     25  H22 UNL     1      18.975   8.348  49.041  1.00  0.00     0.274 HD
ATOM     26  H21 UNL     1      20.167   9.392  48.476  1.00  0.00     0.274 HD
ENDBRANCH   2  23
BRANCH   1  27
HETATM   27  O1  UNL     1      22.695   7.800  48.141  1.00  0.00    -0.376 OA
BRANCH  27  28
HETATM   28  C3  UNL     1      23.267   8.770  48.954  1.00  0.00     0.126 C 
HETATM   29  C2  UNL     1      24.754   8.448  49.124  1.00  0.00     0.065 C 
HETATM   30  C1  UNL     1      25.013   9.943  48.935  1.00  0.00     0.188 C 
HETATM   31  C16 UNL     1      23.680  10.007  48.196  1.00  0.00     0.065 C 
BRANCH  30  32
HETATM   32  N1  UNL     1      26.155  10.252  48.129  1.00  0.00    -0.075 N 
ATOM     33  H13 UNL     1      26.768  10.904  48.619  1.00  0.00     0.274 HD
ATOM     34  H12 UNL     1      26.773   9.443  48.066  1.00  0.00     0.274 HD
ATOM     35  H11 UNL     1      25.933  10.603  47.198  1.00  0.00     0.274 HD
ENDBRANCH  30  32
ENDBRANCH  27  28
ENDBRANCH   1  27
BRANCH   5  36
HETATM   36  N6  UNL     1      18.286   4.314  49.321  1.00  0.00    -0.072 N 
ATOM     37  H63 UNL     1      18.243   3.937  50.268  1.00  0.00     0.274 HD
ATOM     38  H62 UNL     1      17.298   4.549  49.233  1.00  0.00     0.274 HD
ATOM     39  H61 UNL     1      18.602   3.634  48.629  1.00  0.00     0.274 HD
ENDBRANCH   5  36
BRANCH   7  40
HETATM   40  N7  UNL     1      22.253   5.409  47.054  1.00  0.00    -0.070 N 
ATOM     41  H73 UNL     1      22.810   6.090  46.538  1.00  0.00     0.274 HD
ATOM     42  H72 UNL     1      23.006   5.021  47.622  1.00  0.00     0.274 HD
ATOM     43  H71 UNL     1      21.814   4.715  46.449  1.00  0.00     0.274 HD
ENDBRANCH   7  40
BRANCH   6  44
HETATM   44  O3  UNL     1      21.157   4.175  49.395  1.00  0.00    -0.391 OA
ATOM     45  H3  UNL     1      20.772   3.310  49.476  1.00  0.00     0.210 HD
ENDBRANCH   6  44
TORSDOF 10
ENDMDL
MODEL 4
REMARK VINA RESULT: -6.013851770      3.517      6.319
REMARK  10 active torsions:
REMARK  status: ('A' for Active; 'I' for Inactive)
REMARK    1  A    between atoms: N1_1  and  C1_5 
REMARK    2  A    between atoms: C3_7  and  O1_8 
REMARK    3  A    between atoms: O1_8  and  C4_9 
REMARK    4  A    between atoms: C5_10  and  N2_11 
REMARK    5  A    between atoms: C6_15  and  N3_16 
REMARK       I    between atoms: N3_16  and  C7_18 
REMARK    6  A    between atoms: C7_18  and  C8_20 
REMARK    7  A    between atoms: C11_26  and  N5_27 
REMARK    8  A    between atoms: C13_32  and  N6_33 
REMARK    9  A    between atoms: C14_37  and  O3_38 
REMARK   10  A    between atoms: C15_40  and  N7_41 
ROOT
HETATM    1  C4  UNL     1      23.335   7.793  49.003  1.00  0.00     0.187 C 
HETATM    2  C5  UNL     1      22.628   8.632  50.047  1.00  0.00     0.237 C 
HETATM    3  C6  UNL     1      22.565  10.086  49.697  1.00  0.00     0.119 C 
HETATM    4  C12 UNL     1      23.815  10.824  49.587  1.00  0.00     0.062 C 
HETATM    5  C13 UNL     1      25.093  10.140  49.921  1.00  0.00     0.216 C 
HETATM    6  C14 UNL     1      25.469   9.072  48.893  1.00  0.00     0.181 C 
HETATM    7  C15 UNL     1      24.828   7.764  49.223  1.00  0.00     0.244 C 
ENDROOT
BRANCH   3   8
HETATM    8  N3  UNL     1      21.659  10.718  50.644  1.00  0.00    -0.352 N 
HETATM    9  C7  UNL     1      20.273  10.476  50.674  1.00  0.00     0.251 C 
HETATM   10  O2  UNL     1      19.769   9.683  49.856  1.00  0.00    -0.271 OA
ATOM     11  H3  UNL     1      22.049  11.371  51.323  1.00  0.00     0.163 HD
BRANCH   9  12
HETATM   12  C8  UNL     1      19.395  11.136  51.650  1.00  0.00     0.307 C 
HETATM   13  N4  UNL     1      20.072  12.025  52.538  1.00  0.00    -0.060 N 
HETATM   14  C9  UNL     1      19.017  12.347  53.511  1.00  0.00     0.235 C 
ATOM     15  H42 UNL     1      20.934  11.658  52.941  1.00  0.00     0.278 HD
ATOM     16  H41 UNL     1      20.508  12.831  52.093  1.00  0.00     0.278 HD
HETATM   17  C10 UNL     1      18.250  11.058  53.705  1.00  0.00     0.063 C 
HETATM   18  C11 UNL     1      18.718  10.158  52.581  1.00  0.00     0.225 C 
BRANCH  18  19
HETATM   19  N5  UNL     1      19.648   9.211  53.128  1.00  0.00    -0.072 N 
ATOM     20  H53 UNL     1      19.168   8.478  53.650  1.00  0.00     0.274 HD
ATOM     21  H52 UNL     1      20.068   8.637  52.396  1.00  0.00     0.274 HD
ATOM     22  H51 UNL     1      20.362   9.666  53.698  1.00  0.00     0.274 HD
ENDBRANCH  18  19
ENDBRANCH   9  12
ENDBRANCH   3   8
BRANCH   2  23
HETATM   23  N2  UNL     1      23.067   8.341  51.377  1.00  0.00    -0.070 N 
ATOM     24  H23 UNL     1      22.378   8.644  52.065  1.00  0.00     0.274 HD
ATOM     25  H22 UNL     1      23.050   7.337  51.557  1.00  0.00     0.274 HD
ATOM     26  H21 UNL     1      23.986   8.734  51.581  1.00  0.00     0.274 HD
ENDBRANCH   2  23
BRANCH   1  27
HETATM   27  O1  UNL     1      22.873   6.487  49.172  1.00  0.00    -0.376 OA
BRANCH  27  28
HETATM   28  C3  UNL     1      21.664   6.272  48.522  1.00  0.00     0.126 C 
HETATM   29  C2  UNL     1      21.871   5.195  47.453  1.00  0.00     0.065 C 
HETATM   30  C1  UNL     1      20.535   4.606  47.910  1.00  0.00     0.188 C 
HETATM   31  C16 UNL     1      20.768   5.299  49.248  1.00  0.00     0.065 C 
BRANCH  30  32
HETATM   32  N1  UNL     1      20.507   3.177  47.977  1.00  0.00    -0.075 N 
ATOM     33  H13 UNL     1      21.340   2.785  47.538  1.00  0.00     0.274 HD
ATOM     34  H12 UNL     1      20.651   2.864  48.937  1.00  0.00     0.274 HD
ATOM     35  H11 UNL     1      19.667   2.751  47.587  1.00  0.00     0.274 HD
ENDBRANCH  30  32
ENDBRANCH  27  28
ENDBRANCH   1  27
BRANCH   5  36
HETATM   36  N6  UNL     1      26.157  11.156  49.795  1.00  0.00    -0.072 N 
ATOM     37  H63 UNL     1      27.000  10.805  49.340  1.00  0.00     0.274 HD
ATOM     38  H62 UNL     1      25.942  11.885  49.114  1.00  0.00     0.274 HD
ATOM     39  H61 UNL     1      26.325  11.518  50.733  1.00  0.00     0.274 HD
ENDBRANCH   5  36
BRANCH   7  40
HETATM   40  N7  UNL     1      25.386   6.759  48.333  1.00  0.00    -0.070 N 
ATOM     41  H73 UNL     1      26.395   6.653  48.438  1.00  0.00     0.274 HD
ATOM     42  H72 UNL     1      25.123   5.809  48.594  1.00  0.00     0.274 HD
ATOM     43  H71 UNL     1      25.109   7.000  47.382  1.00  0.00     0.274 HD
ENDBRANCH   7  40
BRANCH   6  44
HETATM   44  O3  UNL     1      25.205   9.528  47.625  1.00  0.00    -0.391 OA
ATOM     45  H3  UNL     1      24.267   9.591  47.492  1.00  0.00     0.210 HD
ENDBRANCH   6  44
TORSDOF 10
ENDMDL
MODEL 5
REMARK VINA RESULT: -5.997155523      3.665      6.363
REMARK  10 active torsions:
REMARK  status: ('A' for Active; 'I' for Inactive)
REMARK    1  A    between atoms: N1_1  and  C1_5 
REMARK    2  A    between atoms: C3_7  and  O1_8 
REMARK    3  A    between atoms: O1_8  and  C4_9 
REMARK    4  A    between atoms: C5_10  and  N2_11 
REMARK    5  A    between atoms: C6_15  and  N3_16 
REMARK       I    between atoms: N3_16  and  C7_18 
REMARK    6  A    between atoms: C7_18  and  C8_20 
REMARK    7  A    between atoms: C11_26  and  N5_27 
REMARK    8  A    between atoms: C13_32  and  N6_33 
REMARK    9  A    between atoms: C14_37  and  O3_38 
REMARK   10  A    between atoms: C15_40  and  N7_41 
ROOT
HETATM    1  C4  UNL     1      19.859   8.392  50.697  1.00  0.00     0.187 C 
HETATM    2  C5  UNL     1      21.331   8.575  51.003  1.00  0.00     0.237 C 
HETATM    3  C6  UNL     1      22.093   9.215  49.885  1.00  0.00     0.119 C 
HETATM    4  C12 UNL     1      22.187   8.505  48.618  1.00  0.00     0.062 C 
HETATM    5  C13 UNL     1      21.613   7.137  48.509  1.00  0.00     0.216 C 
HETATM    6  C14 UNL     1      20.084   7.141  48.556  1.00  0.00     0.181 C 
HETATM    7  C15 UNL     1      19.593   7.099  49.966  1.00  0.00     0.244 C 
ENDROOT
BRANCH   3   8
HETATM    8  N3  UNL     1      23.412   9.552  50.401  1.00  0.00    -0.352 N 
HETATM    9  C7  UNL     1      24.076  10.757  50.109  1.00  0.00     0.251 C 
HETATM   10  O2  UNL     1      23.529  11.599  49.371  1.00  0.00    -0.271 OA
ATOM     11  H3  UNL     1      23.879   8.879  51.008  1.00  0.00     0.163 HD
BRANCH   9  12
HETATM   12  C8  UNL     1      25.407  11.057  50.654  1.00  0.00     0.307 C 
HETATM   13  N4  UNL     1      25.794  12.425  50.532  1.00  0.00    -0.060 N 
HETATM   14  C9  UNL     1      27.207  12.381  50.936  1.00  0.00     0.235 C 
ATOM     15  H42 UNL     1      25.618  12.844  49.619  1.00  0.00     0.278 HD
ATOM     16  H41 UNL     1      25.217  13.085  51.053  1.00  0.00     0.278 HD
HETATM   17  C10 UNL     1      27.743  11.088  50.362  1.00  0.00     0.063 C 
HETATM   18  C11 UNL     1      26.511  10.316  49.939  1.00  0.00     0.225 C 
BRANCH  18  19
HETATM   19  N5  UNL     1      26.389  10.423  48.512  1.00  0.00    -0.072 N 
ATOM     20  H53 UNL     1      26.491  11.390  48.203  1.00  0.00     0.274 HD
ATOM     21  H52 UNL     1      27.195  10.017  48.038  1.00  0.00     0.274 HD
ATOM     22  H51 UNL     1      25.516  10.016  48.175  1.00  0.00     0.274 HD
ENDBRANCH  18  19
ENDBRANCH   9  12
ENDBRANCH   3   8
BRANCH   2  23
HETATM   23  N2  UNL     1      21.927   7.400  51.557  1.00  0.00    -0.070 N 
ATOM     24  H23 UNL     1      21.440   7.107  52.404  1.00  0.00     0.274 HD
ATOM     25  H22 UNL     1      21.744   6.585  50.972  1.00  0.00     0.274 HD
ATOM     26  H21 UNL     1      22.927   7.511  51.728  1.00  0.00     0.274 HD
ENDBRANCH   2  23
BRANCH   1  27
HETATM   27  O1  UNL     1      19.211   8.304  51.929  1.00  0.00    -0.376 OA
BRANCH  27  28
HETATM   28  C3  UNL     1      19.552   9.350  52.777  1.00  0.00     0.126 C 
HETATM   29  C2  UNL     1      19.153  10.669  52.109  1.00  0.00     0.065 C 
HETATM   30  C1  UNL     1      18.636  11.108  53.480  1.00  0.00     0.188 C 
HETATM   31  C16 UNL     1      18.503   9.628  53.824  1.00  0.00     0.065 C 
BRANCH  30  32
HETATM   32  N1  UNL     1      17.398  11.825  53.446  1.00  0.00    -0.075 N 
ATOM     33  H13 UNL     1      16.882  11.602  52.595  1.00  0.00     0.274 HD
ATOM     34  H12 UNL     1      16.754  11.452  54.144  1.00  0.00     0.274 HD
ATOM     35  H11 UNL     1      17.490  12.835  53.552  1.00  0.00     0.274 HD
ENDBRANCH  30  32
ENDBRANCH  27  28
ENDBRANCH   1  27
BRANCH   5  36
HETATM   36  N6  UNL     1      21.933   6.656  47.150  1.00  0.00    -0.072 N 
ATOM     37  H63 UNL     1      22.913   6.398  47.033  1.00  0.00     0.274 HD
ATOM     38  H62 UNL     1      21.537   5.740  46.941  1.00  0.00     0.274 HD
ATOM     39  H61 UNL     1      21.628   7.385  46.505  1.00  0.00     0.274 HD
ENDBRANCH   5  36
BRANCH   7  40
HETATM   40  N7  UNL     1      18.154   6.899  49.929  1.00  0.00    -0.070 N 
ATOM     41  H73 UNL     1      17.648   7.543  50.538  1.00  0.00     0.274 HD
ATOM     42  H72 UNL     1      17.736   7.193  49.046  1.00  0.00     0.274 HD
ATOM     43  H71 UNL     1      17.971   5.920  50.148  1.00  0.00     0.274 HD
ENDBRANCH   7  40
BRANCH   6  44
HETATM   44  O3  UNL     1      19.595   8.189  47.816  1.00  0.00    -0.391 OA
ATOM     45  H3  UNL     1      19.385   7.896  46.938  1.00  0.00     0.210 HD
ENDBRANCH   6  44
TORSDOF 10
ENDMDL
