MODEL 1
REMARK VINA RESULT: -3.114285237      0.000      0.000
REMARK  1 active torsions:
REMARK  status: ('A' for Active; 'I' for Inactive)
REMARK    1  A    between atoms: N1_1  and  N2_4 
ROOT
HETATM    1  N2  UNL     1      55.975  38.957  44.867  1.00  0.00    -0.159 N 
HETATM    2  C1  UNL     1      56.585  40.141  45.038  1.00  0.00     0.351 A 
HETATM    3  O1  UNL     1      57.379  40.541  44.159  1.00  0.00    -0.244 OA
HETATM    4  N3  UNL     1      56.350  40.892  46.130  1.00  0.00    -0.283 N 
ATOM      5  H3  UNL     1      56.830  41.787  46.226  1.00  0.00     0.173 HD
HETATM    6  C2  UNL     1      55.505  40.501  47.099  1.00  0.00     0.183 A 
HETATM    7  S1  UNL     1      55.225  41.422  48.429  1.00  0.00    -0.040 SA
HETATM    8  N4  UNL     1      54.894  39.314  46.929  1.00  0.00    -0.283 N 
ATOM      9  H4  UNL     1      54.244  38.977  47.640  1.00  0.00     0.173 HD
HETATM   10  C3  UNL     1      55.129  38.564  45.835  1.00  0.00     0.351 A 
HETATM   11  O2  UNL     1      54.557  37.463  45.686  1.00  0.00    -0.244 OA
ENDROOT
BRANCH   1  12
HETATM   12  N1  UNL     1      56.242  38.206  43.722  1.00  0.00    -0.330 N 
ATOM     13  H12 UNL     1      56.729  38.574  42.905  1.00  0.00     0.177 HD
ATOM     14  H11 UNL     1      55.941  37.232  43.679  1.00  0.00     0.177 HD
ENDBRANCH   1  12
TORSDOF 1
ENDMDL
MODEL 2
REMARK VINA RESULT: -3.004900257      7.535      8.408
REMARK  1 active torsions:
REMARK  status: ('A' for Active; 'I' for Inactive)
REMARK    1  A    between atoms: N1_1  and  N2_4 
ROOT
HETATM    1  N2  UNL     1      49.276  33.376  43.455  1.00  0.00    -0.159 N 
HETATM    2  C1  UNL     1      50.302  34.157  43.080  1.00  0.00     0.351 A 
HETATM    3  O1  UNL     1      50.873  33.920  41.993  1.00  0.00    -0.244 OA
HETATM    4  N3  UNL     1      50.715  35.180  43.853  1.00  0.00    -0.283 N 
ATOM      5  H3  UNL     1      51.497  35.753  43.535  1.00  0.00     0.173 HD
HETATM    6  C2  UNL     1      50.131  35.470  45.028  1.00  0.00     0.183 A 
HETATM    7  S1  UNL     1      50.642  36.718  45.964  1.00  0.00    -0.040 SA
HETATM    8  N4  UNL     1      49.104  34.688  45.405  1.00  0.00    -0.283 N 
ATOM      9  H4  UNL     1      48.631  34.871  46.290  1.00  0.00     0.173 HD
HETATM   10  C3  UNL     1      48.691  33.665  44.630  1.00  0.00     0.351 A 
HETATM   11  O2  UNL     1      47.735  32.944  44.988  1.00  0.00    -0.244 OA
ENDROOT
BRANCH   1  12
HETATM   12  N1  UNL     1      48.875  32.326  42.629  1.00  0.00    -0.330 N 
ATOM     13  H12 UNL     1      48.637  31.396  42.972  1.00  0.00     0.177 HD
ATOM     14  H11 UNL     1      48.812  32.476  41.622  1.00  0.00     0.177 HD
ENDBRANCH   1  12
TORSDOF 1
ENDMDL
MODEL 3
REMARK VINA RESULT: -2.923330556      7.538      8.705
REMARK  1 active torsions:
REMARK  status: ('A' for Active; 'I' for Inactive)
REMARK    1  A    between atoms: N1_1  and  N2_4 
ROOT
HETATM    1  N2  UNL     1      49.291  33.383  43.443  1.00  0.00    -0.159 N 
HETATM    2  C1  UNL     1      48.680  33.650  44.609  1.00  0.00     0.351 A 
HETATM    3  O1  UNL     1      47.718  32.934  44.962  1.00  0.00    -0.244 OA
HETATM    4  N3  UNL     1      49.091  34.667  45.391  1.00  0.00    -0.283 N 
ATOM      5  H3  UNL     1      48.604  34.839  46.270  1.00  0.00     0.173 HD
HETATM    6  C2  UNL     1      50.120  35.461  45.051  1.00  0.00     0.183 A 
HETATM    7  S1  UNL     1      50.613  36.699  46.009  1.00  0.00    -0.040 SA
HETATM    8  N4  UNL     1      50.732  35.194  43.882  1.00  0.00    -0.283 N 
ATOM      9  H4  UNL     1      51.518  35.772  43.584  1.00  0.00     0.173 HD
HETATM   10  C3  UNL     1      50.321  34.177  43.101  1.00  0.00     0.351 A 
HETATM   11  O2  UNL     1      50.896  33.936  42.018  1.00  0.00    -0.244 OA
ENDROOT
BRANCH   1  12
HETATM   12  N1  UNL     1      48.839  32.322  42.659  1.00  0.00    -0.330 N 
ATOM     13  H12 UNL     1      48.578  31.411  43.036  1.00  0.00     0.177 HD
ATOM     14  H11 UNL     1      48.760  32.442  41.649  1.00  0.00     0.177 HD
ENDBRANCH   1  12
TORSDOF 1
ENDMDL
MODEL 4
REMARK VINA RESULT: -2.518498240      2.534      3.140
REMARK  1 active torsions:
REMARK  status: ('A' for Active; 'I' for Inactive)
REMARK    1  A    between atoms: N1_1  and  N2_4 
ROOT
HETATM    1  N2  UNL     1      56.614  40.123  45.055  1.00  0.00    -0.159 N 
HETATM    2  C1  UNL     1      56.643  39.387  43.931  1.00  0.00     0.351 A 
HETATM    3  O1  UNL     1      57.361  39.769  42.981  1.00  0.00    -0.244 OA
HETATM    4  N3  UNL     1      55.917  38.259  43.821  1.00  0.00    -0.283 N 
ATOM      5  H3  UNL     1      55.964  37.725  42.953  1.00  0.00     0.173 HD
HETATM    6  C2  UNL     1      55.132  37.813  44.817  1.00  0.00     0.183 A 
HETATM    7  S1  UNL     1      54.249  36.436  44.674  1.00  0.00    -0.040 SA
HETATM    8  N4  UNL     1      55.102  38.549  45.943  1.00  0.00    -0.283 N 
ATOM      9  H4  UNL     1      54.520  38.248  46.724  1.00  0.00     0.173 HD
HETATM   10  C3  UNL     1      55.830  39.677  46.052  1.00  0.00     0.351 A 
HETATM   11  O2  UNL     1      55.796  40.355  47.102  1.00  0.00    -0.244 OA
ENDROOT
BRANCH   1  12
HETATM   12  N1  UNL     1      57.379  41.286  45.134  1.00  0.00    -0.330 N 
ATOM     13  H12 UNL     1      57.995  41.610  44.388  1.00  0.00     0.177 HD
ATOM     14  H11 UNL     1      57.337  41.858  45.977  1.00  0.00     0.177 HD
ENDBRANCH   1  12
TORSDOF 1
ENDMDL
MODEL 5
REMARK VINA RESULT: -2.491538183      2.536      3.557
REMARK  1 active torsions:
REMARK  status: ('A' for Active; 'I' for Inactive)
REMARK    1  A    between atoms: N1_1  and  N2_4 
ROOT
HETATM    1  N2  UNL     1      56.635  40.107  45.062  1.00  0.00    -0.159 N 
HETATM    2  C1  UNL     1      55.853  39.669  46.063  1.00  0.00     0.351 A 
HETATM    3  O1  UNL     1      55.814  40.325  47.127  1.00  0.00    -0.244 OA
HETATM    4  N3  UNL     1      55.121  38.547  45.931  1.00  0.00    -0.283 N 
ATOM      5  H3  UNL     1      54.537  38.245  46.712  1.00  0.00     0.173 HD
HETATM    6  C2  UNL     1      55.133  37.812  44.806  1.00  0.00     0.183 A 
HETATM    7  S1  UNL     1      54.238  36.444  44.655  1.00  0.00    -0.040 SA
HETATM    8  N4  UNL     1      55.917  38.249  43.804  1.00  0.00    -0.283 N 
ATOM      9  H4  UNL     1      55.957  37.722  42.932  1.00  0.00     0.173 HD
HETATM   10  C3  UNL     1      56.648  39.373  43.936  1.00  0.00     0.351 A 
HETATM   11  O2  UNL     1      57.373  39.772  43.000  1.00  0.00    -0.244 OA
ENDROOT
BRANCH   1  12
HETATM   12  N1  UNL     1      57.379  41.274  45.233  1.00  0.00    -0.330 N 
ATOM     13  H12 UNL     1      58.369  41.282  45.479  1.00  0.00     0.177 HD
ATOM     14  H11 UNL     1      56.927  42.180  45.111  1.00  0.00     0.177 HD
ENDBRANCH   1  12
TORSDOF 1
ENDMDL
