MODEL 1
REMARK VINA RESULT: -5.032897359      0.000      0.000
REMARK  0 active torsions:
REMARK  status: ('A' for Active; 'I' for Inactive)
ROOT
HETATM    1  N1  UNL     1      54.043  36.746  45.689  1.00  0.00    -0.080 NA
HETATM    2  C1  UNL     1      54.816  37.924  45.777  1.00  0.00     0.150 A 
HETATM    3  N2  UNL     1      54.798  38.676  46.894  1.00  0.00    -0.295 N 
ATOM      4  H2  UNL     1      54.222  38.397  47.688  1.00  0.00     0.172 HD
HETATM    5  C2  UNL     1      55.541  39.795  46.961  1.00  0.00     0.328 A 
HETATM    6  O1  UNL     1      55.526  40.504  48.010  1.00  0.00    -0.247 OA
HETATM    7  N3  UNL     1      56.290  40.149  45.913  1.00  0.00    -0.274 N 
ATOM      8  H3  UNL     1      56.851  40.998  45.972  1.00  0.00     0.173 HD
HETATM    9  C3  UNL     1      56.329  39.416  44.778  1.00  0.00     0.277 A 
HETATM   10  O2  UNL     1      57.042  39.779  43.818  1.00  0.00    -0.266 OA
HETATM   11  C4  UNL     1      55.581  38.262  44.672  1.00  0.00     0.155 A 
HETATM   12  N4  UNL     1      55.606  37.476  43.490  1.00  0.00    -0.093 NA
ENDROOT
TORSDOF 0
ENDMDL
MODEL 2
REMARK VINA RESULT: -4.987868717      6.987      8.112
REMARK  0 active torsions:
REMARK  status: ('A' for Active; 'I' for Inactive)
ROOT
HETATM    1  N1  UNL     1      49.792  36.095  46.832  1.00  0.00    -0.080 NA
HETATM    2  C1  UNL     1      49.555  35.063  45.899  1.00  0.00     0.150 A 
HETATM    3  N2  UNL     1      48.491  34.248  46.031  1.00  0.00    -0.295 N 
ATOM      4  H2  UNL     1      47.846  34.373  46.811  1.00  0.00     0.172 HD
HETATM    5  C2  UNL     1      48.279  33.270  45.132  1.00  0.00     0.328 A 
HETATM    6  O1  UNL     1      47.279  32.503  45.254  1.00  0.00    -0.247 OA
HETATM    7  N3  UNL     1      49.133  33.118  44.116  1.00  0.00    -0.274 N 
ATOM      8  H3  UNL     1      48.965  32.374  43.438  1.00  0.00     0.173 HD
HETATM    9  C3  UNL     1      50.210  33.917  43.956  1.00  0.00     0.277 A 
HETATM   10  O2  UNL     1      50.986  33.744  42.992  1.00  0.00    -0.266 OA
HETATM   11  C4  UNL     1      50.460  34.932  44.858  1.00  0.00     0.155 A 
HETATM   12  N4  UNL     1      51.585  35.786  44.710  1.00  0.00    -0.093 NA
ENDROOT
TORSDOF 0
ENDMDL
MODEL 3
REMARK VINA RESULT: -4.937220226      2.263      4.258
REMARK  0 active torsions:
REMARK  status: ('A' for Active; 'I' for Inactive)
ROOT
HETATM    1  N1  UNL     1      56.910  40.032  44.571  1.00  0.00    -0.080 NA
HETATM    2  C1  UNL     1      56.190  38.838  44.358  1.00  0.00     0.150 A 
HETATM    3  N2  UNL     1      56.156  38.264  43.140  1.00  0.00    -0.295 N 
ATOM      4  H2  UNL     1      56.655  38.692  42.360  1.00  0.00     0.172 HD
HETATM    5  C2  UNL     1      55.465  37.124  42.954  1.00  0.00     0.328 A 
HETATM    6  O1  UNL     1      55.433  36.582  41.810  1.00  0.00    -0.247 OA
HETATM    7  N3  UNL     1      54.817  36.575  43.986  1.00  0.00    -0.274 N 
ATOM      8  H3  UNL     1      54.296  35.711  43.837  1.00  0.00     0.173 HD
HETATM    9  C3  UNL     1      54.830  37.127  45.219  1.00  0.00     0.277 A 
HETATM   10  O2  UNL     1      54.211  36.584  46.159  1.00  0.00    -0.266 OA
HETATM   11  C4  UNL     1      55.528  38.296  45.448  1.00  0.00     0.155 A 
HETATM   12  N4  UNL     1      55.557  38.894  46.735  1.00  0.00    -0.093 NA
ENDROOT
TORSDOF 0
ENDMDL
MODEL 4
REMARK VINA RESULT: -4.906171913      1.655      2.555
REMARK  0 active torsions:
REMARK  status: ('A' for Active; 'I' for Inactive)
ROOT
HETATM    1  N1  UNL     1      57.037  39.775  43.669  1.00  0.00    -0.080 NA
HETATM    2  C1  UNL     1      56.327  39.431  44.839  1.00  0.00     0.150 A 
HETATM    3  N2  UNL     1      56.376  40.219  45.930  1.00  0.00    -0.295 N 
ATOM      4  H2  UNL     1      56.931  41.075  45.916  1.00  0.00     0.172 HD
HETATM    5  C2  UNL     1      55.692  39.877  47.036  1.00  0.00     0.328 A 
HETATM    6  O1  UNL     1      55.737  40.616  48.063  1.00  0.00    -0.247 OA
HETATM    7  N3  UNL     1      54.970  38.752  47.039  1.00  0.00    -0.274 N 
ATOM      8  H3  UNL     1      54.454  38.500  47.882  1.00  0.00     0.173 HD
HETATM    9  C3  UNL     1      54.901  37.940  45.962  1.00  0.00     0.277 A 
HETATM   10  O2  UNL     1      54.215  36.896  46.003  1.00  0.00    -0.266 OA
HETATM   11  C4  UNL     1      55.589  38.259  44.808  1.00  0.00     0.155 A 
HETATM   12  N4  UNL     1      55.532  37.421  43.663  1.00  0.00    -0.093 NA
ENDROOT
TORSDOF 0
ENDMDL
MODEL 5
REMARK VINA RESULT: -4.610515953      6.807      8.383
REMARK  0 active torsions:
REMARK  status: ('A' for Active; 'I' for Inactive)
ROOT
HETATM    1  N1  UNL     1      51.772  35.983  45.083  1.00  0.00    -0.080 NA
HETATM    2  C1  UNL     1      50.805  35.014  44.739  1.00  0.00     0.150 A 
HETATM    3  N2  UNL     1      50.905  34.322  43.589  1.00  0.00    -0.295 N 
ATOM      4  H2  UNL     1      51.685  34.495  42.955  1.00  0.00     0.172 HD
HETATM    5  C2  UNL     1      49.974  33.402  43.277  1.00  0.00     0.328 A 
HETATM    6  O1  UNL     1      50.066  32.749  42.196  1.00  0.00    -0.247 OA
HETATM    7  N3  UNL     1      48.957  33.187  44.117  1.00  0.00    -0.274 N 
ATOM      8  H3  UNL     1      48.256  32.487  43.873  1.00  0.00     0.173 HD
HETATM    9  C3  UNL     1      48.829  33.866  45.278  1.00  0.00     0.277 A 
HETATM   10  O2  UNL     1      47.863  33.637  46.038  1.00  0.00    -0.266 OA
HETATM   11  C4  UNL     1      49.764  34.817  45.632  1.00  0.00     0.155 A 
HETATM   12  N4  UNL     1      49.650  35.543  46.847  1.00  0.00    -0.093 NA
ENDROOT
TORSDOF 0
ENDMDL
