MODEL 1
REMARK VINA RESULT: -5.303776144      0.000      0.000
REMARK  1 active torsions:
REMARK  status: ('A' for Active; 'I' for Inactive)
REMARK    1  A    between atoms: C3_7  and  N3_8 
ROOT
HETATM    1  C1  UNL     1      55.542  37.525  43.516  1.00  0.00     0.166 C 
HETATM    2  N1  UNL     1      55.612  38.337  44.718  1.00  0.00    -0.255 N 
HETATM    3  C2  UNL     1      54.925  38.047  45.840  1.00  0.00     0.344 A 
HETATM    4  O1  UNL     1      54.194  37.038  45.862  1.00  0.00    -0.246 OA
HETATM    5  N2  UNL     1      54.999  38.812  46.951  1.00  0.00    -0.141 N 
ATOM      6  H2  UNL     1      54.462  38.556  47.780  1.00  0.00     0.189 HD
HETATM    7  C3  UNL     1      55.776  39.908  46.969  1.00  0.00     0.683 A 
HETATM    8  N4  UNL     1      56.463  40.203  45.854  1.00  0.00    -0.141 N 
ATOM      9  H4  UNL     1      57.059  41.030  45.844  1.00  0.00     0.189 HD
HETATM   10  C4  UNL     1      56.387  39.437  44.743  1.00  0.00     0.344 A 
HETATM   11  O2  UNL     1      57.037  39.718  43.691  1.00  0.00    -0.246 OA
ENDROOT
BRANCH   7  12
HETATM   12  N3  UNL     1      55.849  40.643  48.031  1.00  0.00    -0.234 N 
ATOM     13  H32 UNL     1      55.913  40.236  48.964  1.00  0.00     0.174 HD
ATOM     14  H31 UNL     1      55.844  41.661  47.957  1.00  0.00     0.174 HD
ENDBRANCH   7  12
TORSDOF 1
ENDMDL
MODEL 2
REMARK VINA RESULT: -5.293752853      0.249      2.477
REMARK  1 active torsions:
REMARK  status: ('A' for Active; 'I' for Inactive)
REMARK    1  A    between atoms: C3_7  and  N3_8 
ROOT
HETATM    1  C1  UNL     1      55.542  37.508  43.618  1.00  0.00     0.166 C 
HETATM    2  N1  UNL     1      55.559  38.311  44.828  1.00  0.00    -0.255 N 
HETATM    3  C2  UNL     1      56.319  39.415  44.964  1.00  0.00     0.344 A 
HETATM    4  O1  UNL     1      57.042  39.776  44.017  1.00  0.00    -0.246 OA
HETATM    5  N2  UNL     1      56.325  40.152  46.097  1.00  0.00    -0.141 N 
ATOM      6  H2  UNL     1      56.914  40.982  46.159  1.00  0.00     0.189 HD
HETATM    7  C3  UNL     1      55.558  39.797  47.141  1.00  0.00     0.683 A 
HETATM    8  N4  UNL     1      54.799  38.697  47.011  1.00  0.00    -0.141 N 
ATOM      9  H4  UNL     1      54.208  38.408  47.791  1.00  0.00     0.189 HD
HETATM   10  C4  UNL     1      54.794  37.961  45.878  1.00  0.00     0.344 A 
HETATM   11  O2  UNL     1      54.076  36.922  45.758  1.00  0.00    -0.246 OA
ENDROOT
BRANCH   7  12
HETATM   12  N3  UNL     1      55.562  40.500  48.227  1.00  0.00    -0.234 N 
ATOM     13  H32 UNL     1      55.524  40.066  49.149  1.00  0.00     0.174 HD
ATOM     14  H31 UNL     1      55.603  41.519  48.184  1.00  0.00     0.174 HD
ENDBRANCH   7  12
TORSDOF 1
ENDMDL
MODEL 3
REMARK VINA RESULT: -4.799292265      1.597      3.372
REMARK  1 active torsions:
REMARK  status: ('A' for Active; 'I' for Inactive)
REMARK    1  A    between atoms: C3_7  and  N3_8 
ROOT
HETATM    1  C1  UNL     1      55.149  38.821  47.032  1.00  0.00     0.166 C 
HETATM    2  N1  UNL     1      55.323  38.300  45.687  1.00  0.00    -0.255 N 
HETATM    3  C2  UNL     1      54.824  37.113  45.291  1.00  0.00     0.344 A 
HETATM    4  O1  UNL     1      54.182  36.421  46.104  1.00  0.00    -0.246 OA
HETATM    5  N2  UNL     1      54.994  36.640  44.037  1.00  0.00    -0.141 N 
ATOM      6  H2  UNL     1      54.599  35.736  43.777  1.00  0.00     0.189 HD
HETATM    7  C3  UNL     1      55.680  37.356  43.130  1.00  0.00     0.683 A 
HETATM    8  N4  UNL     1      56.180  38.540  43.519  1.00  0.00    -0.141 N 
ATOM      9  H4  UNL     1      56.705  39.100  42.848  1.00  0.00     0.189 HD
HETATM   10  C4  UNL     1      56.010  39.010  44.774  1.00  0.00     0.344 A 
HETATM   11  O2  UNL     1      56.484  40.129  45.139  1.00  0.00    -0.246 OA
ENDROOT
BRANCH   7  12
HETATM   12  N3  UNL     1      55.845  36.906  41.928  1.00  0.00    -0.234 N 
ATOM     13  H32 UNL     1      55.054  36.693  41.320  1.00  0.00     0.174 HD
ATOM     14  H31 UNL     1      56.783  36.754  41.557  1.00  0.00     0.174 HD
ENDBRANCH   7  12
TORSDOF 1
ENDMDL
MODEL 4
REMARK VINA RESULT: -4.666899404      1.580      4.109
REMARK  1 active torsions:
REMARK  status: ('A' for Active; 'I' for Inactive)
REMARK    1  A    between atoms: C3_7  and  N3_8 
ROOT
HETATM    1  C1  UNL     1      55.163  38.773  47.073  1.00  0.00     0.166 C 
HETATM    2  N1  UNL     1      55.387  38.319  45.711  1.00  0.00    -0.255 N 
HETATM    3  C2  UNL     1      56.052  39.049  44.796  1.00  0.00     0.344 A 
HETATM    4  O1  UNL     1      56.503  40.165  45.118  1.00  0.00    -0.246 OA
HETATM    5  N2  UNL     1      56.253  38.615  43.532  1.00  0.00    -0.141 N 
ATOM      6  H2  UNL     1      56.763  39.199  42.870  1.00  0.00     0.189 HD
HETATM    7  C3  UNL     1      55.784  37.417  43.145  1.00  0.00     0.683 A 
HETATM    8  N4  UNL     1      55.119  36.684  44.053  1.00  0.00    -0.141 N 
ATOM      9  H4  UNL     1      54.754  35.772  43.782  1.00  0.00     0.189 HD
HETATM   10  C4  UNL     1      54.919  37.121  45.316  1.00  0.00     0.344 A 
HETATM   11  O2  UNL     1      54.291  36.427  46.172  1.00  0.00    -0.246 OA
ENDROOT
BRANCH   7  12
HETATM   12  N3  UNL     1      55.974  36.998  41.936  1.00  0.00    -0.234 N 
ATOM     13  H32 UNL     1      56.758  36.392  41.693  1.00  0.00     0.174 HD
ATOM     14  H31 UNL     1      55.334  37.267  41.188  1.00  0.00     0.174 HD
ENDBRANCH   7  12
TORSDOF 1
ENDMDL
MODEL 5
REMARK VINA RESULT: -4.371836371      1.919      4.005
REMARK  1 active torsions:
REMARK  status: ('A' for Active; 'I' for Inactive)
REMARK    1  A    between atoms: C3_7  and  N3_8 
ROOT
HETATM    1  C1  UNL     1      54.973  38.075  46.305  1.00  0.00     0.166 C 
HETATM    2  N1  UNL     1      55.529  38.260  44.976  1.00  0.00    -0.255 N 
HETATM    3  C2  UNL     1      56.328  39.296  44.653  1.00  0.00     0.344 A 
HETATM    4  O1  UNL     1      56.612  40.139  45.525  1.00  0.00    -0.246 OA
HETATM    5  N2  UNL     1      56.838  39.456  43.412  1.00  0.00    -0.141 N 
ATOM      6  H2  UNL     1      57.440  40.254  43.210  1.00  0.00     0.189 HD
HETATM    7  C3  UNL     1      56.556  38.568  42.444  1.00  0.00     0.683 A 
HETATM    8  N4  UNL     1      55.760  37.534  42.759  1.00  0.00    -0.141 N 
ATOM      9  H4  UNL     1      55.532  36.848  42.040  1.00  0.00     0.189 HD
HETATM   10  C4  UNL     1      55.250  37.376  44.000  1.00  0.00     0.344 A 
HETATM   11  O2  UNL     1      54.498  36.398  44.295  1.00  0.00    -0.246 OA
ENDROOT
BRANCH   7  12
HETATM   12  N3  UNL     1      57.042  38.718  41.255  1.00  0.00    -0.234 N 
ATOM     13  H32 UNL     1      56.463  39.018  40.470  1.00  0.00     0.174 HD
ATOM     14  H31 UNL     1      58.030  38.539  41.072  1.00  0.00     0.174 HD
ENDBRANCH   7  12
TORSDOF 1
ENDMDL
