MODEL 1
REMARK VINA RESULT: -8.664655059      0.000      0.000
REMARK  15 active torsions:
REMARK  status: ('A' for Active; 'I' for Inactive)
REMARK    1  A    between atoms: O1_2  and  C2_3 
REMARK    2  A    between atoms: C2_3  and  C3_7 
REMARK    3  A    between atoms: C6_14  and  C7_15 
REMARK       I    between atoms: N6_20  and  C8_21 
REMARK       I    between atoms: C8_21  and  N7_23 
REMARK    4  A    between atoms: N7_23  and  N8_25 
REMARK       I    between atoms: N8_25  and  C9_27 
REMARK    5  A    between atoms: C9_27  and  C10_29 
REMARK    6  A    between atoms: C10_29  and  N9_30 
REMARK    7  A    between atoms: C10_29  and  C14_39 
REMARK    8  A    between atoms: N9_30  and  O4_31 
REMARK    9  A    between atoms: O4_31  and  C11_32 
REMARK   10  A    between atoms: C11_32  and  C12_33 
REMARK   11  A    between atoms: C12_33  and  C13_34 
REMARK   12  A    between atoms: C13_34  and  N10_35 
REMARK   13  A    between atoms: C16_42  and  N11_43 
REMARK   14  A    between atoms: C21_55  and  O5_56 
REMARK   15  A    between atoms: N15_58  and  O6_59 
ROOT
HETATM    1  C7  UNL     1      11.826  26.768  12.257  1.00  0.00     0.137 A 
HETATM    2  N4  UNL     1      11.550  27.932  11.673  1.00  0.00    -0.279 N 
ATOM      3  H4  UNL     1      11.892  28.233  10.760  1.00  0.00     0.189 HD
HETATM    4  N5  UNL     1      10.779  28.620  12.451  1.00  0.00    -0.230 N 
ATOM      5  H5  UNL     1      10.426  29.552  12.230  1.00  0.00     0.209 HD
HETATM    6  N6  UNL     1      10.499  27.954  13.593  1.00  0.00    -0.173 N 
HETATM    7  C8  UNL     1       9.681  28.464  14.627  1.00  0.00     0.362 C 
HETATM    8  O2  UNL     1       9.175  29.611  14.478  1.00  0.00    -0.243 OA
HETATM    9  N7  UNL     1       9.381  27.787  15.816  1.00  0.00    -0.247 N 
ATOM     10  H7  UNL     1       9.772  26.857  15.972  1.00  0.00     0.192 HD
HETATM   11  C17 UNL     1      11.154  26.790  13.478  1.00  0.00     0.176 A 
HETATM   12  N13 UNL     1      11.192  25.723  14.412  1.00  0.00    -0.078 NA
ENDROOT
BRANCH   1  13
HETATM   13  C6  UNL     1      12.646  25.644  11.799  1.00  0.00     0.138 A 
HETATM   14  N3  UNL     1      13.593  25.863  10.926  1.00  0.00    -0.337 N 
HETATM   15  C5  UNL     1      14.456  24.939  10.383  1.00  0.00     0.096 A 
ATOM     16  H3  UNL     1      13.704  26.827  10.612  1.00  0.00     0.167 HD
HETATM   17  C4  UNL     1      15.444  25.366   9.429  1.00  0.00     0.112 A 
HETATM   18  C23 UNL     1      14.255  23.658  10.847  1.00  0.00     0.121 A 
HETATM   19  N2  UNL     1      16.407  24.860   8.721  1.00  0.00    -0.328 N 
HETATM   20  C24 UNL     1      15.488  26.735   9.052  1.00  0.00     0.188 A 
HETATM   21  C3  UNL     1      17.063  25.743   7.935  1.00  0.00     0.201 A 
ATOM     22  H2  UNL     1      16.651  23.870   8.756  1.00  0.00     0.168 HD
HETATM   23  O7  UNL     1      16.452  26.861   8.188  1.00  0.00    -0.272 OA
HETATM   24  N16 UNL     1      14.638  27.779   9.527  1.00  0.00    -0.072 NA
HETATM   25  C18 UNL     1      13.235  23.423  11.788  1.00  0.00     0.066 A 
HETATM   26  N15 UNL     1      14.999  22.650  10.423  1.00  0.00    -0.197 N 
HETATM   27  N14 UNL     1      12.452  24.401  12.247  1.00  0.00    -0.338 N 
HETATM   28  C19 UNL     1      12.995  22.157  12.277  1.00  0.00     0.036 A 
ATOM     29  H14 UNL     1      11.718  24.203  12.928  1.00  0.00     0.167 HD
HETATM   30  C20 UNL     1      13.786  21.143  11.813  1.00  0.00     0.060 A 
HETATM   31  C21 UNL     1      14.769  21.397  10.900  1.00  0.00     0.169 A 
BRANCH  21  32
HETATM   32  C2  UNL     1      18.176  25.460   7.045  1.00  0.00     0.188 C 
HETATM   33  N1  UNL     1      18.167  25.901   5.839  1.00  0.00    -0.376 N 
ATOM     34  H12 UNL     1      18.948  25.702   5.214  1.00  0.00     0.158 HD
ATOM     35  H11 UNL     1      17.361  26.448   5.535  1.00  0.00     0.158 HD
BRANCH  32  36
HETATM   36  O1  UNL     1      19.263  24.721   7.455  1.00  0.00    -0.338 OA
HETATM   37  C1  UNL     1      20.195  25.218   8.418  1.00  0.00     0.211 C 
ENDBRANCH  32  36
ENDBRANCH  21  32
BRANCH  31  38
HETATM   38  O5  UNL     1      15.555  20.376  10.443  1.00  0.00    -0.339 OA
HETATM   39  C22 UNL     1      15.603  19.146  11.112  1.00  0.00     0.211 C 
ENDBRANCH  31  38
BRANCH  26  40
HETATM   40  O6  UNL     1      15.997  22.817   9.513  1.00  0.00    -0.280 OA
ATOM     41  H6  UNL     1      16.241  23.703   9.273  1.00  0.00     0.245 HD
ENDBRANCH  26  40
ENDBRANCH   1  13
BRANCH   9  42
HETATM   42  N8  UNL     1       8.550  28.362  16.807  1.00  0.00    -0.264 N 
HETATM   43  C9  UNL     1       7.166  28.102  16.888  1.00  0.00     0.263 C 
HETATM   44  O3  UNL     1       6.639  27.325  16.053  1.00  0.00    -0.269 OA
ATOM     45  H8  UNL     1       8.969  28.992  17.491  1.00  0.00     0.190 HD
BRANCH  43  46
HETATM   46  C10 UNL     1       6.343  28.738  17.947  1.00  0.00     0.250 C 
BRANCH  46  47
HETATM   47  N9  UNL     1       6.385  28.009  19.198  1.00  0.00    -0.080 NA
BRANCH  47  48
HETATM   48  O4  UNL     1       7.651  28.057  19.633  1.00  0.00    -0.285 OA
BRANCH  48  49
HETATM   49  C11 UNL     1       7.780  28.427  20.959  1.00  0.00     0.197 C 
BRANCH  49  50
HETATM   50  C12 UNL     1       8.415  29.796  21.082  1.00  0.00     0.055 C 
BRANCH  50  51
HETATM   51  C13 UNL     1       9.468  29.926  19.994  1.00  0.00     0.231 C 
BRANCH  51  52
HETATM   52  N10 UNL     1      10.407  28.819  20.038  1.00  0.00    -0.079 N 
ATOM     53 3H10 UNL     1      11.352  29.118  19.794  1.00  0.00     0.274 HD
ATOM     54 2H10 UNL     1      10.583  28.513  20.995  1.00  0.00     0.274 HD
ATOM     55 1H10 UNL     1      10.094  28.047  19.449  1.00  0.00     0.274 HD
ENDBRANCH  51  52
ENDBRANCH  50  51
ENDBRANCH  49  50
ENDBRANCH  48  49
ENDBRANCH  47  48
ENDBRANCH  46  47
BRANCH  46  56
HETATM   56  C14 UNL     1       4.902  28.854  17.470  1.00  0.00     0.049 A 
HETATM   57  C15 UNL     1       3.907  28.253  18.194  1.00  0.00     0.080 A 
HETATM   58  S1  UNL     1       2.516  28.652  17.289  1.00  0.00    -0.064 SA
HETATM   59  C16 UNL     1       3.274  29.553  16.053  1.00  0.00     0.142 A 
HETATM   60  N12 UNL     1       4.562  29.504  16.395  1.00  0.00    -0.338 N 
ATOM     61  H12 UNL     1       5.268  29.968  15.823  1.00  0.00     0.168 HD
BRANCH  59  62
HETATM   62  N11 UNL     1       2.737  30.154  15.012  1.00  0.00    -0.380 N 
ATOM     63 2H11 UNL     1       1.779  30.076  14.670  1.00  0.00     0.158 HD
ATOM     64 1H11 UNL     1       3.163  30.805  14.353  1.00  0.00     0.158 HD
ENDBRANCH  59  62
ENDBRANCH  46  56
ENDBRANCH  43  46
ENDBRANCH   9  42
TORSDOF 15
ENDMDL
MODEL 2
REMARK VINA RESULT: -8.577271690      1.486      3.228
REMARK  15 active torsions:
REMARK  status: ('A' for Active; 'I' for Inactive)
REMARK    1  A    between atoms: O1_2  and  C2_3 
REMARK    2  A    between atoms: C2_3  and  C3_7 
REMARK    3  A    between atoms: C6_14  and  C7_15 
REMARK       I    between atoms: N6_20  and  C8_21 
REMARK       I    between atoms: C8_21  and  N7_23 
REMARK    4  A    between atoms: N7_23  and  N8_25 
REMARK       I    between atoms: N8_25  and  C9_27 
REMARK    5  A    between atoms: C9_27  and  C10_29 
REMARK    6  A    between atoms: C10_29  and  N9_30 
REMARK    7  A    between atoms: C10_29  and  C14_39 
REMARK    8  A    between atoms: N9_30  and  O4_31 
REMARK    9  A    between atoms: O4_31  and  C11_32 
REMARK   10  A    between atoms: C11_32  and  C12_33 
REMARK   11  A    between atoms: C12_33  and  C13_34 
REMARK   12  A    between atoms: C13_34  and  N10_35 
REMARK   13  A    between atoms: C16_42  and  N11_43 
REMARK   14  A    between atoms: C21_55  and  O5_56 
REMARK   15  A    between atoms: N15_58  and  O6_59 
ROOT
HETATM    1  C7  UNL     1      11.804  26.909  12.270  1.00  0.00     0.137 A 
HETATM    2  N4  UNL     1      11.622  28.098  11.701  1.00  0.00    -0.279 N 
ATOM      3  H4  UNL     1      12.043  28.406  10.824  1.00  0.00     0.189 HD
HETATM    4  N5  UNL     1      10.825  28.800  12.439  1.00  0.00    -0.230 N 
ATOM      5  H5  UNL     1      10.528  29.751  12.218  1.00  0.00     0.209 HD
HETATM    6  N6  UNL     1      10.433  28.118  13.538  1.00  0.00    -0.173 N 
HETATM    7  C8  UNL     1       9.561  28.638  14.523  1.00  0.00     0.362 C 
HETATM    8  O2  UNL     1       9.116  29.809  14.369  1.00  0.00    -0.243 OA
HETATM    9  N7  UNL     1       9.146  27.945  15.667  1.00  0.00    -0.247 N 
ATOM     10  H7  UNL     1       9.485  26.995  15.825  1.00  0.00     0.192 HD
HETATM   11  C17 UNL     1      11.045  26.930  13.439  1.00  0.00     0.176 A 
HETATM   12  N13 UNL     1      10.969  25.839  14.343  1.00  0.00    -0.078 NA
ENDROOT
BRANCH   1  13
HETATM   13  C6  UNL     1      12.609  25.762  11.842  1.00  0.00     0.138 A 
HETATM   14  N3  UNL     1      13.562  25.946  10.969  1.00  0.00    -0.337 N 
HETATM   15  C5  UNL     1      14.413  24.996  10.451  1.00  0.00     0.096 A 
ATOM     16  H3  UNL     1      13.690  26.900  10.633  1.00  0.00     0.167 HD
HETATM   17  C4  UNL     1      15.411  25.385   9.491  1.00  0.00     0.112 A 
HETATM   18  C23 UNL     1      14.191  23.730  10.944  1.00  0.00     0.121 A 
HETATM   19  N2  UNL     1      16.370  24.848   8.800  1.00  0.00    -0.328 N 
HETATM   20  C24 UNL     1      15.479  26.744   9.083  1.00  0.00     0.188 A 
HETATM   21  C3  UNL     1      17.043  25.702   7.997  1.00  0.00     0.201 A 
ATOM     22  H2  UNL     1      16.598  23.855   8.859  1.00  0.00     0.168 HD
HETATM   23  O7  UNL     1      16.448  26.835   8.220  1.00  0.00    -0.272 OA
HETATM   24  N16 UNL     1      14.643  27.812   9.529  1.00  0.00    -0.072 NA
HETATM   25  C18 UNL     1      13.163  23.532  11.885  1.00  0.00     0.066 A 
HETATM   26  N15 UNL     1      14.920  22.700  10.547  1.00  0.00    -0.197 N 
HETATM   27  N14 UNL     1      12.393  24.533  12.318  1.00  0.00    -0.338 N 
HETATM   28  C19 UNL     1      12.901  22.283  12.403  1.00  0.00     0.036 A 
ATOM     29  H14 UNL     1      11.654  24.363  13.000  1.00  0.00     0.167 HD
HETATM   30  C20 UNL     1      13.679  21.245  11.967  1.00  0.00     0.060 A 
HETATM   31  C21 UNL     1      14.669  21.463  11.053  1.00  0.00     0.169 A 
BRANCH  21  32
HETATM   32  C2  UNL     1      18.154  25.381   7.118  1.00  0.00     0.188 C 
HETATM   33  N1  UNL     1      18.168  25.812   5.910  1.00  0.00    -0.376 N 
ATOM     34  H12 UNL     1      18.949  25.587   5.293  1.00  0.00     0.158 HD
ATOM     35  H11 UNL     1      17.381  26.380   5.594  1.00  0.00     0.158 HD
BRANCH  32  36
HETATM   36  O1  UNL     1      19.217  24.614   7.543  1.00  0.00    -0.338 OA
HETATM   37  C1  UNL     1      20.224  25.135   8.415  1.00  0.00     0.211 C 
ENDBRANCH  32  36
ENDBRANCH  21  32
BRANCH  31  38
HETATM   38  O5  UNL     1      15.441  20.419  10.623  1.00  0.00    -0.339 OA
HETATM   39  C22 UNL     1      15.564  19.250  11.384  1.00  0.00     0.211 C 
ENDBRANCH  31  38
BRANCH  26  40
HETATM   40  O6  UNL     1      15.925  22.830   9.638  1.00  0.00    -0.280 OA
ATOM     41  H6  UNL     1      15.826  22.399   8.797  1.00  0.00     0.245 HD
ENDBRANCH  26  40
ENDBRANCH   1  13
BRANCH   9  42
HETATM   42  N8  UNL     1       8.268  28.531  16.610  1.00  0.00    -0.264 N 
HETATM   43  C9  UNL     1       7.149  27.853  17.136  1.00  0.00     0.263 C 
HETATM   44  O3  UNL     1       6.914  26.676  16.763  1.00  0.00    -0.269 OA
ATOM     45  H8  UNL     1       8.451  29.485  16.922  1.00  0.00     0.190 HD
BRANCH  43  46
HETATM   46  C10 UNL     1       6.261  28.521  18.120  1.00  0.00     0.250 C 
BRANCH  46  47
HETATM   47  N9  UNL     1       5.536  29.638  17.550  1.00  0.00    -0.080 NA
BRANCH  47  48
HETATM   48  O4  UNL     1       5.450  29.411  16.233  1.00  0.00    -0.285 OA
BRANCH  48  49
HETATM   49  C11 UNL     1       4.161  29.463  15.733  1.00  0.00     0.197 C 
BRANCH  49  50
HETATM   50  C12 UNL     1       4.153  29.268  14.232  1.00  0.00     0.055 C 
BRANCH  50  51
HETATM   51  C13 UNL     1       5.433  28.549  13.843  1.00  0.00     0.231 C 
BRANCH  51  52
HETATM   52  N10 UNL     1       6.344  29.441  13.146  1.00  0.00    -0.079 N 
ATOM     53 3H10 UNL     1       6.879  28.948  12.431  1.00  0.00     0.274 HD
ATOM     54 2H10 UNL     1       5.843  30.094  12.544  1.00  0.00     0.274 HD
ATOM     55 1H10 UNL     1       6.955  29.929  13.802  1.00  0.00     0.274 HD
ENDBRANCH  51  52
ENDBRANCH  50  51
ENDBRANCH  49  50
ENDBRANCH  48  49
ENDBRANCH  47  48
ENDBRANCH  46  47
BRANCH  46  56
HETATM   56  C14 UNL     1       7.087  28.999  19.307  1.00  0.00     0.049 A 
HETATM   57  C15 UNL     1       7.352  30.336  19.442  1.00  0.00     0.080 A 
HETATM   58  S1  UNL     1       8.278  30.372  20.875  1.00  0.00    -0.064 SA
HETATM   59  C16 UNL     1       8.276  28.700  21.216  1.00  0.00     0.142 A 
HETATM   60  N12 UNL     1       7.562  28.192  20.211  1.00  0.00    -0.338 N 
ATOM     61  H12 UNL     1       7.390  27.188  20.152  1.00  0.00     0.168 HD
BRANCH  59  62
HETATM   62  N11 UNL     1       8.834  28.053  22.218  1.00  0.00    -0.380 N 
ATOM     63 2H11 UNL     1       8.737  28.241  23.215  1.00  0.00     0.158 HD
ATOM     64 1H11 UNL     1       9.465  27.252  22.197  1.00  0.00     0.158 HD
ENDBRANCH  59  62
ENDBRANCH  46  56
ENDBRANCH  43  46
ENDBRANCH   9  42
TORSDOF 15
ENDMDL
MODEL 3
REMARK VINA RESULT: -8.430660159      6.390     14.708
REMARK  15 active torsions:
REMARK  status: ('A' for Active; 'I' for Inactive)
REMARK    1  A    between atoms: O1_2  and  C2_3 
REMARK    2  A    between atoms: C2_3  and  C3_7 
REMARK    3  A    between atoms: C6_14  and  C7_15 
REMARK       I    between atoms: N6_20  and  C8_21 
REMARK       I    between atoms: C8_21  and  N7_23 
REMARK    4  A    between atoms: N7_23  and  N8_25 
REMARK       I    between atoms: N8_25  and  C9_27 
REMARK    5  A    between atoms: C9_27  and  C10_29 
REMARK    6  A    between atoms: C10_29  and  N9_30 
REMARK    7  A    between atoms: C10_29  and  C14_39 
REMARK    8  A    between atoms: N9_30  and  O4_31 
REMARK    9  A    between atoms: O4_31  and  C11_32 
REMARK   10  A    between atoms: C11_32  and  C12_33 
REMARK   11  A    between atoms: C12_33  and  C13_34 
REMARK   12  A    between atoms: C13_34  and  N10_35 
REMARK   13  A    between atoms: C16_42  and  N11_43 
REMARK   14  A    between atoms: C21_55  and  O5_56 
REMARK   15  A    between atoms: N15_58  and  O6_59 
ROOT
HETATM    1  C7  UNL     1      10.484  29.609  22.227  1.00  0.00     0.137 A 
HETATM    2  N4  UNL     1      11.382  28.900  21.547  1.00  0.00    -0.279 N 
ATOM      3  H4  UNL     1      12.275  28.567  21.911  1.00  0.00     0.189 HD
HETATM    4  N5  UNL     1      10.939  28.700  20.348  1.00  0.00    -0.230 N 
ATOM      5  H5  UNL     1      11.443  28.181  19.629  1.00  0.00     0.209 HD
HETATM    6  N6  UNL     1       9.724  29.264  20.165  1.00  0.00    -0.173 N 
HETATM    7  C8  UNL     1       8.999  29.207  18.952  1.00  0.00     0.362 C 
HETATM    8  O2  UNL     1       9.512  28.588  17.978  1.00  0.00    -0.243 OA
HETATM    9  N7  UNL     1       7.740  29.786  18.746  1.00  0.00    -0.247 N 
ATOM     10  H7  UNL     1       7.294  30.293  19.511  1.00  0.00     0.192 HD
HETATM   11  C17 UNL     1       9.433  29.838  21.341  1.00  0.00     0.176 A 
HETATM   12  N13 UNL     1       8.266  30.567  21.683  1.00  0.00    -0.078 NA
ENDROOT
BRANCH   1  13
HETATM   13  C6  UNL     1      10.505  30.094  23.609  1.00  0.00     0.138 A 
HETATM   14  N3  UNL     1       9.408  30.049  24.315  1.00  0.00    -0.337 N 
HETATM   15  C5  UNL     1       9.237  30.457  25.619  1.00  0.00     0.096 A 
ATOM     16  H3  UNL     1       8.585  29.668  23.848  1.00  0.00     0.167 HD
HETATM   17  C4  UNL     1       7.945  30.330  26.238  1.00  0.00     0.112 A 
HETATM   18  C23 UNL     1      10.382  30.961  26.192  1.00  0.00     0.121 A 
HETATM   19  N2  UNL     1       7.379  30.565  27.383  1.00  0.00    -0.328 N 
HETATM   20  C24 UNL     1       6.867  29.803  25.478  1.00  0.00     0.188 A 
HETATM   21  C3  UNL     1       6.065  30.251  27.444  1.00  0.00     0.201 A 
ATOM     22  H2  UNL     1       7.887  30.956  28.176  1.00  0.00     0.168 HD
HETATM   23  O7  UNL     1       5.823  29.795  26.253  1.00  0.00    -0.272 OA
HETATM   24  N16 UNL     1       6.914  29.367  24.120  1.00  0.00    -0.072 NA
HETATM   25  C18 UNL     1      11.566  31.009  25.431  1.00  0.00     0.066 A 
HETATM   26  N15 UNL     1      10.390  31.400  27.440  1.00  0.00    -0.197 N 
HETATM   27  N14 UNL     1      11.616  30.583  24.167  1.00  0.00    -0.338 N 
HETATM   28  C19 UNL     1      12.735  31.508  25.962  1.00  0.00     0.036 A 
ATOM     29  H14 UNL     1      12.486  30.631  23.637  1.00  0.00     0.167 HD
HETATM   30  C20 UNL     1      12.700  31.951  27.256  1.00  0.00     0.060 A 
HETATM   31  C21 UNL     1      11.539  31.894  27.973  1.00  0.00     0.169 A 
BRANCH  21  32
HETATM   32  C2  UNL     1       5.185  30.406  28.590  1.00  0.00     0.188 C 
HETATM   33  N1  UNL     1       4.932  31.574  29.058  1.00  0.00    -0.376 N 
ATOM     34  H12 UNL     1       4.314  31.682  29.862  1.00  0.00     0.158 HD
ATOM     35  H11 UNL     1       5.367  32.376  28.603  1.00  0.00     0.158 HD
BRANCH  32  36
HETATM   36  O1  UNL     1       4.598  29.322  29.205  1.00  0.00    -0.338 OA
HETATM   37  C1  UNL     1       4.493  28.051  28.558  1.00  0.00     0.211 C 
ENDBRANCH  32  36
ENDBRANCH  21  32
BRANCH  31  38
HETATM   38  O5  UNL     1      11.514  32.340  29.265  1.00  0.00    -0.339 OA
HETATM   39  C22 UNL     1      11.628  31.448  30.339  1.00  0.00     0.211 C 
ENDBRANCH  31  38
BRANCH  26  40
HETATM   40  O6  UNL     1       9.276  31.380  28.223  1.00  0.00    -0.280 OA
ATOM     41  H6  UNL     1       8.567  31.974  28.006  1.00  0.00     0.245 HD
ENDBRANCH  26  40
ENDBRANCH   1  13
BRANCH   9  42
HETATM   42  N8  UNL     1       7.073  29.684  17.502  1.00  0.00    -0.264 N 
HETATM   43  C9  UNL     1       6.248  28.590  17.165  1.00  0.00     0.263 C 
HETATM   44  O3  UNL     1       6.089  27.664  17.998  1.00  0.00    -0.269 OA
ATOM     45  H8  UNL     1       7.194  30.433  16.820  1.00  0.00     0.190 HD
BRANCH  43  46
HETATM   46  C10 UNL     1       5.577  28.536  15.843  1.00  0.00     0.250 C 
BRANCH  46  47
HETATM   47  N9  UNL     1       6.475  28.837  14.747  1.00  0.00    -0.080 NA
BRANCH  47  48
HETATM   48  O4  UNL     1       7.683  28.378  15.100  1.00  0.00    -0.285 OA
BRANCH  48  49
HETATM   49  C11 UNL     1       8.738  29.028  14.485  1.00  0.00     0.197 C 
BRANCH  49  50
HETATM   50  C12 UNL     1       9.890  28.078  14.237  1.00  0.00     0.055 C 
BRANCH  50  51
HETATM   51  C13 UNL     1       9.605  27.316  12.954  1.00  0.00     0.231 C 
BRANCH  51  52
HETATM   52  N10 UNL     1       8.343  27.732  12.366  1.00  0.00    -0.079 N 
ATOM     53 3H10 UNL     1       7.717  28.131  13.066  1.00  0.00     0.274 HD
ATOM     54 2H10 UNL     1       8.458  28.554  11.773  1.00  0.00     0.274 HD
ATOM     55 1H10 UNL     1       7.902  26.964  11.861  1.00  0.00     0.274 HD
ENDBRANCH  51  52
ENDBRANCH  50  51
ENDBRANCH  49  50
ENDBRANCH  48  49
ENDBRANCH  47  48
ENDBRANCH  46  47
BRANCH  46  56
HETATM   56  C14 UNL     1       4.407  29.511  15.828  1.00  0.00     0.049 A 
HETATM   57  C15 UNL     1       3.949  29.988  14.628  1.00  0.00     0.080 A 
HETATM   58  S1  UNL     1       2.673  31.012  15.115  1.00  0.00    -0.064 SA
HETATM   59  C16 UNL     1       2.795  30.776  16.801  1.00  0.00     0.142 A 
HETATM   60  N12 UNL     1       3.812  29.921  16.910  1.00  0.00    -0.338 N 
ATOM     61  H12 UNL     1       4.117  29.593  17.826  1.00  0.00     0.168 HD
BRANCH  59  62
HETATM   62  N11 UNL     1       2.072  31.300  17.769  1.00  0.00    -0.380 N 
ATOM     63 2H11 UNL     1       1.947  32.287  17.992  1.00  0.00     0.158 HD
ATOM     64 1H11 UNL     1       1.505  30.832  18.475  1.00  0.00     0.158 HD
ENDBRANCH  59  62
ENDBRANCH  46  56
ENDBRANCH  43  46
ENDBRANCH   9  42
TORSDOF 15
ENDMDL
MODEL 4
REMARK VINA RESULT: -8.414423974      1.289      1.408
REMARK  15 active torsions:
REMARK  status: ('A' for Active; 'I' for Inactive)
REMARK    1  A    between atoms: O1_2  and  C2_3 
REMARK    2  A    between atoms: C2_3  and  C3_7 
REMARK    3  A    between atoms: C6_14  and  C7_15 
REMARK       I    between atoms: N6_20  and  C8_21 
REMARK       I    between atoms: C8_21  and  N7_23 
REMARK    4  A    between atoms: N7_23  and  N8_25 
REMARK       I    between atoms: N8_25  and  C9_27 
REMARK    5  A    between atoms: C9_27  and  C10_29 
REMARK    6  A    between atoms: C10_29  and  N9_30 
REMARK    7  A    between atoms: C10_29  and  C14_39 
REMARK    8  A    between atoms: N9_30  and  O4_31 
REMARK    9  A    between atoms: O4_31  and  C11_32 
REMARK   10  A    between atoms: C11_32  and  C12_33 
REMARK   11  A    between atoms: C12_33  and  C13_34 
REMARK   12  A    between atoms: C13_34  and  N10_35 
REMARK   13  A    between atoms: C16_42  and  N11_43 
REMARK   14  A    between atoms: C21_55  and  O5_56 
REMARK   15  A    between atoms: N15_58  and  O6_59 
ROOT
HETATM    1  C7  UNL     1      11.482  26.823  12.545  1.00  0.00     0.137 A 
HETATM    2  N4  UNL     1      11.372  28.070  12.091  1.00  0.00    -0.279 N 
ATOM      3  H4  UNL     1      11.885  28.461  11.300  1.00  0.00     0.189 HD
HETATM    4  N5  UNL     1      10.509  28.705  12.815  1.00  0.00    -0.230 N 
ATOM      5  H5  UNL     1      10.245  29.681  12.669  1.00  0.00     0.209 HD
HETATM    6  N6  UNL     1       9.998  27.919  13.788  1.00  0.00    -0.173 N 
HETATM    7  C8  UNL     1       9.033  28.349  14.728  1.00  0.00     0.362 C 
HETATM    8  O2  UNL     1       8.618  29.539  14.657  1.00  0.00    -0.243 OA
HETATM    9  N7  UNL     1       8.495  27.547  15.743  1.00  0.00    -0.247 N 
ATOM     10  H7  UNL     1       8.806  26.579  15.831  1.00  0.00     0.192 HD
HETATM   11  C17 UNL     1      10.606  26.735  13.624  1.00  0.00     0.176 A 
HETATM   12  N13 UNL     1      10.425  25.557  14.393  1.00  0.00    -0.078 NA
ENDROOT
BRANCH   1  13
HETATM   13  C6  UNL     1      12.317  25.712  12.080  1.00  0.00     0.138 A 
HETATM   14  N3  UNL     1      13.251  25.945  11.198  1.00  0.00    -0.337 N 
HETATM   15  C5  UNL     1      14.124  25.034  10.648  1.00  0.00     0.096 A 
ATOM     16  H3  UNL     1      13.344  26.910  10.882  1.00  0.00     0.167 HD
HETATM   17  C4  UNL     1      15.095  25.476   9.684  1.00  0.00     0.112 A 
HETATM   18  C23 UNL     1      13.948  23.751  11.115  1.00  0.00     0.121 A 
HETATM   19  N2  UNL     1      16.060  24.984   8.968  1.00  0.00    -0.328 N 
HETATM   20  C24 UNL     1      15.114  26.845   9.305  1.00  0.00     0.188 A 
HETATM   21  C3  UNL     1      16.695  25.877   8.175  1.00  0.00     0.201 A 
ATOM     22  H2  UNL     1      16.321  23.998   9.001  1.00  0.00     0.168 HD
HETATM   23  O7  UNL     1      16.068  26.985   8.431  1.00  0.00    -0.272 OA
HETATM   24  N16 UNL     1      14.253  27.875   9.786  1.00  0.00    -0.072 NA
HETATM   25  C18 UNL     1      12.940  23.501  12.066  1.00  0.00     0.066 A 
HETATM   26  N15 UNL     1      14.704  22.754  10.686  1.00  0.00    -0.197 N 
HETATM   27  N14 UNL     1      12.146  24.467  12.532  1.00  0.00    -0.338 N 
HETATM   28  C19 UNL     1      12.725  22.232  12.559  1.00  0.00     0.036 A 
ATOM     29  H14 UNL     1      11.423  24.258  13.220  1.00  0.00     0.167 HD
HETATM   30  C20 UNL     1      13.529  21.230  12.089  1.00  0.00     0.060 A 
HETATM   31  C21 UNL     1      14.499  21.498  11.167  1.00  0.00     0.169 A 
BRANCH  21  32
HETATM   32  C2  UNL     1      17.803  25.610   7.274  1.00  0.00     0.188 C 
HETATM   33  N1  UNL     1      17.864  26.196   6.133  1.00  0.00    -0.376 N 
ATOM     34  H12 UNL     1      18.643  26.009   5.501  1.00  0.00     0.158 HD
ATOM     35  H11 UNL     1      17.117  26.845   5.888  1.00  0.00     0.158 HD
BRANCH  32  36
HETATM   36  O1  UNL     1      18.812  24.734   7.605  1.00  0.00    -0.338 OA
HETATM   37  C1  UNL     1      19.927  25.133   8.407  1.00  0.00     0.211 C 
ENDBRANCH  32  36
ENDBRANCH  21  32
BRANCH  31  38
HETATM   38  O5  UNL     1      15.297  20.490  10.703  1.00  0.00    -0.339 OA
HETATM   39  C22 UNL     1      15.507  19.330  11.460  1.00  0.00     0.211 C 
ENDBRANCH  31  38
BRANCH  26  40
HETATM   40  O6  UNL     1      15.691  22.936   9.766  1.00  0.00    -0.280 OA
ATOM     41  H6  UNL     1      16.584  22.741  10.023  1.00  0.00     0.245 HD
ENDBRANCH  26  40
ENDBRANCH   1  13
BRANCH   9  42
HETATM   42  N8  UNL     1       7.528  28.048  16.648  1.00  0.00    -0.264 N 
HETATM   43  C9  UNL     1       7.874  28.667  17.868  1.00  0.00     0.263 C 
HETATM   44  O3  UNL     1       9.087  28.788  18.171  1.00  0.00    -0.269 OA
ATOM     45  H8  UNL     1       6.541  27.957  16.409  1.00  0.00     0.190 HD
BRANCH  43  46
HETATM   46  C10 UNL     1       6.816  29.171  18.779  1.00  0.00     0.250 C 
BRANCH  46  47
HETATM   47  N9  UNL     1       7.047  28.803  20.160  1.00  0.00    -0.080 NA
BRANCH  47  48
HETATM   48  O4  UNL     1       6.921  29.922  20.885  1.00  0.00    -0.285 OA
BRANCH  48  49
HETATM   49  C11 UNL     1       8.071  30.689  20.947  1.00  0.00     0.197 C 
BRANCH  49  50
HETATM   50  C12 UNL     1       9.047  30.122  21.956  1.00  0.00     0.055 C 
BRANCH  50  51
HETATM   51  C13 UNL     1      10.370  29.881  21.249  1.00  0.00     0.231 C 
BRANCH  51  52
HETATM   52  N10 UNL     1      10.404  28.564  20.637  1.00  0.00    -0.079 N 
ATOM     53 3H10 UNL     1      11.156  27.991  21.021  1.00  0.00     0.274 HD
ATOM     54 2H10 UNL     1       9.610  27.994  20.927  1.00  0.00     0.274 HD
ATOM     55 1H10 UNL     1      10.466  28.631  19.621  1.00  0.00     0.274 HD
ENDBRANCH  51  52
ENDBRANCH  50  51
ENDBRANCH  49  50
ENDBRANCH  48  49
ENDBRANCH  47  48
ENDBRANCH  46  47
BRANCH  46  56
HETATM   56  C14 UNL     1       5.462  28.641  18.327  1.00  0.00     0.049 A 
HETATM   57  C15 UNL     1       4.638  29.451  17.592  1.00  0.00     0.080 A 
HETATM   58  S1  UNL     1       3.284  28.443  17.335  1.00  0.00    -0.064 SA
HETATM   59  C16 UNL     1       3.840  27.062  18.169  1.00  0.00     0.142 A 
HETATM   60  N12 UNL     1       5.042  27.441  18.607  1.00  0.00    -0.338 N 
ATOM     61  H12 UNL     1       5.621  26.802  19.151  1.00  0.00     0.168 HD
BRANCH  59  62
HETATM   62  N11 UNL     1       3.245  25.901  18.347  1.00  0.00    -0.380 N 
ATOM     63 2H11 UNL     1       2.377  25.573  17.926  1.00  0.00     0.158 HD
ATOM     64 1H11 UNL     1       3.528  25.115  18.931  1.00  0.00     0.158 HD
ENDBRANCH  59  62
ENDBRANCH  46  56
ENDBRANCH  43  46
ENDBRANCH   9  42
TORSDOF 15
ENDMDL
MODEL 5
REMARK VINA RESULT: -8.377972743      6.176     14.722
REMARK  15 active torsions:
REMARK  status: ('A' for Active; 'I' for Inactive)
REMARK    1  A    between atoms: O1_2  and  C2_3 
REMARK    2  A    between atoms: C2_3  and  C3_7 
REMARK    3  A    between atoms: C6_14  and  C7_15 
REMARK       I    between atoms: N6_20  and  C8_21 
REMARK       I    between atoms: C8_21  and  N7_23 
REMARK    4  A    between atoms: N7_23  and  N8_25 
REMARK       I    between atoms: N8_25  and  C9_27 
REMARK    5  A    between atoms: C9_27  and  C10_29 
REMARK    6  A    between atoms: C10_29  and  N9_30 
REMARK    7  A    between atoms: C10_29  and  C14_39 
REMARK    8  A    between atoms: N9_30  and  O4_31 
REMARK    9  A    between atoms: O4_31  and  C11_32 
REMARK   10  A    between atoms: C11_32  and  C12_33 
REMARK   11  A    between atoms: C12_33  and  C13_34 
REMARK   12  A    between atoms: C13_34  and  N10_35 
REMARK   13  A    between atoms: C16_42  and  N11_43 
REMARK   14  A    between atoms: C21_55  and  O5_56 
REMARK   15  A    between atoms: N15_58  and  O6_59 
ROOT
HETATM    1  C7  UNL     1      10.140  29.735  22.013  1.00  0.00     0.137 A 
HETATM    2  N4  UNL     1      11.119  29.101  21.371  1.00  0.00    -0.279 N 
ATOM      3  H4  UNL     1      12.022  28.845  21.771  1.00  0.00     0.189 HD
HETATM    4  N5  UNL     1      10.739  28.861  20.158  1.00  0.00    -0.230 N 
ATOM      5  H5  UNL     1      11.312  28.383  19.462  1.00  0.00     0.209 HD
HETATM    6  N6  UNL     1       9.490  29.321  19.926  1.00  0.00    -0.173 N 
HETATM    7  C8  UNL     1       8.818  29.199  18.688  1.00  0.00     0.362 C 
HETATM    8  O2  UNL     1       9.417  28.622  17.737  1.00  0.00    -0.243 OA
HETATM    9  N7  UNL     1       7.524  29.671  18.432  1.00  0.00    -0.247 N 
ATOM     10  H7  UNL     1       7.009  30.142  19.176  1.00  0.00     0.192 HD
HETATM   11  C17 UNL     1       9.108  29.872  21.087  1.00  0.00     0.176 A 
HETATM   12  N13 UNL     1       7.872  30.502  21.380  1.00  0.00    -0.078 NA
ENDROOT
BRANCH   1  13
HETATM   13  C6  UNL     1      10.069  30.225  23.392  1.00  0.00     0.138 A 
HETATM   14  N3  UNL     1       9.023  29.933  24.116  1.00  0.00    -0.337 N 
HETATM   15  C5  UNL     1       8.781  30.303  25.420  1.00  0.00     0.096 A 
ATOM     16  H3  UNL     1       8.304  29.367  23.666  1.00  0.00     0.167 HD
HETATM   17  C4  UNL     1       7.564  29.885  26.062  1.00  0.00     0.112 A 
HETATM   18  C23 UNL     1       9.787  31.064  25.972  1.00  0.00     0.121 A 
HETATM   19  N2  UNL     1       6.976  29.993  27.214  1.00  0.00    -0.328 N 
HETATM   20  C24 UNL     1       6.626  29.116  25.323  1.00  0.00     0.188 A 
HETATM   21  C3  UNL     1       5.772  29.384  27.300  1.00  0.00     0.201 A 
ATOM     22  H2  UNL     1       7.391  30.500  27.997  1.00  0.00     0.168 HD
HETATM   23  O7  UNL     1       5.624  28.873  26.116  1.00  0.00    -0.272 OA
HETATM   24  N16 UNL     1       6.752  28.689  23.967  1.00  0.00    -0.072 NA
HETATM   25  C18 UNL     1      10.915  31.378  25.190  1.00  0.00     0.066 A 
HETATM   26  N15 UNL     1       9.711  31.505  27.217  1.00  0.00    -0.197 N 
HETATM   27  N14 UNL     1      11.044  30.963  23.928  1.00  0.00    -0.338 N 
HETATM   28  C19 UNL     1      11.945  32.139  25.699  1.00  0.00     0.036 A 
ATOM     29  H14 UNL     1      11.871  31.206  23.383  1.00  0.00     0.167 HD
HETATM   30  C20 UNL     1      11.827  32.575  26.990  1.00  0.00     0.060 A 
HETATM   31  C21 UNL     1      10.722  32.257  27.727  1.00  0.00     0.169 A 
BRANCH  21  32
HETATM   32  C2  UNL     1       4.896  29.341  28.459  1.00  0.00     0.188 C 
HETATM   33  N1  UNL     1       4.407  28.224  28.858  1.00  0.00    -0.376 N 
ATOM     34  H12 UNL     1       3.793  28.194  29.672  1.00  0.00     0.158 HD
ATOM     35  H11 UNL     1       4.652  27.381  28.339  1.00  0.00     0.158 HD
BRANCH  32  36
HETATM   36  O1  UNL     1       4.566  30.479  29.160  1.00  0.00    -0.338 OA
HETATM   37  C1  UNL     1       5.411  31.009  30.185  1.00  0.00     0.211 C 
ENDBRANCH  32  36
ENDBRANCH  21  32
BRANCH  31  38
HETATM   38  O5  UNL     1      10.613  32.697  29.017  1.00  0.00    -0.339 OA
HETATM   39  C22 UNL     1      11.207  31.993  30.073  1.00  0.00     0.211 C 
ENDBRANCH  31  38
BRANCH  26  40
HETATM   40  O6  UNL     1       8.644  31.235  28.018  1.00  0.00    -0.280 OA
ATOM     41  H6  UNL     1       8.555  30.355  28.363  1.00  0.00     0.245 HD
ENDBRANCH  26  40
ENDBRANCH   1  13
BRANCH   9  42
HETATM   42  N8  UNL     1       6.915  29.509  17.164  1.00  0.00    -0.264 N 
HETATM   43  C9  UNL     1       6.297  28.307  16.761  1.00  0.00     0.263 C 
HETATM   44  O3  UNL     1       6.277  27.333  17.555  1.00  0.00    -0.269 OA
ATOM     45  H8  UNL     1       6.923  30.295  16.514  1.00  0.00     0.190 HD
BRANCH  43  46
HETATM   46  C10 UNL     1       5.677  28.195  15.417  1.00  0.00     0.250 C 
BRANCH  46  47
HETATM   47  N9  UNL     1       6.547  28.667  14.360  1.00  0.00    -0.080 NA
BRANCH  47  48
HETATM   48  O4  UNL     1       7.803  28.406  14.747  1.00  0.00    -0.285 OA
BRANCH  48  49
HETATM   49  C11 UNL     1       8.759  29.201  14.141  1.00  0.00     0.197 C 
BRANCH  49  50
HETATM   50  C12 UNL     1      10.091  28.485  14.064  1.00  0.00     0.055 C 
BRANCH  50  51
HETATM   51  C13 UNL     1      10.009  27.455  12.951  1.00  0.00     0.231 C 
BRANCH  51  52
HETATM   52  N10 UNL     1       8.734  27.531  12.258  1.00  0.00    -0.079 N 
ATOM     53 3H10 UNL     1       8.185  28.332  12.570  1.00  0.00     0.274 HD
ATOM     54 2H10 UNL     1       8.854  27.795  11.281  1.00  0.00     0.274 HD
ATOM     55 1H10 UNL     1       8.212  26.660  12.351  1.00  0.00     0.274 HD
ENDBRANCH  51  52
ENDBRANCH  50  51
ENDBRANCH  49  50
ENDBRANCH  48  49
ENDBRANCH  47  48
ENDBRANCH  46  47
BRANCH  46  56
HETATM   56  C14 UNL     1       4.371  28.979  15.394  1.00  0.00     0.049 A 
HETATM   57  C15 UNL     1       3.328  28.563  16.178  1.00  0.00     0.080 A 
HETATM   58  S1  UNL     1       2.128  29.722  15.818  1.00  0.00    -0.064 SA
HETATM   59  C16 UNL     1       3.015  30.661  14.702  1.00  0.00     0.142 A 
HETATM   60  N12 UNL     1       4.193  30.038  14.658  1.00  0.00    -0.338 N 
ATOM     61  H12 UNL     1       4.942  30.385  14.059  1.00  0.00     0.168 HD
BRANCH  59  62
HETATM   62  N11 UNL     1       2.645  31.736  14.039  1.00  0.00    -0.380 N 
ATOM     63 2H11 UNL     1       1.742  31.923  13.603  1.00  0.00     0.158 HD
ATOM     64 1H11 UNL     1       3.178  32.581  13.832  1.00  0.00     0.158 HD
ENDBRANCH  59  62
ENDBRANCH  46  56
ENDBRANCH  43  46
ENDBRANCH   9  42
TORSDOF 15
ENDMDL
