MODEL 1
REMARK VINA RESULT: -7.685049641      0.000      0.000
REMARK  11 active torsions:
REMARK  status: ('A' for Active; 'I' for Inactive)
REMARK    1  A    between atoms: C3_3  and  C4_4 
REMARK    2  A    between atoms: C4_4  and  C5_5 
REMARK    3  A    between atoms: C5_5  and  C6_6 
REMARK    4  A    between atoms: C6_6  and  C7_7 
REMARK    5  A    between atoms: C8_8  and  C9_9 
REMARK    6  A    between atoms: C9_9  and  C10_10 
REMARK    7  A    between atoms: C10_10  and  C11_11 
REMARK    8  A    between atoms: C11_11  and  C12_12 
REMARK    9  A    between atoms: C13_13  and  C14_14 
REMARK   10  A    between atoms: C14_14  and  C15_15 
REMARK   11  A    between atoms: C15_15  and  N1_16 
ROOT
HETATM    1  C1  UNL     1      22.595  56.723  86.547  1.00  0.00     0.112 C 
HETATM    2  C2  UNL     1      21.890  55.908  87.537  1.00  0.00    -0.111 C 
HETATM    3  C3  UNL     1      21.310  55.252  88.367  1.00  0.00    -0.107 C 
ENDROOT
BRANCH   3   4
HETATM    4  C4  UNL     1      20.598  54.474  89.389  1.00  0.00     0.095 C 
BRANCH   4   5
HETATM    5  C5  UNL     1      21.573  53.492  90.031  1.00  0.00     0.024 C 
BRANCH   5   6
HETATM    6  C6  UNL     1      22.041  54.094  91.338  1.00  0.00     0.095 C 
BRANCH   6   7
HETATM    7  C7  UNL     1      23.324  54.767  91.047  1.00  0.00    -0.107 C 
HETATM    8  C8  UNL     1      24.373  55.309  90.791  1.00  0.00    -0.107 C 
BRANCH   8   9
HETATM    9  C9  UNL     1      25.638  55.967  90.457  1.00  0.00     0.095 C 
BRANCH   9  10
HETATM   10  C10 UNL     1      25.403  56.909  89.268  1.00  0.00     0.024 C 
BRANCH  10  11
HETATM   11  C11 UNL     1      26.643  57.032  88.424  1.00  0.00     0.095 C 
BRANCH  11  12
HETATM   12  C12 UNL     1      26.257  57.496  87.094  1.00  0.00    -0.106 C 
HETATM   13  C13 UNL     1      25.944  57.855  86.006  1.00  0.00    -0.105 C 
BRANCH  13  14
HETATM   14  C14 UNL     1      25.563  58.266  84.678  1.00  0.00     0.113 C 
BRANCH  14  15
HETATM   15  C15 UNL     1      26.642  59.093  84.023  1.00  0.00     0.134 C 
BRANCH  15  16
HETATM   16  N1  UNL     1      26.890  60.239  84.874  1.00  0.00    -0.366 N 
HETATM   17  C16 UNL     1      28.087  60.711  85.047  1.00  0.00     0.196 C 
HETATM   18  N2  UNL     1      28.350  61.828  85.873  1.00  0.00    -0.067 NA
HETATM   19  N3  UNL     1      29.182  60.088  84.388  1.00  0.00    -0.067 NA
ATOM     20  H1  UNL     1      26.105  60.686  85.348  1.00  0.00     0.161 HD
ENDBRANCH  15  16
ENDBRANCH  14  15
ENDBRANCH  13  14
ENDBRANCH  11  12
ENDBRANCH  10  11
ENDBRANCH   9  10
ENDBRANCH   8   9
ENDBRANCH   6   7
ENDBRANCH   5   6
ENDBRANCH   4   5
ENDBRANCH   3   4
TORSDOF 11
ENDMDL
MODEL 2
REMARK VINA RESULT: -7.509187327      1.584      2.394
REMARK  11 active torsions:
REMARK  status: ('A' for Active; 'I' for Inactive)
REMARK    1  A    between atoms: C3_3  and  C4_4 
REMARK    2  A    between atoms: C4_4  and  C5_5 
REMARK    3  A    between atoms: C5_5  and  C6_6 
REMARK    4  A    between atoms: C6_6  and  C7_7 
REMARK    5  A    between atoms: C8_8  and  C9_9 
REMARK    6  A    between atoms: C9_9  and  C10_10 
REMARK    7  A    between atoms: C10_10  and  C11_11 
REMARK    8  A    between atoms: C11_11  and  C12_12 
REMARK    9  A    between atoms: C13_13  and  C14_14 
REMARK   10  A    between atoms: C14_14  and  C15_15 
REMARK   11  A    between atoms: C15_15  and  N1_16 
ROOT
HETATM    1  C1  UNL     1      23.904  56.408  87.480  1.00  0.00     0.112 C 
HETATM    2  C2  UNL     1      22.667  55.854  88.032  1.00  0.00    -0.111 C 
HETATM    3  C3  UNL     1      21.658  55.378  88.490  1.00  0.00    -0.107 C 
ENDROOT
BRANCH   3   4
HETATM    4  C4  UNL     1      20.442  54.783  89.060  1.00  0.00     0.095 C 
BRANCH   4   5
HETATM    5  C5  UNL     1      20.762  53.372  89.545  1.00  0.00     0.024 C 
BRANCH   5   6
HETATM    6  C6  UNL     1      20.769  53.395  91.058  1.00  0.00     0.095 C 
BRANCH   6   7
HETATM    7  C7  UNL     1      22.085  53.936  91.458  1.00  0.00    -0.107 C 
HETATM    8  C8  UNL     1      23.167  54.373  91.767  1.00  0.00    -0.107 C 
BRANCH   8   9
HETATM    9  C9  UNL     1      24.486  54.907  92.117  1.00  0.00     0.095 C 
BRANCH   9  10
HETATM   10  C10 UNL     1      25.082  55.595  90.882  1.00  0.00     0.024 C 
BRANCH  10  11
HETATM   11  C11 UNL     1      26.388  56.263  91.215  1.00  0.00     0.095 C 
BRANCH  11  12
HETATM   12  C12 UNL     1      27.035  56.669  89.970  1.00  0.00    -0.106 C 
HETATM   13  C13 UNL     1      27.578  56.989  88.963  1.00  0.00    -0.105 C 
BRANCH  13  14
HETATM   14  C14 UNL     1      28.257  57.363  87.747  1.00  0.00     0.113 C 
BRANCH  14  15
HETATM   15  C15 UNL     1      28.365  58.863  87.612  1.00  0.00     0.134 C 
BRANCH  15  16
HETATM   16  N1  UNL     1      29.048  59.140  86.365  1.00  0.00    -0.366 N 
HETATM   17  C16 UNL     1      28.409  59.573  85.321  1.00  0.00     0.196 C 
HETATM   18  N2  UNL     1      29.057  59.849  84.095  1.00  0.00    -0.067 NA
HETATM   19  N3  UNL     1      27.004  59.777  85.402  1.00  0.00    -0.067 NA
ATOM     20  H1  UNL     1      30.056  58.992  86.306  1.00  0.00     0.161 HD
ENDBRANCH  15  16
ENDBRANCH  14  15
ENDBRANCH  13  14
ENDBRANCH  11  12
ENDBRANCH  10  11
ENDBRANCH   9  10
ENDBRANCH   8   9
ENDBRANCH   6   7
ENDBRANCH   5   6
ENDBRANCH   4   5
ENDBRANCH   3   4
TORSDOF 11
ENDMDL
MODEL 3
REMARK VINA RESULT: -7.480233738      1.082      3.026
REMARK  11 active torsions:
REMARK  status: ('A' for Active; 'I' for Inactive)
REMARK    1  A    between atoms: C3_3  and  C4_4 
REMARK    2  A    between atoms: C4_4  and  C5_5 
REMARK    3  A    between atoms: C5_5  and  C6_6 
REMARK    4  A    between atoms: C6_6  and  C7_7 
REMARK    5  A    between atoms: C8_8  and  C9_9 
REMARK    6  A    between atoms: C9_9  and  C10_10 
REMARK    7  A    between atoms: C10_10  and  C11_11 
REMARK    8  A    between atoms: C11_11  and  C12_12 
REMARK    9  A    between atoms: C13_13  and  C14_14 
REMARK   10  A    between atoms: C14_14  and  C15_15 
REMARK   11  A    between atoms: C15_15  and  N1_16 
ROOT
HETATM    1  C1  UNL     1      26.049  56.912  89.035  1.00  0.00     0.112 C 
HETATM    2  C2  UNL     1      24.928  56.159  89.598  1.00  0.00    -0.111 C 
HETATM    3  C3  UNL     1      24.017  55.526  90.073  1.00  0.00    -0.107 C 
ENDROOT
BRANCH   3   4
HETATM    4  C4  UNL     1      22.923  54.747  90.668  1.00  0.00     0.095 C 
BRANCH   4   5
HETATM    5  C5  UNL     1      22.197  53.989  89.560  1.00  0.00     0.024 C 
BRANCH   5   6
HETATM    6  C6  UNL     1      21.113  54.893  89.016  1.00  0.00     0.095 C 
BRANCH   6   7
HETATM    7  C7  UNL     1      21.706  55.603  87.863  1.00  0.00    -0.107 C 
HETATM    8  C8  UNL     1      22.208  56.178  86.928  1.00  0.00    -0.107 C 
BRANCH   8   9
HETATM    9  C9  UNL     1      22.838  56.860  85.794  1.00  0.00     0.095 C 
BRANCH   9  10
HETATM   10  C10 UNL     1      23.985  55.985  85.270  1.00  0.00     0.024 C 
BRANCH  10  11
HETATM   11  C11 UNL     1      25.314  56.663  85.470  1.00  0.00     0.095 C 
BRANCH  11  12
HETATM   12  C12 UNL     1      25.306  57.928  84.740  1.00  0.00    -0.106 C 
HETATM   13  C13 UNL     1      25.289  58.949  84.133  1.00  0.00    -0.105 C 
BRANCH  13  14
HETATM   14  C14 UNL     1      25.250  60.178  83.380  1.00  0.00     0.113 C 
BRANCH  14  15
HETATM   15  C15 UNL     1      26.639  60.671  83.053  1.00  0.00     0.134 C 
BRANCH  15  16
HETATM   16  N1  UNL     1      27.064  61.530  84.139  1.00  0.00    -0.366 N 
HETATM   17  C16 UNL     1      28.144  61.286  84.817  1.00  0.00     0.196 C 
HETATM   18  N2  UNL     1      28.576  62.112  85.879  1.00  0.00    -0.067 NA
HETATM   19  N3  UNL     1      28.929  60.147  84.487  1.00  0.00    -0.067 NA
ATOM     20  H1  UNL     1      26.500  62.347  84.377  1.00  0.00     0.161 HD
ENDBRANCH  15  16
ENDBRANCH  14  15
ENDBRANCH  13  14
ENDBRANCH  11  12
ENDBRANCH  10  11
ENDBRANCH   9  10
ENDBRANCH   8   9
ENDBRANCH   6   7
ENDBRANCH   5   6
ENDBRANCH   4   5
ENDBRANCH   3   4
TORSDOF 11
ENDMDL
MODEL 4
REMARK VINA RESULT: -7.388449855      0.994      1.644
REMARK  11 active torsions:
REMARK  status: ('A' for Active; 'I' for Inactive)
REMARK    1  A    between atoms: C3_3  and  C4_4 
REMARK    2  A    between atoms: C4_4  and  C5_5 
REMARK    3  A    between atoms: C5_5  and  C6_6 
REMARK    4  A    between atoms: C6_6  and  C7_7 
REMARK    5  A    between atoms: C8_8  and  C9_9 
REMARK    6  A    between atoms: C9_9  and  C10_10 
REMARK    7  A    between atoms: C10_10  and  C11_11 
REMARK    8  A    between atoms: C11_11  and  C12_12 
REMARK    9  A    between atoms: C13_13  and  C14_14 
REMARK   10  A    between atoms: C14_14  and  C15_15 
REMARK   11  A    between atoms: C15_15  and  N1_16 
ROOT
HETATM    1  C1  UNL     1      22.614  56.735  86.318  1.00  0.00     0.112 C 
HETATM    2  C2  UNL     1      22.522  56.060  87.613  1.00  0.00    -0.111 C 
HETATM    3  C3  UNL     1      22.451  55.522  88.691  1.00  0.00    -0.107 C 
ENDROOT
BRANCH   3   4
HETATM    4  C4  UNL     1      22.362  54.888  90.013  1.00  0.00     0.095 C 
BRANCH   4   5
HETATM    5  C5  UNL     1      23.715  54.272  90.358  1.00  0.00     0.024 C 
BRANCH   5   6
HETATM    6  C6  UNL     1      24.396  55.182  91.356  1.00  0.00     0.095 C 
BRANCH   6   7
HETATM    7  C7  UNL     1      25.486  55.859  90.623  1.00  0.00    -0.107 C 
HETATM    8  C8  UNL     1      26.369  56.406  90.006  1.00  0.00    -0.107 C 
BRANCH   8   9
HETATM    9  C9  UNL     1      27.424  57.073  89.238  1.00  0.00     0.095 C 
BRANCH   9  10
HETATM   10  C10 UNL     1      26.770  57.918  88.137  1.00  0.00     0.024 C 
BRANCH  10  11
HETATM   11  C11 UNL     1      26.358  57.060  86.972  1.00  0.00     0.095 C 
BRANCH  11  12
HETATM   12  C12 UNL     1      26.033  57.930  85.844  1.00  0.00    -0.106 C 
HETATM   13  C13 UNL     1      25.750  58.628  84.925  1.00  0.00    -0.105 C 
BRANCH  13  14
HETATM   14  C14 UNL     1      25.384  59.465  83.810  1.00  0.00     0.113 C 
BRANCH  14  15
HETATM   15  C15 UNL     1      26.586  60.173  83.231  1.00  0.00     0.134 C 
BRANCH  15  16
HETATM   16  N1  UNL     1      26.982  61.200  84.173  1.00  0.00    -0.366 N 
HETATM   17  C16 UNL     1      28.138  61.171  84.764  1.00  0.00     0.196 C 
HETATM   18  N2  UNL     1      28.543  62.163  85.686  1.00  0.00    -0.067 NA
HETATM   19  N3  UNL     1      29.035  60.104  84.483  1.00  0.00    -0.067 NA
ATOM     20  H1  UNL     1      26.338  61.965  84.375  1.00  0.00     0.161 HD
ENDBRANCH  15  16
ENDBRANCH  14  15
ENDBRANCH  13  14
ENDBRANCH  11  12
ENDBRANCH  10  11
ENDBRANCH   9  10
ENDBRANCH   8   9
ENDBRANCH   6   7
ENDBRANCH   5   6
ENDBRANCH   4   5
ENDBRANCH   3   4
TORSDOF 11
ENDMDL
MODEL 5
REMARK VINA RESULT: -7.332123283      1.842      3.884
REMARK  11 active torsions:
REMARK  status: ('A' for Active; 'I' for Inactive)
REMARK    1  A    between atoms: C3_3  and  C4_4 
REMARK    2  A    between atoms: C4_4  and  C5_5 
REMARK    3  A    between atoms: C5_5  and  C6_6 
REMARK    4  A    between atoms: C6_6  and  C7_7 
REMARK    5  A    between atoms: C8_8  and  C9_9 
REMARK    6  A    between atoms: C9_9  and  C10_10 
REMARK    7  A    between atoms: C10_10  and  C11_11 
REMARK    8  A    between atoms: C11_11  and  C12_12 
REMARK    9  A    between atoms: C13_13  and  C14_14 
REMARK   10  A    between atoms: C14_14  and  C15_15 
REMARK   11  A    between atoms: C15_15  and  N1_16 
ROOT
HETATM    1  C1  UNL     1      26.783  56.427  84.722  1.00  0.00     0.112 C 
HETATM    2  C2  UNL     1      25.350  56.478  85.012  1.00  0.00    -0.111 C 
HETATM    3  C3  UNL     1      24.172  56.513  85.272  1.00  0.00    -0.107 C 
ENDROOT
BRANCH   3   4
HETATM    4  C4  UNL     1      22.744  56.557  85.611  1.00  0.00     0.095 C 
BRANCH   4   5
HETATM    5  C5  UNL     1      22.598  56.688  87.125  1.00  0.00     0.024 C 
BRANCH   5   6
HETATM    6  C6  UNL     1      21.553  55.692  87.576  1.00  0.00     0.095 C 
BRANCH   6   7
HETATM    7  C7  UNL     1      21.965  55.241  88.922  1.00  0.00    -0.107 C 
HETATM    8  C8  UNL     1      22.284  54.875  90.028  1.00  0.00    -0.107 C 
BRANCH   8   9
HETATM    9  C9  UNL     1      22.646  54.422  91.373  1.00  0.00     0.095 C 
BRANCH   9  10
HETATM   10  C10 UNL     1      24.141  54.074  91.388  1.00  0.00     0.024 C 
BRANCH  10  11
HETATM   11  C11 UNL     1      24.968  55.268  91.784  1.00  0.00     0.095 C 
BRANCH  11  12
HETATM   12  C12 UNL     1      25.456  55.919  90.572  1.00  0.00    -0.106 C 
HETATM   13  C13 UNL     1      25.839  56.441  89.575  1.00  0.00    -0.105 C 
BRANCH  13  14
HETATM   14  C14 UNL     1      26.283  57.065  88.354  1.00  0.00     0.113 C 
BRANCH  14  15
HETATM   15  C15 UNL     1      27.742  57.442  88.424  1.00  0.00     0.134 C 
BRANCH  15  16
HETATM   16  N1  UNL     1      27.814  58.835  88.815  1.00  0.00    -0.366 N 
HETATM   17  C16 UNL     1      28.491  59.702  88.124  1.00  0.00     0.196 C 
HETATM   18  N2  UNL     1      28.574  61.065  88.489  1.00  0.00    -0.067 NA
HETATM   19  N3  UNL     1      29.180  59.274  86.956  1.00  0.00    -0.067 NA
ATOM     20  H1  UNL     1      27.321  59.143  89.654  1.00  0.00     0.161 HD
ENDBRANCH  15  16
ENDBRANCH  14  15
ENDBRANCH  13  14
ENDBRANCH  11  12
ENDBRANCH  10  11
ENDBRANCH   9  10
ENDBRANCH   8   9
ENDBRANCH   6   7
ENDBRANCH   5   6
ENDBRANCH   4   5
ENDBRANCH   3   4
TORSDOF 11
ENDMDL
