MODEL 1
REMARK VINA RESULT: -7.640263609      0.000      0.000
REMARK  6 active torsions:
REMARK  status: ('A' for Active; 'I' for Inactive)
REMARK    1  A    between atoms: C2_2  and  C3_3 
REMARK    2  A    between atoms: C3_3  and  C4_4 
REMARK    3  A    between atoms: C4_4  and  C5_5 
REMARK    4  A    between atoms: C5_5  and  C6_6 
REMARK    5  A    between atoms: C6_6  and  N1_7 
REMARK       I    between atoms: N1_7  and  C7_9 
REMARK    6  A    between atoms: C7_9  and  C8_11 
REMARK       I    between atoms: N2_15  and  C12_16 
ROOT
HETATM    1  N1  UNL     1      25.518  56.966  88.068  1.00  0.00    -0.360 N 
ATOM      2  H1  UNL     1      24.520  56.979  87.856  1.00  0.00     0.162 HD
HETATM    3  C7  UNL     1      26.447  57.184  87.032  1.00  0.00     0.227 C 
HETATM    4  O1  UNL     1      27.670  57.164  87.313  1.00  0.00    -0.273 OA
ENDROOT
BRANCH   3   5
HETATM    5  C8  UNL     1      26.060  57.434  85.628  1.00  0.00     0.055 C 
HETATM    6  C9  UNL     1      24.698  56.912  85.293  1.00  0.00     0.027 C 
HETATM    7  C10 UNL     1      27.047  56.744  84.691  1.00  0.00     0.040 C 
HETATM    8  C11 UNL     1      27.513  57.869  83.793  1.00  0.00     0.128 C 
HETATM    9  N2  UNL     1      27.414  59.031  84.670  1.00  0.00    -0.335 N 
HETATM   10  C12 UNL     1      28.334  60.076  84.867  1.00  0.00     0.330 C 
HETATM   11  C13 UNL     1      26.129  58.890  85.325  1.00  0.00     0.146 C 
HETATM   12  N3  UNL     1      28.051  61.124  85.771  1.00  0.00    -0.040 NA
HETATM   13  O2  UNL     1      29.413  60.057  84.222  1.00  0.00    -0.251 OA
ENDBRANCH   3   5
BRANCH   1  14
HETATM   14  C6  UNL     1      25.946  56.729  89.407  1.00  0.00     0.122 C 
BRANCH  14  15
HETATM   15  C5  UNL     1      24.998  55.880  90.203  1.00  0.00     0.020 C 
BRANCH  15  16
HETATM   16  C4  UNL     1      24.046  55.222  89.197  1.00  0.00     0.005 C 
BRANCH  16  17
HETATM   17  C3  UNL     1      22.691  55.008  89.781  1.00  0.00     0.026 C 
BRANCH  17  18
HETATM   18  C2  UNL     1      21.669  55.141  88.725  1.00  0.00    -0.037 C 
HETATM   19  C1  UNL     1      21.797  56.058  87.795  1.00  0.00     0.007 C 
ENDBRANCH  17  18
ENDBRANCH  16  17
ENDBRANCH  15  16
ENDBRANCH  14  15
ENDBRANCH   1  14
TORSDOF 6
ENDMDL
MODEL 2
REMARK VINA RESULT: -7.464853553      0.899      1.526
REMARK  6 active torsions:
REMARK  status: ('A' for Active; 'I' for Inactive)
REMARK    1  A    between atoms: C2_2  and  C3_3 
REMARK    2  A    between atoms: C3_3  and  C4_4 
REMARK    3  A    between atoms: C4_4  and  C5_5 
REMARK    4  A    between atoms: C5_5  and  C6_6 
REMARK    5  A    between atoms: C6_6  and  N1_7 
REMARK       I    between atoms: N1_7  and  C7_9 
REMARK    6  A    between atoms: C7_9  and  C8_11 
REMARK       I    between atoms: N2_15  and  C12_16 
ROOT
HETATM    1  N1  UNL     1      25.722  57.021  88.208  1.00  0.00    -0.360 N 
ATOM      2  H1  UNL     1      24.715  57.047  88.050  1.00  0.00     0.162 HD
HETATM    3  C7  UNL     1      26.597  57.196  87.118  1.00  0.00     0.227 C 
HETATM    4  O1  UNL     1      27.833  57.160  87.332  1.00  0.00    -0.273 OA
ENDROOT
BRANCH   3   5
HETATM    5  C8  UNL     1      26.138  57.419  85.731  1.00  0.00     0.055 C 
HETATM    6  C9  UNL     1      24.769  56.873  85.471  1.00  0.00     0.027 C 
HETATM    7  C10 UNL     1      27.088  56.728  84.757  1.00  0.00     0.040 C 
HETATM    8  C11 UNL     1      27.493  57.847  83.821  1.00  0.00     0.128 C 
HETATM    9  N2  UNL     1      27.420  59.020  84.685  1.00  0.00    -0.335 N 
HETATM   10  C12 UNL     1      28.333  60.081  84.821  1.00  0.00     0.330 C 
HETATM   11  C13 UNL     1      26.171  58.871  85.404  1.00  0.00     0.146 C 
HETATM   12  N3  UNL     1      28.080  61.138  85.723  1.00  0.00    -0.040 NA
HETATM   13  O2  UNL     1      29.380  60.067  84.124  1.00  0.00    -0.251 OA
ENDBRANCH   3   5
BRANCH   1  14
HETATM   14  C6  UNL     1      26.218  56.808  89.527  1.00  0.00     0.122 C 
BRANCH  14  15
HETATM   15  C5  UNL     1      25.327  55.949  90.377  1.00  0.00     0.020 C 
BRANCH  15  16
HETATM   16  C4  UNL     1      24.067  55.669  89.550  1.00  0.00     0.005 C 
BRANCH  16  17
HETATM   17  C3  UNL     1      23.037  54.943  90.346  1.00  0.00     0.026 C 
BRANCH  17  18
HETATM   18  C2  UNL     1      23.615  54.520  91.636  1.00  0.00    -0.037 C 
HETATM   19  C1  UNL     1      22.840  54.040  92.581  1.00  0.00     0.007 C 
ENDBRANCH  17  18
ENDBRANCH  16  17
ENDBRANCH  15  16
ENDBRANCH  14  15
ENDBRANCH   1  14
TORSDOF 6
ENDMDL
MODEL 3
REMARK VINA RESULT: -7.366774921      2.267      3.041
REMARK  6 active torsions:
REMARK  status: ('A' for Active; 'I' for Inactive)
REMARK    1  A    between atoms: C2_2  and  C3_3 
REMARK    2  A    between atoms: C3_3  and  C4_4 
REMARK    3  A    between atoms: C4_4  and  C5_5 
REMARK    4  A    between atoms: C5_5  and  C6_6 
REMARK    5  A    between atoms: C6_6  and  N1_7 
REMARK       I    between atoms: N1_7  and  C7_9 
REMARK    6  A    between atoms: C7_9  and  C8_11 
REMARK       I    between atoms: N2_15  and  C12_16 
ROOT
HETATM    1  N1  UNL     1      24.610  57.157  84.776  1.00  0.00    -0.360 N 
ATOM      2  H1  UNL     1      24.883  56.241  85.134  1.00  0.00     0.162 HD
HETATM    3  C7  UNL     1      25.598  58.137  84.562  1.00  0.00     0.227 C 
HETATM    4  O1  UNL     1      25.243  59.257  84.122  1.00  0.00    -0.273 OA
ENDROOT
BRANCH   3   5
HETATM    5  C8  UNL     1      27.036  57.918  84.828  1.00  0.00     0.055 C 
HETATM    6  C9  UNL     1      27.493  56.536  84.482  1.00  0.00     0.027 C 
HETATM    7  C10 UNL     1      27.321  58.126  86.312  1.00  0.00     0.040 C 
HETATM    8  C11 UNL     1      28.427  59.160  86.308  1.00  0.00     0.128 C 
HETATM    9  N2  UNL     1      28.138  59.922  85.097  1.00  0.00    -0.335 N 
HETATM   10  C12 UNL     1      28.127  61.315  84.906  1.00  0.00     0.330 C 
HETATM   11  C13 UNL     1      27.855  58.919  84.090  1.00  0.00     0.146 C 
HETATM   12  N3  UNL     1      27.820  61.866  83.642  1.00  0.00    -0.040 NA
HETATM   13  O2  UNL     1      28.396  62.058  85.884  1.00  0.00    -0.251 OA
ENDBRANCH   3   5
BRANCH   1  14
HETATM   14  C6  UNL     1      23.236  57.420  84.503  1.00  0.00     0.122 C 
BRANCH  14  15
HETATM   15  C5  UNL     1      22.289  56.676  85.400  1.00  0.00     0.020 C 
BRANCH  15  16
HETATM   16  C4  UNL     1      23.070  56.325  86.670  1.00  0.00     0.005 C 
BRANCH  16  17
HETATM   17  C3  UNL     1      22.256  56.555  87.898  1.00  0.00     0.026 C 
BRANCH  17  18
HETATM   18  C2  UNL     1      21.156  55.573  87.956  1.00  0.00    -0.037 C 
HETATM   19  C1  UNL     1      21.173  54.614  88.851  1.00  0.00     0.007 C 
ENDBRANCH  17  18
ENDBRANCH  16  17
ENDBRANCH  15  16
ENDBRANCH  14  15
ENDBRANCH   1  14
TORSDOF 6
ENDMDL
MODEL 4
REMARK VINA RESULT: -7.319593491      1.928      3.047
REMARK  6 active torsions:
REMARK  status: ('A' for Active; 'I' for Inactive)
REMARK    1  A    between atoms: C2_2  and  C3_3 
REMARK    2  A    between atoms: C3_3  and  C4_4 
REMARK    3  A    between atoms: C4_4  and  C5_5 
REMARK    4  A    between atoms: C5_5  and  C6_6 
REMARK    5  A    between atoms: C6_6  and  N1_7 
REMARK       I    between atoms: N1_7  and  C7_9 
REMARK    6  A    between atoms: C7_9  and  C8_11 
REMARK       I    between atoms: N2_15  and  C12_16 
ROOT
HETATM    1  N1  UNL     1      26.076  57.013  88.477  1.00  0.00    -0.360 N 
ATOM      2  H1  UNL     1      25.058  57.037  88.414  1.00  0.00     0.162 HD
HETATM    3  C7  UNL     1      26.844  57.182  87.308  1.00  0.00     0.227 C 
HETATM    4  O1  UNL     1      28.095  57.150  87.406  1.00  0.00    -0.273 OA
ENDROOT
BRANCH   3   5
HETATM    5  C8  UNL     1      26.256  57.395  85.969  1.00  0.00     0.055 C 
HETATM    6  C9  UNL     1      24.876  56.833  85.839  1.00  0.00     0.027 C 
HETATM    7  C10 UNL     1      27.121  56.711  84.914  1.00  0.00     0.040 C 
HETATM    8  C11 UNL     1      27.425  57.829  83.941  1.00  0.00     0.128 C 
HETATM    9  N2  UNL     1      27.419  59.005  84.805  1.00  0.00    -0.335 N 
HETATM   10  C12 UNL     1      28.329  60.076  84.853  1.00  0.00     0.330 C 
HETATM   11  C13 UNL     1      26.243  58.846  85.636  1.00  0.00     0.146 C 
HETATM   12  N3  UNL     1      28.148  61.134  85.771  1.00  0.00    -0.040 NA
HETATM   13  O2  UNL     1      29.307  60.071  84.062  1.00  0.00    -0.251 OA
ENDBRANCH   3   5
BRANCH   1  14
HETATM   14  C6  UNL     1      26.694  56.811  89.745  1.00  0.00     0.122 C 
BRANCH  14  15
HETATM   15  C5  UNL     1      25.831  56.071  90.726  1.00  0.00     0.020 C 
BRANCH  15  16
HETATM   16  C4  UNL     1      26.541  56.150  92.082  1.00  0.00     0.005 C 
BRANCH  16  17
HETATM   17  C3  UNL     1      25.799  55.400  93.136  1.00  0.00     0.026 C 
BRANCH  17  18
HETATM   18  C2  UNL     1      26.253  55.838  94.470  1.00  0.00    -0.037 C 
HETATM   19  C1  UNL     1      25.444  55.766  95.500  1.00  0.00     0.007 C 
ENDBRANCH  17  18
ENDBRANCH  16  17
ENDBRANCH  15  16
ENDBRANCH  14  15
ENDBRANCH   1  14
TORSDOF 6
ENDMDL
MODEL 5
REMARK VINA RESULT: -7.290016072      2.117      3.307
REMARK  6 active torsions:
REMARK  status: ('A' for Active; 'I' for Inactive)
REMARK    1  A    between atoms: C2_2  and  C3_3 
REMARK    2  A    between atoms: C3_3  and  C4_4 
REMARK    3  A    between atoms: C4_4  and  C5_5 
REMARK    4  A    between atoms: C5_5  and  C6_6 
REMARK    5  A    between atoms: C6_6  and  N1_7 
REMARK       I    between atoms: N1_7  and  C7_9 
REMARK    6  A    between atoms: C7_9  and  C8_11 
REMARK       I    between atoms: N2_15  and  C12_16 
ROOT
HETATM    1  N1  UNL     1      24.510  57.427  84.560  1.00  0.00    -0.360 N 
ATOM      2  H1  UNL     1      24.716  56.492  84.912  1.00  0.00     0.162 HD
HETATM    3  C7  UNL     1      25.552  58.367  84.443  1.00  0.00     0.227 C 
HETATM    4  O1  UNL     1      25.278  59.511  84.007  1.00  0.00    -0.273 OA
ENDROOT
BRANCH   3   5
HETATM    5  C8  UNL     1      26.955  58.079  84.808  1.00  0.00     0.055 C 
HETATM    6  C9  UNL     1      27.364  56.673  84.501  1.00  0.00     0.027 C 
HETATM    7  C10 UNL     1      27.149  58.286  86.307  1.00  0.00     0.040 C 
HETATM    8  C11 UNL     1      28.304  59.262  86.373  1.00  0.00     0.128 C 
HETATM    9  N2  UNL     1      28.137  60.027  85.141  1.00  0.00    -0.335 N 
HETATM   10  C12 UNL     1      28.209  61.417  84.942  1.00  0.00     0.330 C 
HETATM   11  C13 UNL     1      27.872  59.031  84.122  1.00  0.00     0.146 C 
HETATM   12  N3  UNL     1      28.016  61.972  83.657  1.00  0.00    -0.040 NA
HETATM   13  O2  UNL     1      28.448  62.155  85.932  1.00  0.00    -0.251 OA
ENDBRANCH   3   5
BRANCH   1  14
HETATM   14  C6  UNL     1      23.172  57.757  84.194  1.00  0.00     0.122 C 
BRANCH  14  15
HETATM   15  C5  UNL     1      22.131  56.962  84.927  1.00  0.00     0.020 C 
BRANCH  15  16
HETATM   16  C4  UNL     1      22.858  56.219  86.054  1.00  0.00     0.005 C 
BRANCH  16  17
HETATM   17  C3  UNL     1      22.380  56.655  87.398  1.00  0.00     0.026 C 
BRANCH  17  18
HETATM   18  C2  UNL     1      23.424  56.386  88.406  1.00  0.00    -0.037 C 
HETATM   19  C1  UNL     1      24.656  56.134  88.030  1.00  0.00     0.007 C 
ENDBRANCH  17  18
ENDBRANCH  16  17
ENDBRANCH  15  16
ENDBRANCH  14  15
ENDBRANCH   1  14
TORSDOF 6
ENDMDL
