MODEL 1
REMARK VINA RESULT: -7.005985160      0.000      0.000
REMARK  5 active torsions:
REMARK  status: ('A' for Active; 'I' for Inactive)
REMARK    1  A    between atoms: O1_2  and  N1_3 
REMARK    2  A    between atoms: N1_3  and  N2_5 
REMARK    3  A    between atoms: C3_7  and  O2_8 
REMARK    4  A    between atoms: N3_10  and  N4_11 
REMARK    5  A    between atoms: N4_11  and  C4_13 
ROOT
HETATM    1  N2  UNL     1       1.821  25.080  10.412  1.00  0.00    -0.216 N 
HETATM    2  C2  UNL     1       2.799  25.336   9.526  1.00  0.00     0.178 A 
HETATM    3  C3  UNL     1       2.301  26.378   8.727  1.00  0.00     0.182 A 
HETATM    4  N3  UNL     1       1.086  26.709   9.134  1.00  0.00    -0.204 N 
HETATM    5  C10 UNL     1       0.789  25.911  10.173  1.00  0.00     0.222 A 
HETATM    6  S1  UNL     1      -0.611  25.908  11.055  1.00  0.00    -0.037 SA
ENDROOT
BRANCH   4   7
HETATM    7  N4  UNL     1       0.226  27.652   8.619  1.00  0.00    -0.290 N 
ATOM      8  H4  UNL     1      -0.635  27.285   8.213  1.00  0.00     0.187 HD
BRANCH   7   9
HETATM    9  C4  UNL     1       0.367  29.054   8.572  1.00  0.00     0.048 A 
HETATM   10  C5  UNL     1       1.055  29.613   7.496  1.00  0.00     0.031 A 
HETATM   11  C6  UNL     1       1.292  30.964   7.378  1.00  0.00     0.002 A 
HETATM   12  C7  UNL     1       0.840  31.832   8.348  1.00  0.00     0.000 A 
HETATM   13  C8  UNL     1       0.159  31.297   9.417  1.00  0.00     0.002 A 
HETATM   14  C9  UNL     1      -0.075  29.921   9.528  1.00  0.00     0.031 A 
ENDBRANCH   7   9
ENDBRANCH   4   7
BRANCH   3  15
HETATM   15  O2  UNL     1       3.080  26.892   7.699  1.00  0.00    -0.344 OA
ATOM     16  H2  UNL     1       2.952  27.789   7.414  1.00  0.00     0.219 HD
ENDBRANCH   3  15
BRANCH   1  17
HETATM   17  N1  UNL     1       1.869  24.114  11.413  1.00  0.00    -0.199 N 
ATOM     18  H1  UNL     1       1.045  23.931  11.986  1.00  0.00     0.216 HD
BRANCH  17  19
HETATM   19  O1  UNL     1       2.997  23.425  11.623  1.00  0.00    -0.269 OA
HETATM   20  C1  UNL     1       2.861  22.071  11.328  1.00  0.00     0.239 C 
ENDBRANCH  17  19
ENDBRANCH   1  17
TORSDOF 5
ENDMDL
MODEL 2
REMARK VINA RESULT: -6.979569979      1.842      2.098
REMARK  5 active torsions:
REMARK  status: ('A' for Active; 'I' for Inactive)
REMARK    1  A    between atoms: O1_2  and  N1_3 
REMARK    2  A    between atoms: N1_3  and  N2_5 
REMARK    3  A    between atoms: C3_7  and  O2_8 
REMARK    4  A    between atoms: N3_10  and  N4_11 
REMARK    5  A    between atoms: N4_11  and  C4_13 
ROOT
HETATM    1  N2  UNL     1       1.696  25.273  10.719  1.00  0.00    -0.216 N 
HETATM    2  C2  UNL     1       0.484  25.269  11.302  1.00  0.00     0.178 A 
HETATM    3  C3  UNL     1      -0.293  26.146  10.526  1.00  0.00     0.182 A 
HETATM    4  N3  UNL     1       0.440  26.635   9.540  1.00  0.00    -0.204 N 
HETATM    5  C10 UNL     1       1.665  26.098   9.656  1.00  0.00     0.222 A 
HETATM    6  S1  UNL     1       2.968  26.373   8.674  1.00  0.00    -0.037 SA
ENDROOT
BRANCH   4   7
HETATM    7  N4  UNL     1       0.089  27.547   8.569  1.00  0.00    -0.290 N 
ATOM      8  H4  UNL     1      -0.394  27.160   7.759  1.00  0.00     0.187 HD
BRANCH   7   9
HETATM    9  C4  UNL     1       0.304  28.939   8.537  1.00  0.00     0.048 A 
HETATM   10  C5  UNL     1       1.034  29.470   7.475  1.00  0.00     0.031 A 
HETATM   11  C6  UNL     1       1.343  30.809   7.371  1.00  0.00     0.002 A 
HETATM   12  C7  UNL     1       0.926  31.690   8.343  1.00  0.00     0.000 A 
HETATM   13  C8  UNL     1       0.204  31.183   9.400  1.00  0.00     0.002 A 
HETATM   14  C9  UNL     1      -0.103  29.820   9.495  1.00  0.00     0.031 A 
ENDBRANCH   7   9
ENDBRANCH   4   7
BRANCH   3  15
HETATM   15  O2  UNL     1      -1.622  26.369  10.861  1.00  0.00    -0.344 OA
ATOM     16  H2  UNL     1      -2.260  26.528  10.176  1.00  0.00     0.219 HD
ENDBRANCH   3  15
BRANCH   1  17
HETATM   17  N1  UNL     1       2.800  24.541  11.147  1.00  0.00    -0.199 N 
ATOM     18  H1  UNL     1       3.668  25.021  11.387  1.00  0.00     0.216 HD
BRANCH  17  19
HETATM   19  O1  UNL     1       2.722  23.209  11.243  1.00  0.00    -0.269 OA
HETATM   20  C1  UNL     1       3.064  22.564  10.056  1.00  0.00     0.239 C 
ENDBRANCH  17  19
ENDBRANCH   1  17
TORSDOF 5
ENDMDL
MODEL 3
REMARK VINA RESULT: -6.929366817      0.661      1.318
REMARK  5 active torsions:
REMARK  status: ('A' for Active; 'I' for Inactive)
REMARK    1  A    between atoms: O1_2  and  N1_3 
REMARK    2  A    between atoms: N1_3  and  N2_5 
REMARK    3  A    between atoms: C3_7  and  O2_8 
REMARK    4  A    between atoms: N3_10  and  N4_11 
REMARK    5  A    between atoms: N4_11  and  C4_13 
ROOT
HETATM    1  N2  UNL     1       1.577  24.981  10.596  1.00  0.00    -0.216 N 
HETATM    2  C2  UNL     1       2.631  25.176   9.785  1.00  0.00     0.178 A 
HETATM    3  C3  UNL     1       2.239  26.216   8.926  1.00  0.00     0.182 A 
HETATM    4  N3  UNL     1       1.011  26.604   9.228  1.00  0.00    -0.204 N 
HETATM    5  C10 UNL     1       0.602  25.845  10.258  1.00  0.00     0.222 A 
HETATM    6  S1  UNL     1      -0.862  25.919  11.026  1.00  0.00    -0.037 SA
ENDROOT
BRANCH   4   7
HETATM    7  N4  UNL     1       0.233  27.567   8.625  1.00  0.00    -0.290 N 
ATOM      8  H4  UNL     1      -0.641  27.232   8.220  1.00  0.00     0.187 HD
BRANCH   7   9
HETATM    9  C4  UNL     1       0.474  28.948   8.489  1.00  0.00     0.048 A 
HETATM   10  C5  UNL     1      -0.044  29.807   9.457  1.00  0.00     0.031 A 
HETATM   11  C6  UNL     1       0.092  31.177   9.395  1.00  0.00     0.002 A 
HETATM   12  C7  UNL     1       0.764  31.757   8.342  1.00  0.00     0.000 A 
HETATM   13  C8  UNL     1       1.281  30.923   7.376  1.00  0.00     0.002 A 
HETATM   14  C9  UNL     1       1.137  29.532   7.450  1.00  0.00     0.031 A 
ENDBRANCH   7   9
ENDBRANCH   4   7
BRANCH   3  15
HETATM   15  O2  UNL     1       3.116  26.673   7.951  1.00  0.00    -0.344 OA
ATOM     16  H2  UNL     1       2.786  27.179   7.219  1.00  0.00     0.219 HD
ENDBRANCH   3  15
BRANCH   1  17
HETATM   17  N1  UNL     1       1.507  24.040  11.619  1.00  0.00    -0.199 N 
ATOM     18  H1  UNL     1       1.228  24.326  12.558  1.00  0.00     0.216 HD
BRANCH  17  19
HETATM   19  O1  UNL     1       1.808  22.760  11.371  1.00  0.00    -0.269 OA
HETATM   20  C1  UNL     1       0.801  22.097  10.674  1.00  0.00     0.239 C 
ENDBRANCH  17  19
ENDBRANCH   1  17
TORSDOF 5
ENDMDL
MODEL 4
REMARK VINA RESULT: -6.707436102      2.847      3.523
REMARK  5 active torsions:
REMARK  status: ('A' for Active; 'I' for Inactive)
REMARK    1  A    between atoms: O1_2  and  N1_3 
REMARK    2  A    between atoms: N1_3  and  N2_5 
REMARK    3  A    between atoms: C3_7  and  O2_8 
REMARK    4  A    between atoms: N3_10  and  N4_11 
REMARK    5  A    between atoms: N4_11  and  C4_13 
ROOT
HETATM    1  N2  UNL     1       3.940  26.187   7.949  1.00  0.00    -0.216 N 
HETATM    2  C2  UNL     1       3.174  25.614   8.894  1.00  0.00     0.178 A 
HETATM    3  C3  UNL     1       1.938  26.277   8.807  1.00  0.00     0.182 A 
HETATM    4  N3  UNL     1       1.990  27.192   7.854  1.00  0.00    -0.204 N 
HETATM    5  C10 UNL     1       3.223  27.137   7.323  1.00  0.00     0.222 A 
HETATM    6  S1  UNL     1       3.817  28.071   6.093  1.00  0.00    -0.037 SA
ENDROOT
BRANCH   4   7
HETATM    7  N4  UNL     1       1.019  28.084   7.454  1.00  0.00    -0.290 N 
ATOM      8  H4  UNL     1       0.473  27.801   6.641  1.00  0.00     0.187 HD
BRANCH   7   9
HETATM    9  C4  UNL     1       0.675  29.332   8.010  1.00  0.00     0.048 A 
HETATM   10  C5  UNL     1       1.332  30.468   7.540  1.00  0.00     0.031 A 
HETATM   11  C6  UNL     1       1.107  31.729   8.047  1.00  0.00     0.002 A 
HETATM   12  C7  UNL     1       0.197  31.911   9.064  1.00  0.00     0.000 A 
HETATM   13  C8  UNL     1      -0.461  30.799   9.541  1.00  0.00     0.002 A 
HETATM   14  C9  UNL     1      -0.223  29.523   9.019  1.00  0.00     0.031 A 
ENDBRANCH   7   9
ENDBRANCH   4   7
BRANCH   3  15
HETATM   15  O2  UNL     1       0.901  25.916   9.657  1.00  0.00    -0.344 OA
ATOM     16  H2  UNL     1       0.560  26.547  10.280  1.00  0.00     0.219 HD
ENDBRANCH   3  15
BRANCH   1  17
HETATM   17  N1  UNL     1       5.261  25.848   7.666  1.00  0.00    -0.199 N 
ATOM     18  H1  UNL     1       6.023  26.303   8.169  1.00  0.00     0.216 HD
BRANCH  17  19
HETATM   19  O1  UNL     1       5.529  24.927   6.734  1.00  0.00    -0.269 OA
HETATM   20  C1  UNL     1       6.530  25.330   5.853  1.00  0.00     0.239 C 
ENDBRANCH  17  19
ENDBRANCH   1  17
TORSDOF 5
ENDMDL
MODEL 5
REMARK VINA RESULT: -6.615614389      2.544      3.153
REMARK  5 active torsions:
REMARK  status: ('A' for Active; 'I' for Inactive)
REMARK    1  A    between atoms: O1_2  and  N1_3 
REMARK    2  A    between atoms: N1_3  and  N2_5 
REMARK    3  A    between atoms: C3_7  and  O2_8 
REMARK    4  A    between atoms: N3_10  and  N4_11 
REMARK    5  A    between atoms: N4_11  and  C4_13 
ROOT
HETATM    1  N2  UNL     1       0.155  23.502  11.248  1.00  0.00    -0.216 N 
HETATM    2  C2  UNL     1      -1.018  24.126  11.456  1.00  0.00     0.178 A 
HETATM    3  C3  UNL     1      -0.754  25.484  11.212  1.00  0.00     0.182 A 
HETATM    4  N3  UNL     1       0.517  25.637  10.877  1.00  0.00    -0.204 N 
HETATM    5  C10 UNL     1       1.078  24.417  10.898  1.00  0.00     0.222 A 
HETATM    6  S1  UNL     1       2.654  24.042  10.557  1.00  0.00    -0.037 SA
ENDROOT
BRANCH   4   7
HETATM    7  N4  UNL     1       1.203  26.794  10.586  1.00  0.00    -0.290 N 
ATOM      8  H4  UNL     1       1.818  27.136  11.324  1.00  0.00     0.187 HD
BRANCH   7   9
HETATM    9  C4  UNL     1       1.176  27.573   9.412  1.00  0.00     0.048 A 
HETATM   10  C5  UNL     1       2.005  27.202   8.354  1.00  0.00     0.031 A 
HETATM   11  C6  UNL     1       2.091  27.920   7.182  1.00  0.00     0.002 A 
HETATM   12  C7  UNL     1       1.338  29.060   7.013  1.00  0.00     0.000 A 
HETATM   13  C8  UNL     1       0.514  29.441   8.048  1.00  0.00     0.002 A 
HETATM   14  C9  UNL     1       0.435  28.704   9.236  1.00  0.00     0.031 A 
ENDBRANCH   7   9
ENDBRANCH   4   7
BRANCH   3  15
HETATM   15  O2  UNL     1      -1.774  26.417  11.336  1.00  0.00    -0.344 OA
ATOM     16  H2  UNL     1      -2.322  26.417  12.111  1.00  0.00     0.219 HD
ENDBRANCH   3  15
BRANCH   1  17
HETATM   17  N1  UNL     1       0.376  22.133  11.374  1.00  0.00    -0.199 N 
ATOM     18  H1  UNL     1       0.431  21.708  12.299  1.00  0.00     0.216 HD
BRANCH  17  19
HETATM   19  O1  UNL     1       0.516  21.376  10.279  1.00  0.00    -0.269 OA
HETATM   20  C1  UNL     1       1.307  20.252  10.502  1.00  0.00     0.239 C 
ENDBRANCH  17  19
ENDBRANCH   1  17
TORSDOF 5
ENDMDL
