MODEL 1
REMARK VINA RESULT: -9.064119968      0.000      0.000
REMARK  3 active torsions:
REMARK  status: ('A' for Active; 'I' for Inactive)
REMARK    1  A    between atoms: C3_5  and  C4_6 
REMARK    2  A    between atoms: C7_15  and  C8_16 
REMARK    3  A    between atoms: C14_24  and  C15_25 
ROOT
HETATM    1  C1  UNL     1       4.905  -6.167  84.576  1.00  0.00     0.069 C 
HETATM    2  C2  UNL     1       4.007  -7.289  84.180  1.00  0.00     0.017 A 
HETATM    3  N1  UNL     1       4.395  -8.584  84.144  1.00  0.00    -0.357 N 
ATOM      4  H1  UNL     1       5.330  -8.916  84.382  1.00  0.00     0.166 HD
HETATM    5  C3  UNL     1       3.380  -9.378  83.752  1.00  0.00     0.061 A 
HETATM    6  C13 UNL     1       2.308  -8.504  83.535  1.00  0.00     0.046 A 
HETATM    7  C14 UNL     1       2.687  -7.209  83.798  1.00  0.00    -0.002 A 
ENDROOT
BRANCH   5   8
HETATM    8  C4  UNL     1       3.363 -10.817  83.578  1.00  0.00     0.079 A 
HETATM    9  N2  UNL     1       3.810 -11.420  82.467  1.00  0.00    -0.305 N 
HETATM   10  C5  UNL     1       3.780 -12.773  82.334  1.00  0.00     0.327 A 
ATOM     11  H2  UNL     1       4.179 -10.852  81.705  1.00  0.00     0.171 HD
HETATM   12  O1  UNL     1       4.220 -13.254  81.256  1.00  0.00    -0.247 OA
HETATM   13  N3  UNL     1       3.300 -13.565  83.311  1.00  0.00    -0.275 N 
HETATM   14  C6  UNL     1       2.842 -13.003  84.440  1.00  0.00     0.262 A 
ATOM     15  H3  UNL     1       3.285 -14.578  83.195  1.00  0.00     0.173 HD
HETATM   16  O2  UNL     1       2.391 -13.726  85.362  1.00  0.00    -0.267 OA
HETATM   17  C7  UNL     1       2.875 -11.619  84.571  1.00  0.00     0.071 A 
BRANCH  17  18
HETATM   18  C8  UNL     1       2.383 -11.006  85.792  1.00  0.00    -0.015 A 
HETATM   19  C9  UNL     1       1.052 -10.639  85.892  1.00  0.00     0.029 A 
HETATM   20  C10 UNL     1       0.533 -10.051  87.024  1.00  0.00     0.088 A 
HETATM   21  N4  UNL     1       1.341  -9.821  88.079  1.00  0.00    -0.375 N 
HETATM   22  C11 UNL     1       2.636 -10.163  88.022  1.00  0.00     0.088 A 
ATOM     23  H4  UNL     1       0.966  -9.386  88.922  1.00  0.00     0.164 HD
HETATM   24  C12 UNL     1       3.186 -10.759  86.885  1.00  0.00     0.029 A 
ENDBRANCH  17  18
ENDBRANCH   5   8
BRANCH   7  25
HETATM   25  C15 UNL     1       1.910  -5.978  83.709  1.00  0.00    -0.023 A 
HETATM   26  C16 UNL     1       1.809  -5.297  82.514  1.00  0.00     0.013 A 
HETATM   27  C17 UNL     1       1.092  -4.129  82.361  1.00  0.00     0.013 A 
HETATM   28  C18 UNL     1       0.449  -3.625  83.473  1.00  0.00    -0.026 A 
HETATM   29  C19 UNL     1      -0.273  -2.465  83.363  1.00  0.00     0.012 A 
HETATM   30  C23 UNL     1       0.514  -4.263  84.701  1.00  0.00    -0.025 A 
HETATM   31  C20 UNL     1      -0.945  -1.900  84.436  1.00  0.00     0.001 A 
HETATM   32  C21 UNL     1      -0.887  -2.528  85.662  1.00  0.00     0.001 A 
HETATM   33  C22 UNL     1      -0.160  -3.691  85.766  1.00  0.00     0.012 A 
HETATM   34  C24 UNL     1       1.240  -5.417  84.786  1.00  0.00     0.024 A 
ENDBRANCH   7  25
TORSDOF 3
ENDMDL
MODEL 2
REMARK VINA RESULT: -8.914995922      3.999      8.161
REMARK  3 active torsions:
REMARK  status: ('A' for Active; 'I' for Inactive)
REMARK    1  A    between atoms: C3_5  and  C4_6 
REMARK    2  A    between atoms: C7_15  and  C8_16 
REMARK    3  A    between atoms: C14_24  and  C15_25 
ROOT
HETATM    1  C1  UNL     1       5.028  -7.982  86.501  1.00  0.00     0.069 C 
HETATM    2  C2  UNL     1       3.558  -7.733  86.498  1.00  0.00     0.017 A 
HETATM    3  N1  UNL     1       2.949  -6.828  87.298  1.00  0.00    -0.357 N 
ATOM      4  H1  UNL     1       3.431  -6.235  87.974  1.00  0.00     0.166 HD
HETATM    5  C3  UNL     1       1.619  -6.816  87.081  1.00  0.00     0.061 A 
HETATM    6  C13 UNL     1       1.412  -7.778  86.085  1.00  0.00     0.046 A 
HETATM    7  C14 UNL     1       2.606  -8.351  85.718  1.00  0.00    -0.002 A 
ENDROOT
BRANCH   5   8
HETATM    8  C4  UNL     1       0.600  -6.006  87.718  1.00  0.00     0.079 A 
HETATM    9  N2  UNL     1      -0.121  -6.435  88.764  1.00  0.00    -0.305 N 
HETATM   10  C5  UNL     1      -1.072  -5.651  89.339  1.00  0.00     0.327 A 
ATOM     11  H2  UNL     1       0.046  -7.370  89.136  1.00  0.00     0.171 HD
HETATM   12  O1  UNL     1      -1.700  -6.135  90.318  1.00  0.00    -0.247 OA
HETATM   13  N3  UNL     1      -1.330  -4.411  88.883  1.00  0.00    -0.275 N 
HETATM   14  C6  UNL     1      -0.632  -3.942  87.837  1.00  0.00     0.262 A 
ATOM     15  H3  UNL     1      -2.046  -3.836  89.326  1.00  0.00     0.173 HD
HETATM   16  O2  UNL     1      -0.860  -2.788  87.399  1.00  0.00    -0.267 OA
HETATM   17  C7  UNL     1       0.339  -4.747  87.253  1.00  0.00     0.071 A 
BRANCH  17  18
HETATM   18  C8  UNL     1       1.098  -4.244  86.123  1.00  0.00    -0.015 A 
HETATM   19  C9  UNL     1       0.625  -4.430  84.835  1.00  0.00     0.029 A 
HETATM   20  C10 UNL     1       1.306  -3.976  83.727  1.00  0.00     0.088 A 
HETATM   21  N4  UNL     1       2.476  -3.326  83.891  1.00  0.00    -0.375 N 
HETATM   22  C11 UNL     1       2.968  -3.125  85.121  1.00  0.00     0.088 A 
ATOM     23  H4  UNL     1       2.988  -2.986  83.077  1.00  0.00     0.164 HD
HETATM   24  C12 UNL     1       2.296  -3.577  86.261  1.00  0.00     0.029 A 
ENDBRANCH  17  18
ENDBRANCH   5   8
BRANCH   7  25
HETATM   25  C15 UNL     1       2.874  -9.389  84.730  1.00  0.00    -0.023 A 
HETATM   26  C16 UNL     1       2.886  -9.091  83.384  1.00  0.00     0.013 A 
HETATM   27  C17 UNL     1       3.131 -10.023  82.399  1.00  0.00     0.013 A 
HETATM   28  C18 UNL     1       3.374 -11.322  82.795  1.00  0.00    -0.026 A 
HETATM   29  C19 UNL     1       3.621 -12.280  81.847  1.00  0.00     0.012 A 
HETATM   30  C23 UNL     1       3.375 -11.684  84.133  1.00  0.00    -0.025 A 
HETATM   31  C20 UNL     1       3.873 -13.603  82.171  1.00  0.00     0.001 A 
HETATM   32  C21 UNL     1       3.876 -13.974  83.499  1.00  0.00     0.001 A 
HETATM   33  C22 UNL     1       3.627 -13.008  84.447  1.00  0.00     0.012 A 
HETATM   34  C24 UNL     1       3.126 -10.713  85.061  1.00  0.00     0.024 A 
ENDBRANCH   7  25
TORSDOF 3
ENDMDL
MODEL 3
REMARK VINA RESULT: -8.902034102      3.005      3.907
REMARK  3 active torsions:
REMARK  status: ('A' for Active; 'I' for Inactive)
REMARK    1  A    between atoms: C3_5  and  C4_6 
REMARK    2  A    between atoms: C7_15  and  C8_16 
REMARK    3  A    between atoms: C14_24  and  C15_25 
ROOT
HETATM    1  C1  UNL     1       5.742  -7.729  87.571  1.00  0.00     0.069 C 
HETATM    2  C2  UNL     1       5.249  -8.553  86.430  1.00  0.00     0.017 A 
HETATM    3  N1  UNL     1       4.722  -9.791  86.570  1.00  0.00    -0.357 N 
ATOM      4  H1  UNL     1       4.613 -10.276  87.460  1.00  0.00     0.166 HD
HETATM    5  C3  UNL     1       4.361 -10.295  85.374  1.00  0.00     0.061 A 
HETATM    6  C13 UNL     1       4.692  -9.296  84.451  1.00  0.00     0.046 A 
HETATM    7  C14 UNL     1       5.243  -8.214  85.095  1.00  0.00    -0.002 A 
ENDROOT
BRANCH   5   8
HETATM    8  C4  UNL     1       3.764 -11.581  85.071  1.00  0.00     0.079 A 
HETATM    9  N2  UNL     1       4.467 -12.611  84.580  1.00  0.00    -0.305 N 
HETATM   10  C5  UNL     1       3.877 -13.805  84.305  1.00  0.00     0.327 A 
ATOM     11  H2  UNL     1       5.467 -12.498  84.409  1.00  0.00     0.171 HD
HETATM   12  O1  UNL     1       4.615 -14.718  83.847  1.00  0.00    -0.247 OA
HETATM   13  N3  UNL     1       2.562 -14.004  84.513  1.00  0.00    -0.275 N 
HETATM   14  C6  UNL     1       1.820 -12.999  85.002  1.00  0.00     0.262 A 
ATOM     15  H3  UNL     1       2.136 -14.906  84.301  1.00  0.00     0.173 HD
HETATM   16  O2  UNL     1       0.592 -13.166  85.202  1.00  0.00    -0.267 OA
HETATM   17  C7  UNL     1       2.428 -11.780  85.282  1.00  0.00     0.071 A 
BRANCH  17  18
HETATM   18  C8  UNL     1       1.630 -10.690  85.814  1.00  0.00    -0.015 A 
HETATM   19  C9  UNL     1       1.167  -9.697  84.968  1.00  0.00     0.029 A 
HETATM   20  C10 UNL     1       0.409  -8.639  85.419  1.00  0.00     0.088 A 
HETATM   21  N4  UNL     1       0.102  -8.558  86.730  1.00  0.00    -0.375 N 
HETATM   22  C11 UNL     1       0.532  -9.499  87.581  1.00  0.00     0.088 A 
ATOM     23  H4  UNL     1      -0.458  -7.778  87.074  1.00  0.00     0.164 HD
HETATM   24  C12 UNL     1       1.302 -10.581  87.148  1.00  0.00     0.029 A 
ENDBRANCH  17  18
ENDBRANCH   5   8
BRANCH   7  25
HETATM   25  C15 UNL     1       5.732  -6.955  84.545  1.00  0.00    -0.023 A 
HETATM   26  C16 UNL     1       7.057  -6.814  84.188  1.00  0.00     0.013 A 
HETATM   27  C17 UNL     1       7.584  -5.653  83.663  1.00  0.00     0.013 A 
HETATM   28  C18 UNL     1       6.730  -4.584  83.493  1.00  0.00    -0.026 A 
HETATM   29  C19 UNL     1       7.215  -3.411  82.975  1.00  0.00     0.012 A 
HETATM   30  C23 UNL     1       5.389  -4.664  83.833  1.00  0.00    -0.025 A 
HETATM   31  C20 UNL     1       6.417  -2.296  82.776  1.00  0.00     0.001 A 
HETATM   32  C21 UNL     1       5.081  -2.366  83.111  1.00  0.00     0.001 A 
HETATM   33  C22 UNL     1       4.600  -3.545  83.631  1.00  0.00     0.012 A 
HETATM   34  C24 UNL     1       4.928  -5.842  84.348  1.00  0.00     0.024 A 
ENDBRANCH   7  25
TORSDOF 3
ENDMDL
MODEL 4
REMARK VINA RESULT: -8.853329490      3.344      4.539
REMARK  3 active torsions:
REMARK  status: ('A' for Active; 'I' for Inactive)
REMARK    1  A    between atoms: C3_5  and  C4_6 
REMARK    2  A    between atoms: C7_15  and  C8_16 
REMARK    3  A    between atoms: C14_24  and  C15_25 
ROOT
HETATM    1  C1  UNL     1       6.272  -7.291  84.232  1.00  0.00     0.069 C 
HETATM    2  C2  UNL     1       5.510  -8.368  84.928  1.00  0.00     0.017 A 
HETATM    3  N1  UNL     1       5.088  -9.501  84.321  1.00  0.00    -0.357 N 
ATOM      4  H1  UNL     1       5.246  -9.725  83.339  1.00  0.00     0.166 HD
HETATM    5  C3  UNL     1       4.429 -10.292  85.190  1.00  0.00     0.061 A 
HETATM    6  C13 UNL     1       4.455  -9.591  86.401  1.00  0.00     0.046 A 
HETATM    7  C14 UNL     1       5.122  -8.398  86.249  1.00  0.00    -0.002 A 
ENDROOT
BRANCH   5   8
HETATM    8  C4  UNL     1       3.815 -11.584  84.959  1.00  0.00     0.079 A 
HETATM    9  N2  UNL     1       4.503 -12.649  84.522  1.00  0.00    -0.305 N 
HETATM   10  C5  UNL     1       3.897 -13.848  84.314  1.00  0.00     0.327 A 
ATOM     11  H2  UNL     1       5.503 -12.557  84.343  1.00  0.00     0.171 HD
HETATM   12  O1  UNL     1       4.622 -14.794  83.904  1.00  0.00    -0.247 OA
HETATM   13  N3  UNL     1       2.580 -14.018  84.535  1.00  0.00    -0.275 N 
HETATM   14  C6  UNL     1       1.852 -12.979  84.972  1.00  0.00     0.262 A 
ATOM     15  H3  UNL     1       2.142 -14.925  84.374  1.00  0.00     0.173 HD
HETATM   16  O2  UNL     1       0.623 -13.120  85.184  1.00  0.00    -0.267 OA
HETATM   17  C7  UNL     1       2.477 -11.755  85.184  1.00  0.00     0.071 A 
BRANCH  17  18
HETATM   18  C8  UNL     1       1.695 -10.628  85.659  1.00  0.00    -0.015 A 
HETATM   19  C9  UNL     1       1.339 -10.548  86.994  1.00  0.00     0.029 A 
HETATM   20  C10 UNL     1       0.595  -9.504  87.498  1.00  0.00     0.088 A 
HETATM   21  N4  UNL     1       0.194  -8.518  86.668  1.00  0.00    -0.375 N 
HETATM   22  C11 UNL     1       0.518  -8.558  85.369  1.00  0.00     0.088 A 
ATOM     23  H4  UNL     1      -0.357  -7.740  87.031  1.00  0.00     0.164 HD
HETATM   24  C12 UNL     1       1.271  -9.608  84.834  1.00  0.00     0.029 A 
ENDBRANCH  17  18
ENDBRANCH   5   8
BRANCH   7  25
HETATM   25  C15 UNL     1       5.392  -7.353  87.229  1.00  0.00    -0.023 A 
HETATM   26  C16 UNL     1       6.529  -7.396  88.006  1.00  0.00     0.013 A 
HETATM   27  C17 UNL     1       6.844  -6.441  88.950  1.00  0.00     0.013 A 
HETATM   28  C18 UNL     1       5.962  -5.393  89.116  1.00  0.00    -0.026 A 
HETATM   29  C19 UNL     1       6.237  -4.423  90.045  1.00  0.00     0.012 A 
HETATM   30  C23 UNL     1       4.802  -5.295  88.365  1.00  0.00    -0.025 A 
HETATM   31  C20 UNL     1       5.399  -3.343  90.266  1.00  0.00     0.001 A 
HETATM   32  C21 UNL     1       4.242  -3.235  89.524  1.00  0.00     0.001 A 
HETATM   33  C22 UNL     1       3.971  -4.212  88.593  1.00  0.00     0.012 A 
HETATM   34  C24 UNL     1       4.548  -6.272  87.445  1.00  0.00     0.024 A 
ENDBRANCH   7  25
TORSDOF 3
ENDMDL
MODEL 5
REMARK VINA RESULT: -8.820727508      4.378      8.456
REMARK  3 active torsions:
REMARK  status: ('A' for Active; 'I' for Inactive)
REMARK    1  A    between atoms: C3_5  and  C4_6 
REMARK    2  A    between atoms: C7_15  and  C8_16 
REMARK    3  A    between atoms: C14_24  and  C15_25 
ROOT
HETATM    1  C1  UNL     1       4.705  -7.536  86.888  1.00  0.00     0.069 C 
HETATM    2  C2  UNL     1       3.277  -7.198  87.149  1.00  0.00     0.017 A 
HETATM    3  N1  UNL     1       2.880  -6.149  87.905  1.00  0.00    -0.357 N 
ATOM      4  H1  UNL     1       3.512  -5.495  88.367  1.00  0.00     0.166 HD
HETATM    5  C3  UNL     1       1.535  -6.085  87.966  1.00  0.00     0.061 A 
HETATM    6  C13 UNL     1       1.091  -7.167  87.197  1.00  0.00     0.046 A 
HETATM    7  C14 UNL     1       2.162  -7.862  86.687  1.00  0.00    -0.002 A 
ENDROOT
BRANCH   5   8
HETATM    8  C4  UNL     1       0.700  -5.128  88.665  1.00  0.00     0.079 A 
HETATM    9  N2  UNL     1       0.215  -5.347  89.895  1.00  0.00    -0.305 N 
HETATM   10  C5  UNL     1      -0.567  -4.429  90.523  1.00  0.00     0.327 A 
ATOM     11  H2  UNL     1       0.437  -6.222  90.370  1.00  0.00     0.171 HD
HETATM   12  O1  UNL     1      -0.978  -4.719  91.678  1.00  0.00    -0.247 OA
HETATM   13  N3  UNL     1      -0.889  -3.261  89.937  1.00  0.00    -0.275 N 
HETATM   14  C6  UNL     1      -0.425  -3.000  88.705  1.00  0.00     0.262 A 
ATOM     15  H3  UNL     1      -1.476  -2.584  90.422  1.00  0.00     0.173 HD
HETATM   16  O2  UNL     1      -0.715  -1.916  88.143  1.00  0.00    -0.267 OA
HETATM   17  C7  UNL     1       0.375  -3.942  88.067  1.00  0.00     0.071 A 
BRANCH  17  18
HETATM   18  C8  UNL     1       0.881  -3.664  86.735  1.00  0.00    -0.015 A 
HETATM   19  C9  UNL     1       0.143  -4.036  85.625  1.00  0.00     0.029 A 
HETATM   20  C10 UNL     1       0.576  -3.799  84.339  1.00  0.00     0.088 A 
HETATM   21  N4  UNL     1       1.761  -3.184  84.143  1.00  0.00    -0.375 N 
HETATM   22  C11 UNL     1       2.505  -2.808  85.192  1.00  0.00     0.088 A 
ATOM     23  H4  UNL     1       2.091  -3.004  83.195  1.00  0.00     0.164 HD
HETATM   24  C12 UNL     1       2.087  -3.037  86.506  1.00  0.00     0.029 A 
ENDBRANCH  17  18
ENDBRANCH   5   8
BRANCH   7  25
HETATM   25  C15 UNL     1       2.181  -9.048  85.839  1.00  0.00    -0.023 A 
HETATM   26  C16 UNL     1       1.550 -10.206  86.238  1.00  0.00     0.013 A 
HETATM   27  C17 UNL     1       1.530 -11.361  85.486  1.00  0.00     0.013 A 
HETATM   28  C18 UNL     1       2.183 -11.343  84.271  1.00  0.00    -0.026 A 
HETATM   29  C19 UNL     1       2.188 -12.472  83.493  1.00  0.00     0.012 A 
HETATM   30  C23 UNL     1       2.836 -10.210  83.815  1.00  0.00    -0.025 A 
HETATM   31  C20 UNL     1       2.822 -12.527  82.263  1.00  0.00     0.001 A 
HETATM   32  C21 UNL     1       3.475 -11.405  81.800  1.00  0.00     0.001 A 
HETATM   33  C22 UNL     1       3.468 -10.275  82.585  1.00  0.00     0.012 A 
HETATM   34  C24 UNL     1       2.819  -9.097  84.607  1.00  0.00     0.024 A 
ENDBRANCH   7  25
TORSDOF 3
ENDMDL
