MODEL 1
REMARK VINA RESULT: -8.636234996      0.000      0.000
REMARK  6 active torsions:
REMARK  status: ('A' for Active; 'I' for Inactive)
REMARK    1  A    between atoms: O1_2  and  C2_3 
REMARK    2  A    between atoms: C8_11  and  N2_12 
REMARK    3  A    between atoms: N2_12  and  C9_14 
REMARK    4  A    between atoms: C9_14  and  C10_15 
REMARK    5  A    between atoms: C13_18  and  N3_19 
REMARK    6  A    between atoms: N3_19  and  C14_21 
ROOT
HETATM    1  C10 UNL     1       2.669 -10.011  82.909  1.00  0.00    -0.040 A 
HETATM    2  C11 UNL     1       1.378  -9.898  83.352  1.00  0.00     0.011 A 
HETATM    3  C12 UNL     1       0.923  -8.715  83.908  1.00  0.00     0.030 A 
HETATM    4  C13 UNL     1       1.752  -7.645  84.024  1.00  0.00     0.033 A 
HETATM    5  C21 UNL     1       3.053  -7.739  83.586  1.00  0.00     0.030 A 
HETATM    6  C22 UNL     1       3.494  -8.926  83.033  1.00  0.00     0.011 A 
ENDROOT
BRANCH   1   7
HETATM    7  C9  UNL     1       3.160 -11.255  82.322  1.00  0.00     0.158 C 
BRANCH   7   8
HETATM    8  N2  UNL     1       3.993 -11.920  83.311  1.00  0.00    -0.385 N 
ATOM      9  H2  UNL     1       4.990 -11.703  83.330  1.00  0.00     0.160 HD
BRANCH   8  10
HETATM   10  C8  UNL     1       3.536 -12.762  84.157  1.00  0.00     0.042 A 
HETATM   11  C7  UNL     1       2.962 -13.954  83.867  1.00  0.00     0.047 A 
HETATM   12  C6  UNL     1       2.511 -14.767  84.886  1.00  0.00     0.090 A 
HETATM   13  N1  UNL     1       2.618 -14.424  86.169  1.00  0.00    -0.365 N 
HETATM   14  C5  UNL     1       3.186 -13.242  86.488  1.00  0.00     0.044 A 
ATOM     15  H1  UNL     1       2.274 -15.047  86.900  1.00  0.00     0.165 HD
HETATM   16  C4  UNL     1       3.294 -12.892  87.829  1.00  0.00     0.033 A 
HETATM   17  C23 UNL     1       3.651 -12.396  85.505  1.00  0.00     0.020 A 
HETATM   18  C3  UNL     1       3.871 -11.692  88.159  1.00  0.00     0.039 A 
HETATM   19  C2  UNL     1       4.338 -10.840  87.181  1.00  0.00     0.069 A 
HETATM   20  C24 UNL     1       4.229 -11.190  85.856  1.00  0.00     0.052 A 
BRANCH  19  21
HETATM   21  O1  UNL     1       4.922  -9.624  87.517  1.00  0.00    -0.356 OA
HETATM   22  C1  UNL     1       4.517  -8.420  86.877  1.00  0.00     0.210 C 
ENDBRANCH  19  21
ENDBRANCH   8  10
ENDBRANCH   7   8
ENDBRANCH   1   7
BRANCH   4  23
HETATM   23  N3  UNL     1       1.316  -6.393  84.598  1.00  0.00    -0.342 N 
ATOM     24  H3  UNL     1       0.819  -6.368  85.488  1.00  0.00     0.167 HD
BRANCH  23  25
HETATM   25  C14 UNL     1       1.579  -5.291  83.940  1.00  0.00     0.107 A 
HETATM   26  C15 UNL     1       1.094  -5.170  82.657  1.00  0.00     0.049 A 
HETATM   27  C16 UNL     1       1.376  -3.996  81.962  1.00  0.00     0.019 A 
HETATM   28  C17 UNL     1       2.117  -2.988  82.542  1.00  0.00     0.009 A 
HETATM   29  C18 UNL     1       2.551  -1.747  82.129  1.00  0.00     0.032 A 
HETATM   30  C20 UNL     1       2.584  -3.148  83.829  1.00  0.00     0.117 A 
HETATM   31  C19 UNL     1       3.273  -1.154  83.145  1.00  0.00     0.090 A 
HETATM   32  N4  UNL     1       3.264  -2.041  84.153  1.00  0.00    -0.352 N 
ATOM     33  H4  UNL     1       3.718  -1.890  85.054  1.00  0.00     0.166 HD
HETATM   34  N5  UNL     1       2.297  -4.301  84.490  1.00  0.00    -0.328 N 
ATOM     35  H5  UNL     1       2.643  -4.418  85.443  1.00  0.00     0.169 HD
ENDBRANCH  23  25
ENDBRANCH   4  23
TORSDOF 6
ENDMDL
MODEL 2
REMARK VINA RESULT: -8.633317806      1.583      1.786
REMARK  6 active torsions:
REMARK  status: ('A' for Active; 'I' for Inactive)
REMARK    1  A    between atoms: O1_2  and  C2_3 
REMARK    2  A    between atoms: C8_11  and  N2_12 
REMARK    3  A    between atoms: N2_12  and  C9_14 
REMARK    4  A    between atoms: C9_14  and  C10_15 
REMARK    5  A    between atoms: C13_18  and  N3_19 
REMARK    6  A    between atoms: N3_19  and  C14_21 
ROOT
HETATM    1  C10 UNL     1       2.893  -9.421  83.225  1.00  0.00    -0.040 A 
HETATM    2  C11 UNL     1       1.647  -9.154  83.727  1.00  0.00     0.011 A 
HETATM    3  C12 UNL     1       1.400  -7.977  84.413  1.00  0.00     0.030 A 
HETATM    4  C13 UNL     1       2.392  -7.068  84.598  1.00  0.00     0.033 A 
HETATM    5  C21 UNL     1       3.650  -7.319  84.102  1.00  0.00     0.030 A 
HETATM    6  C22 UNL     1       3.883  -8.497  83.419  1.00  0.00     0.011 A 
ENDROOT
BRANCH   1   7
HETATM    7  C9  UNL     1       3.164 -10.660  82.500  1.00  0.00     0.158 C 
BRANCH   7   8
HETATM    8  N2  UNL     1       3.998 -11.499  83.344  1.00  0.00    -0.385 N 
ATOM      9  H2  UNL     1       5.003 -11.319  83.368  1.00  0.00     0.160 HD
BRANCH   8  10
HETATM   10  C8  UNL     1       3.535 -12.452  84.059  1.00  0.00     0.042 A 
HETATM   11  C7  UNL     1       2.968 -13.593  83.599  1.00  0.00     0.047 A 
HETATM   12  C6  UNL     1       2.508 -14.541  84.488  1.00  0.00     0.090 A 
HETATM   13  N1  UNL     1       2.599 -14.381  85.808  1.00  0.00    -0.365 N 
HETATM   14  C5  UNL     1       3.159 -13.254  86.296  1.00  0.00     0.044 A 
ATOM     15  H1  UNL     1       2.249 -15.100  86.441  1.00  0.00     0.165 HD
HETATM   16  C4  UNL     1       3.251 -13.094  87.674  1.00  0.00     0.033 A 
HETATM   17  C23 UNL     1       3.633 -12.278  85.447  1.00  0.00     0.020 A 
HETATM   18  C3  UNL     1       3.820 -11.952  88.176  1.00  0.00     0.039 A 
HETATM   19  C2  UNL     1       4.296 -10.970  87.331  1.00  0.00     0.069 A 
HETATM   20  C24 UNL     1       4.203 -11.132  85.970  1.00  0.00     0.052 A 
BRANCH  19  21
HETATM   21  O1  UNL     1       4.871  -9.813  87.841  1.00  0.00    -0.356 OA
HETATM   22  C1  UNL     1       5.064  -8.670  87.016  1.00  0.00     0.210 C 
ENDBRANCH  19  21
ENDBRANCH   8  10
ENDBRANCH   7   8
ENDBRANCH   1   7
BRANCH   4  23
HETATM   23  N3  UNL     1       2.175  -5.828  85.308  1.00  0.00    -0.342 N 
ATOM     24  H3  UNL     1       2.562  -5.681  86.241  1.00  0.00     0.167 HD
BRANCH  23  25
HETATM   25  C14 UNL     1       1.466  -4.898  84.718  1.00  0.00     0.107 A 
HETATM   26  C15 UNL     1       1.864  -4.472  83.470  1.00  0.00     0.049 A 
HETATM   27  C16 UNL     1       1.107  -3.482  82.848  1.00  0.00     0.019 A 
HETATM   28  C17 UNL     1      -0.005  -2.947  83.463  1.00  0.00     0.009 A 
HETATM   29  C18 UNL     1      -0.932  -1.987  83.118  1.00  0.00     0.032 A 
HETATM   30  C20 UNL     1      -0.370  -3.400  84.712  1.00  0.00     0.117 A 
HETATM   31  C19 UNL     1      -1.851  -1.852  84.139  1.00  0.00     0.090 A 
HETATM   32  N4  UNL     1      -1.469  -2.729  85.081  1.00  0.00    -0.352 N 
ATOM     33  H4  UNL     1      -1.955  -2.868  85.967  1.00  0.00     0.166 HD
HETATM   34  N5  UNL     1       0.382  -4.367  85.303  1.00  0.00    -0.328 N 
ATOM     35  H5  UNL     1       0.111  -4.702  86.227  1.00  0.00     0.169 HD
ENDBRANCH  23  25
ENDBRANCH   4  23
TORSDOF 6
ENDMDL
MODEL 3
REMARK VINA RESULT: -8.513345021      2.871      3.951
REMARK  6 active torsions:
REMARK  status: ('A' for Active; 'I' for Inactive)
REMARK    1  A    between atoms: O1_2  and  C2_3 
REMARK    2  A    between atoms: C8_11  and  N2_12 
REMARK    3  A    between atoms: N2_12  and  C9_14 
REMARK    4  A    between atoms: C9_14  and  C10_15 
REMARK    5  A    between atoms: C13_18  and  N3_19 
REMARK    6  A    between atoms: N3_19  and  C14_21 
ROOT
HETATM    1  C10 UNL     1       1.049  -9.438  87.077  1.00  0.00    -0.040 A 
HETATM    2  C11 UNL     1      -0.078  -8.685  87.276  1.00  0.00     0.011 A 
HETATM    3  C12 UNL     1       0.012  -7.317  87.472  1.00  0.00     0.030 A 
HETATM    4  C13 UNL     1       1.222  -6.700  87.469  1.00  0.00     0.033 A 
HETATM    5  C21 UNL     1       2.365  -7.439  87.271  1.00  0.00     0.030 A 
HETATM    6  C22 UNL     1       2.261  -8.803  87.077  1.00  0.00     0.011 A 
ENDROOT
BRANCH   1   7
HETATM    7  C9  UNL     1       0.965 -10.881  86.871  1.00  0.00     0.158 C 
BRANCH   7   8
HETATM    8  N2  UNL     1       2.305 -11.372  86.593  1.00  0.00    -0.385 N 
ATOM      9  H2  UNL     1       3.097 -10.891  87.021  1.00  0.00     0.160 HD
BRANCH   8  10
HETATM   10  C8  UNL     1       2.540 -12.378  85.840  1.00  0.00     0.042 A 
HETATM   11  C7  UNL     1       2.484 -13.681  86.207  1.00  0.00     0.047 A 
HETATM   12  C6  UNL     1       2.763 -14.668  85.285  1.00  0.00     0.090 A 
HETATM   13  N1  UNL     1       3.092 -14.392  84.024  1.00  0.00    -0.365 N 
HETATM   14  C5  UNL     1       3.155 -13.102  83.630  1.00  0.00     0.044 A 
ATOM     15  H1  UNL     1       3.293 -15.144  83.366  1.00  0.00     0.165 HD
HETATM   16  C4  UNL     1       3.498 -12.820  82.313  1.00  0.00     0.033 A 
HETATM   17  C23 UNL     1       2.885 -12.081  84.515  1.00  0.00     0.020 A 
HETATM   18  C3  UNL     1       3.565 -11.512  81.906  1.00  0.00     0.039 A 
HETATM   19  C2  UNL     1       3.296 -10.485  82.786  1.00  0.00     0.069 A 
HETATM   20  C24 UNL     1       2.957 -10.767  84.088  1.00  0.00     0.052 A 
BRANCH  19  21
HETATM   21  O1  UNL     1       3.363  -9.160  82.373  1.00  0.00    -0.356 OA
HETATM   22  C1  UNL     1       3.057  -8.100  83.271  1.00  0.00     0.210 C 
ENDBRANCH  19  21
ENDBRANCH   8  10
ENDBRANCH   7   8
ENDBRANCH   1   7
BRANCH   4  23
HETATM   23  N3  UNL     1       1.358  -5.276  87.668  1.00  0.00    -0.342 N 
ATOM     24  H3  UNL     1       2.015  -4.901  88.354  1.00  0.00     0.167 HD
BRANCH  23  25
HETATM   25  C14 UNL     1       0.614  -4.479  86.943  1.00  0.00     0.107 A 
HETATM   26  C15 UNL     1      -0.346  -3.726  87.583  1.00  0.00     0.049 A 
HETATM   27  C16 UNL     1      -1.135  -2.881  86.807  1.00  0.00     0.019 A 
HETATM   28  C17 UNL     1      -0.960  -2.801  85.441  1.00  0.00     0.009 A 
HETATM   29  C18 UNL     1      -1.562  -2.083  84.430  1.00  0.00     0.032 A 
HETATM   30  C20 UNL     1       0.012  -3.571  84.838  1.00  0.00     0.117 A 
HETATM   31  C19 UNL     1      -0.970  -2.407  83.225  1.00  0.00     0.090 A 
HETATM   32  N4  UNL     1      -0.023  -3.311  83.526  1.00  0.00    -0.352 N 
ATOM     33  H4  UNL     1       0.594  -3.745  82.839  1.00  0.00     0.166 HD
HETATM   34  N5  UNL     1       0.772  -4.390  85.614  1.00  0.00    -0.328 N 
ATOM     35  H5  UNL     1       1.490  -4.959  85.167  1.00  0.00     0.169 HD
ENDBRANCH  23  25
ENDBRANCH   4  23
TORSDOF 6
ENDMDL
MODEL 4
REMARK VINA RESULT: -8.393478215      2.478      3.350
REMARK  6 active torsions:
REMARK  status: ('A' for Active; 'I' for Inactive)
REMARK    1  A    between atoms: O1_2  and  C2_3 
REMARK    2  A    between atoms: C8_11  and  N2_12 
REMARK    3  A    between atoms: N2_12  and  C9_14 
REMARK    4  A    between atoms: C9_14  and  C10_15 
REMARK    5  A    between atoms: C13_18  and  N3_19 
REMARK    6  A    between atoms: N3_19  and  C14_21 
ROOT
HETATM    1  C10 UNL     1       2.486  -9.647  83.198  1.00  0.00    -0.040 A 
HETATM    2  C11 UNL     1       1.241  -9.460  83.737  1.00  0.00     0.011 A 
HETATM    3  C12 UNL     1       0.851  -8.215  84.198  1.00  0.00     0.030 A 
HETATM    4  C13 UNL     1       1.699  -7.156  84.122  1.00  0.00     0.033 A 
HETATM    5  C21 UNL     1       2.953  -7.324  83.584  1.00  0.00     0.030 A 
HETATM    6  C22 UNL     1       3.330  -8.573  83.128  1.00  0.00     0.011 A 
ENDROOT
BRANCH   1   7
HETATM    7  C9  UNL     1       2.908 -10.957  82.709  1.00  0.00     0.158 C 
BRANCH   7   8
HETATM    8  N2  UNL     1       3.877 -11.495  83.650  1.00  0.00    -0.385 N 
ATOM      9  H2  UNL     1       4.859 -11.244  83.532  1.00  0.00     0.160 HD
BRANCH   8  10
HETATM   10  C8  UNL     1       3.558 -12.267  84.618  1.00  0.00     0.042 A 
HETATM   11  C7  UNL     1       2.983 -13.488  84.509  1.00  0.00     0.047 A 
HETATM   12  C6  UNL     1       2.692 -14.215  85.644  1.00  0.00     0.090 A 
HETATM   13  N1  UNL     1       2.957 -13.760  86.868  1.00  0.00    -0.365 N 
HETATM   14  C5  UNL     1       3.530 -12.546  87.007  1.00  0.00     0.044 A 
ATOM     15  H1  UNL     1       2.729 -14.321  87.689  1.00  0.00     0.165 HD
HETATM   16  C4  UNL     1       3.804 -12.077  88.287  1.00  0.00     0.033 A 
HETATM   17  C23 UNL     1       3.839 -11.782  85.903  1.00  0.00     0.020 A 
HETATM   18  C3  UNL     1       4.386 -10.844  88.435  1.00  0.00     0.039 A 
HETATM   19  C2  UNL     1       4.698 -10.074  87.334  1.00  0.00     0.069 A 
HETATM   20  C24 UNL     1       4.426 -10.541  86.070  1.00  0.00     0.052 A 
BRANCH  19  21
HETATM   21  O1  UNL     1       5.288  -8.825  87.485  1.00  0.00    -0.356 OA
HETATM   22  C1  UNL     1       5.428  -7.946  86.375  1.00  0.00     0.210 C 
ENDBRANCH  19  21
ENDBRANCH   8  10
ENDBRANCH   7   8
ENDBRANCH   1   7
BRANCH   4  23
HETATM   23  N3  UNL     1       1.330  -5.841  84.591  1.00  0.00    -0.342 N 
ATOM     24  H3  UNL     1       1.150  -5.080  83.936  1.00  0.00     0.167 HD
BRANCH  23  25
HETATM   25  C14 UNL     1       1.233  -5.653  85.884  1.00  0.00     0.107 A 
HETATM   26  C15 UNL     1       2.250  -6.123  86.686  1.00  0.00     0.049 A 
HETATM   27  C16 UNL     1       2.142  -5.922  88.060  1.00  0.00     0.019 A 
HETATM   28  C17 UNL     1       1.051  -5.273  88.599  1.00  0.00     0.009 A 
HETATM   29  C18 UNL     1       0.665  -4.929  89.877  1.00  0.00     0.032 A 
HETATM   30  C20 UNL     1       0.055  -4.817  87.763  1.00  0.00     0.117 A 
HETATM   31  C19 UNL     1      -0.549  -4.274  89.827  1.00  0.00     0.090 A 
HETATM   32  N4  UNL     1      -0.876  -4.231  88.525  1.00  0.00    -0.352 N 
ATOM     33  H4  UNL     1      -1.729  -3.803  88.162  1.00  0.00     0.166 HD
HETATM   34  N5  UNL     1       0.179  -5.024  86.424  1.00  0.00    -0.328 N 
ATOM     35  H5  UNL     1      -0.559  -4.686  85.806  1.00  0.00     0.169 HD
ENDBRANCH  23  25
ENDBRANCH   4  23
TORSDOF 6
ENDMDL
MODEL 5
REMARK VINA RESULT: -8.287935776      2.242      2.690
REMARK  6 active torsions:
REMARK  status: ('A' for Active; 'I' for Inactive)
REMARK    1  A    between atoms: O1_2  and  C2_3 
REMARK    2  A    between atoms: C8_11  and  N2_12 
REMARK    3  A    between atoms: N2_12  and  C9_14 
REMARK    4  A    between atoms: C9_14  and  C10_15 
REMARK    5  A    between atoms: C13_18  and  N3_19 
REMARK    6  A    between atoms: N3_19  and  C14_21 
ROOT
HETATM    1  C10 UNL     1       2.695  -9.143  83.042  1.00  0.00    -0.040 A 
HETATM    2  C11 UNL     1       1.457  -8.826  83.534  1.00  0.00     0.011 A 
HETATM    3  C12 UNL     1       1.307  -7.823  84.476  1.00  0.00     0.030 A 
HETATM    4  C13 UNL     1       2.388  -7.137  84.927  1.00  0.00     0.033 A 
HETATM    5  C21 UNL     1       3.640  -7.441  84.446  1.00  0.00     0.030 A 
HETATM    6  C22 UNL     1       3.776  -8.444  83.505  1.00  0.00     0.011 A 
ENDROOT
BRANCH   1   7
HETATM    7  C9  UNL     1       2.864 -10.201  82.048  1.00  0.00     0.158 C 
BRANCH   7   8
HETATM    8  N2  UNL     1       2.216 -11.399  82.555  1.00  0.00    -0.385 N 
ATOM      9  H2  UNL     1       1.200 -11.470  82.480  1.00  0.00     0.160 HD
BRANCH   8  10
HETATM   10  C8  UNL     1       2.856 -12.369  83.088  1.00  0.00     0.042 A 
HETATM   11  C7  UNL     1       3.704 -13.212  82.451  1.00  0.00     0.047 A 
HETATM   12  C6  UNL     1       4.329 -14.219  83.154  1.00  0.00     0.090 A 
HETATM   13  N1  UNL     1       4.133 -14.404  84.459  1.00  0.00    -0.365 N 
HETATM   14  C5  UNL     1       3.293 -13.579  85.120  1.00  0.00     0.044 A 
ATOM     15  H1  UNL     1       4.610 -15.159  84.952  1.00  0.00     0.165 HD
HETATM   16  C4  UNL     1       3.093 -13.777  86.482  1.00  0.00     0.033 A 
HETATM   17  C23 UNL     1       2.645 -12.558  84.460  1.00  0.00     0.020 A 
HETATM   18  C3  UNL     1       2.242 -12.942  87.158  1.00  0.00     0.039 A 
HETATM   19  C2  UNL     1       1.589 -11.918  86.505  1.00  0.00     0.069 A 
HETATM   20  C24 UNL     1       1.789 -11.725  85.159  1.00  0.00     0.052 A 
BRANCH  19  21
HETATM   21  O1  UNL     1       0.726 -11.073  87.192  1.00  0.00    -0.356 OA
HETATM   22  C1  UNL     1       1.133  -9.761  87.563  1.00  0.00     0.210 C 
ENDBRANCH  19  21
ENDBRANCH   8  10
ENDBRANCH   7   8
ENDBRANCH   1   7
BRANCH   4  23
HETATM   23  N3  UNL     1       2.274  -6.083  85.909  1.00  0.00    -0.342 N 
ATOM     24  H3  UNL     1       2.889  -6.053  86.723  1.00  0.00     0.167 HD
BRANCH  23  25
HETATM   25  C14 UNL     1       1.357  -5.166  85.724  1.00  0.00     0.107 A 
HETATM   26  C15 UNL     1       0.558  -4.823  86.791  1.00  0.00     0.049 A 
HETATM   27  C16 UNL     1      -0.417  -3.848  86.589  1.00  0.00     0.019 A 
HETATM   28  C17 UNL     1      -0.574  -3.246  85.358  1.00  0.00     0.009 A 
HETATM   29  C18 UNL     1      -1.418  -2.279  84.856  1.00  0.00     0.032 A 
HETATM   30  C20 UNL     1       0.247  -3.617  84.315  1.00  0.00     0.117 A 
HETATM   31  C19 UNL     1      -1.121  -2.060  83.525  1.00  0.00     0.090 A 
HETATM   32  N4  UNL     1      -0.106  -2.894  83.245  1.00  0.00    -0.352 N 
ATOM     33  H4  UNL     1       0.341  -2.966  82.331  1.00  0.00     0.166 HD
HETATM   34  N5  UNL     1       1.192  -4.571  84.533  1.00  0.00    -0.328 N 
ATOM     35  H5  UNL     1       1.798  -4.845  83.760  1.00  0.00     0.169 HD
ENDBRANCH  23  25
ENDBRANCH   4  23
TORSDOF 6
ENDMDL
