MODEL 1
REMARK VINA RESULT: -3.204986798      0.000      0.000
REMARK  4 active torsions:
REMARK  status: ('A' for Active; 'I' for Inactive)
REMARK       I    between atoms: C2_2  and  N1_4 
REMARK    1  A    between atoms: N1_4  and  C3_6 
REMARK    2  A    between atoms: C14_18  and  C15_19 
REMARK    3  A    between atoms: C21_29  and  O2_30 
REMARK    4  A    between atoms: C21_29  and  N3_32 
ROOT
HETATM    1  C3  UNL     1      40.013   2.556  33.818  1.00  0.00     0.048 C 
HETATM    2  C4  UNL     1      38.872   3.545  33.371  1.00  0.00     0.040 C 
HETATM    3  C5  UNL     1      39.173   1.728  34.854  1.00  0.00     0.033 C 
HETATM    4  C6  UNL     1      38.114   2.519  35.522  1.00  0.00     0.017 C 
HETATM    5  C7  UNL     1      38.743   0.581  34.124  1.00  0.00    -0.023 C 
HETATM    6  C8  UNL     1      39.374   0.519  32.990  1.00  0.00    -0.017 C 
HETATM    7  C9  UNL     1      40.360   1.653  32.768  1.00  0.00     0.019 C 
HETATM    8  C10 UNL     1      39.841   2.166  31.421  1.00  0.00     0.059 C 
HETATM    9  C11 UNL     1      40.815   1.759  30.410  1.00  0.00    -0.011 A 
HETATM   10  C12 UNL     1      40.734   2.053  29.037  1.00  0.00     0.124 A 
HETATM   11  F1  UNL     1      39.819   2.941  28.590  1.00  0.00    -0.206 F 
HETATM   12  C13 UNL     1      41.626   1.433  28.184  1.00  0.00     0.059 A 
HETATM   13  C14 UNL     1      42.573   0.540  28.710  1.00  0.00     0.051 A 
HETATM   14  C16 UNL     1      42.603   0.311  30.064  1.00  0.00     0.025 A 
HETATM   15  C17 UNL     1      41.705   0.931  30.952  1.00  0.00    -0.038 A 
HETATM   16  C18 UNL     1      41.620   0.994  32.423  1.00  0.00     0.004 C 
HETATM   17  C19 UNL     1      42.913   1.698  32.788  1.00  0.00     0.035 C 
HETATM   18  C20 UNL     1      43.436   1.369  34.151  1.00  0.00     0.127 C 
HETATM   19  N2  UNL     1      43.970  -0.033  34.095  1.00  0.00    -0.347 N 
HETATM   20  C21 UNL     1      45.199  -0.257  34.640  1.00  0.00     0.216 C 
HETATM   21  C24 UNL     1      43.083  -0.893  33.401  1.00  0.00     0.127 C 
HETATM   22  C25 UNL     1      41.753  -0.377  33.003  1.00  0.00     0.035 C 
ENDROOT
BRANCH   1  23
HETATM   23  N1  UNL     1      40.784   3.379  34.646  1.00  0.00    -0.351 N 
HETATM   24  C2  UNL     1      41.575   4.527  34.390  1.00  0.00     0.214 C 
HETATM   25  C1  UNL     1      42.273   5.260  35.497  1.00  0.00     0.117 C 
HETATM   26  O1  UNL     1      41.720   4.976  33.245  1.00  0.00    -0.274 OA
ATOM     27  H1  UNL     1      40.776   3.098  35.627  1.00  0.00     0.163 HD
ENDBRANCH   1  23
BRANCH  13  28
HETATM   28  C15 UNL     1      43.525  -0.152  27.806  1.00  0.00     0.417 C 
HETATM   29  F2  UNL     1      43.727   0.709  26.714  1.00  0.00    -0.166 F 
HETATM   30  F3  UNL     1      42.912  -1.274  27.212  1.00  0.00    -0.166 F 
HETATM   31  F4  UNL     1      44.665  -0.583  28.363  1.00  0.00    -0.166 F 
ENDBRANCH  13  28
BRANCH  20  32
HETATM   32  O2  UNL     1      45.812   0.870  35.041  1.00  0.00    -0.333 OA
ATOM     33  H2  UNL     1      46.575   0.707  35.582  1.00  0.00     0.220 HD
ENDBRANCH  20  32
BRANCH  20  34
HETATM   34  N3  UNL     1      45.969  -1.382  34.886  1.00  0.00    -0.356 N 
HETATM   35  C22 UNL     1      45.523  -2.592  35.521  1.00  0.00     0.152 C 
HETATM   36  C23 UNL     1      47.394  -1.449  34.449  1.00  0.00     0.152 C 
ENDBRANCH  20  34
TORSDOF 4
ENDMDL
MODEL 2
REMARK VINA RESULT: -3.178874489      2.444      6.529
REMARK  4 active torsions:
REMARK  status: ('A' for Active; 'I' for Inactive)
REMARK       I    between atoms: C2_2  and  N1_4 
REMARK    1  A    between atoms: N1_4  and  C3_6 
REMARK    2  A    between atoms: C14_18  and  C15_19 
REMARK    3  A    between atoms: C21_29  and  O2_30 
REMARK    4  A    between atoms: C21_29  and  N3_32 
ROOT
HETATM    1  C3  UNL     1      45.980  -2.559  33.816  1.00  0.00     0.048 C 
HETATM    2  C4  UNL     1      47.128  -3.540  33.369  1.00  0.00     0.040 C 
HETATM    3  C5  UNL     1      46.813  -1.728  34.854  1.00  0.00     0.033 C 
HETATM    4  C6  UNL     1      47.877  -2.512  35.522  1.00  0.00     0.017 C 
HETATM    5  C7  UNL     1      47.235  -0.577  34.127  1.00  0.00    -0.023 C 
HETATM    6  C8  UNL     1      46.605  -0.516  32.992  1.00  0.00    -0.017 C 
HETATM    7  C9  UNL     1      45.627  -1.657  32.768  1.00  0.00     0.019 C 
HETATM    8  C10 UNL     1      46.150  -2.165  31.420  1.00  0.00     0.059 C 
HETATM    9  C11 UNL     1      45.175  -1.762  30.409  1.00  0.00    -0.011 A 
HETATM   10  C12 UNL     1      45.258  -2.053  29.036  1.00  0.00     0.124 A 
HETATM   11  F1  UNL     1      46.179  -2.934  28.589  1.00  0.00    -0.206 F 
HETATM   12  C13 UNL     1      44.363  -1.438  28.184  1.00  0.00     0.059 A 
HETATM   13  C14 UNL     1      43.409  -0.552  28.710  1.00  0.00     0.051 A 
HETATM   14  C16 UNL     1      43.377  -0.326  30.065  1.00  0.00     0.025 A 
HETATM   15  C17 UNL     1      44.279  -0.941  30.953  1.00  0.00    -0.038 A 
HETATM   16  C18 UNL     1      44.362  -1.006  32.423  1.00  0.00     0.004 C 
HETATM   17  C19 UNL     1      43.075  -1.720  32.786  1.00  0.00     0.035 C 
HETATM   18  C20 UNL     1      42.548  -1.397  34.149  1.00  0.00     0.127 C 
HETATM   19  N2  UNL     1      42.005   0.001  34.096  1.00  0.00    -0.347 N 
HETATM   20  C21 UNL     1      40.774   0.216  34.640  1.00  0.00     0.216 C 
HETATM   21  C24 UNL     1      42.886   0.869  33.404  1.00  0.00     0.127 C 
HETATM   22  C25 UNL     1      44.220   0.363  33.006  1.00  0.00     0.035 C 
ENDROOT
BRANCH   1  23
HETATM   23  N1  UNL     1      45.213  -3.390  34.643  1.00  0.00    -0.351 N 
HETATM   24  C2  UNL     1      44.444  -4.551  34.387  1.00  0.00     0.214 C 
HETATM   25  C1  UNL     1      43.747  -5.289  35.492  1.00  0.00     0.117 C 
HETATM   26  O1  UNL     1      44.317  -5.010  33.244  1.00  0.00    -0.274 OA
ATOM     27  H1  UNL     1      45.208  -3.102  35.622  1.00  0.00     0.163 HD
ENDBRANCH   1  23
BRANCH  13  28
HETATM   28  C15 UNL     1      42.453   0.134  27.807  1.00  0.00     0.417 C 
HETATM   29  F2  UNL     1      42.252  -0.729  26.717  1.00  0.00    -0.166 F 
HETATM   30  F3  UNL     1      43.060   1.258  27.210  1.00  0.00    -0.166 F 
HETATM   31  F4  UNL     1      41.312   0.563  28.365  1.00  0.00    -0.166 F 
ENDBRANCH  13  28
BRANCH  20  32
HETATM   32  O2  UNL     1      40.169  -0.916  35.039  1.00  0.00    -0.333 OA
ATOM     33  H2  UNL     1      39.781  -1.404  34.321  1.00  0.00     0.220 HD
ENDBRANCH  20  32
BRANCH  20  34
HETATM   34  N3  UNL     1      39.996   1.335  34.888  1.00  0.00    -0.356 N 
HETATM   35  C22 UNL     1      40.435   2.549  35.520  1.00  0.00     0.152 C 
HETATM   36  C23 UNL     1      38.568   1.391  34.456  1.00  0.00     0.152 C 
ENDBRANCH  20  34
TORSDOF 4
ENDMDL
MODEL 3
REMARK VINA RESULT: -2.259344731      4.657      8.729
REMARK  4 active torsions:
REMARK  status: ('A' for Active; 'I' for Inactive)
REMARK       I    between atoms: C2_2  and  N1_4 
REMARK    1  A    between atoms: N1_4  and  C3_6 
REMARK    2  A    between atoms: C14_18  and  C15_19 
REMARK    3  A    between atoms: C21_29  and  O2_30 
REMARK    4  A    between atoms: C21_29  and  N3_32 
ROOT
HETATM    1  C3  UNL     1      43.209   0.014  23.869  1.00  0.00     0.048 C 
HETATM    2  C4  UNL     1      44.153  -0.287  22.645  1.00  0.00     0.040 C 
HETATM    3  C5  UNL     1      41.920  -0.686  23.310  1.00  0.00     0.033 C 
HETATM    4  C6  UNL     1      41.814  -0.637  21.835  1.00  0.00     0.017 C 
HETATM    5  C7  UNL     1      41.938  -1.983  23.903  1.00  0.00    -0.023 C 
HETATM    6  C8  UNL     1      42.841  -2.029  24.836  1.00  0.00    -0.017 C 
HETATM    7  C9  UNL     1      43.602  -0.728  25.024  1.00  0.00     0.019 C 
HETATM    8  C10 UNL     1      45.031  -1.255  24.867  1.00  0.00     0.059 C 
HETATM    9  C11 UNL     1      45.634  -1.246  26.197  1.00  0.00    -0.011 A 
HETATM   10  C12 UNL     1      46.954  -1.630  26.496  1.00  0.00     0.124 A 
HETATM   11  F1  UNL     1      47.836  -1.844  25.496  1.00  0.00    -0.206 F 
HETATM   12  C13 UNL     1      47.313  -1.751  27.824  1.00  0.00     0.059 A 
HETATM   13  C14 UNL     1      46.360  -1.489  28.821  1.00  0.00     0.051 A 
HETATM   14  C16 UNL     1      45.092  -1.104  28.456  1.00  0.00     0.025 A 
HETATM   15  C17 UNL     1      44.704  -0.974  27.110  1.00  0.00    -0.038 A 
HETATM   16  C18 UNL     1      43.498  -0.435  26.454  1.00  0.00     0.004 C 
HETATM   17  C19 UNL     1      43.522   1.019  26.885  1.00  0.00     0.035 C 
HETATM   18  C20 UNL     1      42.178   1.674  26.938  1.00  0.00     0.127 C 
HETATM   19  N2  UNL     1      41.458   1.114  28.130  1.00  0.00    -0.347 N 
HETATM   20  C21 UNL     1      40.837   1.999  28.960  1.00  0.00     0.216 C 
HETATM   21  C24 UNL     1      41.614  -0.292  28.212  1.00  0.00     0.127 C 
HETATM   22  C25 UNL     1      42.271  -1.004  27.091  1.00  0.00     0.035 C 
ENDROOT
BRANCH   1  23
HETATM   23  N1  UNL     1      42.923   1.370  23.672  1.00  0.00    -0.351 N 
HETATM   24  C2  UNL     1      42.906   2.188  22.515  1.00  0.00     0.214 C 
HETATM   25  C1  UNL     1      42.507   3.633  22.584  1.00  0.00     0.117 C 
HETATM   26  O1  UNL     1      43.213   1.747  21.400  1.00  0.00    -0.274 OA
ATOM     27  H1  UNL     1      42.680   1.867  24.529  1.00  0.00     0.163 HD
ENDBRANCH   1  23
BRANCH  13  28
HETATM   28  C15 UNL     1      46.722  -1.635  30.252  1.00  0.00     0.417 C 
HETATM   29  F2  UNL     1      47.704  -0.664  30.511  1.00  0.00    -0.166 F 
HETATM   30  F3  UNL     1      47.414  -2.845  30.464  1.00  0.00    -0.166 F 
HETATM   31  F4  UNL     1      45.707  -1.613  31.127  1.00  0.00    -0.166 F 
ENDBRANCH  13  28
BRANCH  20  32
HETATM   32  O2  UNL     1      41.080   3.282  28.639  1.00  0.00    -0.333 OA
ATOM     33  H2  UNL     1      41.214   3.837  29.398  1.00  0.00     0.220 HD
ENDBRANCH  20  32
BRANCH  20  34
HETATM   34  N3  UNL     1      40.002   1.889  30.060  1.00  0.00    -0.356 N 
HETATM   35  C22 UNL     1      38.616   1.508  30.036  1.00  0.00     0.152 C 
HETATM   36  C23 UNL     1      40.513   2.130  31.441  1.00  0.00     0.152 C 
ENDBRANCH  20  34
TORSDOF 4
ENDMDL
MODEL 4
REMARK VINA RESULT: -2.243279764      4.738      8.361
REMARK  4 active torsions:
REMARK  status: ('A' for Active; 'I' for Inactive)
REMARK       I    between atoms: C2_2  and  N1_4 
REMARK    1  A    between atoms: N1_4  and  C3_6 
REMARK    2  A    between atoms: C14_18  and  C15_19 
REMARK    3  A    between atoms: C21_29  and  O2_30 
REMARK    4  A    between atoms: C21_29  and  N3_32 
ROOT
HETATM    1  C3  UNL     1      42.788  -0.017  23.868  1.00  0.00     0.048 C 
HETATM    2  C4  UNL     1      41.841   0.281  22.646  1.00  0.00     0.040 C 
HETATM    3  C5  UNL     1      44.075   0.682  23.305  1.00  0.00     0.033 C 
HETATM    4  C6  UNL     1      44.178   0.632  21.829  1.00  0.00     0.017 C 
HETATM    5  C7  UNL     1      44.058   1.980  23.896  1.00  0.00    -0.023 C 
HETATM    6  C8  UNL     1      43.157   2.026  24.831  1.00  0.00    -0.017 C 
HETATM    7  C9  UNL     1      42.397   0.725  25.023  1.00  0.00     0.019 C 
HETATM    8  C10 UNL     1      40.967   1.252  24.868  1.00  0.00     0.059 C 
HETATM    9  C11 UNL     1      40.367   1.244  26.200  1.00  0.00    -0.011 A 
HETATM   10  C12 UNL     1      39.048   1.628  26.502  1.00  0.00     0.124 A 
HETATM   11  F1  UNL     1      38.164   1.841  25.503  1.00  0.00    -0.206 F 
HETATM   12  C13 UNL     1      38.692   1.751  27.830  1.00  0.00     0.059 A 
HETATM   13  C14 UNL     1      39.648   1.490  28.825  1.00  0.00     0.051 A 
HETATM   14  C16 UNL     1      40.915   1.105  28.458  1.00  0.00     0.025 A 
HETATM   15  C17 UNL     1      41.300   0.974  27.111  1.00  0.00    -0.038 A 
HETATM   16  C18 UNL     1      42.504   0.434  26.453  1.00  0.00     0.004 C 
HETATM   17  C19 UNL     1      42.482  -1.019  26.886  1.00  0.00     0.035 C 
HETATM   18  C20 UNL     1      43.826  -1.674  26.936  1.00  0.00     0.127 C 
HETATM   19  N2  UNL     1      44.549  -1.112  28.126  1.00  0.00    -0.347 N 
HETATM   20  C21 UNL     1      45.173  -1.997  28.955  1.00  0.00     0.216 C 
HETATM   21  C24 UNL     1      44.392   0.294  28.206  1.00  0.00     0.127 C 
HETATM   22  C25 UNL     1      43.733   1.004  27.086  1.00  0.00     0.035 C 
ENDROOT
BRANCH   1  23
HETATM   23  N1  UNL     1      43.073  -1.374  23.671  1.00  0.00    -0.351 N 
HETATM   24  C2  UNL     1      43.095  -2.192  22.515  1.00  0.00     0.214 C 
HETATM   25  C1  UNL     1      43.492  -3.637  22.585  1.00  0.00     0.117 C 
HETATM   26  O1  UNL     1      42.793  -1.750  21.398  1.00  0.00    -0.274 OA
ATOM     27  H1  UNL     1      43.313  -1.871  24.530  1.00  0.00     0.163 HD
ENDBRANCH   1  23
BRANCH  13  28
HETATM   28  C15 UNL     1      39.290   1.637  30.257  1.00  0.00     0.417 C 
HETATM   29  F2  UNL     1      38.306   0.668  30.518  1.00  0.00    -0.166 F 
HETATM   30  F3  UNL     1      38.600   2.849  30.470  1.00  0.00    -0.166 F 
HETATM   31  F4  UNL     1      40.307   1.613  31.130  1.00  0.00    -0.166 F 
ENDBRANCH  13  28
BRANCH  20  32
HETATM   32  O2  UNL     1      44.929  -3.280  28.636  1.00  0.00    -0.333 OA
ATOM     33  H2  UNL     1      45.699  -3.832  28.701  1.00  0.00     0.220 HD
ENDBRANCH  20  32
BRANCH  20  34
HETATM   34  N3  UNL     1      46.010  -1.885  30.053  1.00  0.00    -0.356 N 
HETATM   35  C22 UNL     1      47.393  -1.494  30.026  1.00  0.00     0.152 C 
HETATM   36  C23 UNL     1      45.505  -2.134  31.434  1.00  0.00     0.152 C 
ENDBRANCH  20  34
TORSDOF 4
ENDMDL
MODEL 5
REMARK VINA RESULT: -2.009648721      3.300      6.807
REMARK  4 active torsions:
REMARK  status: ('A' for Active; 'I' for Inactive)
REMARK       I    between atoms: C2_2  and  N1_4 
REMARK    1  A    between atoms: N1_4  and  C3_6 
REMARK    2  A    between atoms: C14_18  and  C15_19 
REMARK    3  A    between atoms: C21_29  and  O2_30 
REMARK    4  A    between atoms: C21_29  and  N3_32 
ROOT
HETATM    1  C3  UNL     1      45.881  -2.806  33.949  1.00  0.00     0.048 C 
HETATM    2  C4  UNL     1      45.840  -2.716  35.520  1.00  0.00     0.040 C 
HETATM    3  C5  UNL     1      45.804  -4.369  33.831  1.00  0.00     0.033 C 
HETATM    4  C6  UNL     1      46.439  -5.079  34.964  1.00  0.00     0.017 C 
HETATM    5  C7  UNL     1      44.422  -4.639  33.608  1.00  0.00    -0.023 C 
HETATM    6  C8  UNL     1      43.792  -3.530  33.353  1.00  0.00    -0.017 C 
HETATM    7  C9  UNL     1      44.680  -2.298  33.367  1.00  0.00     0.019 C 
HETATM    8  C10 UNL     1      43.905  -1.451  34.381  1.00  0.00     0.059 C 
HETATM    9  C11 UNL     1      43.249  -0.384  33.627  1.00  0.00    -0.011 A 
HETATM   10  C12 UNL     1      42.454   0.635  34.182  1.00  0.00     0.124 A 
HETATM   11  F1  UNL     1      42.421   0.810  35.521  1.00  0.00    -0.206 F 
HETATM   12  C13 UNL     1      41.747   1.451  33.322  1.00  0.00     0.059 A 
HETATM   13  C14 UNL     1      41.843   1.239  31.937  1.00  0.00     0.051 A 
HETATM   14  C16 UNL     1      42.649   0.232  31.465  1.00  0.00     0.025 A 
HETATM   15  C17 UNL     1      43.380  -0.612  32.322  1.00  0.00    -0.038 A 
HETATM   16  C18 UNL     1      44.419  -1.632  32.090  1.00  0.00     0.004 C 
HETATM   17  C19 UNL     1      45.538  -0.815  31.474  1.00  0.00     0.035 C 
HETATM   18  C20 UNL     1      46.444  -1.587  30.567  1.00  0.00     0.127 C 
HETATM   19  N2  UNL     1      45.676  -1.873  29.310  1.00  0.00    -0.347 N 
HETATM   20  C21 UNL     1      46.304  -1.633  28.124  1.00  0.00     0.216 C 
HETATM   21  C24 UNL     1      44.357  -2.302  29.599  1.00  0.00     0.127 C 
HETATM   22  C25 UNL     1      43.986  -2.568  31.008  1.00  0.00     0.035 C 
ENDROOT
BRANCH   1  23
HETATM   23  N1  UNL     1      47.233  -2.551  33.692  1.00  0.00    -0.351 N 
HETATM   24  C2  UNL     1      48.016  -1.371  33.753  1.00  0.00     0.214 C 
HETATM   25  C1  UNL     1      49.488  -1.392  33.466  1.00  0.00     0.117 C 
HETATM   26  O1  UNL     1      47.521  -0.276  34.049  1.00  0.00    -0.274 OA
ATOM     27  H1  UNL     1      47.759  -3.377  33.405  1.00  0.00     0.163 HD
ENDBRANCH   1  23
BRANCH  13  28
HETATM   28  C15 UNL     1      41.073   2.092  30.999  1.00  0.00     0.417 C 
HETATM   29  F2  UNL     1      41.620   3.382  31.101  1.00  0.00    -0.166 F 
HETATM   30  F3  UNL     1      39.755   2.272  31.467  1.00  0.00    -0.166 F 
HETATM   31  F4  UNL     1      40.978   1.652  29.737  1.00  0.00    -0.166 F 
ENDBRANCH  13  28
BRANCH  20  32
HETATM   32  O2  UNL     1      47.503  -1.043  28.272  1.00  0.00    -0.333 OA
ATOM     33  H2  UNL     1      47.449  -0.187  28.680  1.00  0.00     0.220 HD
ENDBRANCH  20  32
BRANCH  20  34
HETATM   34  N3  UNL     1      46.000  -1.862  26.792  1.00  0.00    -0.356 N 
HETATM   35  C22 UNL     1      45.264  -0.980  25.928  1.00  0.00     0.152 C 
HETATM   36  C23 UNL     1      46.475  -3.093  26.095  1.00  0.00     0.152 C 
ENDBRANCH  20  34
TORSDOF 4
ENDMDL
