MODEL 1
REMARK VINA RESULT: -7.467981271      0.000      0.000
REMARK  1 active torsions:
REMARK  status: ('A' for Active; 'I' for Inactive)
REMARK    1  A    between atoms: C3_3  and  C4_4 
ROOT
HETATM    1  C4  UNL     1       2.915  68.389  64.596  1.00  0.00     0.123 C 
HETATM    2  C5  UNL     1       4.288  68.822  65.031  1.00  0.00     0.055 C 
HETATM    3  O1  UNL     1       1.918  69.281  64.955  1.00  0.00    -0.224 OA
HETATM    4  O2  UNL     1       1.476  69.043  66.194  1.00  0.00    -0.229 OA
HETATM    5  C6  UNL     1       0.503  68.070  66.083  1.00  0.00     0.097 C 
HETATM    6  C7  UNL     1       0.117  67.468  67.414  1.00  0.00     0.041 C 
HETATM    7  C8  UNL     1      -1.080  66.606  67.193  1.00  0.00     0.003 C 
HETATM    8  C9  UNL     1      -2.379  67.249  67.595  1.00  0.00     0.000 C 
HETATM    9  C10 UNL     1      -2.756  68.430  66.776  1.00  0.00     0.000 C 
HETATM   10  C11 UNL     1      -1.612  69.356  66.459  1.00  0.00     0.003 C 
HETATM   11  C12 UNL     1      -0.711  68.706  65.442  1.00  0.00     0.041 C 
HETATM   12  C13 UNL     1       1.065  66.949  65.232  1.00  0.00     0.060 C 
HETATM   13  C14 UNL     1       2.573  67.065  65.293  1.00  0.00     0.102 C 
HETATM   14 BR1  UNL     1       3.453  65.578  64.440  1.00  0.00    -0.087 Br
ENDROOT
BRANCH   1  15
HETATM   15  C3  UNL     1       2.869  68.079  63.123  1.00  0.00     0.010 C 
HETATM   16  C2  UNL     1       3.484  68.829  62.233  1.00  0.00    -0.032 C 
HETATM   17  C1  UNL     1       3.433  68.515  60.792  1.00  0.00     0.036 C 
ENDBRANCH   1  15
TORSDOF 1
ENDMDL
MODEL 2
REMARK VINA RESULT: -7.347105992      2.208      5.693
REMARK  1 active torsions:
REMARK  status: ('A' for Active; 'I' for Inactive)
REMARK    1  A    between atoms: C3_3  and  C4_4 
ROOT
HETATM    1  C4  UNL     1       1.385  68.777  67.370  1.00  0.00     0.123 C 
HETATM    2  C5  UNL     1       1.014  69.993  68.175  1.00  0.00     0.055 C 
HETATM    3  O1  UNL     1       2.707  68.774  66.957  1.00  0.00    -0.224 OA
HETATM    4  O2  UNL     1       2.859  69.440  65.808  1.00  0.00    -0.229 OA
HETATM    5  C6  UNL     1       2.588  68.543  64.796  1.00  0.00     0.097 C 
HETATM    6  C7  UNL     1       2.415  69.207  63.450  1.00  0.00     0.041 C 
HETATM    7  C8  UNL     1       2.351  68.132  62.417  1.00  0.00     0.003 C 
HETATM    8  C9  UNL     1       3.640  67.927  61.668  1.00  0.00     0.000 C 
HETATM    9  C10 UNL     1       4.758  67.417  62.503  1.00  0.00     0.000 C 
HETATM   10  C11 UNL     1       4.859  68.057  63.862  1.00  0.00     0.003 C 
HETATM   11  C12 UNL     1       3.737  67.560  64.734  1.00  0.00     0.041 C 
HETATM   12  C13 UNL     1       1.278  67.855  65.125  1.00  0.00     0.060 C 
HETATM   13  C14 UNL     1       0.539  68.758  66.089  1.00  0.00     0.102 C 
HETATM   14 BR1  UNL     1      -1.250  68.137  66.443  1.00  0.00    -0.087 Br
ENDROOT
BRANCH   1  15
HETATM   15  C3  UNL     1       1.032  67.503  68.091  1.00  0.00     0.010 C 
HETATM   16  C2  UNL     1       1.338  67.310  69.357  1.00  0.00    -0.032 C 
HETATM   17  C1  UNL     1       0.987  66.057  70.053  1.00  0.00     0.036 C 
ENDBRANCH   1  15
TORSDOF 1
ENDMDL
MODEL 3
REMARK VINA RESULT: -7.345828308      2.053      5.577
REMARK  1 active torsions:
REMARK  status: ('A' for Active; 'I' for Inactive)
REMARK    1  A    between atoms: C3_3  and  C4_4 
ROOT
HETATM    1  C4  UNL     1       1.072  67.750  67.000  1.00  0.00     0.123 C 
HETATM    2  C5  UNL     1       1.060  66.838  68.197  1.00  0.00     0.055 C 
HETATM    3  O1  UNL     1       1.318  67.089  65.809  1.00  0.00    -0.224 OA
HETATM    4  O2  UNL     1       2.630  66.964  65.584  1.00  0.00    -0.229 OA
HETATM    5  C6  UNL     1       3.034  68.131  64.967  1.00  0.00     0.097 C 
HETATM    6  C7  UNL     1       4.537  68.283  64.921  1.00  0.00     0.041 C 
HETATM    7  C8  UNL     1       4.848  69.452  64.047  1.00  0.00     0.003 C 
HETATM    8  C9  UNL     1       5.275  69.076  62.654  1.00  0.00     0.000 C 
HETATM    9  C10 UNL     1       4.214  68.424  61.844  1.00  0.00     0.000 C 
HETATM   10  C11 UNL     1       3.394  67.410  62.597  1.00  0.00     0.003 C 
HETATM   11  C12 UNL     1       2.480  68.122  63.559  1.00  0.00     0.041 C 
HETATM   12  C13 UNL     1       2.493  69.293  65.776  1.00  0.00     0.060 C 
HETATM   13  C14 UNL     1       2.210  68.766  67.167  1.00  0.00     0.102 C 
HETATM   14 BR1  UNL     1       1.721  70.169  68.392  1.00  0.00    -0.087 Br
ENDROOT
BRANCH   1  15
HETATM   15  C3  UNL     1      -0.183  68.578  66.919  1.00  0.00     0.010 C 
HETATM   16  C2  UNL     1      -1.204  68.225  66.167  1.00  0.00    -0.032 C 
HETATM   17  C1  UNL     1      -2.430  69.044  66.095  1.00  0.00     0.036 C 
ENDBRANCH   1  15
TORSDOF 1
ENDMDL
MODEL 4
REMARK VINA RESULT: -7.345623138      8.926     11.174
REMARK  1 active torsions:
REMARK  status: ('A' for Active; 'I' for Inactive)
REMARK    1  A    between atoms: C3_3  and  C4_4 
ROOT
HETATM    1  C4  UNL     1       1.614  59.212  72.909  1.00  0.00     0.123 C 
HETATM    2  C5  UNL     1       1.846  57.767  73.258  1.00  0.00     0.055 C 
HETATM    3  O1  UNL     1       1.684  59.467  71.550  1.00  0.00    -0.224 OA
HETATM    4  O2  UNL     1       2.943  59.694  71.162  1.00  0.00    -0.229 OA
HETATM    5  C6  UNL     1       3.184  61.035  71.380  1.00  0.00     0.097 C 
HETATM    6  C7  UNL     1       4.649  61.394  71.283  1.00  0.00     0.041 C 
HETATM    7  C8  UNL     1       4.755  62.882  71.313  1.00  0.00     0.003 C 
HETATM    8  C9  UNL     1       4.956  63.508  69.960  1.00  0.00     0.000 C 
HETATM    9  C10 UNL     1       3.803  63.350  69.036  1.00  0.00     0.000 C 
HETATM   10  C11 UNL     1       3.169  61.985  69.063  1.00  0.00     0.003 C 
HETATM   11  C12 UNL     1       2.400  61.816  70.347  1.00  0.00     0.041 C 
HETATM   12  C13 UNL     1       2.737  61.363  72.791  1.00  0.00     0.060 C 
HETATM   13  C14 UNL     1       2.717  60.059  73.558  1.00  0.00     0.102 C 
HETATM   14 BR1  UNL     1       2.381  60.325  75.437  1.00  0.00    -0.087 Br
ENDROOT
BRANCH   1  15
HETATM   15  C3  UNL     1       0.327  59.728  73.498  1.00  0.00     0.010 C 
HETATM   16  C2  UNL     1      -0.528  60.438  72.794  1.00  0.00    -0.032 C 
HETATM   17  C1  UNL     1      -1.786  60.937  73.382  1.00  0.00     0.036 C 
ENDBRANCH   1  15
TORSDOF 1
ENDMDL
MODEL 5
REMARK VINA RESULT: -7.222157825      2.381      5.220
REMARK  1 active torsions:
REMARK  status: ('A' for Active; 'I' for Inactive)
REMARK    1  A    between atoms: C3_3  and  C4_4 
ROOT
HETATM    1  C4  UNL     1       0.240  68.745  66.709  1.00  0.00     0.123 C 
HETATM    2  C5  UNL     1      -1.245  68.979  66.646  1.00  0.00     0.055 C 
HETATM    3  O1  UNL     1       0.887  68.994  65.510  1.00  0.00    -0.224 OA
HETATM    4  O2  UNL     1       0.866  67.919  64.715  1.00  0.00    -0.229 OA
HETATM    5  C6  UNL     1       1.944  67.140  65.082  1.00  0.00     0.097 C 
HETATM    6  C7  UNL     1       1.893  65.748  64.495  1.00  0.00     0.041 C 
HETATM    7  C8  UNL     1       3.201  65.088  64.776  1.00  0.00     0.003 C 
HETATM    8  C9  UNL     1       4.146  65.081  63.604  1.00  0.00     0.000 C 
HETATM    9  C10 UNL     1       4.619  66.428  63.193  1.00  0.00     0.000 C 
HETATM   10  C11 UNL     1       3.550  67.488  63.194  1.00  0.00     0.003 C 
HETATM   11  C12 UNL     1       3.200  67.843  64.615  1.00  0.00     0.041 C 
HETATM   12  C13 UNL     1       1.913  66.989  66.590  1.00  0.00     0.060 C 
HETATM   13  C14 UNL     1       0.492  67.265  67.030  1.00  0.00     0.102 C 
HETATM   14 BR1  UNL     1       0.225  66.901  68.903  1.00  0.00    -0.087 Br
ENDROOT
BRANCH   1  15
HETATM   15  C3  UNL     1       0.875  69.506  67.843  1.00  0.00     0.010 C 
HETATM   16  C2  UNL     1       2.152  69.827  67.839  1.00  0.00    -0.032 C 
HETATM   17  C1  UNL     1       2.764  70.573  68.956  1.00  0.00     0.036 C 
ENDBRANCH   1  15
TORSDOF 1
ENDMDL
