MODEL 1
REMARK VINA RESULT: -7.184477968      0.000      0.000
REMARK  7 active torsions:
REMARK  status: ('A' for Active; 'I' for Inactive)
REMARK    1  A    between atoms: O1_2  and  C2_3 
REMARK    2  A    between atoms: C5_8  and  C6_9 
REMARK    3  A    between atoms: C6_9  and  C7_10 
REMARK    4  A    between atoms: C7_10  and  C8_11 
REMARK    5  A    between atoms: N3_17  and  C12_18 
REMARK    6  A    between atoms: C13_19  and  N4_20 
REMARK    7  A    between atoms: C17_24  and  C18_25 
ROOT
HETATM    1  C8  UNL     1      12.757  -5.789  22.108  1.00  0.00    -0.030 A 
HETATM    2  C9  UNL     1      12.234  -5.622  20.859  1.00  0.00     0.096 A 
HETATM    3  N2  UNL     1      11.545  -6.721  20.563  1.00  0.00    -0.364 N 
ATOM      4  H2  UNL     1      11.044  -6.876  19.688  1.00  0.00     0.165 HD
HETATM    5  C10 UNL     1      11.606  -7.605  21.589  1.00  0.00     0.058 A 
HETATM    6  C11 UNL     1      11.058  -8.856  21.749  1.00  0.00     0.123 A 
HETATM    7  N3  UNL     1      11.266  -9.559  22.908  1.00  0.00    -0.334 N 
HETATM    8  C24 UNL     1      12.019  -8.962  23.847  1.00  0.00     0.093 A 
HETATM    9  C25 UNL     1      12.579  -7.721  23.722  1.00  0.00     0.031 A 
HETATM   10  C26 UNL     1      12.372  -7.009  22.560  1.00  0.00     0.001 A 
ENDROOT
BRANCH   7  11
HETATM   11  C12 UNL     1      10.662 -10.843  23.003  1.00  0.00     0.328 C 
HETATM   12  C13 UNL     1      10.450 -11.450  24.352  1.00  0.00     0.271 C 
HETATM   13  C17 UNL     1      11.065 -12.675  23.690  1.00  0.00     0.240 C 
HETATM   14  N6  UNL     1      11.456 -11.985  22.530  1.00  0.00    -0.044 N 
HETATM   15  C22 UNL     1      12.795 -11.721  22.191  1.00  0.00     0.275 C 
HETATM   16  C23 UNL     1      10.793 -12.501  21.299  1.00  0.00     0.275 C 
BRANCH  12  17
HETATM   17  N4  UNL     1       9.113 -11.565  24.820  1.00  0.00    -0.069 N 
HETATM   18  C14 UNL     1       9.173 -11.596  26.285  1.00  0.00     0.272 C 
HETATM   19  C15 UNL     1       8.214 -10.500  24.480  1.00  0.00     0.272 C 
HETATM   20  C16 UNL     1       8.458 -12.803  24.416  1.00  0.00     0.272 C 
ENDBRANCH  12  17
BRANCH  13  21
HETATM   21  C18 UNL     1      11.957 -13.440  24.560  1.00  0.00     0.112 C 
HETATM   22  C19 UNL     1      13.148 -12.806  25.158  1.00  0.00     0.036 C 
HETATM   23  C20 UNL     1      13.933 -14.017  25.647  1.00  0.00     0.123 C 
HETATM   24  N5  UNL     1      13.563 -15.106  24.727  1.00  0.00    -0.361 N 
HETATM   25  C21 UNL     1      12.392 -14.750  24.028  1.00  0.00     0.224 C 
ATOM     26  H5  UNL     1      14.075 -15.981  24.613  1.00  0.00     0.162 HD
HETATM   27  O2  UNL     1      11.833 -15.396  23.147  1.00  0.00    -0.273 OA
ENDBRANCH  13  21
ENDBRANCH   7  11
BRANCH   1  28
HETATM   28  C7  UNL     1      13.600  -4.822  22.852  1.00  0.00     0.045 C 
BRANCH  28  29
HETATM   29  C6  UNL     1      12.743  -3.622  23.178  1.00  0.00     0.048 C 
BRANCH  29  30
HETATM   30  C5  UNL     1      12.195  -3.736  24.565  1.00  0.00    -0.006 A 
HETATM   31  C2  UNL     1      10.904  -4.074  24.854  1.00  0.00     0.148 A 
HETATM   32  N1  UNL     1      10.788  -4.071  26.206  1.00  0.00    -0.346 N 
HETATM   33  C3  UNL     1      11.969  -3.740  26.754  1.00  0.00     0.091 A 
ATOM     34  H1  UNL     1       9.937  -4.286  26.726  1.00  0.00     0.167 HD
HETATM   35  C4  UNL     1      12.861  -3.528  25.740  1.00  0.00     0.028 A 
BRANCH  31  36
HETATM   36  O1  UNL     1       9.928  -4.360  23.920  1.00  0.00    -0.340 OA
HETATM   37  C1  UNL     1       9.337  -5.635  23.893  1.00  0.00     0.211 C 
ENDBRANCH  31  36
ENDBRANCH  29  30
ENDBRANCH  28  29
ENDBRANCH   1  28
TORSDOF 7
ENDMDL
MODEL 2
REMARK VINA RESULT: -6.935493642      1.120      1.443
REMARK  7 active torsions:
REMARK  status: ('A' for Active; 'I' for Inactive)
REMARK    1  A    between atoms: O1_2  and  C2_3 
REMARK    2  A    between atoms: C5_8  and  C6_9 
REMARK    3  A    between atoms: C6_9  and  C7_10 
REMARK    4  A    between atoms: C7_10  and  C8_11 
REMARK    5  A    between atoms: N3_17  and  C12_18 
REMARK    6  A    between atoms: C13_19  and  N4_20 
REMARK    7  A    between atoms: C17_24  and  C18_25 
ROOT
HETATM    1  C8  UNL     1      11.639  -6.009  21.930  1.00  0.00    -0.030 A 
HETATM    2  C9  UNL     1      10.975  -5.957  20.739  1.00  0.00     0.096 A 
HETATM    3  N2  UNL     1      10.425  -7.151  20.535  1.00  0.00    -0.364 N 
ATOM      4  H2  UNL     1       9.866  -7.403  19.720  1.00  0.00     0.165 HD
HETATM    5  C10 UNL     1      10.713  -7.984  21.565  1.00  0.00     0.058 A 
HETATM    6  C11 UNL     1      10.369  -9.294  21.802  1.00  0.00     0.123 A 
HETATM    7  N3  UNL     1      10.790  -9.923  22.947  1.00  0.00    -0.334 N 
HETATM    8  C24 UNL     1      11.540  -9.196  23.792  1.00  0.00     0.093 A 
HETATM    9  C25 UNL     1      11.900  -7.893  23.588  1.00  0.00     0.031 A 
HETATM   10  C26 UNL     1      11.479  -7.256  22.441  1.00  0.00     0.001 A 
ENDROOT
BRANCH   7  11
HETATM   11  C12 UNL     1      10.388 -11.276  23.127  1.00  0.00     0.328 C 
HETATM   12  C13 UNL     1      10.314 -11.835  24.510  1.00  0.00     0.271 C 
HETATM   13  C17 UNL     1      11.083 -12.989  23.882  1.00  0.00     0.240 C 
HETATM   14  N6  UNL     1      11.328 -12.311  22.676  1.00  0.00    -0.044 N 
HETATM   15  C22 UNL     1      12.601 -11.870  22.271  1.00  0.00     0.275 C 
HETATM   16  C23 UNL     1      10.710 -12.983  21.498  1.00  0.00     0.275 C 
BRANCH  12  17
HETATM   17  N4  UNL     1       9.026 -12.123  25.036  1.00  0.00    -0.069 N 
HETATM   18  C14 UNL     1       9.167 -12.204  26.494  1.00  0.00     0.272 C 
HETATM   19  C15 UNL     1       7.995 -11.156  24.789  1.00  0.00     0.272 C 
HETATM   20  C16 UNL     1       8.495 -13.411  24.609  1.00  0.00     0.272 C 
ENDBRANCH  12  17
BRANCH  13  21
HETATM   21  C18 UNL     1      12.108 -13.567  24.750  1.00  0.00     0.112 C 
HETATM   22  C19 UNL     1      13.255 -12.754  25.203  1.00  0.00     0.036 C 
HETATM   23  C20 UNL     1      14.200 -13.822  25.740  1.00  0.00     0.123 C 
HETATM   24  N5  UNL     1      13.900 -15.027  24.948  1.00  0.00    -0.361 N 
HETATM   25  C21 UNL     1      12.656 -14.868  24.306  1.00  0.00     0.224 C 
ATOM     26  H5  UNL     1      14.500 -15.849  24.876  1.00  0.00     0.162 HD
HETATM   27  O2  UNL     1      12.121 -15.652  23.528  1.00  0.00    -0.273 OA
ENDBRANCH  13  21
ENDBRANCH   7  11
BRANCH   1  28
HETATM   28  C7  UNL     1      12.404  -4.909  22.566  1.00  0.00     0.045 C 
BRANCH  28  29
HETATM   29  C6  UNL     1      11.681  -4.521  23.834  1.00  0.00     0.048 C 
BRANCH  29  30
HETATM   30  C5  UNL     1      12.655  -4.032  24.859  1.00  0.00    -0.006 A 
HETATM   31  C2  UNL     1      12.348  -3.838  26.175  1.00  0.00     0.148 A 
HETATM   32  N1  UNL     1      13.478  -3.392  26.782  1.00  0.00    -0.346 N 
HETATM   33  C3  UNL     1      14.466  -3.307  25.876  1.00  0.00     0.091 A 
ATOM     34  H1  UNL     1      13.563  -3.158  27.771  1.00  0.00     0.167 HD
HETATM   35  C4  UNL     1      13.967  -3.704  24.667  1.00  0.00     0.028 A 
BRANCH  31  36
HETATM   36  O1  UNL     1      11.112  -4.064  26.747  1.00  0.00    -0.340 OA
HETATM   37  C1  UNL     1      10.870  -3.665  28.073  1.00  0.00     0.211 C 
ENDBRANCH  31  36
ENDBRANCH  29  30
ENDBRANCH  28  29
ENDBRANCH   1  28
TORSDOF 7
ENDMDL
MODEL 3
REMARK VINA RESULT: -6.763663657      2.170      3.201
REMARK  7 active torsions:
REMARK  status: ('A' for Active; 'I' for Inactive)
REMARK    1  A    between atoms: O1_2  and  C2_3 
REMARK    2  A    between atoms: C5_8  and  C6_9 
REMARK    3  A    between atoms: C6_9  and  C7_10 
REMARK    4  A    between atoms: C7_10  and  C8_11 
REMARK    5  A    between atoms: N3_17  and  C12_18 
REMARK    6  A    between atoms: C13_19  and  N4_20 
REMARK    7  A    between atoms: C17_24  and  C18_25 
ROOT
HETATM    1  C8  UNL     1      13.317  -4.985  22.922  1.00  0.00    -0.030 A 
HETATM    2  C9  UNL     1      14.441  -5.229  22.187  1.00  0.00     0.096 A 
HETATM    3  N2  UNL     1      14.366  -6.481  21.744  1.00  0.00    -0.364 N 
ATOM      4  H2  UNL     1      15.070  -6.938  21.165  1.00  0.00     0.165 HD
HETATM    5  C10 UNL     1      13.218  -7.063  22.172  1.00  0.00     0.058 A 
HETATM    6  C11 UNL     1      12.705  -8.323  21.972  1.00  0.00     0.123 A 
HETATM    7  N3  UNL     1      11.496  -8.672  22.519  1.00  0.00    -0.334 N 
HETATM    8  C24 UNL     1      10.869  -7.730  23.243  1.00  0.00     0.093 A 
HETATM    9  C25 UNL     1      11.349  -6.469  23.463  1.00  0.00     0.031 A 
HETATM   10  C26 UNL     1      12.562  -6.113  22.914  1.00  0.00     0.001 A 
ENDROOT
BRANCH   7  11
HETATM   11  C12 UNL     1      11.026  -9.989  22.261  1.00  0.00     0.328 C 
HETATM   12  C13 UNL     1       9.584 -10.307  22.494  1.00  0.00     0.271 C 
HETATM   13  C17 UNL     1      10.162 -11.517  23.214  1.00  0.00     0.240 C 
HETATM   14  N6  UNL     1      11.484 -11.046  23.173  1.00  0.00    -0.044 N 
HETATM   15  C22 UNL     1      12.201 -10.627  24.309  1.00  0.00     0.275 C 
HETATM   16  C23 UNL     1      12.392 -11.936  22.395  1.00  0.00     0.275 C 
BRANCH  12  17
HETATM   17  N4  UNL     1       8.771 -10.554  21.355  1.00  0.00    -0.069 N 
HETATM   18  C14 UNL     1       7.379 -10.358  21.772  1.00  0.00     0.272 C 
HETATM   19  C15 UNL     1       8.972  -9.700  20.220  1.00  0.00     0.272 C 
HETATM   20  C16 UNL     1       8.857 -11.923  20.863  1.00  0.00     0.272 C 
ENDBRANCH  12  17
BRANCH  13  21
HETATM   21  C18 UNL     1       9.435 -11.894  24.426  1.00  0.00     0.112 C 
HETATM   22  C19 UNL     1       9.190 -10.904  25.494  1.00  0.00     0.036 C 
HETATM   23  C20 UNL     1       8.761 -11.795  26.652  1.00  0.00     0.123 C 
HETATM   24  N5  UNL     1       9.453 -13.075  26.423  1.00  0.00    -0.361 N 
HETATM   25  C21 UNL     1       9.907 -13.129  25.090  1.00  0.00     0.224 C 
ATOM     26  H5  UNL     1       9.583 -13.808  27.121  1.00  0.00     0.162 HD
HETATM   27  O2  UNL     1      10.566 -14.025  24.571  1.00  0.00    -0.273 OA
ENDBRANCH  13  21
ENDBRANCH   7  11
BRANCH   1  28
HETATM   28  C7  UNL     1      12.968  -3.720  23.613  1.00  0.00     0.045 C 
BRANCH  28  29
HETATM   29  C6  UNL     1      13.663  -3.723  24.954  1.00  0.00     0.048 C 
BRANCH  29  30
HETATM   30  C5  UNL     1      12.667  -3.546  26.056  1.00  0.00    -0.006 A 
HETATM   31  C2  UNL     1      13.001  -3.321  27.361  1.00  0.00     0.148 A 
HETATM   32  N1  UNL     1      11.838  -3.217  28.054  1.00  0.00    -0.346 N 
HETATM   33  C3  UNL     1      10.803  -3.373  27.211  1.00  0.00     0.091 A 
ATOM     34  H1  UNL     1      11.761  -3.048  29.056  1.00  0.00     0.167 HD
HETATM   35  C4  UNL     1      11.305  -3.579  25.957  1.00  0.00     0.028 A 
BRANCH  31  36
HETATM   36  O1  UNL     1      14.289  -3.222  27.848  1.00  0.00    -0.340 OA
HETATM   37  C1  UNL     1      14.592  -3.713  29.130  1.00  0.00     0.211 C 
ENDBRANCH  31  36
ENDBRANCH  29  30
ENDBRANCH  28  29
ENDBRANCH   1  28
TORSDOF 7
ENDMDL
MODEL 4
REMARK VINA RESULT: -6.714480608      2.665      4.019
REMARK  7 active torsions:
REMARK  status: ('A' for Active; 'I' for Inactive)
REMARK    1  A    between atoms: O1_2  and  C2_3 
REMARK    2  A    between atoms: C5_8  and  C6_9 
REMARK    3  A    between atoms: C6_9  and  C7_10 
REMARK    4  A    between atoms: C7_10  and  C8_11 
REMARK    5  A    between atoms: N3_17  and  C12_18 
REMARK    6  A    between atoms: C13_19  and  N4_20 
REMARK    7  A    between atoms: C17_24  and  C18_25 
ROOT
HETATM    1  C8  UNL     1      12.842  -5.089  23.626  1.00  0.00    -0.030 A 
HETATM    2  C9  UNL     1      14.165  -5.029  23.299  1.00  0.00     0.096 A 
HETATM    3  N2  UNL     1      14.505  -6.207  22.784  1.00  0.00    -0.364 N 
ATOM      4  H2  UNL     1      15.437  -6.450  22.450  1.00  0.00     0.165 HD
HETATM    5  C10 UNL     1      13.434  -7.039  22.767  1.00  0.00     0.058 A 
HETATM    6  C11 UNL     1      13.294  -8.336  22.332  1.00  0.00     0.123 A 
HETATM    7  N3  UNL     1      12.079  -8.967  22.419  1.00  0.00    -0.334 N 
HETATM    8  C24 UNL     1      11.068  -8.255  22.944  1.00  0.00     0.093 A 
HETATM    9  C25 UNL     1      11.171  -6.965  23.386  1.00  0.00     0.031 A 
HETATM   10  C26 UNL     1      12.389  -6.326  23.299  1.00  0.00     0.001 A 
ENDROOT
BRANCH   7  11
HETATM   11  C12 UNL     1      12.009 -10.305  21.942  1.00  0.00     0.328 C 
HETATM   12  C13 UNL     1      13.082 -11.271  22.324  1.00  0.00     0.271 C 
HETATM   13  C17 UNL     1      13.063 -11.590  20.836  1.00  0.00     0.240 C 
HETATM   14  N6  UNL     1      12.232 -10.508  20.504  1.00  0.00    -0.044 N 
HETATM   15  C22 UNL     1      12.662  -9.387  19.772  1.00  0.00     0.275 C 
HETATM   16  C23 UNL     1      10.932 -10.936  19.914  1.00  0.00     0.275 C 
BRANCH  12  17
HETATM   17  N4  UNL     1      12.737 -12.320  23.219  1.00  0.00    -0.069 N 
HETATM   18  C14 UNL     1      12.630 -11.726  24.555  1.00  0.00     0.272 C 
HETATM   19  C15 UNL     1      11.492 -12.992  22.979  1.00  0.00     0.272 C 
HETATM   20  C16 UNL     1      13.755 -13.360  23.319  1.00  0.00     0.272 C 
ENDBRANCH  12  17
BRANCH  13  21
HETATM   21  C18 UNL     1      14.384 -11.849  20.263  1.00  0.00     0.112 C 
HETATM   22  C19 UNL     1      15.382 -10.766  20.159  1.00  0.00     0.036 C 
HETATM   23  C20 UNL     1      16.404 -11.376  19.208  1.00  0.00     0.123 C 
HETATM   24  N5  UNL     1      15.630 -12.297  18.358  1.00  0.00    -0.361 N 
HETATM   25  C21 UNL     1      14.384 -12.557  18.964  1.00  0.00     0.224 C 
ATOM     26  H5  UNL     1      15.947 -12.686  17.470  1.00  0.00     0.162 HD
HETATM   27  O2  UNL     1      13.471 -13.238  18.509  1.00  0.00    -0.273 OA
ENDBRANCH  13  21
ENDBRANCH   7  11
BRANCH   1  28
HETATM   28  C7  UNL     1      12.029  -4.007  24.232  1.00  0.00     0.045 C 
BRANCH  28  29
HETATM   29  C6  UNL     1      12.872  -3.338  25.291  1.00  0.00     0.048 C 
BRANCH  29  30
HETATM   30  C5  UNL     1      12.216  -3.456  26.630  1.00  0.00    -0.006 A 
HETATM   31  C2  UNL     1      12.890  -3.433  27.817  1.00  0.00     0.148 A 
HETATM   32  N1  UNL     1      11.963  -3.567  28.800  1.00  0.00    -0.346 N 
HETATM   33  C3  UNL     1      10.742  -3.672  28.249  1.00  0.00     0.091 A 
ATOM     34  H1  UNL     1      12.161  -3.586  29.800  1.00  0.00     0.167 HD
HETATM   35  C4  UNL     1      10.884  -3.604  26.890  1.00  0.00     0.028 A 
BRANCH  31  36
HETATM   36  O1  UNL     1      14.257  -3.297  27.955  1.00  0.00    -0.340 OA
HETATM   37  C1  UNL     1      14.880  -3.672  29.159  1.00  0.00     0.211 C 
ENDBRANCH  31  36
ENDBRANCH  29  30
ENDBRANCH  28  29
ENDBRANCH   1  28
TORSDOF 7
ENDMDL
MODEL 5
REMARK VINA RESULT: -6.628930584      2.557      3.845
REMARK  7 active torsions:
REMARK  status: ('A' for Active; 'I' for Inactive)
REMARK    1  A    between atoms: O1_2  and  C2_3 
REMARK    2  A    between atoms: C5_8  and  C6_9 
REMARK    3  A    between atoms: C6_9  and  C7_10 
REMARK    4  A    between atoms: C7_10  and  C8_11 
REMARK    5  A    between atoms: N3_17  and  C12_18 
REMARK    6  A    between atoms: C13_19  and  N4_20 
REMARK    7  A    between atoms: C17_24  and  C18_25 
ROOT
HETATM    1  C8  UNL     1      10.859  -5.383  23.539  1.00  0.00    -0.030 A 
HETATM    2  C9  UNL     1       9.499  -5.485  23.557  1.00  0.00     0.096 A 
HETATM    3  N2  UNL     1       9.184  -6.715  23.157  1.00  0.00    -0.364 N 
ATOM      4  H2  UNL     1       8.234  -7.075  23.074  1.00  0.00     0.165 HD
HETATM    5  C10 UNL     1      10.308  -7.420  22.877  1.00  0.00     0.058 A 
HETATM    6  C11 UNL     1      10.488  -8.712  22.441  1.00  0.00     0.123 A 
HETATM    7  N3  UNL     1      11.753  -9.201  22.233  1.00  0.00    -0.334 N 
HETATM    8  C24 UNL     1      12.771  -8.358  22.475  1.00  0.00     0.093 A 
HETATM    9  C25 UNL     1      12.628  -7.069  22.909  1.00  0.00     0.031 A 
HETATM   10  C26 UNL     1      11.360  -6.573  23.120  1.00  0.00     0.001 A 
ENDROOT
BRANCH   7  11
HETATM   11  C12 UNL     1      11.861 -10.548  21.790  1.00  0.00     0.328 C 
HETATM   12  C13 UNL     1      13.019 -11.374  22.247  1.00  0.00     0.271 C 
HETATM   13  C17 UNL     1      13.110 -11.725  20.769  1.00  0.00     0.240 C 
HETATM   14  N6  UNL     1      12.177 -10.754  20.370  1.00  0.00    -0.044 N 
HETATM   15  C22 UNL     1      12.511  -9.606  19.628  1.00  0.00     0.275 C 
HETATM   16  C23 UNL     1      10.966 -11.343  19.731  1.00  0.00     0.275 C 
BRANCH  12  17
HETATM   17  N4  UNL     1      12.753 -12.437  23.153  1.00  0.00    -0.069 N 
HETATM   18  C14 UNL     1      12.641 -11.843  24.489  1.00  0.00     0.272 C 
HETATM   19  C15 UNL     1      11.543 -13.178  22.943  1.00  0.00     0.272 C 
HETATM   20  C16 UNL     1      13.829 -13.417  23.235  1.00  0.00     0.272 C 
ENDBRANCH  12  17
BRANCH  13  21
HETATM   21  C18 UNL     1      14.478 -11.840  20.266  1.00  0.00     0.112 C 
HETATM   22  C19 UNL     1      15.354 -10.654  20.192  1.00  0.00     0.036 C 
HETATM   23  C20 UNL     1      16.484 -11.156  19.302  1.00  0.00     0.123 C 
HETATM   24  N5  UNL     1      15.862 -12.168  18.432  1.00  0.00    -0.361 N 
HETATM   25  C21 UNL     1      14.623 -12.559  18.980  1.00  0.00     0.224 C 
ATOM     26  H5  UNL     1      16.264 -12.530  17.567  1.00  0.00     0.162 HD
HETATM   27  O2  UNL     1      13.815 -13.343  18.493  1.00  0.00    -0.273 OA
ENDBRANCH  13  21
ENDBRANCH   7  11
BRANCH   1  28
HETATM   28  C7  UNL     1      11.663  -4.192  23.905  1.00  0.00     0.045 C 
BRANCH  28  29
HETATM   29  C6  UNL     1      11.138  -3.671  25.221  1.00  0.00     0.048 C 
BRANCH  29  30
HETATM   30  C5  UNL     1      12.248  -3.555  26.215  1.00  0.00    -0.006 A 
HETATM   31  C2  UNL     1      12.061  -3.444  27.564  1.00  0.00     0.148 A 
HETATM   32  N1  UNL     1      13.292  -3.361  28.128  1.00  0.00    -0.346 N 
HETATM   33  C3  UNL     1      14.228  -3.416  27.166  1.00  0.00     0.091 A 
ATOM     34  H1  UNL     1      13.479  -3.269  29.127  1.00  0.00     0.167 HD
HETATM   35  C4  UNL     1      13.590  -3.539  25.962  1.00  0.00     0.028 A 
BRANCH  31  36
HETATM   36  O1  UNL     1      10.835  -3.426  28.198  1.00  0.00    -0.340 OA
HETATM   37  C1  UNL     1      10.552  -4.368  29.203  1.00  0.00     0.211 C 
ENDBRANCH  31  36
ENDBRANCH  29  30
ENDBRANCH  28  29
ENDBRANCH   1  28
TORSDOF 7
ENDMDL
