MODEL 1
REMARK VINA RESULT: -7.416050299      0.000      0.000
REMARK  15 active torsions:
REMARK  status: ('A' for Active; 'I' for Inactive)
REMARK    1  A    between atoms: C2_2  and  C3_3 
REMARK    2  A    between atoms: C3_3  and  C5_5 
REMARK    3  A    between atoms: C12_15  and  C13_16 
REMARK    4  A    between atoms: C13_16  and  C14_17 
REMARK    5  A    between atoms: C14_17  and  C15_18 
REMARK    6  A    between atoms: C15_18  and  C16_19 
REMARK    7  A    between atoms: C16_19  and  N2_20 
REMARK    8  A    between atoms: C19_29  and  C20_30 
REMARK    9  A    between atoms: C21_33  and  C22_34 
REMARK   10  A    between atoms: C22_34  and  C23_35 
REMARK       I    between atoms: C23_35  and  N6_37 
REMARK   11  A    between atoms: N6_37  and  C24_39 
REMARK   12  A    between atoms: C24_39  and  C25_40 
REMARK   13  A    between atoms: C25_40  and  C26_41 
REMARK   14  A    between atoms: C26_41  and  C27_42 
REMARK   15  A    between atoms: C27_42  and  C28_43 
ROOT
HETATM    1  C5  UNL     1       9.221  24.012   4.303  1.00  0.00     0.089 C 
HETATM    2  C6  UNL     1       7.749  24.088   4.116  1.00  0.00     0.047 C 
HETATM    3  C7  UNL     1       7.228  25.291   3.394  1.00  0.00     0.154 A 
HETATM    4  C8  UNL     1       7.600  25.294   1.974  1.00  0.00     0.275 A 
HETATM    5  O1  UNL     1       7.307  24.387   1.115  1.00  0.00    -0.264 OA
HETATM    6  O2  UNL     1       8.305  26.440   1.778  1.00  0.00    -0.280 OA
HETATM    7  C9  UNL     1       8.381  27.172   2.955  1.00  0.00     0.090 A 
HETATM    8  C10 UNL     1       9.129  28.490   2.898  1.00  0.00     0.080 C 
HETATM    9  C11 UNL     1       7.769  26.578   3.951  1.00  0.00     0.128 A 
HETATM   10  N1  UNL     1       7.514  26.870   5.235  1.00  0.00    -0.405 NA
HETATM   11  C12 UNL     1       7.428  27.201   6.396  1.00  0.00     0.152 C 
HETATM   12  C18 UNL     1       8.484  27.963   7.134  1.00  0.00     0.282 C 
HETATM   13  O3  UNL     1       8.133  29.026   7.786  1.00  0.00    -0.265 OA
HETATM   14  N5  UNL     1       9.851  27.585   7.154  1.00  0.00    -0.318 N 
ATOM     15  H5  UNL     1      10.514  28.280   6.808  1.00  0.00     0.169 HD
HETATM   16  C19 UNL     1      10.420  26.331   7.606  1.00  0.00     0.103 C 
HETATM   17  C21 UNL     1      11.027  25.494   6.546  1.00  0.00     0.143 C 
HETATM   18  C31 UNL     1      10.614  24.102   6.435  1.00  0.00     0.228 C 
HETATM   19  O7  UNL     1      11.285  23.222   7.036  1.00  0.00    -0.273 OA
HETATM   20  N7  UNL     1       9.485  23.652   5.680  1.00  0.00    -0.355 N 
ATOM     21  H7  UNL     1       8.820  23.033   6.143  1.00  0.00     0.162 HD
ENDROOT
BRANCH  17  22
HETATM   22  C22 UNL     1      12.510  25.614   6.429  1.00  0.00     0.123 C 
BRANCH  22  23
HETATM   23  C23 UNL     1      13.172  24.862   5.372  1.00  0.00     0.218 C 
HETATM   24  O6  UNL     1      13.084  25.121   4.122  1.00  0.00    -0.274 OA
HETATM   25  N6  UNL     1      13.994  23.737   5.667  1.00  0.00    -0.361 N 
ATOM     26  H6  UNL     1      14.104  23.475   6.647  1.00  0.00     0.162 HD
BRANCH  25  27
HETATM   27  C24 UNL     1      14.672  22.954   4.693  1.00  0.00     0.122 C 
BRANCH  27  28
HETATM   28  C25 UNL     1      13.973  21.740   4.201  1.00  0.00     0.020 C 
BRANCH  28  29
HETATM   29  C26 UNL     1      14.860  20.534   4.029  1.00  0.00     0.002 C 
BRANCH  29  30
HETATM   30  C27 UNL     1      14.797  20.022   2.626  1.00  0.00     0.004 C 
BRANCH  30  31
HETATM   31  C28 UNL     1      15.054  18.524   2.560  1.00  0.00    -0.023 C 
HETATM   32  C29 UNL     1      14.968  18.002   3.974  1.00  0.00     0.009 C 
HETATM   33  C30 UNL     1      16.404  18.188   2.008  1.00  0.00     0.009 C 
ENDBRANCH  30  31
ENDBRANCH  29  30
ENDBRANCH  28  29
ENDBRANCH  27  28
ENDBRANCH  25  27
ENDBRANCH  22  23
ENDBRANCH  17  22
BRANCH  16  34
HETATM   34  C20 UNL     1       9.651  25.661   8.659  1.00  0.00     0.223 C 
HETATM   35  O4  UNL     1       9.945  26.012   9.861  1.00  0.00    -0.643 OA
HETATM   36  O5  UNL     1       8.674  24.726   8.565  1.00  0.00    -0.643 OA
ENDBRANCH  16  34
BRANCH   1  37
HETATM   37  C3  UNL     1       9.938  23.080   3.376  1.00  0.00     0.004 C 
HETATM   38  C4  UNL     1       9.021  22.337   2.432  1.00  0.00     0.012 C 
BRANCH  37  39
HETATM   39  C2  UNL     1      11.105  23.608   2.634  1.00  0.00     0.002 C 
HETATM   40  C1  UNL     1      10.843  24.336   1.366  1.00  0.00     0.005 C 
ENDBRANCH  37  39
ENDBRANCH   1  37
BRANCH  11  41
HETATM   41  C13 UNL     1       6.205  26.890   7.194  1.00  0.00     0.079 C 
BRANCH  41  42
HETATM   42  C14 UNL     1       4.988  27.687   6.752  1.00  0.00     0.009 C 
BRANCH  42  43
HETATM   43  C15 UNL     1       3.824  26.768   6.483  1.00  0.00     0.020 C 
BRANCH  43  44
HETATM   44  C16 UNL     1       3.914  26.201   5.098  1.00  0.00     0.122 C 
BRANCH  44  45
HETATM   45  N2  UNL     1       3.955  24.759   5.134  1.00  0.00    -0.367 N 
HETATM   46  C17 UNL     1       3.846  24.085   4.040  1.00  0.00     0.196 C 
HETATM   47  N3  UNL     1       3.684  24.718   2.775  1.00  0.00    -0.067 NA
HETATM   48  N4  UNL     1       3.884  22.655   4.035  1.00  0.00    -0.067 NA
ATOM     49  H2  UNL     1       4.070  24.274   6.024  1.00  0.00     0.161 HD
ENDBRANCH  44  45
ENDBRANCH  43  44
ENDBRANCH  42  43
ENDBRANCH  41  42
ENDBRANCH  11  41
TORSDOF 15
ENDMDL
MODEL 2
REMARK VINA RESULT: -7.414208493      5.459     12.460
REMARK  15 active torsions:
REMARK  status: ('A' for Active; 'I' for Inactive)
REMARK    1  A    between atoms: C2_2  and  C3_3 
REMARK    2  A    between atoms: C3_3  and  C5_5 
REMARK    3  A    between atoms: C12_15  and  C13_16 
REMARK    4  A    between atoms: C13_16  and  C14_17 
REMARK    5  A    between atoms: C14_17  and  C15_18 
REMARK    6  A    between atoms: C15_18  and  C16_19 
REMARK    7  A    between atoms: C16_19  and  N2_20 
REMARK    8  A    between atoms: C19_29  and  C20_30 
REMARK    9  A    between atoms: C21_33  and  C22_34 
REMARK   10  A    between atoms: C22_34  and  C23_35 
REMARK       I    between atoms: C23_35  and  N6_37 
REMARK   11  A    between atoms: N6_37  and  C24_39 
REMARK   12  A    between atoms: C24_39  and  C25_40 
REMARK   13  A    between atoms: C25_40  and  C26_41 
REMARK   14  A    between atoms: C26_41  and  C27_42 
REMARK   15  A    between atoms: C27_42  and  C28_43 
ROOT
HETATM    1  C5  UNL     1      15.772  20.600   7.545  1.00  0.00     0.089 C 
HETATM    2  C6  UNL     1      16.436  19.516   8.313  1.00  0.00     0.047 C 
HETATM    3  C7  UNL     1      17.931  19.546   8.356  1.00  0.00     0.154 A 
HETATM    4  C8  UNL     1      18.444  20.676   9.141  1.00  0.00     0.275 A 
HETATM    5  O1  UNL     1      18.191  20.913  10.376  1.00  0.00    -0.264 OA
HETATM    6  O2  UNL     1      19.225  21.394   8.291  1.00  0.00    -0.280 OA
HETATM    7  C9  UNL     1      19.267  20.790   7.041  1.00  0.00     0.090 A 
HETATM    8  C10 UNL     1      20.111  21.468   5.978  1.00  0.00     0.080 C 
HETATM    9  C11 UNL     1      18.546  19.697   6.993  1.00  0.00     0.128 A 
HETATM   10  N1  UNL     1      18.295  18.750   6.076  1.00  0.00    -0.405 NA
HETATM   11  C12 UNL     1      18.073  18.013   5.142  1.00  0.00     0.152 C 
HETATM   12  C18 UNL     1      17.993  18.462   3.717  1.00  0.00     0.282 C 
HETATM   13  O3  UNL     1      18.694  17.826   2.832  1.00  0.00    -0.265 OA
HETATM   14  N5  UNL     1      17.194  19.550   3.283  1.00  0.00    -0.318 N 
ATOM     15  H5  UNL     1      17.686  20.309   2.811  1.00  0.00     0.169 HD
HETATM   16  C19 UNL     1      15.761  19.714   3.429  1.00  0.00     0.103 C 
HETATM   17  C21 UNL     1      15.340  20.802   4.341  1.00  0.00     0.143 C 
HETATM   18  C31 UNL     1      14.393  20.493   5.404  1.00  0.00     0.228 C 
HETATM   19  O7  UNL     1      13.165  20.663   5.189  1.00  0.00    -0.273 OA
HETATM   20  N7  UNL     1      14.762  20.003   6.698  1.00  0.00    -0.355 N 
ATOM     21  H7  UNL     1      14.279  19.176   7.047  1.00  0.00     0.162 HD
ENDROOT
BRANCH  17  22
HETATM   22  C22 UNL     1      14.969  22.078   3.663  1.00  0.00     0.123 C 
BRANCH  22  23
HETATM   23  C23 UNL     1      14.556  23.198   4.497  1.00  0.00     0.218 C 
HETATM   24  O6  UNL     1      15.349  23.937   5.176  1.00  0.00    -0.274 OA
HETATM   25  N6  UNL     1      13.185  23.561   4.623  1.00  0.00    -0.361 N 
ATOM     26  H6  UNL     1      12.500  23.008   4.108  1.00  0.00     0.162 HD
BRANCH  25  27
HETATM   27  C24 UNL     1      12.704  24.639   5.416  1.00  0.00     0.122 C 
BRANCH  27  28
HETATM   28  C25 UNL     1      12.297  24.319   6.808  1.00  0.00     0.020 C 
BRANCH  28  29
HETATM   29  C26 UNL     1      12.207  25.513   7.723  1.00  0.00     0.002 C 
BRANCH  29  30
HETATM   30  C27 UNL     1      10.820  26.070   7.736  1.00  0.00     0.004 C 
BRANCH  30  31
HETATM   31  C28 UNL     1      10.255  26.146   9.148  1.00  0.00    -0.023 C 
HETATM   32  C29 UNL     1       8.935  25.414   9.131  1.00  0.00     0.009 C 
HETATM   33  C30 UNL     1      10.018  27.551   9.605  1.00  0.00     0.009 C 
ENDBRANCH  30  31
ENDBRANCH  29  30
ENDBRANCH  28  29
ENDBRANCH  27  28
ENDBRANCH  25  27
ENDBRANCH  22  23
ENDBRANCH  17  22
BRANCH  16  34
HETATM   34  C20 UNL     1      15.007  18.458   3.458  1.00  0.00     0.223 C 
HETATM   35  O4  UNL     1      14.531  18.077   2.325  1.00  0.00    -0.643 OA
HETATM   36  O5  UNL     1      14.730  17.630   4.496  1.00  0.00    -0.643 OA
ENDBRANCH  16  34
BRANCH   1  37
HETATM   37  C3  UNL     1      15.173  21.697   8.371  1.00  0.00     0.004 C 
HETATM   38  C4  UNL     1      15.228  21.436   9.858  1.00  0.00     0.012 C 
BRANCH  37  39
HETATM   39  C2  UNL     1      15.601  23.085   8.086  1.00  0.00     0.002 C 
HETATM   40  C1  UNL     1      16.724  23.638   8.887  1.00  0.00     0.005 C 
ENDBRANCH  37  39
ENDBRANCH   1  37
BRANCH  11  41
HETATM   41  C13 UNL     1      17.887  16.546   5.349  1.00  0.00     0.079 C 
BRANCH  41  42
HETATM   42  C14 UNL     1      18.845  15.965   6.378  1.00  0.00     0.009 C 
BRANCH  42  43
HETATM   43  C15 UNL     1      19.425  14.664   5.884  1.00  0.00     0.020 C 
BRANCH  43  44
HETATM   44  C16 UNL     1      19.930  14.815   4.480  1.00  0.00     0.122 C 
BRANCH  44  45
HETATM   45  N2  UNL     1      21.145  15.592   4.451  1.00  0.00    -0.367 N 
HETATM   46  C17 UNL     1      22.283  15.002   4.314  1.00  0.00     0.196 C 
HETATM   47  N3  UNL     1      22.390  13.588   4.189  1.00  0.00    -0.067 NA
HETATM   48  N4  UNL     1      23.509  15.738   4.278  1.00  0.00    -0.067 NA
ATOM     49  H2  UNL     1      21.104  16.608   4.538  1.00  0.00     0.161 HD
ENDBRANCH  44  45
ENDBRANCH  43  44
ENDBRANCH  42  43
ENDBRANCH  41  42
ENDBRANCH  11  41
TORSDOF 15
ENDMDL
MODEL 3
REMARK VINA RESULT: -7.392124077      5.131     11.993
REMARK  15 active torsions:
REMARK  status: ('A' for Active; 'I' for Inactive)
REMARK    1  A    between atoms: C2_2  and  C3_3 
REMARK    2  A    between atoms: C3_3  and  C5_5 
REMARK    3  A    between atoms: C12_15  and  C13_16 
REMARK    4  A    between atoms: C13_16  and  C14_17 
REMARK    5  A    between atoms: C14_17  and  C15_18 
REMARK    6  A    between atoms: C15_18  and  C16_19 
REMARK    7  A    between atoms: C16_19  and  N2_20 
REMARK    8  A    between atoms: C19_29  and  C20_30 
REMARK    9  A    between atoms: C21_33  and  C22_34 
REMARK   10  A    between atoms: C22_34  and  C23_35 
REMARK       I    between atoms: C23_35  and  N6_37 
REMARK   11  A    between atoms: N6_37  and  C24_39 
REMARK   12  A    between atoms: C24_39  and  C25_40 
REMARK   13  A    between atoms: C25_40  and  C26_41 
REMARK   14  A    between atoms: C26_41  and  C27_42 
REMARK   15  A    between atoms: C27_42  and  C28_43 
ROOT
HETATM    1  C5  UNL     1      15.774  20.584   7.496  1.00  0.00     0.089 C 
HETATM    2  C6  UNL     1      16.438  19.490   8.250  1.00  0.00     0.047 C 
HETATM    3  C7  UNL     1      17.934  19.516   8.288  1.00  0.00     0.154 A 
HETATM    4  C8  UNL     1      18.453  20.638   9.081  1.00  0.00     0.275 A 
HETATM    5  O1  UNL     1      18.206  20.864  10.319  1.00  0.00    -0.264 OA
HETATM    6  O2  UNL     1      19.232  21.363   8.234  1.00  0.00    -0.280 OA
HETATM    7  C9  UNL     1      19.268  20.770   6.979  1.00  0.00     0.090 A 
HETATM    8  C10 UNL     1      20.109  21.456   5.920  1.00  0.00     0.080 C 
HETATM    9  C11 UNL     1      18.543  19.679   6.923  1.00  0.00     0.128 A 
HETATM   10  N1  UNL     1      18.287  18.741   5.999  1.00  0.00    -0.405 NA
HETATM   11  C12 UNL     1      18.059  18.014   5.059  1.00  0.00     0.152 C 
HETATM   12  C18 UNL     1      17.975  18.476   3.639  1.00  0.00     0.282 C 
HETATM   13  O3  UNL     1      18.670  17.847   2.745  1.00  0.00    -0.265 OA
HETATM   14  N5  UNL     1      17.176  19.570   3.218  1.00  0.00    -0.318 N 
ATOM     15  H5  UNL     1      17.669  20.332   2.751  1.00  0.00     0.169 HD
HETATM   16  C19 UNL     1      15.744  19.736   3.372  1.00  0.00     0.103 C 
HETATM   17  C21 UNL     1      15.329  20.816   4.295  1.00  0.00     0.143 C 
HETATM   18  C31 UNL     1      14.386  20.499   5.360  1.00  0.00     0.228 C 
HETATM   19  O7  UNL     1      13.158  20.675   5.150  1.00  0.00    -0.273 OA
HETATM   20  N7  UNL     1      14.759  19.997   6.647  1.00  0.00    -0.355 N 
ATOM     21  H7  UNL     1      14.276  19.167   6.990  1.00  0.00     0.162 HD
ENDROOT
BRANCH  17  22
HETATM   22  C22 UNL     1      14.959  22.100   3.630  1.00  0.00     0.123 C 
BRANCH  22  23
HETATM   23  C23 UNL     1      14.540  23.208   4.476  1.00  0.00     0.218 C 
HETATM   24  O6  UNL     1      15.328  23.943   5.165  1.00  0.00    -0.274 OA
HETATM   25  N6  UNL     1      13.168  23.565   4.602  1.00  0.00    -0.361 N 
ATOM     26  H6  UNL     1      12.485  23.016   4.079  1.00  0.00     0.162 HD
BRANCH  25  27
HETATM   27  C24 UNL     1      12.681  24.633   5.406  1.00  0.00     0.122 C 
BRANCH  27  28
HETATM   28  C25 UNL     1      12.302  24.302   6.804  1.00  0.00     0.020 C 
BRANCH  28  29
HETATM   29  C26 UNL     1      12.220  25.491   7.726  1.00  0.00     0.002 C 
BRANCH  29  30
HETATM   30  C27 UNL     1      10.838  26.061   7.738  1.00  0.00     0.004 C 
BRANCH  30  31
HETATM   31  C28 UNL     1      10.285  26.172   9.152  1.00  0.00    -0.023 C 
HETATM   32  C29 UNL     1       8.992  25.392   9.178  1.00  0.00     0.009 C 
HETATM   33  C30 UNL     1      10.001  27.583   9.558  1.00  0.00     0.009 C 
ENDBRANCH  30  31
ENDBRANCH  29  30
ENDBRANCH  28  29
ENDBRANCH  27  28
ENDBRANCH  25  27
ENDBRANCH  22  23
ENDBRANCH  17  22
BRANCH  16  34
HETATM   34  C20 UNL     1      14.988  18.481   3.392  1.00  0.00     0.223 C 
HETATM   35  O4  UNL     1      14.513  18.108   2.256  1.00  0.00    -0.643 OA
HETATM   36  O5  UNL     1      14.707  17.647   4.424  1.00  0.00    -0.643 OA
ENDBRANCH  16  34
BRANCH   1  37
HETATM   37  C3  UNL     1      15.181  21.674   8.334  1.00  0.00     0.004 C 
HETATM   38  C4  UNL     1      15.237  21.397   9.818  1.00  0.00     0.012 C 
BRANCH  37  39
HETATM   39  C2  UNL     1      15.614  23.063   8.063  1.00  0.00     0.002 C 
HETATM   40  C1  UNL     1      16.756  23.595   8.852  1.00  0.00     0.005 C 
ENDBRANCH  37  39
ENDBRANCH   1  37
BRANCH  11  41
HETATM   41  C13 UNL     1      17.871  16.545   5.253  1.00  0.00     0.079 C 
BRANCH  41  42
HETATM   42  C14 UNL     1      19.165  15.819   5.586  1.00  0.00     0.009 C 
BRANCH  42  43
HETATM   43  C15 UNL     1      19.008  15.014   6.851  1.00  0.00     0.020 C 
BRANCH  43  44
HETATM   44  C16 UNL     1      19.442  15.817   8.040  1.00  0.00     0.122 C 
BRANCH  44  45
HETATM   45  N2  UNL     1      18.336  16.048   8.937  1.00  0.00    -0.367 N 
HETATM   46  C17 UNL     1      18.516  16.726  10.020  1.00  0.00     0.196 C 
HETATM   47  N3  UNL     1      19.787  17.263  10.372  1.00  0.00    -0.067 NA
HETATM   48  N4  UNL     1      17.444  16.977  10.932  1.00  0.00    -0.067 NA
ATOM     49  H2  UNL     1      17.412  15.677   8.714  1.00  0.00     0.161 HD
ENDBRANCH  44  45
ENDBRANCH  43  44
ENDBRANCH  42  43
ENDBRANCH  41  42
ENDBRANCH  11  41
TORSDOF 15
ENDMDL
MODEL 4
REMARK VINA RESULT: -7.243124934      1.747      2.580
REMARK  15 active torsions:
REMARK  status: ('A' for Active; 'I' for Inactive)
REMARK    1  A    between atoms: C2_2  and  C3_3 
REMARK    2  A    between atoms: C3_3  and  C5_5 
REMARK    3  A    between atoms: C12_15  and  C13_16 
REMARK    4  A    between atoms: C13_16  and  C14_17 
REMARK    5  A    between atoms: C14_17  and  C15_18 
REMARK    6  A    between atoms: C15_18  and  C16_19 
REMARK    7  A    between atoms: C16_19  and  N2_20 
REMARK    8  A    between atoms: C19_29  and  C20_30 
REMARK    9  A    between atoms: C21_33  and  C22_34 
REMARK   10  A    between atoms: C22_34  and  C23_35 
REMARK       I    between atoms: C23_35  and  N6_37 
REMARK   11  A    between atoms: N6_37  and  C24_39 
REMARK   12  A    between atoms: C24_39  and  C25_40 
REMARK   13  A    between atoms: C25_40  and  C26_41 
REMARK   14  A    between atoms: C26_41  and  C27_42 
REMARK   15  A    between atoms: C27_42  and  C28_43 
ROOT
HETATM    1  C5  UNL     1       9.213  24.061   4.343  1.00  0.00     0.089 C 
HETATM    2  C6  UNL     1       7.746  24.130   4.119  1.00  0.00     0.047 C 
HETATM    3  C7  UNL     1       7.237  25.324   3.375  1.00  0.00     0.154 A 
HETATM    4  C8  UNL     1       7.645  25.318   1.965  1.00  0.00     0.275 A 
HETATM    5  O1  UNL     1       7.377  24.403   1.106  1.00  0.00    -0.264 OA
HETATM    6  O2  UNL     1       8.350  26.465   1.776  1.00  0.00    -0.280 OA
HETATM    7  C9  UNL     1       8.393  27.207   2.949  1.00  0.00     0.090 A 
HETATM    8  C10 UNL     1       9.137  28.528   2.900  1.00  0.00     0.080 C 
HETATM    9  C11 UNL     1       7.759  26.618   3.934  1.00  0.00     0.128 A 
HETATM   10  N1  UNL     1       7.471  26.919   5.209  1.00  0.00    -0.405 NA
HETATM   11  C12 UNL     1       7.356  27.259   6.365  1.00  0.00     0.152 C 
HETATM   12  C18 UNL     1       8.389  28.031   7.122  1.00  0.00     0.282 C 
HETATM   13  O3  UNL     1       8.018  29.098   7.757  1.00  0.00    -0.265 OA
HETATM   14  N5  UNL     1       9.757  27.660   7.179  1.00  0.00    -0.318 N 
ATOM     15  H5  UNL     1      10.426  28.355   6.845  1.00  0.00     0.169 HD
HETATM   16  C19 UNL     1      10.320  26.412   7.656  1.00  0.00     0.103 C 
HETATM   17  C21 UNL     1      10.957  25.570   6.618  1.00  0.00     0.143 C 
HETATM   18  C31 UNL     1      10.552  24.174   6.508  1.00  0.00     0.228 C 
HETATM   19  O7  UNL     1      11.212  23.303   7.132  1.00  0.00    -0.273 OA
HETATM   20  N7  UNL     1       9.444  23.713   5.729  1.00  0.00    -0.355 N 
ATOM     21  H7  UNL     1       8.771  23.096   6.181  1.00  0.00     0.162 HD
ENDROOT
BRANCH  17  22
HETATM   22  C22 UNL     1      12.442  25.694   6.537  1.00  0.00     0.123 C 
BRANCH  22  23
HETATM   23  C23 UNL     1      13.131  24.945   5.496  1.00  0.00     0.218 C 
HETATM   24  O6  UNL     1      13.152  25.261   4.257  1.00  0.00    -0.274 OA
HETATM   25  N6  UNL     1      13.858  23.758   5.797  1.00  0.00    -0.361 N 
ATOM     26  H6  UNL     1      13.879  23.449   6.769  1.00  0.00     0.162 HD
BRANCH  25  27
HETATM   27  C24 UNL     1      14.556  22.973   4.838  1.00  0.00     0.122 C 
BRANCH  27  28
HETATM   28  C25 UNL     1      13.854  21.776   4.310  1.00  0.00     0.020 C 
BRANCH  28  29
HETATM   29  C26 UNL     1      14.602  21.038   3.230  1.00  0.00     0.002 C 
BRANCH  29  30
HETATM   30  C27 UNL     1      15.632  20.130   3.822  1.00  0.00     0.004 C 
BRANCH  30  31
HETATM   31  C28 UNL     1      15.613  18.754   3.171  1.00  0.00    -0.023 C 
HETATM   32  C29 UNL     1      14.799  18.880   1.905  1.00  0.00     0.009 C 
HETATM   33  C30 UNL     1      14.988  17.708   4.039  1.00  0.00     0.009 C 
ENDBRANCH  30  31
ENDBRANCH  29  30
ENDBRANCH  28  29
ENDBRANCH  27  28
ENDBRANCH  25  27
ENDBRANCH  22  23
ENDBRANCH  17  22
BRANCH  16  34
HETATM   34  C20 UNL     1       9.528  25.747   8.695  1.00  0.00     0.223 C 
HETATM   35  O4  UNL     1       9.796  26.104   9.901  1.00  0.00    -0.643 OA
HETATM   36  O5  UNL     1       8.552  24.812   8.584  1.00  0.00    -0.643 OA
ENDBRANCH  16  34
BRANCH   1  37
HETATM   37  C3  UNL     1       9.956  23.125   3.442  1.00  0.00     0.004 C 
HETATM   38  C4  UNL     1       9.063  22.343   2.507  1.00  0.00     0.012 C 
BRANCH  37  39
HETATM   39  C2  UNL     1      11.118  23.662   2.697  1.00  0.00     0.002 C 
HETATM   40  C1  UNL     1      10.866  24.240   1.352  1.00  0.00     0.005 C 
ENDBRANCH  37  39
ENDBRANCH   1  37
BRANCH  11  41
HETATM   41  C13 UNL     1       6.114  26.950   7.135  1.00  0.00     0.079 C 
BRANCH  41  42
HETATM   42  C14 UNL     1       4.904  26.717   6.244  1.00  0.00     0.009 C 
BRANCH  42  43
HETATM   43  C15 UNL     1       4.263  28.029   5.870  1.00  0.00     0.020 C 
BRANCH  43  44
HETATM   44  C16 UNL     1       4.297  28.978   7.031  1.00  0.00     0.122 C 
BRANCH  44  45
HETATM   45  N2  UNL     1       4.666  30.304   6.600  1.00  0.00    -0.367 N 
HETATM   46  C17 UNL     1       3.966  31.321   6.977  1.00  0.00     0.196 C 
HETATM   47  N3  UNL     1       2.824  31.182   7.815  1.00  0.00    -0.067 NA
HETATM   48  N4  UNL     1       4.302  32.651   6.572  1.00  0.00    -0.067 NA
ATOM     49  H2  UNL     1       5.479  30.438   5.999  1.00  0.00     0.161 HD
ENDBRANCH  44  45
ENDBRANCH  43  44
ENDBRANCH  42  43
ENDBRANCH  41  42
ENDBRANCH  11  41
TORSDOF 15
ENDMDL
MODEL 5
REMARK VINA RESULT: -7.125771812      5.585     12.401
REMARK  15 active torsions:
REMARK  status: ('A' for Active; 'I' for Inactive)
REMARK    1  A    between atoms: C2_2  and  C3_3 
REMARK    2  A    between atoms: C3_3  and  C5_5 
REMARK    3  A    between atoms: C12_15  and  C13_16 
REMARK    4  A    between atoms: C13_16  and  C14_17 
REMARK    5  A    between atoms: C14_17  and  C15_18 
REMARK    6  A    between atoms: C15_18  and  C16_19 
REMARK    7  A    between atoms: C16_19  and  N2_20 
REMARK    8  A    between atoms: C19_29  and  C20_30 
REMARK    9  A    between atoms: C21_33  and  C22_34 
REMARK   10  A    between atoms: C22_34  and  C23_35 
REMARK       I    between atoms: C23_35  and  N6_37 
REMARK   11  A    between atoms: N6_37  and  C24_39 
REMARK   12  A    between atoms: C24_39  and  C25_40 
REMARK   13  A    between atoms: C25_40  and  C26_41 
REMARK   14  A    between atoms: C26_41  and  C27_42 
REMARK   15  A    between atoms: C27_42  and  C28_43 
ROOT
HETATM    1  C5  UNL     1      15.763  20.596   7.530  1.00  0.00     0.089 C 
HETATM    2  C6  UNL     1      16.425  19.498   8.280  1.00  0.00     0.047 C 
HETATM    3  C7  UNL     1      17.921  19.520   8.318  1.00  0.00     0.154 A 
HETATM    4  C8  UNL     1      18.441  20.638   9.116  1.00  0.00     0.275 A 
HETATM    5  O1  UNL     1      18.194  20.859  10.355  1.00  0.00    -0.264 OA
HETATM    6  O2  UNL     1      19.223  21.364   8.273  1.00  0.00    -0.280 OA
HETATM    7  C9  UNL     1      19.258  20.777   7.016  1.00  0.00     0.090 A 
HETATM    8  C10 UNL     1      20.101  21.465   5.959  1.00  0.00     0.080 C 
HETATM    9  C11 UNL     1      18.531  19.687   6.955  1.00  0.00     0.128 A 
HETATM   10  N1  UNL     1      18.273  18.754   6.027  1.00  0.00    -0.405 NA
HETATM   11  C12 UNL     1      18.044  18.031   5.083  1.00  0.00     0.152 C 
HETATM   12  C18 UNL     1      17.961  18.499   3.665  1.00  0.00     0.282 C 
HETATM   13  O3  UNL     1      18.656  17.872   2.769  1.00  0.00    -0.265 OA
HETATM   14  N5  UNL     1      17.166  19.597   3.248  1.00  0.00    -0.318 N 
ATOM     15  H5  UNL     1      17.660  20.360   2.785  1.00  0.00     0.169 HD
HETATM   16  C19 UNL     1      15.734  19.765   3.402  1.00  0.00     0.103 C 
HETATM   17  C21 UNL     1      15.321  20.842   4.330  1.00  0.00     0.143 C 
HETATM   18  C31 UNL     1      14.376  20.523   5.392  1.00  0.00     0.228 C 
HETATM   19  O7  UNL     1      13.148  20.702   5.183  1.00  0.00    -0.273 OA
HETATM   20  N7  UNL     1      14.748  20.015   6.677  1.00  0.00    -0.355 N 
ATOM     21  H7  UNL     1      14.262  19.185   7.017  1.00  0.00     0.162 HD
ENDROOT
BRANCH  17  22
HETATM   22  C22 UNL     1      14.954  22.129   3.670  1.00  0.00     0.123 C 
BRANCH  22  23
HETATM   23  C23 UNL     1      14.561  23.243   4.522  1.00  0.00     0.218 C 
HETATM   24  O6  UNL     1      15.364  23.943   5.230  1.00  0.00    -0.274 OA
HETATM   25  N6  UNL     1      13.200  23.646   4.632  1.00  0.00    -0.361 N 
ATOM     26  H6  UNL     1      12.506  23.126   4.094  1.00  0.00     0.162 HD
BRANCH  25  27
HETATM   27  C24 UNL     1      12.738  24.721   5.441  1.00  0.00     0.122 C 
BRANCH  27  28
HETATM   28  C25 UNL     1      12.256  24.379   6.803  1.00  0.00     0.020 C 
BRANCH  28  29
HETATM   29  C26 UNL     1      12.172  25.549   7.749  1.00  0.00     0.002 C 
BRANCH  29  30
HETATM   30  C27 UNL     1      10.788  26.113   7.775  1.00  0.00     0.004 C 
BRANCH  30  31
HETATM   31  C28 UNL     1      10.218  26.145   9.186  1.00  0.00    -0.023 C 
HETATM   32  C29 UNL     1       8.917  25.380   9.149  1.00  0.00     0.009 C 
HETATM   33  C30 UNL     1       9.943  27.533   9.672  1.00  0.00     0.009 C 
ENDBRANCH  30  31
ENDBRANCH  29  30
ENDBRANCH  28  29
ENDBRANCH  27  28
ENDBRANCH  25  27
ENDBRANCH  22  23
ENDBRANCH  17  22
BRANCH  16  34
HETATM   34  C20 UNL     1      14.974  18.512   3.417  1.00  0.00     0.223 C 
HETATM   35  O4  UNL     1      14.487  18.153   2.282  1.00  0.00    -0.643 OA
HETATM   36  O5  UNL     1      14.703  17.667   4.443  1.00  0.00    -0.643 OA
ENDBRANCH  16  34
BRANCH   1  37
HETATM   37  C3  UNL     1      15.173  21.684   8.372  1.00  0.00     0.004 C 
HETATM   38  C4  UNL     1      15.240  21.407   9.856  1.00  0.00     0.012 C 
BRANCH  37  39
HETATM   39  C2  UNL     1      15.599  23.075   8.099  1.00  0.00     0.002 C 
HETATM   40  C1  UNL     1      16.743  23.611   8.880  1.00  0.00     0.005 C 
ENDBRANCH  37  39
ENDBRANCH   1  37
BRANCH  11  41
HETATM   41  C13 UNL     1      17.853  16.562   5.271  1.00  0.00     0.079 C 
BRANCH  41  42
HETATM   42  C14 UNL     1      19.056  15.882   5.906  1.00  0.00     0.009 C 
BRANCH  42  43
HETATM   43  C15 UNL     1      19.977  15.339   4.844  1.00  0.00     0.020 C 
BRANCH  43  44
HETATM   44  C16 UNL     1      19.924  13.841   4.820  1.00  0.00     0.122 C 
BRANCH  44  45
HETATM   45  N2  UNL     1      19.289  13.329   6.010  1.00  0.00    -0.367 N 
HETATM   46  C17 UNL     1      19.856  12.390   6.689  1.00  0.00     0.196 C 
HETATM   47  N3  UNL     1      21.106  11.828   6.303  1.00  0.00    -0.067 NA
HETATM   48  N4  UNL     1      19.258  11.858   7.875  1.00  0.00    -0.067 NA
ATOM     49  H2  UNL     1      18.393  13.709   6.315  1.00  0.00     0.161 HD
ENDBRANCH  44  45
ENDBRANCH  43  44
ENDBRANCH  42  43
ENDBRANCH  41  42
ENDBRANCH  11  41
TORSDOF 15
ENDMDL
