MODEL 1
REMARK VINA RESULT: -0.563752029      0.000      0.000
REMARK  7 active torsions:
REMARK  status: ('A' for Active; 'I' for Inactive)
REMARK    1  A    between atoms: C3_6  and  C4_7 
REMARK    2  A    between atoms: C5_8  and  C6_9 
REMARK    3  A    between atoms: C6_9  and  C7_10 
REMARK    4  A    between atoms: C7_10  and  O1_11 
REMARK    5  A    between atoms: O1_11  and  C8_12 
REMARK    6  A    between atoms: C9_19  and  C10_20 
REMARK    7  A    between atoms: C11_21  and  C12_22 
ROOT
HETATM    1  N1  UNL     1      27.643  37.322  17.829  1.00  0.00    -0.190 NA
HETATM    2  C1  UNL     1      26.896  36.644  17.283  1.00  0.00     0.120 C 
HETATM    3  C2  UNL     1      25.942  35.811  16.607  1.00  0.00     0.151 A 
HETATM    4  N2  UNL     1      24.625  36.040  16.607  1.00  0.00    -0.324 N 
ATOM      5  H2  UNL     1      24.157  36.815  17.076  1.00  0.00     0.169 HD
HETATM    6  C3  UNL     1      24.021  35.078  15.885  1.00  0.00     0.163 A 
HETATM    7  N5  UNL     1      24.982  34.245  15.434  1.00  0.00    -0.326 N 
ATOM      8  H5  UNL     1      24.815  33.420  14.857  1.00  0.00     0.169 HD
HETATM    9  C9  UNL     1      26.188  34.657  15.855  1.00  0.00     0.127 A 
ENDROOT
BRANCH   9  10
HETATM   10  C10 UNL     1      27.486  34.078  15.615  1.00  0.00    -0.043 C 
HETATM   11  C11 UNL     1      28.578  33.609  15.402  1.00  0.00    -0.068 C 
BRANCH  11  12
HETATM   12  C12 UNL     1      29.918  33.054  15.129  1.00  0.00     0.316 C 
HETATM   13  F1  UNL     1      29.880  31.681  15.138  1.00  0.00    -0.242 F 
ENDBRANCH  11  12
ENDBRANCH   9  10
BRANCH   6  14
HETATM   14  C4  UNL     1      22.605  34.934  15.622  1.00  0.00    -0.030 C 
HETATM   15  C5  UNL     1      21.418  34.834  15.402  1.00  0.00    -0.096 C 
BRANCH  15  16
HETATM   16  C6  UNL     1      19.972  34.738  15.128  1.00  0.00     0.121 C 
BRANCH  16  17
HETATM   17  C7  UNL     1      19.260  34.606  16.435  1.00  0.00     0.190 C 
BRANCH  17  18
HETATM   18  O1  UNL     1      19.555  33.366  17.067  1.00  0.00    -0.324 OA
BRANCH  18  19
HETATM   19  C8  UNL     1      19.325  32.183  16.386  1.00  0.00     0.225 C 
HETATM   20  N3  UNL     1      18.154  31.927  15.903  1.00  0.00    -0.368 N 
ATOM     21  H32 UNL     1      17.394  32.597  16.023  1.00  0.00     0.159 HD
ATOM     22  H31 UNL     1      17.984  31.055  15.402  1.00  0.00     0.159 HD
HETATM   23  N4  UNL     1      20.378  31.252  16.220  1.00  0.00    -0.057 NA
ENDBRANCH  18  19
ENDBRANCH  17  18
ENDBRANCH  16  17
ENDBRANCH  15  16
ENDBRANCH   6  14
TORSDOF 7
ENDMDL
MODEL 2
REMARK VINA RESULT: 0.515970154      6.428      7.569
REMARK  7 active torsions:
REMARK  status: ('A' for Active; 'I' for Inactive)
REMARK    1  A    between atoms: C3_6  and  C4_7 
REMARK    2  A    between atoms: C5_8  and  C6_9 
REMARK    3  A    between atoms: C6_9  and  C7_10 
REMARK    4  A    between atoms: C7_10  and  O1_11 
REMARK    5  A    between atoms: O1_11  and  C8_12 
REMARK    6  A    between atoms: C9_19  and  C10_20 
REMARK    7  A    between atoms: C11_21  and  C12_22 
ROOT
HETATM    1  N1  UNL     1      24.783  32.310  25.501  1.00  0.00    -0.190 NA
HETATM    2  C1  UNL     1      25.164  32.530  24.442  1.00  0.00     0.120 C 
HETATM    3  C2  UNL     1      25.620  32.819  23.111  1.00  0.00     0.151 A 
HETATM    4  N2  UNL     1      24.929  33.555  22.234  1.00  0.00    -0.324 N 
ATOM      5  H2  UNL     1      24.022  33.986  22.405  1.00  0.00     0.169 HD
HETATM    6  C3  UNL     1      25.633  33.632  21.089  1.00  0.00     0.163 A 
HETATM    7  N5  UNL     1      26.773  32.931  21.266  1.00  0.00    -0.326 N 
ATOM      8  H5  UNL     1      27.502  32.815  20.561  1.00  0.00     0.169 HD
HETATM    9  C9  UNL     1      26.811  32.409  22.502  1.00  0.00     0.127 A 
ENDROOT
BRANCH   9  10
HETATM   10  C10 UNL     1      27.828  31.598  23.120  1.00  0.00    -0.043 C 
HETATM   11  C11 UNL     1      28.667  30.914  23.654  1.00  0.00    -0.068 C 
BRANCH  11  12
HETATM   12  C12 UNL     1      29.679  30.072  24.324  1.00  0.00     0.316 C 
HETATM   13  F1  UNL     1      29.735  30.365  25.665  1.00  0.00    -0.242 F 
ENDBRANCH  11  12
ENDBRANCH   9  10
BRANCH   6  14
HETATM   14  C4  UNL     1      25.265  34.327  19.875  1.00  0.00    -0.030 C 
HETATM   15  C5  UNL     1      24.945  34.922  18.869  1.00  0.00    -0.096 C 
BRANCH  15  16
HETATM   16  C6  UNL     1      24.546  35.666  17.660  1.00  0.00     0.121 C 
BRANCH  16  17
HETATM   17  C7  UNL     1      25.781  36.231  17.036  1.00  0.00     0.190 C 
BRANCH  17  18
HETATM   18  O1  UNL     1      26.781  35.235  16.863  1.00  0.00    -0.324 OA
BRANCH  18  19
HETATM   19  C8  UNL     1      26.801  34.485  15.699  1.00  0.00     0.225 C 
HETATM   20  N3  UNL     1      25.695  34.138  15.128  1.00  0.00    -0.368 N 
ATOM     21  H32 UNL     1      24.801  34.417  15.534  1.00  0.00     0.159 HD
ATOM     22  H31 UNL     1      25.710  33.586  14.271  1.00  0.00     0.159 HD
HETATM   23  N4  UNL     1      28.041  34.098  15.135  1.00  0.00    -0.057 NA
ENDBRANCH  18  19
ENDBRANCH  17  18
ENDBRANCH  16  17
ENDBRANCH  15  16
ENDBRANCH   6  14
TORSDOF 7
ENDMDL
MODEL 3
REMARK VINA RESULT: 0.610573506      6.213      6.716
REMARK  7 active torsions:
REMARK  status: ('A' for Active; 'I' for Inactive)
REMARK    1  A    between atoms: C3_6  and  C4_7 
REMARK    2  A    between atoms: C5_8  and  C6_9 
REMARK    3  A    between atoms: C6_9  and  C7_10 
REMARK    4  A    between atoms: C7_10  and  O1_11 
REMARK    5  A    between atoms: O1_11  and  C8_12 
REMARK    6  A    between atoms: C9_19  and  C10_20 
REMARK    7  A    between atoms: C11_21  and  C12_22 
ROOT
HETATM    1  N1  UNL     1      24.461  32.448  25.163  1.00  0.00    -0.190 NA
HETATM    2  C1  UNL     1      24.945  32.640  24.141  1.00  0.00     0.120 C 
HETATM    3  C2  UNL     1      25.531  32.893  22.855  1.00  0.00     0.151 A 
HETATM    4  N2  UNL     1      24.946  33.630  21.906  1.00  0.00    -0.324 N 
ATOM      5  H2  UNL     1      24.038  34.088  21.983  1.00  0.00     0.169 HD
HETATM    6  C3  UNL     1      25.755  33.669  20.831  1.00  0.00     0.163 A 
HETATM    7  N5  UNL     1      26.855  32.944  21.125  1.00  0.00    -0.326 N 
ATOM      8  H5  UNL     1      27.643  32.797  20.494  1.00  0.00     0.169 HD
HETATM    9  C9  UNL     1      26.763  32.443  22.367  1.00  0.00     0.127 A 
ENDROOT
BRANCH   9  10
HETATM   10  C10 UNL     1      27.696  31.618  23.091  1.00  0.00    -0.043 C 
HETATM   11  C11 UNL     1      28.471  30.935  23.715  1.00  0.00    -0.068 C 
BRANCH  11  12
HETATM   12  C12 UNL     1      29.413  30.110  24.498  1.00  0.00     0.316 C 
HETATM   13  F1  UNL     1      29.578  30.635  25.758  1.00  0.00    -0.242 F 
ENDBRANCH  11  12
ENDBRANCH   9  10
BRANCH   6  14
HETATM   14  C4  UNL     1      25.521  34.351  19.577  1.00  0.00    -0.030 C 
HETATM   15  C5  UNL     1      25.341  34.935  18.531  1.00  0.00    -0.096 C 
BRANCH  15  16
HETATM   16  C6  UNL     1      25.146  35.657  17.259  1.00  0.00     0.121 C 
BRANCH  16  17
HETATM   17  C7  UNL     1      23.687  35.640  16.936  1.00  0.00     0.190 C 
BRANCH  17  18
HETATM   18  O1  UNL     1      23.404  34.772  15.844  1.00  0.00    -0.324 OA
BRANCH  18  19
HETATM   19  C8  UNL     1      22.161  34.171  15.757  1.00  0.00     0.225 C 
HETATM   20  N3  UNL     1      21.118  34.757  16.246  1.00  0.00    -0.368 N 
ATOM     21  H32 UNL     1      21.209  35.666  16.700  1.00  0.00     0.159 HD
ATOM     22  H31 UNL     1      20.202  34.314  16.182  1.00  0.00     0.159 HD
HETATM   23  N4  UNL     1      22.034  32.909  15.128  1.00  0.00    -0.057 NA
ENDBRANCH  18  19
ENDBRANCH  17  18
ENDBRANCH  16  17
ENDBRANCH  15  16
ENDBRANCH   6  14
TORSDOF 7
ENDMDL
MODEL 4
REMARK VINA RESULT: 0.849166832      6.732      8.116
REMARK  7 active torsions:
REMARK  status: ('A' for Active; 'I' for Inactive)
REMARK    1  A    between atoms: C3_6  and  C4_7 
REMARK    2  A    between atoms: C5_8  and  C6_9 
REMARK    3  A    between atoms: C6_9  and  C7_10 
REMARK    4  A    between atoms: C7_10  and  O1_11 
REMARK    5  A    between atoms: O1_11  and  C8_12 
REMARK    6  A    between atoms: C9_19  and  C10_20 
REMARK    7  A    between atoms: C11_21  and  C12_22 
ROOT
HETATM    1  N1  UNL     1      25.830  30.119  24.635  1.00  0.00    -0.190 NA
HETATM    2  C1  UNL     1      26.057  31.018  23.960  1.00  0.00     0.120 C 
HETATM    3  C2  UNL     1      26.324  32.136  23.099  1.00  0.00     0.151 A 
HETATM    4  N2  UNL     1      25.651  32.379  21.970  1.00  0.00    -0.324 N 
ATOM      5  H2  UNL     1      24.888  31.813  21.599  1.00  0.00     0.169 HD
HETATM    6  C3  UNL     1      26.146  33.496  21.406  1.00  0.00     0.163 A 
HETATM    7  N5  UNL     1      27.140  33.946  22.201  1.00  0.00    -0.326 N 
ATOM      8  H5  UNL     1      27.699  34.780  22.021  1.00  0.00     0.169 HD
HETATM    9  C9  UNL     1      27.288  33.137  23.262  1.00  0.00     0.127 A 
ENDROOT
BRANCH   9  10
HETATM   10  C10 UNL     1      28.217  33.230  24.359  1.00  0.00    -0.043 C 
HETATM   11  C11 UNL     1      28.997  33.329  25.276  1.00  0.00    -0.068 C 
BRANCH  11  12
HETATM   12  C12 UNL     1      29.952  33.472  26.392  1.00  0.00     0.316 C 
HETATM   13  F1  UNL     1      29.990  32.320  27.141  1.00  0.00    -0.242 F 
ENDBRANCH  11  12
ENDBRANCH   9  10
BRANCH   6  14
HETATM   14  C4  UNL     1      25.718  34.126  20.176  1.00  0.00    -0.030 C 
HETATM   15  C5  UNL     1      25.360  34.671  19.155  1.00  0.00    -0.096 C 
BRANCH  15  16
HETATM   16  C6  UNL     1      24.931  35.359  17.922  1.00  0.00     0.121 C 
BRANCH  16  17
HETATM   17  C7  UNL     1      26.099  36.120  17.385  1.00  0.00     0.190 C 
BRANCH  17  18
HETATM   18  O1  UNL     1      26.250  35.924  15.985  1.00  0.00    -0.324 OA
BRANCH  18  19
HETATM   19  C8  UNL     1      26.542  34.660  15.501  1.00  0.00     0.225 C 
HETATM   20  N3  UNL     1      25.590  33.869  15.130  1.00  0.00    -0.368 N 
ATOM     21  H32 UNL     1      24.618  34.174  15.194  1.00  0.00     0.159 HD
ATOM     22  H31 UNL     1      25.805  32.938  14.774  1.00  0.00     0.159 HD
HETATM   23  N4  UNL     1      27.890  34.236  15.413  1.00  0.00    -0.057 NA
ENDBRANCH  18  19
ENDBRANCH  17  18
ENDBRANCH  16  17
ENDBRANCH  15  16
ENDBRANCH   6  14
TORSDOF 7
ENDMDL
MODEL 5
REMARK VINA RESULT: 1.170046690     10.904     13.092
REMARK  7 active torsions:
REMARK  status: ('A' for Active; 'I' for Inactive)
REMARK    1  A    between atoms: C3_6  and  C4_7 
REMARK    2  A    between atoms: C5_8  and  C6_9 
REMARK    3  A    between atoms: C6_9  and  C7_10 
REMARK    4  A    between atoms: C7_10  and  O1_11 
REMARK    5  A    between atoms: O1_11  and  C8_12 
REMARK    6  A    between atoms: C9_19  and  C10_20 
REMARK    7  A    between atoms: C11_21  and  C12_22 
ROOT
HETATM    1  N1  UNL     1      28.673  34.227  20.959  1.00  0.00    -0.190 NA
HETATM    2  C1  UNL     1      28.537  33.944  22.062  1.00  0.00     0.120 C 
HETATM    3  C2  UNL     1      28.390  33.595  23.447  1.00  0.00     0.151 A 
HETATM    4  N2  UNL     1      29.396  33.618  24.327  1.00  0.00    -0.324 N 
ATOM      5  H2  UNL     1      30.360  33.880  24.123  1.00  0.00     0.169 HD
HETATM    6  C3  UNL     1      28.924  33.238  25.530  1.00  0.00     0.163 A 
HETATM    7  N5  UNL     1      27.607  32.977  25.385  1.00  0.00    -0.326 N 
ATOM      8  H5  UNL     1      26.988  32.668  26.134  1.00  0.00     0.169 HD
HETATM    9  C9  UNL     1      27.230  33.184  24.113  1.00  0.00     0.127 A 
ENDROOT
BRANCH   9  10
HETATM   10  C10 UNL     1      25.931  33.033  23.509  1.00  0.00    -0.043 C 
HETATM   11  C11 UNL     1      24.834  32.915  23.020  1.00  0.00    -0.068 C 
BRANCH  11  12
HETATM   12  C12 UNL     1      23.483  32.782  22.440  1.00  0.00     0.316 C 
HETATM   13  F1  UNL     1      22.565  33.468  23.199  1.00  0.00    -0.242 F 
ENDBRANCH  11  12
ENDBRANCH   9  10
BRANCH   6  14
HETATM   14  C4  UNL     1      29.663  33.119  26.768  1.00  0.00    -0.030 C 
HETATM   15  C5  UNL     1      30.270  33.035  27.813  1.00  0.00    -0.096 C 
BRANCH  15  16
HETATM   16  C6  UNL     1      30.990  32.946  29.097  1.00  0.00     0.121 C 
BRANCH  16  17
HETATM   17  C7  UNL     1      30.175  33.648  30.135  1.00  0.00     0.190 C 
BRANCH  17  18
HETATM   18  O1  UNL     1      29.274  32.757  30.781  1.00  0.00    -0.324 OA
BRANCH  18  19
HETATM   19  C8  UNL     1      28.884  33.010  32.085  1.00  0.00     0.225 C 
HETATM   20  N3  UNL     1      28.198  34.068  32.367  1.00  0.00    -0.368 N 
ATOM     21  H32 UNL     1      27.941  34.722  31.626  1.00  0.00     0.159 HD
ATOM     22  H31 UNL     1      27.910  34.254  33.327  1.00  0.00     0.159 HD
HETATM   23  N4  UNL     1      29.240  32.103  33.112  1.00  0.00    -0.057 NA
ENDBRANCH  18  19
ENDBRANCH  17  18
ENDBRANCH  16  17
ENDBRANCH  15  16
ENDBRANCH   6  14
TORSDOF 7
ENDMDL
