MODEL 1
REMARK VINA RESULT: -6.806274611      0.000      0.000
REMARK  2 active torsions:
REMARK  status: ('A' for Active; 'I' for Inactive)
REMARK    1  A    between atoms: N1_7  and  C6_8 
REMARK    2  A    between atoms: C6_8  and  C7_9 
ROOT
HETATM    1  C7  UNL     1      11.580  44.661  18.264  1.00  0.00     0.021 A 
HETATM    2  C8  UNL     1      12.856  45.041  18.718  1.00  0.00     0.019 A 
HETATM    3  C9  UNL     1      14.119  44.538  18.089  1.00  0.00     0.069 C 
HETATM    4  N2  UNL     1      12.787  45.845  19.769  1.00  0.00    -0.344 N 
ATOM      5  H2  UNL     1      13.580  46.245  20.269  1.00  0.00     0.167 HD
HETATM    6  C10 UNL     1      11.503  46.039  20.061  1.00  0.00     0.126 A 
HETATM    7  N3  UNL     1      10.928  46.828  20.982  1.00  0.00    -0.293 N 
ATOM      8  H3  UNL     1      11.521  47.339  21.635  1.00  0.00     0.172 HD
HETATM    9  C11 UNL     1       9.604  46.964  21.066  1.00  0.00     0.328 A 
HETATM   10  O1  UNL     1       9.061  47.703  21.920  1.00  0.00    -0.247 OA
HETATM   11  N4  UNL     1       8.833  46.269  20.178  1.00  0.00    -0.275 N 
ATOM     12  H4  UNL     1       7.818  46.366  20.229  1.00  0.00     0.173 HD
HETATM   13  C12 UNL     1       9.359  45.465  19.241  1.00  0.00     0.264 A 
HETATM   14  O2  UNL     1       8.559  44.842  18.453  1.00  0.00    -0.267 OA
HETATM   15  C13 UNL     1      10.713  45.322  19.153  1.00  0.00     0.090 A 
ENDROOT
BRANCH   1  16
HETATM   16  C6  UNL     1      11.326  44.052  16.992  1.00  0.00     0.105 C 
BRANCH  16  17
HETATM   17  N1  UNL     1      11.239  44.830  15.802  1.00  0.00    -0.359 N 
HETATM   18  C2  UNL     1      10.301  45.491  15.090  1.00  0.00     0.003 C 
HETATM   19  C1  UNL     1       9.013  45.245  15.028  1.00  0.00     0.038 C 
HETATM   20  C3  UNL     1      10.964  46.596  14.229  1.00  0.00     0.073 C 
HETATM   21  C4  UNL     1      12.278  45.935  13.929  1.00  0.00     0.081 C 
HETATM   22 BR1  UNL     1      12.126  44.990  12.237  1.00  0.00    -0.089 Br
HETATM   23  C5  UNL     1      12.549  44.987  15.043  1.00  0.00     0.144 C 
ENDBRANCH  16  17
ENDBRANCH   1  16
TORSDOF 2
ENDMDL
MODEL 2
REMARK VINA RESULT: -6.670570833      1.205      1.684
REMARK  2 active torsions:
REMARK  status: ('A' for Active; 'I' for Inactive)
REMARK    1  A    between atoms: N1_7  and  C6_8 
REMARK    2  A    between atoms: C6_8  and  C7_9 
ROOT
HETATM    1  C7  UNL     1      11.413  44.626  18.163  1.00  0.00     0.021 A 
HETATM    2  C8  UNL     1      12.733  44.954  18.521  1.00  0.00     0.019 A 
HETATM    3  C9  UNL     1      13.925  44.397  17.807  1.00  0.00     0.069 C 
HETATM    4  N2  UNL     1      12.772  45.763  19.571  1.00  0.00    -0.344 N 
ATOM      5  H2  UNL     1      13.615  46.131  20.010  1.00  0.00     0.167 HD
HETATM    6  C10 UNL     1      11.522  46.011  19.953  1.00  0.00     0.126 A 
HETATM    7  N3  UNL     1      11.048  46.826  20.908  1.00  0.00    -0.293 N 
ATOM      8  H3  UNL     1      11.707  47.313  21.514  1.00  0.00     0.172 HD
HETATM    9  C11 UNL     1       9.740  47.017  21.086  1.00  0.00     0.328 A 
HETATM   10  O1  UNL     1       9.291  47.780  21.973  1.00  0.00    -0.247 OA
HETATM   11  N4  UNL     1       8.879  46.353  20.260  1.00  0.00    -0.275 N 
ATOM     12  H4  UNL     1       7.876  46.491  20.383  1.00  0.00     0.173 HD
HETATM   13  C12 UNL     1       9.303  45.524  19.292  1.00  0.00     0.264 A 
HETATM   14  O2  UNL     1       8.423  44.933  18.567  1.00  0.00    -0.267 OA
HETATM   15  C13 UNL     1      10.640  45.325  19.108  1.00  0.00     0.090 A 
ENDROOT
BRANCH   1  16
HETATM   16  C6  UNL     1      11.042  44.024  16.915  1.00  0.00     0.105 C 
BRANCH  16  17
HETATM   17  N1  UNL     1      10.812  44.814  15.752  1.00  0.00    -0.359 N 
HETATM   18  C2  UNL     1      11.479  45.695  14.978  1.00  0.00     0.003 C 
HETATM   19  C1  UNL     1      12.468  46.486  15.324  1.00  0.00     0.038 C 
HETATM   20  C3  UNL     1      10.857  45.737  13.559  1.00  0.00     0.073 C 
HETATM   21  C4  UNL     1       9.419  45.476  13.900  1.00  0.00     0.081 C 
HETATM   22 BR1  UNL     1       8.514  47.181  14.128  1.00  0.00    -0.089 Br
HETATM   23  C5  UNL     1       9.410  44.698  15.168  1.00  0.00     0.144 C 
ENDBRANCH  16  17
ENDBRANCH   1  16
TORSDOF 2
ENDMDL
MODEL 3
REMARK VINA RESULT: -6.274238435      0.894      1.280
REMARK  2 active torsions:
REMARK  status: ('A' for Active; 'I' for Inactive)
REMARK    1  A    between atoms: N1_7  and  C6_8 
REMARK    2  A    between atoms: C6_8  and  C7_9 
ROOT
HETATM    1  C7  UNL     1      11.359  44.755  18.305  1.00  0.00     0.021 A 
HETATM    2  C8  UNL     1      12.666  45.105  18.691  1.00  0.00     0.019 A 
HETATM    3  C9  UNL     1      13.881  44.598  17.975  1.00  0.00     0.069 C 
HETATM    4  N2  UNL     1      12.672  45.883  19.763  1.00  0.00    -0.344 N 
ATOM      5  H2  UNL     1      13.500  46.259  20.224  1.00  0.00     0.167 HD
HETATM    6  C10 UNL     1      11.412  46.089  20.136  1.00  0.00     0.126 A 
HETATM    7  N3  UNL     1      10.905  46.864  21.108  1.00  0.00    -0.293 N 
ATOM      8  H3  UNL     1      11.544  47.350  21.737  1.00  0.00     0.172 HD
HETATM    9  C11 UNL     1       9.591  47.018  21.274  1.00  0.00     0.328 A 
HETATM   10  O1  UNL     1       9.112  47.743  22.177  1.00  0.00    -0.247 OA
HETATM   11  N4  UNL     1       8.757  46.357  20.418  1.00  0.00    -0.275 N 
ATOM     12  H4  UNL     1       7.749  46.467  20.532  1.00  0.00     0.173 HD
HETATM   13  C12 UNL     1       9.213  45.568  19.433  1.00  0.00     0.264 A 
HETATM   14  O2  UNL     1       8.357  44.976  18.679  1.00  0.00    -0.267 OA
HETATM   15  C13 UNL     1      10.557  45.407  19.260  1.00  0.00     0.090 A 
ENDROOT
BRANCH   1  16
HETATM   16  C6  UNL     1      11.019  44.181  17.036  1.00  0.00     0.105 C 
BRANCH  16  17
HETATM   17  N1  UNL     1      11.815  44.419  15.879  1.00  0.00    -0.359 N 
HETATM   18  C2  UNL     1      12.050  45.414  14.998  1.00  0.00     0.003 C 
HETATM   19  C1  UNL     1      11.243  46.388  14.648  1.00  0.00     0.038 C 
HETATM   20  C3  UNL     1      13.438  45.224  14.336  1.00  0.00     0.073 C 
HETATM   21  C4  UNL     1      13.510  43.726  14.312  1.00  0.00     0.081 C 
HETATM   22 BR1  UNL     1      12.832  43.097  12.602  1.00  0.00    -0.089 Br
HETATM   23  C5  UNL     1      12.661  43.235  15.431  1.00  0.00     0.144 C 
ENDBRANCH  16  17
ENDBRANCH   1  16
TORSDOF 2
ENDMDL
MODEL 4
REMARK VINA RESULT: -6.271279254      1.163      1.622
REMARK  2 active torsions:
REMARK  status: ('A' for Active; 'I' for Inactive)
REMARK    1  A    between atoms: N1_7  and  C6_8 
REMARK    2  A    between atoms: C6_8  and  C7_9 
ROOT
HETATM    1  C7  UNL     1      11.329  44.736  18.414  1.00  0.00     0.021 A 
HETATM    2  C8  UNL     1      12.637  45.095  18.784  1.00  0.00     0.019 A 
HETATM    3  C9  UNL     1      13.849  44.557  18.088  1.00  0.00     0.069 C 
HETATM    4  N2  UNL     1      12.648  45.914  19.827  1.00  0.00    -0.344 N 
ATOM      5  H2  UNL     1      13.478  46.304  20.272  1.00  0.00     0.167 HD
HETATM    6  C10 UNL     1      11.389  46.138  20.192  1.00  0.00     0.126 A 
HETATM    7  N3  UNL     1      10.887  46.952  21.135  1.00  0.00    -0.293 N 
ATOM      8  H3  UNL     1      11.528  47.459  21.744  1.00  0.00     0.172 HD
HETATM    9  C11 UNL     1       9.573  47.117  21.297  1.00  0.00     0.328 A 
HETATM   10  O1  UNL     1       9.098  47.878  22.172  1.00  0.00    -0.247 OA
HETATM   11  N4  UNL     1       8.735  46.427  20.468  1.00  0.00    -0.275 N 
ATOM     12  H4  UNL     1       7.728  46.545  20.578  1.00  0.00     0.173 HD
HETATM   13  C12 UNL     1       9.187  45.599  19.512  1.00  0.00     0.264 A 
HETATM   14  O2  UNL     1       8.328  44.982  18.783  1.00  0.00    -0.267 OA
HETATM   15  C13 UNL     1      10.531  45.427  19.344  1.00  0.00     0.090 A 
ENDROOT
BRANCH   1  16
HETATM   16  C6  UNL     1      10.985  44.115  17.169  1.00  0.00     0.105 C 
BRANCH  16  17
HETATM   17  N1  UNL     1      11.690  44.421  15.969  1.00  0.00    -0.359 N 
HETATM   18  C2  UNL     1      12.426  43.782  15.035  1.00  0.00     0.003 C 
HETATM   19  C1  UNL     1      13.137  42.687  15.179  1.00  0.00     0.038 C 
HETATM   20  C3  UNL     1      12.410  44.578  13.706  1.00  0.00     0.073 C 
HETATM   21  C4  UNL     1      12.331  45.977  14.244  1.00  0.00     0.081 C 
HETATM   22 BR1  UNL     1      14.135  46.682  14.409  1.00  0.00    -0.089 Br
HETATM   23  C5  UNL     1      11.672  45.892  15.575  1.00  0.00     0.144 C 
ENDBRANCH  16  17
ENDBRANCH   1  16
TORSDOF 2
ENDMDL
MODEL 5
REMARK VINA RESULT: -6.075263855      2.477      3.139
REMARK  2 active torsions:
REMARK  status: ('A' for Active; 'I' for Inactive)
REMARK    1  A    between atoms: N1_7  and  C6_8 
REMARK    2  A    between atoms: C6_8  and  C7_9 
ROOT
HETATM    1  C7  UNL     1      11.367  44.259  16.398  1.00  0.00     0.021 A 
HETATM    2  C8  UNL     1      12.454  44.081  17.273  1.00  0.00     0.019 A 
HETATM    3  C9  UNL     1      13.812  43.664  16.798  1.00  0.00     0.069 C 
HETATM    4  N2  UNL     1      12.109  44.286  18.536  1.00  0.00    -0.344 N 
ATOM      5  H2  UNL     1      12.727  44.212  19.344  1.00  0.00     0.167 HD
HETATM    6  C10 UNL     1      10.817  44.602  18.569  1.00  0.00     0.126 A 
HETATM    7  N3  UNL     1      10.036  44.971  19.597  1.00  0.00    -0.293 N 
ATOM      8  H3  UNL     1      10.423  44.964  20.540  1.00  0.00     0.172 HD
HETATM    9  C11 UNL     1       8.768  45.345  19.420  1.00  0.00     0.328 A 
HETATM   10  O1  UNL     1       8.034  45.694  20.374  1.00  0.00    -0.247 OA
HETATM   11  N4  UNL     1       8.274  45.345  18.146  1.00  0.00    -0.275 N 
ATOM     12  H4  UNL     1       7.306  45.632  17.995  1.00  0.00     0.173 HD
HETATM   13  C12 UNL     1       9.013  44.983  17.086  1.00  0.00     0.264 A 
HETATM   14  O2  UNL     1       8.465  45.004  15.924  1.00  0.00    -0.267 OA
HETATM   15  C13 UNL     1      10.310  44.598  17.263  1.00  0.00     0.090 A 
ENDROOT
BRANCH   1  16
HETATM   16  C6  UNL     1      11.490  44.397  14.977  1.00  0.00     0.105 C 
BRANCH  16  17
HETATM   17  N1  UNL     1      11.331  43.279  14.108  1.00  0.00    -0.359 N 
HETATM   18  C2  UNL     1      12.079  42.279  13.597  1.00  0.00     0.003 C 
HETATM   19  C1  UNL     1      13.373  42.272  13.376  1.00  0.00     0.038 C 
HETATM   20  C3  UNL     1      11.174  41.088  13.193  1.00  0.00     0.073 C 
HETATM   21  C4  UNL     1       9.940  41.832  12.775  1.00  0.00     0.081 C 
HETATM   22 BR1  UNL     1      10.027  42.154  10.859  1.00  0.00    -0.089 Br
HETATM   23  C5  UNL     1       9.933  43.115  13.527  1.00  0.00     0.144 C 
ENDBRANCH  16  17
ENDBRANCH   1  16
TORSDOF 2
ENDMDL
