MODEL 1
REMARK VINA RESULT: -7.669209617      0.000      0.000
REMARK  3 active torsions:
REMARK  status: ('A' for Active; 'I' for Inactive)
REMARK       I    between atoms: C1_2  and  N1_3 
REMARK       I    between atoms: C1_2  and  N2_12 
REMARK    1  A    between atoms: N1_3  and  C2_5 
REMARK    2  A    between atoms: C2_5  and  C3_6 
REMARK    3  A    between atoms: N2_12  and  C8_14 
ROOT
HETATM    1  O1  UNL     1      40.375  24.667  19.921  1.00  0.00    -0.247 OA
HETATM    2  C1  UNL     1      41.353  23.969  19.538  1.00  0.00     0.316 C 
HETATM    3  N1  UNL     1      41.758  23.837  18.206  1.00  0.00    -0.343 N 
ATOM      4  H1  UNL     1      42.570  23.246  18.029  1.00  0.00     0.164 HD
HETATM    5  N2  UNL     1      42.055  23.291  20.576  1.00  0.00    -0.332 N 
ATOM      6  H2  UNL     1      42.856  22.710  20.329  1.00  0.00     0.165 HD
ENDROOT
BRANCH   3   7
HETATM    7  C2  UNL     1      41.146  24.448  17.069  1.00  0.00     0.129 C 
BRANCH   7   8
HETATM    8  C3  UNL     1      40.991  23.403  15.964  1.00  0.00     0.005 C 
HETATM    9  C4  UNL     1      41.507  23.899  14.671  1.00  0.00     0.016 C 
HETATM   10  C5  UNL     1      40.376  24.111  13.691  1.00  0.00     0.074 C 
HETATM   11  S1  UNL     1      39.145  25.145  14.537  1.00  0.00    -0.169 SA
HETATM   12  C6  UNL     1      38.561  24.101  15.931  1.00  0.00     0.074 C 
HETATM   13  C7  UNL     1      39.558  22.966  16.001  1.00  0.00     0.016 C 
ENDBRANCH   7   8
ENDBRANCH   3   7
BRANCH   5  14
HETATM   14  C8  UNL     1      41.668  23.399  21.986  1.00  0.00     0.155 C 
HETATM   15  C9  UNL     1      40.541  22.496  22.300  1.00  0.00     0.033 C 
HETATM   16  C10 UNL     1      40.616  21.727  23.564  1.00  0.00     0.003 C 
HETATM   17  C11 UNL     1      41.954  21.414  24.092  1.00  0.00     0.007 C 
HETATM   18  C12 UNL     1      43.092  21.698  23.148  1.00  0.00     0.080 C 
HETATM   19  C13 UNL     1      42.905  23.144  22.765  1.00  0.00     0.149 C 
HETATM   20  O2  UNL     1      43.704  23.999  23.073  1.00  0.00    -0.296 OA
ENDBRANCH   5  14
TORSDOF 3
ENDMDL
MODEL 2
REMARK VINA RESULT: -6.874384949      3.357      4.261
REMARK  3 active torsions:
REMARK  status: ('A' for Active; 'I' for Inactive)
REMARK       I    between atoms: C1_2  and  N1_3 
REMARK       I    between atoms: C1_2  and  N2_12 
REMARK    1  A    between atoms: N1_3  and  C2_5 
REMARK    2  A    between atoms: C2_5  and  C3_6 
REMARK    3  A    between atoms: N2_12  and  C8_14 
ROOT
HETATM    1  O1  UNL     1      39.751  23.484  19.618  1.00  0.00    -0.247 OA
HETATM    2  C1  UNL     1      40.070  24.463  20.345  1.00  0.00     0.316 C 
HETATM    3  N1  UNL     1      39.641  25.779  20.136  1.00  0.00    -0.343 N 
ATOM      4  H1  UNL     1      39.967  26.480  20.801  1.00  0.00     0.164 HD
HETATM    5  N2  UNL     1      40.927  24.150  21.439  1.00  0.00    -0.332 N 
ATOM      6  H2  UNL     1      41.221  24.900  22.064  1.00  0.00     0.165 HD
ENDROOT
BRANCH   3   7
HETATM    7  C2  UNL     1      38.794  26.236  19.081  1.00  0.00     0.129 C 
BRANCH   7   8
HETATM    8  C3  UNL     1      37.815  27.268  19.640  1.00  0.00     0.005 C 
HETATM    9  C4  UNL     1      36.526  27.244  18.916  1.00  0.00     0.016 C 
HETATM   10  C5  UNL     1      36.342  28.509  18.112  1.00  0.00     0.074 C 
HETATM   11  S1  UNL     1      37.845  28.710  17.111  1.00  0.00    -0.169 SA
HETATM   12  C6  UNL     1      39.180  28.959  18.348  1.00  0.00     0.074 C 
HETATM   13  C7  UNL     1      38.553  28.572  19.669  1.00  0.00     0.016 C 
ENDBRANCH   7   8
ENDBRANCH   3   7
BRANCH   5  14
HETATM   14  C8  UNL     1      41.401  22.787  21.699  1.00  0.00     0.155 C 
HETATM   15  C9  UNL     1      42.803  22.791  22.166  1.00  0.00     0.033 C 
HETATM   16  C10 UNL     1      43.146  21.900  23.300  1.00  0.00     0.003 C 
HETATM   17  C11 UNL     1      42.074  21.567  24.252  1.00  0.00     0.007 C 
HETATM   18  C12 UNL     1      40.813  22.377  24.099  1.00  0.00     0.080 C 
HETATM   19  C13 UNL     1      40.430  22.197  22.652  1.00  0.00     0.149 C 
HETATM   20  O2  UNL     1      39.416  21.622  22.323  1.00  0.00    -0.296 OA
ENDBRANCH   5  14
TORSDOF 3
ENDMDL
MODEL 3
REMARK VINA RESULT: -6.849140022      5.446      8.698
REMARK  3 active torsions:
REMARK  status: ('A' for Active; 'I' for Inactive)
REMARK       I    between atoms: C1_2  and  N1_3 
REMARK       I    between atoms: C1_2  and  N2_12 
REMARK    1  A    between atoms: N1_3  and  C2_5 
REMARK    2  A    between atoms: C2_5  and  C3_6 
REMARK    3  A    between atoms: N2_12  and  C8_14 
ROOT
HETATM    1  O1  UNL     1      37.831  25.657  18.233  1.00  0.00    -0.247 OA
HETATM    2  C1  UNL     1      36.705  25.534  17.680  1.00  0.00     0.316 C 
HETATM    3  N1  UNL     1      35.914  24.382  17.741  1.00  0.00    -0.343 N 
ATOM      4  H1  UNL     1      35.018  24.413  17.254  1.00  0.00     0.164 HD
HETATM    5  N2  UNL     1      36.259  26.678  16.956  1.00  0.00    -0.332 N 
ATOM      6  H2  UNL     1      35.355  26.639  16.485  1.00  0.00     0.165 HD
ENDROOT
BRANCH   3   7
HETATM    7  C2  UNL     1      36.237  23.167  18.418  1.00  0.00     0.129 C 
BRANCH   7   8
HETATM    8  C3  UNL     1      36.143  23.396  19.926  1.00  0.00     0.005 C 
HETATM    9  C4  UNL     1      37.248  22.730  20.648  1.00  0.00     0.016 C 
HETATM   10  C5  UNL     1      36.727  21.580  21.478  1.00  0.00     0.074 C 
HETATM   11  S1  UNL     1      35.730  20.548  20.363  1.00  0.00    -0.169 SA
HETATM   12  C6  UNL     1      34.332  21.633  19.874  1.00  0.00     0.074 C 
HETATM   13  C7  UNL     1      34.749  23.017  20.321  1.00  0.00     0.016 C 
ENDBRANCH   7   8
ENDBRANCH   3   7
BRANCH   5  14
HETATM   14  C8  UNL     1      37.052  27.907  16.864  1.00  0.00     0.155 C 
HETATM   15  C9  UNL     1      37.858  27.929  15.626  1.00  0.00     0.033 C 
HETATM   16  C10 UNL     1      37.906  29.200  14.866  1.00  0.00     0.003 C 
HETATM   17  C11 UNL     1      36.755  30.110  14.988  1.00  0.00     0.007 C 
HETATM   18  C12 UNL     1      35.551  29.522  15.676  1.00  0.00     0.080 C 
HETATM   19  C13 UNL     1      36.083  29.023  16.995  1.00  0.00     0.149 C 
HETATM   20  O2  UNL     1      35.737  29.503  18.051  1.00  0.00    -0.296 OA
ENDBRANCH   5  14
TORSDOF 3
ENDMDL
MODEL 4
REMARK VINA RESULT: -6.840489404      4.571      5.774
REMARK  3 active torsions:
REMARK  status: ('A' for Active; 'I' for Inactive)
REMARK       I    between atoms: C1_2  and  N1_3 
REMARK       I    between atoms: C1_2  and  N2_12 
REMARK    1  A    between atoms: N1_3  and  C2_5 
REMARK    2  A    between atoms: C2_5  and  C3_6 
REMARK    3  A    between atoms: N2_12  and  C8_14 
ROOT
HETATM    1  O1  UNL     1      37.041  28.013  18.472  1.00  0.00    -0.247 OA
HETATM    2  C1  UNL     1      36.967  27.167  17.540  1.00  0.00     0.316 C 
HETATM    3  N1  UNL     1      36.958  27.488  16.177  1.00  0.00    -0.343 N 
ATOM      4  H1  UNL     1      36.900  26.708  15.522  1.00  0.00     0.164 HD
HETATM    5  N2  UNL     1      36.889  25.808  17.961  1.00  0.00    -0.332 N 
ATOM      6  H2  UNL     1      36.826  25.077  17.253  1.00  0.00     0.165 HD
ENDROOT
BRANCH   3   7
HETATM    7  C2  UNL     1      37.021  28.799  15.615  1.00  0.00     0.129 C 
BRANCH   7   8
HETATM    8  C3  UNL     1      38.055  28.809  14.490  1.00  0.00     0.005 C 
HETATM    9  C4  UNL     1      38.910  27.604  14.526  1.00  0.00     0.016 C 
HETATM   10  C5  UNL     1      40.326  27.965  14.909  1.00  0.00     0.074 C 
HETATM   11  S1  UNL     1      40.215  28.942  16.438  1.00  0.00    -0.169 SA
HETATM   12  C6  UNL     1      39.309  30.459  15.938  1.00  0.00     0.074 C 
HETATM   13  C7  UNL     1      38.747  30.136  14.572  1.00  0.00     0.016 C 
ENDBRANCH   7   8
ENDBRANCH   3   7
BRANCH   5  14
HETATM   14  C8  UNL     1      36.896  25.424  19.376  1.00  0.00     0.155 C 
HETATM   15  C9  UNL     1      35.904  24.362  19.644  1.00  0.00     0.033 C 
HETATM   16  C10 UNL     1      36.325  23.242  20.519  1.00  0.00     0.003 C 
HETATM   17  C11 UNL     1      37.758  22.910  20.558  1.00  0.00     0.007 C 
HETATM   18  C12 UNL     1      38.597  23.590  19.508  1.00  0.00     0.080 C 
HETATM   19  C13 UNL     1      38.299  25.057  19.687  1.00  0.00     0.149 C 
HETATM   20  O2  UNL     1      39.144  25.844  20.051  1.00  0.00    -0.296 OA
ENDBRANCH   5  14
TORSDOF 3
ENDMDL
MODEL 5
REMARK VINA RESULT: -6.775243618      5.614      7.603
REMARK  3 active torsions:
REMARK  status: ('A' for Active; 'I' for Inactive)
REMARK       I    between atoms: C1_2  and  N1_3 
REMARK       I    between atoms: C1_2  and  N2_12 
REMARK    1  A    between atoms: N1_3  and  C2_5 
REMARK    2  A    between atoms: C2_5  and  C3_6 
REMARK    3  A    between atoms: N2_12  and  C8_14 
ROOT
HETATM    1  O1  UNL     1      35.982  26.996  19.011  1.00  0.00    -0.247 OA
HETATM    2  C1  UNL     1      36.996  26.295  18.748  1.00  0.00     0.316 C 
HETATM    3  N1  UNL     1      37.001  24.896  18.697  1.00  0.00    -0.343 N 
ATOM      4  H1  UNL     1      37.888  24.448  18.467  1.00  0.00     0.164 HD
HETATM    5  N2  UNL     1      38.190  27.029  18.495  1.00  0.00    -0.332 N 
ATOM      6  H2  UNL     1      39.046  26.517  18.277  1.00  0.00     0.165 HD
ENDROOT
BRANCH   3   7
HETATM    7  C2  UNL     1      35.886  24.036  18.936  1.00  0.00     0.129 C 
BRANCH   7   8
HETATM    8  C3  UNL     1      35.965  23.505  20.367  1.00  0.00     0.005 C 
HETATM    9  C4  UNL     1      37.262  22.848  20.634  1.00  0.00     0.016 C 
HETATM   10  C5  UNL     1      37.078  21.359  20.816  1.00  0.00     0.074 C 
HETATM   11  S1  UNL     1      36.139  20.773  19.375  1.00  0.00    -0.169 SA
HETATM   12  C6  UNL     1      34.513  21.614  19.525  1.00  0.00     0.074 C 
HETATM   13  C7  UNL     1      34.731  22.681  20.575  1.00  0.00     0.016 C 
ENDBRANCH   7   8
ENDBRANCH   3   7
BRANCH   5  14
HETATM   14  C8  UNL     1      38.234  28.494  18.536  1.00  0.00     0.155 C 
HETATM   15  C9  UNL     1      39.144  28.970  19.598  1.00  0.00     0.033 C 
HETATM   16  C10 UNL     1      40.053  30.092  19.265  1.00  0.00     0.003 C 
HETATM   17  C11 UNL     1      40.449  30.253  17.857  1.00  0.00     0.007 C 
HETATM   18  C12 UNL     1      40.083  29.100  16.959  1.00  0.00     0.080 C 
HETATM   19  C13 UNL     1      38.600  28.925  17.165  1.00  0.00     0.149 C 
HETATM   20  O2  UNL     1      37.801  29.123  16.277  1.00  0.00    -0.296 OA
ENDBRANCH   5  14
TORSDOF 3
ENDMDL
