MODEL 1
REMARK VINA RESULT: -7.541535586      0.000      0.000
REMARK  5 active torsions:
REMARK  status: ('A' for Active; 'I' for Inactive)
REMARK    1  A    between atoms: C2_2  and  O1_3 
REMARK    2  A    between atoms: C5_7  and  C6_8 
REMARK    3  A    between atoms: C12_15  and  C13_16 
REMARK    4  A    between atoms: C13_16  and  C14_17 
REMARK    5  A    between atoms: C14_17  and  C15_18 
ROOT
HETATM    1  C1  UNL     1      38.682  23.183  13.868  1.00  0.00     0.048 C 
HETATM    2  C2  UNL     1      39.791  23.991  14.392  1.00  0.00     0.080 C 
HETATM    3  C3  UNL     1      40.678  22.976  15.153  1.00  0.00     0.042 C 
HETATM    4  C4  UNL     1      41.356  23.632  16.322  1.00  0.00     0.035 C 
HETATM    5  C5  UNL     1      40.458  24.268  17.284  1.00  0.00     0.127 C 
HETATM    6  O2  UNL     1      39.258  24.582  16.565  1.00  0.00    -0.377 OA
HETATM    7  C12 UNL     1      39.547  25.108  15.317  1.00  0.00     0.156 C 
ENDROOT
BRANCH   5   8
HETATM    8  C6  UNL     1      40.137  23.675  18.581  1.00  0.00     0.023 C 
HETATM    9  C7  UNL     1      40.933  24.066  19.793  1.00  0.00    -0.007 C 
HETATM   10  C8  UNL     1      40.532  22.973  20.765  1.00  0.00     0.005 C 
HETATM   11  C11 UNL     1      39.846  25.076  20.089  1.00  0.00     0.010 C 
HETATM   12  C9  UNL     1      39.014  22.931  20.462  1.00  0.00     0.005 C 
HETATM   13  C10 UNL     1      38.981  24.065  19.402  1.00  0.00    -0.007 C 
ENDBRANCH   5   8
BRANCH   7  14
HETATM   14  C13 UNL     1      38.592  26.175  14.972  1.00  0.00     0.045 C 
BRANCH  14  15
HETATM   15  C14 UNL     1      39.019  27.576  14.924  1.00  0.00     0.116 C 
BRANCH  15  16
HETATM   16  C15 UNL     1      40.077  27.675  13.842  1.00  0.00     0.172 C 
HETATM   17  O3  UNL     1      41.233  28.056  14.067  1.00  0.00    -0.648 OA
HETATM   18  O4  UNL     1      39.723  27.321  12.538  1.00  0.00    -0.648 OA
ENDBRANCH  15  16
ENDBRANCH  14  15
ENDBRANCH   7  14
BRANCH   2  19
HETATM   19  O1  UNL     1      40.573  24.426  13.321  1.00  0.00    -0.388 OA
ATOM     20  H1  UNL     1      41.203  25.061  13.641  1.00  0.00     0.210 HD
ENDBRANCH   2  19
TORSDOF 5
ENDMDL
MODEL 2
REMARK VINA RESULT: -7.269875879      1.955      3.633
REMARK  5 active torsions:
REMARK  status: ('A' for Active; 'I' for Inactive)
REMARK    1  A    between atoms: C2_2  and  O1_3 
REMARK    2  A    between atoms: C5_7  and  C6_8 
REMARK    3  A    between atoms: C12_15  and  C13_16 
REMARK    4  A    between atoms: C13_16  and  C14_17 
REMARK    5  A    between atoms: C14_17  and  C15_18 
ROOT
HETATM    1  C1  UNL     1      40.775  26.686  16.406  1.00  0.00     0.048 C 
HETATM    2  C2  UNL     1      39.894  25.775  15.663  1.00  0.00     0.080 C 
HETATM    3  C3  UNL     1      38.466  26.263  16.002  1.00  0.00     0.042 C 
HETATM    4  C4  UNL     1      37.497  25.115  16.008  1.00  0.00     0.035 C 
HETATM    5  C5  UNL     1      37.836  24.021  16.915  1.00  0.00     0.127 C 
HETATM    6  O2  UNL     1      39.254  24.087  17.110  1.00  0.00    -0.377 OA
HETATM    7  C12 UNL     1      39.912  24.327  15.915  1.00  0.00     0.156 C 
ENDROOT
BRANCH   5   8
HETATM    8  C6  UNL     1      37.154  23.810  18.191  1.00  0.00     0.023 C 
HETATM    9  C7  UNL     1      37.933  23.896  19.472  1.00  0.00    -0.007 C 
HETATM   10  C8  UNL     1      36.961  23.255  20.443  1.00  0.00     0.005 C 
HETATM   11  C11 UNL     1      37.473  25.334  19.569  1.00  0.00     0.010 C 
HETATM   12  C9  UNL     1      35.656  23.925  19.951  1.00  0.00     0.005 C 
HETATM   13  C10 UNL     1      36.280  24.804  18.834  1.00  0.00    -0.007 C 
ENDBRANCH   5   8
BRANCH   7  14
HETATM   14  C13 UNL     1      41.173  23.568  15.856  1.00  0.00     0.045 C 
BRANCH  14  15
HETATM   15  C14 UNL     1      41.332  22.450  14.923  1.00  0.00     0.116 C 
BRANCH  15  16
HETATM   16  C15 UNL     1      41.471  23.051  13.538  1.00  0.00     0.172 C 
HETATM   17  O3  UNL     1      40.831  22.641  12.561  1.00  0.00    -0.648 OA
HETATM   18  O4  UNL     1      42.363  24.113  13.365  1.00  0.00    -0.648 OA
ENDBRANCH  15  16
ENDBRANCH  14  15
ENDBRANCH   7  14
BRANCH   2  19
HETATM   19  O1  UNL     1      40.048  26.020  14.298  1.00  0.00    -0.388 OA
ATOM     20  H1  UNL     1      40.823  25.565  13.991  1.00  0.00     0.210 HD
ENDBRANCH   2  19
TORSDOF 5
ENDMDL
MODEL 3
REMARK VINA RESULT: -7.250550287      0.968      1.105
REMARK  5 active torsions:
REMARK  status: ('A' for Active; 'I' for Inactive)
REMARK    1  A    between atoms: C2_2  and  O1_3 
REMARK    2  A    between atoms: C5_7  and  C6_8 
REMARK    3  A    between atoms: C12_15  and  C13_16 
REMARK    4  A    between atoms: C13_16  and  C14_17 
REMARK    5  A    between atoms: C14_17  and  C15_18 
ROOT
HETATM    1  C1  UNL     1      39.737  22.396  13.308  1.00  0.00     0.048 C 
HETATM    2  C2  UNL     1      40.562  23.459  13.898  1.00  0.00     0.080 C 
HETATM    3  C3  UNL     1      41.449  22.726  14.932  1.00  0.00     0.042 C 
HETATM    4  C4  UNL     1      41.759  23.621  16.099  1.00  0.00     0.035 C 
HETATM    5  C5  UNL     1      40.593  24.161  16.793  1.00  0.00     0.127 C 
HETATM    6  O2  UNL     1      39.520  24.154  15.843  1.00  0.00    -0.377 OA
HETATM    7  C12 UNL     1      39.949  24.594  14.602  1.00  0.00     0.156 C 
ENDROOT
BRANCH   5   8
HETATM    8  C6  UNL     1      40.135  23.654  18.086  1.00  0.00     0.023 C 
HETATM    9  C7  UNL     1      40.793  24.135  19.347  1.00  0.00    -0.007 C 
HETATM   10  C8  UNL     1      40.293  23.106  20.343  1.00  0.00     0.005 C 
HETATM   11  C11 UNL     1      39.676  25.151  19.454  1.00  0.00     0.010 C 
HETATM   12  C9  UNL     1      38.817  23.027  19.882  1.00  0.00     0.005 C 
HETATM   13  C10 UNL     1      38.895  24.085  18.749  1.00  0.00    -0.007 C 
ENDBRANCH   5   8
BRANCH   7  14
HETATM   14  C13 UNL     1      38.907  25.409  13.954  1.00  0.00     0.045 C 
BRANCH  14  15
HETATM   15  C14 UNL     1      39.257  26.625  13.216  1.00  0.00     0.116 C 
BRANCH  15  16
HETATM   16  C15 UNL     1      40.033  27.510  14.172  1.00  0.00     0.172 C 
HETATM   17  O3  UNL     1      41.224  27.800  14.001  1.00  0.00    -0.648 OA
HETATM   18  O4  UNL     1      39.368  28.015  15.292  1.00  0.00    -0.648 OA
ENDBRANCH  15  16
ENDBRANCH  14  15
ENDBRANCH   7  14
BRANCH   2  19
HETATM   19  O1  UNL     1      41.449  23.928  12.927  1.00  0.00    -0.388 OA
ATOM     20  H1  UNL     1      41.582  24.859  13.059  1.00  0.00     0.210 HD
ENDBRANCH   2  19
TORSDOF 5
ENDMDL
MODEL 4
REMARK VINA RESULT: -7.171552337      2.149      3.059
REMARK  5 active torsions:
REMARK  status: ('A' for Active; 'I' for Inactive)
REMARK    1  A    between atoms: C2_2  and  O1_3 
REMARK    2  A    between atoms: C5_7  and  C6_8 
REMARK    3  A    between atoms: C12_15  and  C13_16 
REMARK    4  A    between atoms: C13_16  and  C14_17 
REMARK    5  A    between atoms: C14_17  and  C15_18 
ROOT
HETATM    1  C1  UNL     1      40.473  24.693  15.571  1.00  0.00     0.048 C 
HETATM    2  C2  UNL     1      40.874  25.247  16.871  1.00  0.00     0.080 C 
HETATM    3  C3  UNL     1      40.989  24.011  17.795  1.00  0.00     0.042 C 
HETATM    4  C4  UNL     1      40.633  24.368  19.210  1.00  0.00     0.035 C 
HETATM    5  C5  UNL     1      39.305  24.953  19.387  1.00  0.00     0.127 C 
HETATM    6  O2  UNL     1      38.954  25.540  18.128  1.00  0.00    -0.377 OA
HETATM    7  C12 UNL     1      40.027  26.219  17.576  1.00  0.00     0.156 C 
ENDROOT
BRANCH   5   8
HETATM    8  C6  UNL     1      38.176  24.204  19.936  1.00  0.00     0.023 C 
HETATM    9  C7  UNL     1      36.936  24.021  19.109  1.00  0.00    -0.007 C 
HETATM   10  C8  UNL     1      35.952  23.558  20.166  1.00  0.00     0.005 C 
HETATM   11  C11 UNL     1      37.502  22.682  18.690  1.00  0.00     0.010 C 
HETATM   12  C9  UNL     1      36.870  22.574  20.931  1.00  0.00     0.005 C 
HETATM   13  C10 UNL     1      38.135  22.738  20.046  1.00  0.00    -0.007 C 
ENDBRANCH   5   8
BRANCH   7  14
HETATM   14  C13 UNL     1      39.571  27.448  16.904  1.00  0.00     0.045 C 
BRANCH  14  15
HETATM   15  C14 UNL     1      40.134  28.752  17.262  1.00  0.00     0.116 C 
BRANCH  15  16
HETATM   16  C15 UNL     1      41.154  29.097  16.194  1.00  0.00     0.172 C 
HETATM   17  O3  UNL     1      42.213  28.472  16.051  1.00  0.00    -0.648 OA
HETATM   18  O4  UNL     1      40.880  30.167  15.339  1.00  0.00    -0.648 OA
ENDBRANCH  15  16
ENDBRANCH  14  15
ENDBRANCH   7  14
BRANCH   2  19
HETATM   19  O1  UNL     1      42.175  25.742  16.764  1.00  0.00    -0.388 OA
ATOM     20  H1  UNL     1      42.682  25.428  17.503  1.00  0.00     0.210 HD
ENDBRANCH   2  19
TORSDOF 5
ENDMDL
MODEL 5
REMARK VINA RESULT: -7.095578883      3.174      5.540
REMARK  5 active torsions:
REMARK  status: ('A' for Active; 'I' for Inactive)
REMARK    1  A    between atoms: C2_2  and  O1_3 
REMARK    2  A    between atoms: C5_7  and  C6_8 
REMARK    3  A    between atoms: C12_15  and  C13_16 
REMARK    4  A    between atoms: C13_16  and  C14_17 
REMARK    5  A    between atoms: C14_17  and  C15_18 
ROOT
HETATM    1  C1  UNL     1      40.893  25.741  17.087  1.00  0.00     0.048 C 
HETATM    2  C2  UNL     1      40.793  24.284  17.244  1.00  0.00     0.080 C 
HETATM    3  C3  UNL     1      39.512  23.903  16.465  1.00  0.00     0.042 C 
HETATM    4  C4  UNL     1      38.839  22.716  17.095  1.00  0.00     0.035 C 
HETATM    5  C5  UNL     1      38.489  22.877  18.504  1.00  0.00     0.127 C 
HETATM    6  O2  UNL     1      39.380  23.870  19.028  1.00  0.00    -0.377 OA
HETATM    7  C12 UNL     1      40.673  23.670  18.574  1.00  0.00     0.156 C 
ENDROOT
BRANCH   5   8
HETATM    8  C6  UNL     1      37.122  23.126  18.958  1.00  0.00     0.023 C 
HETATM    9  C7  UNL     1      36.259  21.972  19.382  1.00  0.00    -0.007 C 
HETATM   10  C8  UNL     1      34.890  22.625  19.390  1.00  0.00     0.005 C 
HETATM   11  C11 UNL     1      36.686  22.270  20.802  1.00  0.00     0.010 C 
HETATM   12  C9  UNL     1      35.270  23.967  20.062  1.00  0.00     0.005 C 
HETATM   13  C10 UNL     1      36.778  23.671  20.280  1.00  0.00    -0.007 C 
ENDBRANCH   5   8
BRANCH   7  14
HETATM   14  C13 UNL     1      41.647  23.976  19.636  1.00  0.00     0.045 C 
BRANCH  14  15
HETATM   15  C14 UNL     1      41.572  23.308  20.937  1.00  0.00     0.116 C 
BRANCH  15  16
HETATM   16  C15 UNL     1      42.935  23.456  21.585  1.00  0.00     0.172 C 
HETATM   17  O3  UNL     1      43.727  24.359  21.284  1.00  0.00    -0.648 OA
HETATM   18  O4  UNL     1      43.307  22.528  22.561  1.00  0.00    -0.648 OA
ENDBRANCH  15  16
ENDBRANCH  14  15
ENDBRANCH   7  14
BRANCH   2  19
HETATM   19  O1  UNL     1      41.839  23.686  16.539  1.00  0.00    -0.388 OA
ATOM     20  H1  UNL     1      42.459  23.324  17.162  1.00  0.00     0.210 HD
ENDBRANCH   2  19
TORSDOF 5
ENDMDL
