MODEL 1
REMARK VINA RESULT: -6.810070946      0.000      0.000
REMARK  8 active torsions:
REMARK  status: ('A' for Active; 'I' for Inactive)
REMARK    1  A    between atoms: C4_4  and  C5_5 
REMARK    2  A    between atoms: C5_5  and  C6_6 
REMARK    3  A    between atoms: C6_6  and  C7_7 
REMARK    4  A    between atoms: C7_7  and  N1_8 
REMARK    5  A    between atoms: C11_12  and  C12_13 
REMARK    6  A    between atoms: C12_13  and  C13_14 
REMARK    7  A    between atoms: C13_14  and  C14_15 
REMARK    8  A    between atoms: C15_18  and  C16_19 
ROOT
HETATM    1  C13 UNL     1      30.198  10.645  30.229  1.00  0.00     0.014 C 
ENDROOT
BRANCH   1   2
HETATM    2  C12 UNL     1      29.130   9.751  30.698  1.00  0.00     0.088 C 
BRANCH   2   3
HETATM    3  C11 UNL     1      28.865   8.629  29.784  1.00  0.00     0.032 A 
HETATM    4  C4  UNL     1      27.741   8.481  29.000  1.00  0.00     0.042 A 
HETATM    5  C3  UNL     1      27.911   7.282  28.300  1.00  0.00     0.047 A 
HETATM    6  C2  UNL     1      29.129   6.738  28.678  1.00  0.00     0.006 A 
HETATM    7  C1  UNL     1      29.751   5.468  28.206  1.00  0.00     0.068 C 
HETATM    8  N5  UNL     1      29.668   7.579  29.570  1.00  0.00    -0.362 N 
ATOM      9  H5  UNL     1      30.569   7.439  30.025  1.00  0.00     0.165 HD
BRANCH   4  10
HETATM   10  C5  UNL     1      26.602   9.349  28.889  1.00  0.00    -0.063 C 
BRANCH  10  11
HETATM   11  C6  UNL     1      25.648  10.090  28.812  1.00  0.00    -0.073 C 
BRANCH  11  12
HETATM   12  C7  UNL     1      24.499  11.008  28.733  1.00  0.00     0.329 C 
BRANCH  12  13
HETATM   13  N1  UNL     1      23.254  10.334  29.046  1.00  0.00    -0.069 N 
HETATM   14  C8  UNL     1      23.229   9.914  30.411  1.00  0.00     0.272 C 
HETATM   15  C9  UNL     1      22.153  11.249  28.770  1.00  0.00     0.272 C 
HETATM   16  C10 UNL     1      23.108   9.225  28.116  1.00  0.00     0.272 C 
ENDBRANCH  12  13
ENDBRANCH  11  12
ENDBRANCH  10  11
ENDBRANCH   4  10
ENDBRANCH   2   3
ENDBRANCH   1   2
BRANCH   1  17
HETATM   17  C14 UNL     1      30.933  11.435  30.954  1.00  0.00     0.099 A 
HETATM   18  N2  UNL     1      30.627  12.725  31.253  1.00  0.00    -0.338 N 
HETATM   19  C15 UNL     1      31.587  13.270  32.018  1.00  0.00     0.112 A 
ATOM     20  H2  UNL     1      29.786  13.211  30.941  1.00  0.00     0.167 HD
HETATM   21  N4  UNL     1      32.495  12.305  32.191  1.00  0.00    -0.307 N 
HETATM   22  C20 UNL     1      32.149  11.172  31.570  1.00  0.00     0.273 A 
ATOM     23  H4  UNL     1      33.351  12.418  32.733  1.00  0.00     0.170 HD
HETATM   24  O1  UNL     1      32.823  10.114  31.572  1.00  0.00    -0.266 OA
BRANCH  19  25
HETATM   25  C16 UNL     1      31.606  14.508  32.488  1.00  0.00    -0.009 C 
HETATM   26  C17 UNL     1      32.097  15.686  31.730  1.00  0.00     0.067 C 
HETATM   27  C18 UNL     1      31.501  16.858  32.493  1.00  0.00     0.237 C 
HETATM   28  N3  UNL     1      31.576  16.357  33.851  1.00  0.00    -0.071 N 
HETATM   29  C19 UNL     1      31.163  14.985  33.818  1.00  0.00     0.270 C 
ATOM     30  H32 UNL     1      32.493  16.487  34.276  1.00  0.00     0.277 HD
ATOM     31  H31 UNL     1      31.043  16.919  34.515  1.00  0.00     0.277 HD
ENDBRANCH  19  25
ENDBRANCH   1  17
TORSDOF 8
ENDMDL
MODEL 2
REMARK VINA RESULT: -6.748173294      2.713      7.794
REMARK  8 active torsions:
REMARK  status: ('A' for Active; 'I' for Inactive)
REMARK    1  A    between atoms: C4_4  and  C5_5 
REMARK    2  A    between atoms: C5_5  and  C6_6 
REMARK    3  A    between atoms: C6_6  and  C7_7 
REMARK    4  A    between atoms: C7_7  and  N1_8 
REMARK    5  A    between atoms: C11_12  and  C12_13 
REMARK    6  A    between atoms: C12_13  and  C13_14 
REMARK    7  A    between atoms: C13_14  and  C14_15 
REMARK    8  A    between atoms: C15_18  and  C16_19 
ROOT
HETATM    1  C13 UNL     1      26.010   9.366  28.427  1.00  0.00     0.014 C 
ENDROOT
BRANCH   1   2
HETATM    2  C12 UNL     1      26.792   9.024  29.624  1.00  0.00     0.088 C 
BRANCH   2   3
HETATM    3  C11 UNL     1      27.970   8.192  29.331  1.00  0.00     0.032 A 
HETATM    4  C4  UNL     1      29.282   8.554  29.549  1.00  0.00     0.042 A 
HETATM    5  C3  UNL     1      30.058   7.469  29.129  1.00  0.00     0.047 A 
HETATM    6  C2  UNL     1      29.199   6.483  28.670  1.00  0.00     0.006 A 
HETATM    7  C1  UNL     1      29.552   5.143  28.121  1.00  0.00     0.068 C 
HETATM    8  N5  UNL     1      27.955   6.959  28.810  1.00  0.00    -0.362 N 
ATOM      9  H5  UNL     1      27.109   6.451  28.553  1.00  0.00     0.165 HD
BRANCH   4  10
HETATM   10  C5  UNL     1      29.798   9.780  30.091  1.00  0.00    -0.063 C 
BRANCH  10  11
HETATM   11  C6  UNL     1      30.250  10.803  30.552  1.00  0.00    -0.073 C 
BRANCH  11  12
HETATM   12  C7  UNL     1      30.820  12.036  31.124  1.00  0.00     0.329 C 
BRANCH  12  13
HETATM   13  N1  UNL     1      32.237  12.152  30.840  1.00  0.00    -0.069 N 
HETATM   14  C8  UNL     1      32.474  12.197  29.431  1.00  0.00     0.272 C 
HETATM   15  C9  UNL     1      32.739  13.360  31.484  1.00  0.00     0.272 C 
HETATM   16  C10 UNL     1      32.908  11.034  31.484  1.00  0.00     0.272 C 
ENDBRANCH  12  13
ENDBRANCH  11  12
ENDBRANCH  10  11
ENDBRANCH   4  10
ENDBRANCH   2   3
ENDBRANCH   1   2
BRANCH   1  17
HETATM   17  C14 UNL     1      24.933  10.094  28.377  1.00  0.00     0.099 A 
HETATM   18  N2  UNL     1      24.317  10.647  29.455  1.00  0.00    -0.338 N 
HETATM   19  C15 UNL     1      23.231  11.338  29.071  1.00  0.00     0.112 A 
ATOM     20  H2  UNL     1      24.636  10.552  30.419  1.00  0.00     0.167 HD
HETATM   21  N4  UNL     1      23.177  11.207  27.742  1.00  0.00    -0.307 N 
HETATM   22  C20 UNL     1      24.183  10.464  27.269  1.00  0.00     0.273 A 
ATOM     23  H4  UNL     1      22.453  11.624  27.157  1.00  0.00     0.170 HD
HETATM   24  O1  UNL     1      24.367  10.187  26.059  1.00  0.00    -0.266 OA
BRANCH  19  25
HETATM   25  C16 UNL     1      22.403  12.000  29.865  1.00  0.00    -0.009 C 
HETATM   26  C17 UNL     1      22.772  13.215  30.635  1.00  0.00     0.067 C 
HETATM   27  C18 UNL     1      21.422  13.817  30.992  1.00  0.00     0.237 C 
HETATM   28  N3  UNL     1      20.642  12.614  31.207  1.00  0.00    -0.071 N 
HETATM   29  C19 UNL     1      20.985  11.697  30.159  1.00  0.00     0.270 C 
ATOM     30  H32 UNL     1      20.764  12.219  32.139  1.00  0.00     0.277 HD
ATOM     31  H31 UNL     1      19.640  12.792  31.270  1.00  0.00     0.277 HD
ENDBRANCH  19  25
ENDBRANCH   1  17
TORSDOF 8
ENDMDL
MODEL 3
REMARK VINA RESULT: -6.708357684      4.865      7.642
REMARK  8 active torsions:
REMARK  status: ('A' for Active; 'I' for Inactive)
REMARK    1  A    between atoms: C4_4  and  C5_5 
REMARK    2  A    between atoms: C5_5  and  C6_6 
REMARK    3  A    between atoms: C6_6  and  C7_7 
REMARK    4  A    between atoms: C7_7  and  N1_8 
REMARK    5  A    between atoms: C11_12  and  C12_13 
REMARK    6  A    between atoms: C12_13  and  C13_14 
REMARK    7  A    between atoms: C13_14  and  C14_15 
REMARK    8  A    between atoms: C15_18  and  C16_19 
ROOT
HETATM    1  C13 UNL     1      27.209   9.960  29.133  1.00  0.00     0.014 C 
ENDROOT
BRANCH   1   2
HETATM    2  C12 UNL     1      26.652  11.000  28.256  1.00  0.00     0.088 C 
BRANCH   2   3
HETATM    3  C11 UNL     1      25.190  11.123  28.354  1.00  0.00     0.032 A 
HETATM    4  C4  UNL     1      24.371  11.727  27.424  1.00  0.00     0.042 A 
HETATM    5  C3  UNL     1      23.069  11.616  27.922  1.00  0.00     0.047 A 
HETATM    6  C2  UNL     1      23.134  10.949  29.136  1.00  0.00     0.006 A 
HETATM    7  C1  UNL     1      22.009  10.593  30.046  1.00  0.00     0.068 C 
HETATM    8  N5  UNL     1      24.425  10.673  29.356  1.00  0.00    -0.362 N 
ATOM      9  H5  UNL     1      24.780  10.184  30.178  1.00  0.00     0.165 HD
BRANCH   4  10
HETATM   10  C5  UNL     1      24.732  12.357  26.184  1.00  0.00    -0.063 C 
BRANCH  10  11
HETATM   11  C6  UNL     1      25.026  12.904  25.145  1.00  0.00    -0.073 C 
BRANCH  11  12
HETATM   12  C7  UNL     1      25.385  13.592  23.893  1.00  0.00     0.329 C 
BRANCH  12  13
HETATM   13  N1  UNL     1      24.521  13.194  22.798  1.00  0.00    -0.069 N 
HETATM   14  C8  UNL     1      23.146  13.391  23.135  1.00  0.00     0.272 C 
HETATM   15  C9  UNL     1      24.878  13.977  21.622  1.00  0.00     0.272 C 
HETATM   16  C10 UNL     1      24.825  11.809  22.478  1.00  0.00     0.272 C 
ENDBRANCH  12  13
ENDBRANCH  11  12
ENDBRANCH  10  11
ENDBRANCH   4  10
ENDBRANCH   2   3
ENDBRANCH   1   2
BRANCH   1  17
HETATM   17  C14 UNL     1      27.576   8.760  28.790  1.00  0.00     0.099 A 
HETATM   18  N2  UNL     1      28.846   8.283  28.868  1.00  0.00    -0.338 N 
HETATM   19  C15 UNL     1      28.897   7.012  28.438  1.00  0.00     0.112 A 
ATOM     20  H2  UNL     1      29.648   8.816  29.206  1.00  0.00     0.167 HD
HETATM   21  N4  UNL     1      27.644   6.703  28.090  1.00  0.00    -0.307 N 
HETATM   22  C20 UNL     1      26.803   7.724  28.284  1.00  0.00     0.273 A 
ATOM     23  H4  UNL     1      27.362   5.795  27.721  1.00  0.00     0.170 HD
HETATM   24  O1  UNL     1      25.572   7.700  28.040  1.00  0.00    -0.266 OA
BRANCH  19  25
HETATM   25  C16 UNL     1      29.977   6.248  28.380  1.00  0.00    -0.009 C 
HETATM   26  C17 UNL     1      31.102   6.454  27.433  1.00  0.00     0.067 C 
HETATM   27  C18 UNL     1      32.228   5.645  28.056  1.00  0.00     0.237 C 
HETATM   28  N3  UNL     1      31.483   4.527  28.600  1.00  0.00    -0.071 N 
HETATM   29  C19 UNL     1      30.301   5.063  29.207  1.00  0.00     0.270 C 
ATOM     30  H32 UNL     1      31.285   3.804  27.909  1.00  0.00     0.277 HD
ATOM     31  H31 UNL     1      32.034   3.951  29.237  1.00  0.00     0.277 HD
ENDBRANCH  19  25
ENDBRANCH   1  17
TORSDOF 8
ENDMDL
MODEL 4
REMARK VINA RESULT: -6.699114965      3.035      7.816
REMARK  8 active torsions:
REMARK  status: ('A' for Active; 'I' for Inactive)
REMARK    1  A    between atoms: C4_4  and  C5_5 
REMARK    2  A    between atoms: C5_5  and  C6_6 
REMARK    3  A    between atoms: C6_6  and  C7_7 
REMARK    4  A    between atoms: C7_7  and  N1_8 
REMARK    5  A    between atoms: C11_12  and  C12_13 
REMARK    6  A    between atoms: C12_13  and  C13_14 
REMARK    7  A    between atoms: C13_14  and  C14_15 
REMARK    8  A    between atoms: C15_18  and  C16_19 
ROOT
HETATM    1  C13 UNL     1      26.045   9.480  28.135  1.00  0.00     0.014 C 
ENDROOT
BRANCH   1   2
HETATM    2  C12 UNL     1      25.608  10.755  28.721  1.00  0.00     0.088 C 
BRANCH   2   3
HETATM    3  C11 UNL     1      26.093  11.932  27.983  1.00  0.00     0.032 A 
HETATM    4  C4  UNL     1      27.287  12.583  28.206  1.00  0.00     0.042 A 
HETATM    5  C3  UNL     1      27.333  13.635  27.285  1.00  0.00     0.047 A 
HETATM    6  C2  UNL     1      26.170  13.592  26.531  1.00  0.00     0.006 A 
HETATM    7  C1  UNL     1      25.761  14.504  25.427  1.00  0.00     0.068 C 
HETATM    8  N5  UNL     1      25.455  12.555  26.984  1.00  0.00    -0.362 N 
ATOM      9  H5  UNL     1      24.545  12.276  26.618  1.00  0.00     0.165 HD
BRANCH   4  10
HETATM   10  C5  UNL     1      28.306  12.284  29.173  1.00  0.00    -0.063 C 
BRANCH  10  11
HETATM   11  C6  UNL     1      29.157  12.045  30.000  1.00  0.00    -0.073 C 
BRANCH  11  12
HETATM   12  C7  UNL     1      30.189  11.777  31.016  1.00  0.00     0.329 C 
BRANCH  12  13
HETATM   13  N1  UNL     1      31.336  11.097  30.445  1.00  0.00    -0.069 N 
HETATM   14  C8  UNL     1      31.904  11.859  29.379  1.00  0.00     0.272 C 
HETATM   15  C9  UNL     1      32.318  10.884  31.502  1.00  0.00     0.272 C 
HETATM   16  C10 UNL     1      30.899   9.777  30.019  1.00  0.00     0.272 C 
ENDBRANCH  12  13
ENDBRANCH  11  12
ENDBRANCH  10  11
ENDBRANCH   4  10
ENDBRANCH   2   3
ENDBRANCH   1   2
BRANCH   1  17
HETATM   17  C14 UNL     1      26.933   8.661  28.616  1.00  0.00     0.099 A 
HETATM   18  N2  UNL     1      27.945   8.102  27.900  1.00  0.00    -0.338 N 
HETATM   19  C15 UNL     1      28.687   7.302  28.683  1.00  0.00     0.112 A 
ATOM     20  H2  UNL     1      28.116   8.267  26.908  1.00  0.00     0.167 HD
HETATM   21  N4  UNL     1      28.126   7.369  29.894  1.00  0.00    -0.307 N 
HETATM   22  C20 UNL     1      27.061   8.178  29.911  1.00  0.00     0.273 A 
ATOM     23  H4  UNL     1      28.470   6.862  30.710  1.00  0.00     0.170 HD
HETATM   24  O1  UNL     1      26.354   8.416  30.920  1.00  0.00    -0.266 OA
BRANCH  19  25
HETATM   25  C16 UNL     1      29.748   6.605  28.307  1.00  0.00    -0.009 C 
HETATM   26  C17 UNL     1      30.814   7.117  27.409  1.00  0.00     0.067 C 
HETATM   27  C18 UNL     1      31.963   6.153  27.656  1.00  0.00     0.237 C 
HETATM   28  N3  UNL     1      31.235   4.915  27.849  1.00  0.00    -0.071 N 
HETATM   29  C19 UNL     1      30.103   5.215  28.675  1.00  0.00     0.270 C 
ATOM     30  H32 UNL     1      30.982   4.459  26.973  1.00  0.00     0.277 HD
ATOM     31  H31 UNL     1      31.815   4.164  28.224  1.00  0.00     0.277 HD
ENDBRANCH  19  25
ENDBRANCH   1  17
TORSDOF 8
ENDMDL
MODEL 5
REMARK VINA RESULT: -6.661063239      2.594      8.412
REMARK  8 active torsions:
REMARK  status: ('A' for Active; 'I' for Inactive)
REMARK    1  A    between atoms: C4_4  and  C5_5 
REMARK    2  A    between atoms: C5_5  and  C6_6 
REMARK    3  A    between atoms: C6_6  and  C7_7 
REMARK    4  A    between atoms: C7_7  and  N1_8 
REMARK    5  A    between atoms: C11_12  and  C12_13 
REMARK    6  A    between atoms: C12_13  and  C13_14 
REMARK    7  A    between atoms: C13_14  and  C14_15 
REMARK    8  A    between atoms: C15_18  and  C16_19 
ROOT
HETATM    1  C13 UNL     1      25.883   9.199  29.277  1.00  0.00     0.014 C 
ENDROOT
BRANCH   1   2
HETATM    2  C12 UNL     1      27.125   9.465  28.538  1.00  0.00     0.088 C 
BRANCH   2   3
HETATM    3  C11 UNL     1      28.135   8.407  28.696  1.00  0.00     0.032 A 
HETATM    4  C4  UNL     1      29.333   8.535  29.366  1.00  0.00     0.042 A 
HETATM    5  C3  UNL     1      29.969   7.294  29.264  1.00  0.00     0.047 A 
HETATM    6  C2  UNL     1      29.143   6.451  28.537  1.00  0.00     0.006 A 
HETATM    7  C1  UNL     1      29.385   5.028  28.164  1.00  0.00     0.068 C 
HETATM    8  N5  UNL     1      28.053   7.160  28.216  1.00  0.00    -0.362 N 
ATOM      9  H5  UNL     1      27.266   6.799  27.678  1.00  0.00     0.165 HD
BRANCH   4  10
HETATM   10  C5  UNL     1      29.864   9.684  30.046  1.00  0.00    -0.063 C 
BRANCH  10  11
HETATM   11  C6  UNL     1      30.306  10.663  30.603  1.00  0.00    -0.073 C 
BRANCH  11  12
HETATM   12  C7  UNL     1      30.858  11.859  31.262  1.00  0.00     0.329 C 
BRANCH  12  13
HETATM   13  N1  UNL     1      32.255  12.058  30.925  1.00  0.00    -0.069 N 
HETATM   14  C8  UNL     1      32.430  12.160  29.511  1.00  0.00     0.272 C 
HETATM   15  C9  UNL     1      32.720  13.270  31.588  1.00  0.00     0.272 C 
HETATM   16  C10 UNL     1      33.008  10.957  31.505  1.00  0.00     0.272 C 
ENDBRANCH  12  13
ENDBRANCH  11  12
ENDBRANCH  10  11
ENDBRANCH   4  10
ENDBRANCH   2   3
ENDBRANCH   1   2
BRANCH   1  17
HETATM   17  C14 UNL     1      24.702   9.684  29.025  1.00  0.00     0.099 A 
HETATM   18  N2  UNL     1      24.320  10.225  27.838  1.00  0.00    -0.338 N 
HETATM   19  C15 UNL     1      23.043  10.636  27.900  1.00  0.00     0.112 A 
ATOM     20  H2  UNL     1      24.919  10.306  27.016  1.00  0.00     0.167 HD
HETATM   21  N4  UNL     1      22.635  10.346  29.139  1.00  0.00    -0.307 N 
HETATM   22  C20 UNL     1      23.598   9.768  29.863  1.00  0.00     0.273 A 
ATOM     23  H4  UNL     1      21.698  10.543  29.491  1.00  0.00     0.170 HD
HETATM   24  O1  UNL     1      23.479   9.396  31.056  1.00  0.00    -0.266 OA
BRANCH  19  25
HETATM   25  C16 UNL     1      22.357  11.207  26.922  1.00  0.00    -0.009 C 
HETATM   26  C17 UNL     1      20.899  11.027  26.703  1.00  0.00     0.067 C 
HETATM   27  C18 UNL     1      20.542  12.193  25.795  1.00  0.00     0.237 C 
HETATM   28  N3  UNL     1      21.741  12.276  24.984  1.00  0.00    -0.071 N 
HETATM   29  C19 UNL     1      22.859  12.115  25.866  1.00  0.00     0.270 C 
ATOM     30  H32 UNL     1      21.745  11.615  24.208  1.00  0.00     0.277 HD
ATOM     31  H31 UNL     1      21.789  13.130  24.428  1.00  0.00     0.277 HD
ENDBRANCH  19  25
ENDBRANCH   1  17
TORSDOF 8
ENDMDL
