MODEL 1
REMARK VINA RESULT: -7.826219393      0.000      0.000
REMARK  5 active torsions:
REMARK  status: ('A' for Active; 'I' for Inactive)
REMARK    1  A    between atoms: C5_5  and  C6_6 
REMARK    2  A    between atoms: C11_14  and  C12_15 
REMARK    3  A    between atoms: C12_15  and  C13_16 
REMARK    4  A    between atoms: C17_24  and  C18_25 
REMARK    5  A    between atoms: N3_26  and  N4_28 
ROOT
HETATM    1  C1  UNL     1      17.135  12.800  26.351  1.00  0.00     0.025 C 
HETATM    2  C2  UNL     1      18.057  12.603  27.258  1.00  0.00    -0.026 A 
HETATM    3  C3  UNL     1      17.892  13.258  28.468  1.00  0.00    -0.043 A 
HETATM    4  C4  UNL     1      16.726  14.182  28.659  1.00  0.00     0.049 C 
HETATM    5  C5  UNL     1      18.767  13.115  29.488  1.00  0.00    -0.024 A 
HETATM    6  C8  UNL     1      19.849  12.285  29.284  1.00  0.00     0.053 A 
HETATM    7  N1  UNL     1      20.839  11.983  30.130  1.00  0.00    -0.350 N 
ATOM      8  H1  UNL     1      20.939  12.339  31.081  1.00  0.00     0.166 HD
HETATM    9  C9  UNL     1      21.672  11.141  29.525  1.00  0.00     0.112 A 
HETATM   10  C10 UNL     1      22.829  10.535  29.945  1.00  0.00     0.208 A 
HETATM   11  O1  UNL     1      23.251  10.771  31.124  1.00  0.00    -0.285 OA
HETATM   12  C11 UNL     1      23.522   9.692  29.118  1.00  0.00     0.020 A 
HETATM   13  C14 UNL     1      23.068   9.440  27.853  1.00  0.00     0.100 A 
HETATM   14  N2  UNL     1      21.913  10.054  27.455  1.00  0.00    -0.363 N 
ATOM     15  H2  UNL     1      21.567   9.871  26.514  1.00  0.00     0.165 HD
HETATM   16  C15 UNL     1      21.218  10.878  28.235  1.00  0.00     0.076 A 
HETATM   17  C16 UNL     1      20.062  11.598  28.076  1.00  0.00     0.033 A 
HETATM   18  C17 UNL     1      19.161  11.739  27.015  1.00  0.00     0.005 A 
ENDROOT
BRANCH  18  19
HETATM   19  C18 UNL     1      19.240  11.178  25.875  1.00  0.00     0.119 C 
HETATM   20  N3  UNL     1      20.013  11.010  24.767  1.00  0.00    -0.318 N 
ATOM     21  H3  UNL     1      20.867  10.454  24.815  1.00  0.00     0.185 HD
BRANCH  20  22
HETATM   22  N4  UNL     1      19.654  11.564  23.648  1.00  0.00    -0.345 N 
ATOM     23  H42 UNL     1      18.661  11.673  23.441  1.00  0.00     0.176 HD
ATOM     24  H41 UNL     1      20.369  11.882  22.994  1.00  0.00     0.176 HD
ENDBRANCH  20  22
ENDBRANCH  18  19
BRANCH   5  25
HETATM   25  C6  UNL     1      18.582  13.794  30.779  1.00  0.00     0.037 C 
HETATM   26  C7  UNL     1      19.539  14.942  30.978  1.00  0.00     0.010 C 
ENDBRANCH   5  25
BRANCH  12  27
HETATM   27  C12 UNL     1      24.757   9.053  29.589  1.00  0.00     0.157 C 
BRANCH  27  28
HETATM   28  C13 UNL     1      25.768   9.051  28.504  1.00  0.00     0.177 C 
HETATM   29  O2  UNL     1      26.330  10.113  28.159  1.00  0.00    -0.648 OA
HETATM   30  O3  UNL     1      26.069   7.851  27.890  1.00  0.00    -0.648 OA
ENDBRANCH  27  28
ENDBRANCH  12  27
TORSDOF 5
ENDMDL
MODEL 2
REMARK VINA RESULT: -7.558591502      1.749      3.898
REMARK  5 active torsions:
REMARK  status: ('A' for Active; 'I' for Inactive)
REMARK    1  A    between atoms: C5_5  and  C6_6 
REMARK    2  A    between atoms: C11_14  and  C12_15 
REMARK    3  A    between atoms: C12_15  and  C13_16 
REMARK    4  A    between atoms: C17_24  and  C18_25 
REMARK    5  A    between atoms: N3_26  and  N4_28 
ROOT
HETATM    1  C1  UNL     1      17.293  12.952  28.347  1.00  0.00     0.025 C 
HETATM    2  C2  UNL     1      18.366  12.548  27.717  1.00  0.00    -0.026 A 
HETATM    3  C3  UNL     1      18.300  12.511  26.333  1.00  0.00    -0.043 A 
HETATM    4  C4  UNL     1      17.019  12.873  25.641  1.00  0.00     0.049 C 
HETATM    5  C5  UNL     1      19.351  12.132  25.572  1.00  0.00    -0.024 A 
HETATM    6  C8  UNL     1      20.510  11.774  26.226  1.00  0.00     0.053 A 
HETATM    7  N1  UNL     1      21.672  11.370  25.703  1.00  0.00    -0.350 N 
ATOM      8  H1  UNL     1      21.872  11.263  24.708  1.00  0.00     0.166 HD
HETATM    9  C9  UNL     1      22.524  11.131  26.695  1.00  0.00     0.112 A 
HETATM   10  C10 UNL     1      23.827  10.701  26.702  1.00  0.00     0.208 A 
HETATM   11  O1  UNL     1      24.401  10.467  25.589  1.00  0.00    -0.285 OA
HETATM   12  C11 UNL     1      24.504  10.526  27.880  1.00  0.00     0.020 A 
HETATM   13  C14 UNL     1      23.887  10.777  29.074  1.00  0.00     0.100 A 
HETATM   14  N2  UNL     1      22.589  11.204  29.044  1.00  0.00    -0.363 N 
ATOM     15  H2  UNL     1      22.122  11.395  29.930  1.00  0.00     0.165 HD
HETATM   16  C15 UNL     1      21.905  11.384  27.917  1.00  0.00     0.076 A 
HETATM   17  C16 UNL     1      20.629  11.794  27.627  1.00  0.00     0.033 A 
HETATM   18  C17 UNL     1      19.547  12.186  28.423  1.00  0.00     0.005 A 
ENDROOT
BRANCH  18  19
HETATM   19  C18 UNL     1      19.524  12.245  29.694  1.00  0.00     0.119 C 
HETATM   20  N3  UNL     1      19.690  13.056  30.775  1.00  0.00    -0.318 N 
ATOM     21  H3  UNL     1      19.004  13.781  30.985  1.00  0.00     0.185 HD
BRANCH  20  22
HETATM   22  N4  UNL     1      20.731  12.898  31.538  1.00  0.00    -0.345 N 
ATOM     23  H42 UNL     1      21.609  12.584  31.125  1.00  0.00     0.176 HD
ATOM     24  H41 UNL     1      20.654  13.090  32.536  1.00  0.00     0.176 HD
ENDBRANCH  20  22
ENDBRANCH  18  19
BRANCH   5  25
HETATM   25  C6  UNL     1      19.287  12.112  24.104  1.00  0.00     0.037 C 
HETATM   26  C7  UNL     1      19.874  13.351  23.477  1.00  0.00     0.010 C 
ENDBRANCH   5  25
BRANCH  12  27
HETATM   27  C12 UNL     1      25.899  10.067  27.863  1.00  0.00     0.157 C 
BRANCH  27  28
HETATM   28  C13 UNL     1      25.999   8.737  28.509  1.00  0.00     0.177 C 
HETATM   29  O2  UNL     1      25.543   7.720  27.943  1.00  0.00    -0.648 OA
HETATM   30  O3  UNL     1      26.606   8.653  29.748  1.00  0.00    -0.648 OA
ENDBRANCH  27  28
ENDBRANCH  12  27
TORSDOF 5
ENDMDL
MODEL 3
REMARK VINA RESULT: -7.448645475      1.736      3.901
REMARK  5 active torsions:
REMARK  status: ('A' for Active; 'I' for Inactive)
REMARK    1  A    between atoms: C5_5  and  C6_6 
REMARK    2  A    between atoms: C11_14  and  C12_15 
REMARK    3  A    between atoms: C12_15  and  C13_16 
REMARK    4  A    between atoms: C17_24  and  C18_25 
REMARK    5  A    between atoms: N3_26  and  N4_28 
ROOT
HETATM    1  C1  UNL     1      17.959  13.749  30.540  1.00  0.00     0.025 C 
HETATM    2  C2  UNL     1      18.733  13.144  29.677  1.00  0.00    -0.026 A 
HETATM    3  C3  UNL     1      18.186  12.867  28.434  1.00  0.00    -0.043 A 
HETATM    4  C4  UNL     1      16.753  13.216  28.160  1.00  0.00     0.049 C 
HETATM    5  C5  UNL     1      18.895  12.264  27.453  1.00  0.00    -0.024 A 
HETATM    6  C8  UNL     1      20.201  11.924  27.733  1.00  0.00     0.053 A 
HETATM    7  N1  UNL     1      21.096  11.329  26.938  1.00  0.00    -0.350 N 
ATOM      8  H1  UNL     1      20.933  11.030  25.977  1.00  0.00     0.166 HD
HETATM    9  C9  UNL     1      22.236  11.193  27.610  1.00  0.00     0.112 A 
HETATM   10  C10 UNL     1      23.448  10.654  27.260  1.00  0.00     0.208 A 
HETATM   11  O1  UNL     1      23.590  10.174  26.089  1.00  0.00    -0.285 OA
HETATM   12  C11 UNL     1      24.490  10.630  28.149  1.00  0.00     0.020 A 
HETATM   13  C14 UNL     1      24.336  11.144  29.406  1.00  0.00     0.100 A 
HETATM   14  N2  UNL     1      23.120  11.677  29.733  1.00  0.00    -0.363 N 
ATOM     15  H2  UNL     1      22.997  12.064  30.669  1.00  0.00     0.165 HD
HETATM   16  C15 UNL     1      22.090  11.715  28.893  1.00  0.00     0.076 A 
HETATM   17  C16 UNL     1      20.803  12.182  28.978  1.00  0.00     0.033 A 
HETATM   18  C17 UNL     1      20.077  12.807  29.998  1.00  0.00     0.005 A 
ENDROOT
BRANCH  18  19
HETATM   19  C18 UNL     1      20.502  13.092  31.163  1.00  0.00     0.119 C 
HETATM   20  N3  UNL     1      20.858  14.103  32.003  1.00  0.00    -0.318 N 
ATOM     21  H3  UNL     1      20.147  14.725  32.389  1.00  0.00     0.185 HD
BRANCH  20  22
HETATM   22  N4  UNL     1      22.110  14.269  32.309  1.00  0.00    -0.345 N 
ATOM     23  H42 UNL     1      22.751  13.480  32.232  1.00  0.00     0.176 HD
ATOM     24  H41 UNL     1      22.432  15.185  32.621  1.00  0.00     0.176 HD
ENDBRANCH  20  22
ENDBRANCH  18  19
BRANCH   5  25
HETATM   25  C6  UNL     1      18.321  11.990  26.128  1.00  0.00     0.037 C 
HETATM   26  C7  UNL     1      18.660  13.053  25.114  1.00  0.00     0.010 C 
ENDBRANCH   5  25
BRANCH  12  27
HETATM   27  C12 UNL     1      25.779  10.050  27.752  1.00  0.00     0.157 C 
BRANCH  27  28
HETATM   28  C13 UNL     1      25.974   8.744  28.427  1.00  0.00     0.177 C 
HETATM   29  O2  UNL     1      25.485   7.700  27.942  1.00  0.00    -0.648 OA
HETATM   30  O3  UNL     1      26.703   8.714  29.600  1.00  0.00    -0.648 OA
ENDBRANCH  27  28
ENDBRANCH  12  27
TORSDOF 5
ENDMDL
MODEL 4
REMARK VINA RESULT: -7.428041430      1.090      1.149
REMARK  5 active torsions:
REMARK  status: ('A' for Active; 'I' for Inactive)
REMARK    1  A    between atoms: C5_5  and  C6_6 
REMARK    2  A    between atoms: C11_14  and  C12_15 
REMARK    3  A    between atoms: C12_15  and  C13_16 
REMARK    4  A    between atoms: C17_24  and  C18_25 
REMARK    5  A    between atoms: N3_26  and  N4_28 
ROOT
HETATM    1  C1  UNL     1      17.106  12.427  26.494  1.00  0.00     0.025 C 
HETATM    2  C2  UNL     1      18.210  12.447  27.195  1.00  0.00    -0.026 A 
HETATM    3  C3  UNL     1      18.153  13.069  28.432  1.00  0.00    -0.043 A 
HETATM    4  C4  UNL     1      16.877  13.723  28.876  1.00  0.00     0.049 C 
HETATM    5  C5  UNL     1      19.223  13.134  29.256  1.00  0.00    -0.024 A 
HETATM    6  C8  UNL     1      20.394  12.553  28.820  1.00  0.00     0.053 A 
HETATM    7  N1  UNL     1      21.574  12.484  29.445  1.00  0.00    -0.350 N 
ATOM      8  H1  UNL     1      21.782  12.867  30.367  1.00  0.00     0.166 HD
HETATM    9  C9  UNL     1      22.430  11.832  28.664  1.00  0.00     0.112 A 
HETATM   10  C10 UNL     1      23.750  11.496  28.830  1.00  0.00     0.208 A 
HETATM   11  O1  UNL     1      24.338  11.835  29.909  1.00  0.00    -0.285 OA
HETATM   12  C11 UNL     1      24.430  10.810  27.859  1.00  0.00     0.020 A 
HETATM   13  C14 UNL     1      23.798  10.447  26.702  1.00  0.00     0.100 A 
HETATM   14  N2  UNL     1      22.483  10.792  26.557  1.00  0.00    -0.363 N 
ATOM     15  H2  UNL     1      22.004  10.524  25.697  1.00  0.00     0.165 HD
HETATM   16  C15 UNL     1      21.796  11.458  27.481  1.00  0.00     0.076 A 
HETATM   17  C16 UNL     1      20.506  11.910  27.574  1.00  0.00     0.033 A 
HETATM   18  C17 UNL     1      19.403  11.837  26.715  1.00  0.00     0.005 A 
ENDROOT
BRANCH  18  19
HETATM   19  C18 UNL     1      19.373  11.289  25.567  1.00  0.00     0.119 C 
HETATM   20  N3  UNL     1      19.872  11.327  24.301  1.00  0.00    -0.318 N 
ATOM     21  H3  UNL     1      20.840  11.056  24.122  1.00  0.00     0.185 HD
BRANCH  20  22
HETATM   22  N4  UNL     1      19.107  11.710  23.323  1.00  0.00    -0.345 N 
ATOM     23  H42 UNL     1      18.099  11.761  23.469  1.00  0.00     0.176 HD
ATOM     24  H41 UNL     1      19.525  11.954  22.426  1.00  0.00     0.176 HD
ENDBRANCH  20  22
ENDBRANCH  18  19
BRANCH   5  25
HETATM   25  C6  UNL     1      19.156  13.775  30.577  1.00  0.00     0.037 C 
HETATM   26  C7  UNL     1      19.731  15.169  30.578  1.00  0.00     0.010 C 
ENDBRANCH   5  25
BRANCH  12  27
HETATM   27  C12 UNL     1      25.841  10.459  28.059  1.00  0.00     0.157 C 
BRANCH  27  28
HETATM   28  C13 UNL     1      25.943   9.133  28.715  1.00  0.00     0.177 C 
HETATM   29  O2  UNL     1      26.137   9.048  29.947  1.00  0.00    -0.648 OA
HETATM   30  O3  UNL     1      25.819   8.002  27.932  1.00  0.00    -0.648 OA
ENDBRANCH  27  28
ENDBRANCH  12  27
TORSDOF 5
ENDMDL
MODEL 5
REMARK VINA RESULT: -7.352191228      5.088      7.860
REMARK  5 active torsions:
REMARK  status: ('A' for Active; 'I' for Inactive)
REMARK    1  A    between atoms: C5_5  and  C6_6 
REMARK    2  A    between atoms: C11_14  and  C12_15 
REMARK    3  A    between atoms: C12_15  and  C13_16 
REMARK    4  A    between atoms: C17_24  and  C18_25 
REMARK    5  A    between atoms: N3_26  and  N4_28 
ROOT
HETATM    1  C1  UNL     1      26.470  13.763  28.869  1.00  0.00     0.025 C 
HETATM    2  C2  UNL     1      26.415  12.463  28.731  1.00  0.00    -0.026 A 
HETATM    3  C3  UNL     1      25.236  11.938  28.226  1.00  0.00    -0.043 A 
HETATM    4  C4  UNL     1      24.087  12.853  27.920  1.00  0.00     0.049 C 
HETATM    5  C5  UNL     1      25.068  10.613  28.019  1.00  0.00    -0.024 A 
HETATM    6  C8  UNL     1      26.124   9.784  28.333  1.00  0.00     0.053 A 
HETATM    7  N1  UNL     1      26.203   8.454  28.217  1.00  0.00    -0.350 N 
ATOM      8  H1  UNL     1      25.465   7.842  27.868  1.00  0.00     0.166 HD
HETATM    9  C9  UNL     1      27.404   8.063  28.631  1.00  0.00     0.112 A 
HETATM   10  C10 UNL     1      27.986   6.823  28.718  1.00  0.00     0.208 A 
HETATM   11  O1  UNL     1      27.316   5.805  28.350  1.00  0.00    -0.285 OA
HETATM   12  C11 UNL     1      29.264   6.677  29.190  1.00  0.00     0.020 A 
HETATM   13  C14 UNL     1      29.982   7.771  29.586  1.00  0.00     0.100 A 
HETATM   14  N2  UNL     1      29.384   8.996  29.490  1.00  0.00    -0.363 N 
ATOM     15  H2  UNL     1      29.913   9.818  29.782  1.00  0.00     0.165 HD
HETATM   16  C15 UNL     1      28.145   9.171  29.036  1.00  0.00     0.076 A 
HETATM   17  C16 UNL     1      27.341  10.265  28.848  1.00  0.00     0.033 A 
HETATM   18  C17 UNL     1      27.523  11.636  29.065  1.00  0.00     0.005 A 
ENDROOT
BRANCH  18  19
HETATM   19  C18 UNL     1      28.569  12.196  29.526  1.00  0.00     0.119 C 
HETATM   20  N3  UNL     1      29.346  12.368  30.631  1.00  0.00    -0.318 N 
ATOM     21  H3  UNL     1      29.913  11.597  30.985  1.00  0.00     0.185 HD
BRANCH  20  22
HETATM   22  N4  UNL     1      29.359  13.521  31.230  1.00  0.00    -0.345 N 
ATOM     23  H42 UNL     1      29.930  14.275  30.849  1.00  0.00     0.176 HD
ATOM     24  H41 UNL     1      28.797  13.655  32.071  1.00  0.00     0.176 HD
ENDBRANCH  20  22
ENDBRANCH  18  19
BRANCH   5  25
HETATM   25  C6  UNL     1      23.826  10.059  27.463  1.00  0.00     0.037 C 
HETATM   26  C7  UNL     1      22.898   9.525  28.525  1.00  0.00     0.010 C 
ENDBRANCH   5  25
BRANCH  12  27
HETATM   27  C12 UNL     1      29.867   5.341  29.272  1.00  0.00     0.157 C 
BRANCH  27  28
HETATM   28  C13 UNL     1      31.071   5.278  28.409  1.00  0.00     0.177 C 
HETATM   29  O2  UNL     1      32.032   4.539  28.713  1.00  0.00    -0.648 OA
HETATM   30  O3  UNL     1      31.100   6.055  27.267  1.00  0.00    -0.648 OA
ENDBRANCH  27  28
ENDBRANCH  12  27
TORSDOF 5
ENDMDL
