MODEL 1
REMARK VINA RESULT: -6.500287125      0.000      0.000
REMARK  11 active torsions:
REMARK  status: ('A' for Active; 'I' for Inactive)
REMARK    1  A    between atoms: C1_2  and  C2_3 
REMARK       I    between atoms: C1_2  and  N1_12 
REMARK    2  A    between atoms: C2_3  and  C3_4 
REMARK    3  A    between atoms: N1_12  and  C9_14 
REMARK    4  A    between atoms: C9_14  and  C10_15 
REMARK    5  A    between atoms: C10_15  and  N2_16 
REMARK    6  A    between atoms: N2_16  and  C11_18 
REMARK    7  A    between atoms: C15_28  and  N5_29 
REMARK    8  A    between atoms: N5_29  and  C16_31 
REMARK    9  A    between atoms: C16_31  and  C17_32 
REMARK   10  A    between atoms: C17_32  and  C18_33 
REMARK   11  A    between atoms: C18_33  and  C19_34 
ROOT
HETATM    1  C11 UNL     1      40.167  18.853  38.487  1.00  0.00     0.148 C 
HETATM    2  N3  UNL     1      41.220  19.587  38.053  1.00  0.00    -0.304 N 
ATOM      3  H3  UNL     1      42.105  19.086  37.969  1.00  0.00     0.171 HD
HETATM    4  C12 UNL     1      41.253  20.881  37.720  1.00  0.00     0.287 C 
HETATM    5  O2  UNL     1      42.426  21.335  37.587  1.00  0.00    -0.265 OA
HETATM    6  C13 UNL     1      40.212  21.776  37.504  1.00  0.00     0.199 C 
HETATM    7  F3  UNL     1      40.568  23.027  37.178  1.00  0.00    -0.199 F 
HETATM    8  C14 UNL     1      38.862  21.520  37.586  1.00  0.00     0.138 C 
HETATM    9  N4  UNL     1      38.301  20.370  38.000  1.00  0.00    -0.346 N 
ATOM     10  H4  UNL     1      37.301  20.436  38.189  1.00  0.00     0.167 HD
HETATM   11  C15 UNL     1      38.825  19.151  38.210  1.00  0.00     0.145 C 
ENDROOT
BRANCH   1  12
HETATM   12  N2  UNL     1      40.381  17.807  39.203  1.00  0.00    -0.372 N 
ATOM     13  H2  UNL     1      39.706  17.590  39.936  1.00  0.00     0.161 HD
BRANCH  12  14
HETATM   14  C10 UNL     1      41.500  16.925  39.046  1.00  0.00     0.141 C 
BRANCH  14  15
HETATM   15  C9  UNL     1      41.066  15.500  39.272  1.00  0.00     0.142 C 
BRANCH  15  16
HETATM   16  N1  UNL     1      39.668  15.328  38.939  1.00  0.00    -0.359 N 
HETATM   17  C1  UNL     1      38.827  14.426  39.629  1.00  0.00     0.221 C 
HETATM   18  O1  UNL     1      39.299  13.731  40.582  1.00  0.00    -0.273 OA
ATOM     19  H1  UNL     1      39.275  15.879  38.176  1.00  0.00     0.162 HD
BRANCH  17  20
HETATM   20  C2  UNL     1      37.406  14.317  39.218  1.00  0.00     0.141 C 
BRANCH  20  21
HETATM   21  C3  UNL     1      36.487  14.608  40.347  1.00  0.00    -0.044 A 
HETATM   22  C4  UNL     1      35.624  13.682  40.888  1.00  0.00     0.050 A 
HETATM   23  C5  UNL     1      34.798  14.030  41.939  1.00  0.00     0.119 A 
HETATM   24  F1  UNL     1      33.937  13.103  42.479  1.00  0.00    -0.206 F 
HETATM   25  C6  UNL     1      34.818  15.310  42.471  1.00  0.00     0.084 A 
HETATM   26  C7  UNL     1      35.677  16.234  41.935  1.00  0.00     0.119 A 
HETATM   27  F2  UNL     1      35.688  17.481  42.461  1.00  0.00    -0.206 F 
HETATM   28  C8  UNL     1      36.499  15.882  40.884  1.00  0.00     0.050 A 
ENDBRANCH  20  21
ENDBRANCH  17  20
ENDBRANCH  15  16
ENDBRANCH  14  15
ENDBRANCH  12  14
ENDBRANCH   1  12
BRANCH  11  29
HETATM   29  N5  UNL     1      38.059  18.142  38.165  1.00  0.00    -0.373 N 
ATOM     30  H5  UNL     1      37.901  17.649  39.044  1.00  0.00     0.161 HD
BRANCH  29  31
HETATM   31  C16 UNL     1      37.395  17.623  37.016  1.00  0.00     0.121 C 
BRANCH  31  32
HETATM   32  C17 UNL     1      35.993  17.136  37.268  1.00  0.00     0.024 C 
BRANCH  32  33
HETATM   33  C18 UNL     1      35.304  18.169  38.130  1.00  0.00     0.040 C 
BRANCH  33  34
HETATM   34  C19 UNL     1      34.175  17.603  38.895  1.00  0.00    -0.058 A 
HETATM   35  C20 UNL     1      33.726  16.309  38.712  1.00  0.00     0.007 A 
HETATM   36  C21 UNL     1      32.681  15.767  39.413  1.00  0.00     0.001 A 
HETATM   37  C22 UNL     1      32.039  16.555  40.354  1.00  0.00     0.000 A 
HETATM   38  C23 UNL     1      32.453  17.856  40.573  1.00  0.00     0.001 A 
HETATM   39  C24 UNL     1      33.525  18.374  39.836  1.00  0.00     0.007 A 
ENDBRANCH  33  34
ENDBRANCH  32  33
ENDBRANCH  31  32
ENDBRANCH  29  31
ENDBRANCH  11  29
TORSDOF 11
ENDMDL
MODEL 2
REMARK VINA RESULT: -6.496942294      2.479      5.021
REMARK  11 active torsions:
REMARK  status: ('A' for Active; 'I' for Inactive)
REMARK    1  A    between atoms: C1_2  and  C2_3 
REMARK       I    between atoms: C1_2  and  N1_12 
REMARK    2  A    between atoms: C2_3  and  C3_4 
REMARK    3  A    between atoms: N1_12  and  C9_14 
REMARK    4  A    between atoms: C9_14  and  C10_15 
REMARK    5  A    between atoms: C10_15  and  N2_16 
REMARK    6  A    between atoms: N2_16  and  C11_18 
REMARK    7  A    between atoms: C15_28  and  N5_29 
REMARK    8  A    between atoms: N5_29  and  C16_31 
REMARK    9  A    between atoms: C16_31  and  C17_32 
REMARK   10  A    between atoms: C17_32  and  C18_33 
REMARK   11  A    between atoms: C18_33  and  C19_34 
ROOT
HETATM    1  C11 UNL     1      41.943  20.963  37.256  1.00  0.00     0.148 C 
HETATM    2  N3  UNL     1      42.689  22.009  36.821  1.00  0.00    -0.304 N 
ATOM      3  H3  UNL     1      42.660  22.845  37.404  1.00  0.00     0.171 HD
HETATM    4  C12 UNL     1      43.457  22.088  35.731  1.00  0.00     0.287 C 
HETATM    5  O2  UNL     1      43.832  23.266  35.466  1.00  0.00    -0.265 OA
HETATM    6  C13 UNL     1      43.891  21.088  34.867  1.00  0.00     0.199 C 
HETATM    7  F3  UNL     1      44.662  21.485  33.845  1.00  0.00    -0.199 F 
HETATM    8  C14 UNL     1      43.618  19.742  34.948  1.00  0.00     0.138 C 
HETATM    9  N4  UNL     1      42.784  19.156  35.825  1.00  0.00    -0.346 N 
ATOM     10  H4  UNL     1      42.552  18.188  35.603  1.00  0.00     0.167 HD
HETATM   11  C15 UNL     1      42.200  19.622  36.942  1.00  0.00     0.145 C 
ENDROOT
BRANCH   1  12
HETATM   12  N2  UNL     1      40.925  21.187  38.007  1.00  0.00    -0.372 N 
ATOM     13  H2  UNL     1      40.913  20.751  38.929  1.00  0.00     0.161 HD
BRANCH  12  14
HETATM   14  C10 UNL     1      39.805  22.004  37.643  1.00  0.00     0.141 C 
BRANCH  14  15
HETATM   15  C9  UNL     1      38.615  21.134  37.330  1.00  0.00     0.142 C 
BRANCH  15  16
HETATM   16  N1  UNL     1      38.400  20.157  38.376  1.00  0.00    -0.359 N 
HETATM   17  C1  UNL     1      38.546  18.768  38.160  1.00  0.00     0.221 C 
HETATM   18  O1  UNL     1      38.877  18.342  37.011  1.00  0.00    -0.273 OA
ATOM     19  H1  UNL     1      38.134  20.484  39.304  1.00  0.00     0.162 HD
BRANCH  17  20
HETATM   20  C2  UNL     1      38.305  17.840  39.294  1.00  0.00     0.141 C 
BRANCH  20  21
HETATM   21  C3  UNL     1      36.854  17.632  39.529  1.00  0.00    -0.044 A 
HETATM   22  C4  UNL     1      35.998  17.095  38.594  1.00  0.00     0.050 A 
HETATM   23  C5  UNL     1      34.658  16.932  38.887  1.00  0.00     0.119 A 
HETATM   24  F1  UNL     1      33.805  16.396  37.952  1.00  0.00    -0.206 F 
HETATM   25  C6  UNL     1      34.146  17.301  40.122  1.00  0.00     0.084 A 
HETATM   26  C7  UNL     1      34.997  17.835  41.055  1.00  0.00     0.119 A 
HETATM   27  F2  UNL     1      34.487  18.192  42.257  1.00  0.00    -0.206 F 
HETATM   28  C8  UNL     1      36.334  17.996  40.757  1.00  0.00     0.050 A 
ENDBRANCH  20  21
ENDBRANCH  17  20
ENDBRANCH  15  16
ENDBRANCH  14  15
ENDBRANCH  12  14
ENDBRANCH   1  12
BRANCH  11  29
HETATM   29  N5  UNL     1      41.828  18.793  37.827  1.00  0.00    -0.373 N 
ATOM     30  H5  UNL     1      41.010  19.051  38.378  1.00  0.00     0.161 HD
BRANCH  29  31
HETATM   31  C16 UNL     1      42.430  17.538  38.131  1.00  0.00     0.121 C 
BRANCH  31  32
HETATM   32  C17 UNL     1      41.873  16.852  39.350  1.00  0.00     0.024 C 
BRANCH  32  33
HETATM   33  C18 UNL     1      41.846  15.368  39.059  1.00  0.00     0.040 C 
BRANCH  33  34
HETATM   34  C19 UNL     1      40.477  14.867  38.819  1.00  0.00    -0.058 A 
HETATM   35  C20 UNL     1      39.741  14.218  39.792  1.00  0.00     0.007 A 
HETATM   36  C21 UNL     1      38.471  13.745  39.587  1.00  0.00     0.001 A 
HETATM   37  C22 UNL     1      37.893  13.927  38.340  1.00  0.00     0.000 A 
HETATM   38  C23 UNL     1      38.592  14.572  37.336  1.00  0.00     0.001 A 
HETATM   39  C24 UNL     1      39.888  15.039  37.584  1.00  0.00     0.007 A 
ENDBRANCH  33  34
ENDBRANCH  32  33
ENDBRANCH  31  32
ENDBRANCH  29  31
ENDBRANCH  11  29
TORSDOF 11
ENDMDL
MODEL 3
REMARK VINA RESULT: -6.470907158      1.683      2.129
REMARK  11 active torsions:
REMARK  status: ('A' for Active; 'I' for Inactive)
REMARK    1  A    between atoms: C1_2  and  C2_3 
REMARK       I    between atoms: C1_2  and  N1_12 
REMARK    2  A    between atoms: C2_3  and  C3_4 
REMARK    3  A    between atoms: N1_12  and  C9_14 
REMARK    4  A    between atoms: C9_14  and  C10_15 
REMARK    5  A    between atoms: C10_15  and  N2_16 
REMARK    6  A    between atoms: N2_16  and  C11_18 
REMARK    7  A    between atoms: C15_28  and  N5_29 
REMARK    8  A    between atoms: N5_29  and  C16_31 
REMARK    9  A    between atoms: C16_31  and  C17_32 
REMARK   10  A    between atoms: C17_32  and  C18_33 
REMARK   11  A    between atoms: C18_33  and  C19_34 
ROOT
HETATM    1  C11 UNL     1      41.001  19.471  37.143  1.00  0.00     0.148 C 
HETATM    2  N3  UNL     1      42.027  20.217  36.667  1.00  0.00    -0.304 N 
ATOM      3  H3  UNL     1      42.789  19.696  36.233  1.00  0.00     0.171 HD
HETATM    4  C12 UNL     1      42.173  21.545  36.692  1.00  0.00     0.287 C 
HETATM    5  O2  UNL     1      43.341  21.928  36.391  1.00  0.00    -0.265 OA
HETATM    6  C13 UNL     1      41.251  22.542  36.992  1.00  0.00     0.199 C 
HETATM    7  F3  UNL     1      41.703  23.802  36.930  1.00  0.00    -0.199 F 
HETATM    8  C14 UNL     1      39.930  22.376  37.342  1.00  0.00     0.138 C 
HETATM    9  N4  UNL     1      39.314  21.202  37.565  1.00  0.00    -0.346 N 
ATOM     10  H4  UNL     1      38.401  21.286  38.010  1.00  0.00     0.167 HD
HETATM   11  C15 UNL     1      39.689  19.938  37.304  1.00  0.00     0.145 C 
ENDROOT
BRANCH   1  12
HETATM   12  N2  UNL     1      41.214  18.249  37.478  1.00  0.00    -0.372 N 
ATOM     13  H2  UNL     1      40.857  17.520  36.860  1.00  0.00     0.161 HD
BRANCH  12  14
HETATM   14  C10 UNL     1      41.918  17.835  38.656  1.00  0.00     0.141 C 
BRANCH  14  15
HETATM   15  C9  UNL     1      41.352  16.533  39.161  1.00  0.00     0.142 C 
BRANCH  15  16
HETATM   16  N1  UNL     1      39.960  16.398  38.791  1.00  0.00    -0.359 N 
HETATM   17  C1  UNL     1      39.411  15.181  38.326  1.00  0.00     0.221 C 
HETATM   18  O1  UNL     1      40.154  14.156  38.224  1.00  0.00    -0.273 OA
ATOM     19  H1  UNL     1      39.351  17.212  38.869  1.00  0.00     0.162 HD
BRANCH  17  20
HETATM   20  C2  UNL     1      37.971  15.137  37.970  1.00  0.00     0.141 C 
BRANCH  20  21
HETATM   21  C3  UNL     1      37.137  14.708  39.121  1.00  0.00    -0.044 A 
HETATM   22  C4  UNL     1      37.654  14.332  40.341  1.00  0.00     0.050 A 
HETATM   23  C5  UNL     1      36.813  13.945  41.365  1.00  0.00     0.119 A 
HETATM   24  F1  UNL     1      37.331  13.571  42.583  1.00  0.00    -0.206 F 
HETATM   25  C6  UNL     1      35.437  13.926  41.193  1.00  0.00     0.084 A 
HETATM   26  C7  UNL     1      34.920  14.301  39.980  1.00  0.00     0.119 A 
HETATM   27  F2  UNL     1      33.576  14.279  39.821  1.00  0.00    -0.206 F 
HETATM   28  C8  UNL     1      35.765  14.686  38.959  1.00  0.00     0.050 A 
ENDBRANCH  20  21
ENDBRANCH  17  20
ENDBRANCH  15  16
ENDBRANCH  14  15
ENDBRANCH  12  14
ENDBRANCH   1  12
BRANCH  11  29
HETATM   29  N5  UNL     1      38.794  19.048  37.188  1.00  0.00    -0.373 N 
ATOM     30  H5  UNL     1      39.057  18.100  37.456  1.00  0.00     0.161 HD
BRANCH  29  31
HETATM   31  C16 UNL     1      37.459  19.232  36.724  1.00  0.00     0.121 C 
BRANCH  31  32
HETATM   32  C17 UNL     1      36.405  18.555  37.559  1.00  0.00     0.024 C 
BRANCH  32  33
HETATM   33  C18 UNL     1      36.909  18.523  38.983  1.00  0.00     0.040 C 
BRANCH  33  34
HETATM   34  C19 UNL     1      35.856  18.140  39.945  1.00  0.00    -0.058 A 
HETATM   35  C20 UNL     1      34.512  18.172  39.629  1.00  0.00     0.007 A 
HETATM   36  C21 UNL     1      33.521  17.820  40.508  1.00  0.00     0.001 A 
HETATM   37  C22 UNL     1      33.884  17.412  41.782  1.00  0.00     0.000 A 
HETATM   38  C23 UNL     1      35.218  17.364  42.144  1.00  0.00     0.001 A 
HETATM   39  C24 UNL     1      36.201  17.731  41.217  1.00  0.00     0.007 A 
ENDBRANCH  33  34
ENDBRANCH  32  33
ENDBRANCH  31  32
ENDBRANCH  29  31
ENDBRANCH  11  29
TORSDOF 11
ENDMDL
MODEL 4
REMARK VINA RESULT: -6.438205601      2.764      6.416
REMARK  11 active torsions:
REMARK  status: ('A' for Active; 'I' for Inactive)
REMARK    1  A    between atoms: C1_2  and  C2_3 
REMARK       I    between atoms: C1_2  and  N1_12 
REMARK    2  A    between atoms: C2_3  and  C3_4 
REMARK    3  A    between atoms: N1_12  and  C9_14 
REMARK    4  A    between atoms: C9_14  and  C10_15 
REMARK    5  A    between atoms: C10_15  and  N2_16 
REMARK    6  A    between atoms: N2_16  and  C11_18 
REMARK    7  A    between atoms: C15_28  and  N5_29 
REMARK    8  A    between atoms: N5_29  and  C16_31 
REMARK    9  A    between atoms: C16_31  and  C17_32 
REMARK   10  A    between atoms: C17_32  and  C18_33 
REMARK   11  A    between atoms: C18_33  and  C19_34 
ROOT
HETATM    1  C11 UNL     1      41.632  20.852  37.463  1.00  0.00     0.148 C 
HETATM    2  N3  UNL     1      42.428  21.844  36.993  1.00  0.00    -0.304 N 
ATOM      3  H3  UNL     1      42.374  22.730  37.494  1.00  0.00     0.171 HD
HETATM    4  C12 UNL     1      43.275  21.813  35.960  1.00  0.00     0.287 C 
HETATM    5  O2  UNL     1      43.693  22.957  35.619  1.00  0.00    -0.265 OA
HETATM    6  C13 UNL     1      43.752  20.733  35.225  1.00  0.00     0.199 C 
HETATM    7  F3  UNL     1      44.603  21.025  34.231  1.00  0.00    -0.199 F 
HETATM    8  C14 UNL     1      43.447  19.403  35.405  1.00  0.00     0.138 C 
HETATM    9  N4  UNL     1      42.539  18.911  36.267  1.00  0.00    -0.346 N 
ATOM     10  H4  UNL     1      42.306  17.930  36.116  1.00  0.00     0.167 HD
HETATM   11  C15 UNL     1      41.885  19.484  37.292  1.00  0.00     0.145 C 
ENDROOT
BRANCH   1  12
HETATM   12  N2  UNL     1      40.566  21.157  38.113  1.00  0.00    -0.372 N 
ATOM     13  H2  UNL     1      40.455  20.765  39.048  1.00  0.00     0.161 HD
BRANCH  12  14
HETATM   14  C10 UNL     1      39.523  22.008  37.620  1.00  0.00     0.141 C 
BRANCH  14  15
HETATM   15  C9  UNL     1      38.334  21.176  37.210  1.00  0.00     0.142 C 
BRANCH  15  16
HETATM   16  N1  UNL     1      38.183  20.030  38.080  1.00  0.00    -0.359 N 
HETATM   17  C1  UNL     1      37.768  18.765  37.605  1.00  0.00     0.221 C 
HETATM   18  O1  UNL     1      37.515  18.610  36.370  1.00  0.00    -0.273 OA
ATOM     19  H1  UNL     1      38.383  20.139  39.074  1.00  0.00     0.162 HD
BRANCH  17  20
HETATM   20  C2  UNL     1      37.641  17.646  38.571  1.00  0.00     0.141 C 
BRANCH  20  21
HETATM   21  C3  UNL     1      36.454  17.815  39.448  1.00  0.00    -0.044 A 
HETATM   22  C4  UNL     1      35.223  18.233  38.995  1.00  0.00     0.050 A 
HETATM   23  C5  UNL     1      34.166  18.367  39.873  1.00  0.00     0.119 A 
HETATM   24  F1  UNL     1      32.937  18.785  39.419  1.00  0.00    -0.206 F 
HETATM   25  C6  UNL     1      34.317  18.086  41.223  1.00  0.00     0.084 A 
HETATM   26  C7  UNL     1      35.541  17.668  41.676  1.00  0.00     0.119 A 
HETATM   27  F2  UNL     1      35.678  17.396  42.995  1.00  0.00    -0.206 F 
HETATM   28  C8  UNL     1      36.595  17.537  40.795  1.00  0.00     0.050 A 
ENDBRANCH  20  21
ENDBRANCH  17  20
ENDBRANCH  15  16
ENDBRANCH  14  15
ENDBRANCH  12  14
ENDBRANCH   1  12
BRANCH  11  29
HETATM   29  N5  UNL     1      41.433  18.744  38.217  1.00  0.00    -0.373 N 
ATOM     30  H5  UNL     1      40.424  18.764  38.363  1.00  0.00     0.161 HD
BRANCH  29  31
HETATM   31  C16 UNL     1      42.185  17.888  39.073  1.00  0.00     0.121 C 
BRANCH  31  32
HETATM   32  C17 UNL     1      41.678  16.473  39.148  1.00  0.00     0.024 C 
BRANCH  32  33
HETATM   33  C18 UNL     1      42.869  15.582  39.417  1.00  0.00     0.040 C 
BRANCH  33  34
HETATM   34  C19 UNL     1      43.375  14.932  38.191  1.00  0.00    -0.058 A 
HETATM   35  C20 UNL     1      42.643  13.993  37.489  1.00  0.00     0.007 A 
HETATM   36  C21 UNL     1      43.096  13.380  36.350  1.00  0.00     0.001 A 
HETATM   37  C22 UNL     1      44.354  13.718  35.876  1.00  0.00     0.000 A 
HETATM   38  C23 UNL     1      45.123  14.653  36.544  1.00  0.00     0.001 A 
HETATM   39  C24 UNL     1      44.625  15.257  37.705  1.00  0.00     0.007 A 
ENDBRANCH  33  34
ENDBRANCH  32  33
ENDBRANCH  31  32
ENDBRANCH  29  31
ENDBRANCH  11  29
TORSDOF 11
ENDMDL
MODEL 5
REMARK VINA RESULT: -6.417474262      2.914      5.084
REMARK  11 active torsions:
REMARK  status: ('A' for Active; 'I' for Inactive)
REMARK    1  A    between atoms: C1_2  and  C2_3 
REMARK       I    between atoms: C1_2  and  N1_12 
REMARK    2  A    between atoms: C2_3  and  C3_4 
REMARK    3  A    between atoms: N1_12  and  C9_14 
REMARK    4  A    between atoms: C9_14  and  C10_15 
REMARK    5  A    between atoms: C10_15  and  N2_16 
REMARK    6  A    between atoms: N2_16  and  C11_18 
REMARK    7  A    between atoms: C15_28  and  N5_29 
REMARK    8  A    between atoms: N5_29  and  C16_31 
REMARK    9  A    between atoms: C16_31  and  C17_32 
REMARK   10  A    between atoms: C17_32  and  C18_33 
REMARK   11  A    between atoms: C18_33  and  C19_34 
ROOT
HETATM    1  C11 UNL     1      42.442  15.859  38.644  1.00  0.00     0.148 C 
HETATM    2  N3  UNL     1      43.666  16.052  38.093  1.00  0.00    -0.304 N 
ATOM      3  H3  UNL     1      44.206  16.828  38.474  1.00  0.00     0.171 HD
HETATM    4  C12 UNL     1      44.258  15.359  37.115  1.00  0.00     0.287 C 
HETATM    5  O2  UNL     1      45.291  15.924  36.654  1.00  0.00    -0.265 OA
HETATM    6  C13 UNL     1      43.912  14.137  36.548  1.00  0.00     0.199 C 
HETATM    7  F3  UNL     1      44.714  13.693  35.569  1.00  0.00    -0.199 F 
HETATM    8  C14 UNL     1      42.842  13.338  36.880  1.00  0.00     0.138 C 
HETATM    9  N4  UNL     1      41.865  13.648  37.750  1.00  0.00    -0.346 N 
ATOM     10  H4  UNL     1      41.057  13.027  37.713  1.00  0.00     0.167 HD
HETATM   11  C15 UNL     1      41.765  14.632  38.660  1.00  0.00     0.145 C 
ENDROOT
BRANCH   1  12
HETATM   12  N2  UNL     1      41.838  16.850  39.196  1.00  0.00    -0.372 N 
ATOM     13  H2  UNL     1      41.192  16.644  39.958  1.00  0.00     0.161 HD
BRANCH  12  14
HETATM   14  C10 UNL     1      42.007  18.222  38.818  1.00  0.00     0.141 C 
BRANCH  14  15
HETATM   15  C9  UNL     1      40.743  18.992  39.104  1.00  0.00     0.142 C 
BRANCH  15  16
HETATM   16  N1  UNL     1      39.574  18.194  38.801  1.00  0.00    -0.359 N 
HETATM   17  C1  UNL     1      38.361  18.764  38.352  1.00  0.00     0.221 C 
HETATM   18  O1  UNL     1      38.275  20.022  38.203  1.00  0.00    -0.273 OA
ATOM     19  H1  UNL     1      39.628  17.183  38.916  1.00  0.00     0.162 HD
BRANCH  17  20
HETATM   20  C2  UNL     1      37.213  17.867  38.066  1.00  0.00     0.141 C 
BRANCH  20  21
HETATM   21  C3  UNL     1      36.168  17.966  39.116  1.00  0.00    -0.044 A 
HETATM   22  C4  UNL     1      34.858  18.302  38.860  1.00  0.00     0.050 A 
HETATM   23  C5  UNL     1      33.942  18.373  39.891  1.00  0.00     0.119 A 
HETATM   24  F1  UNL     1      32.634  18.709  39.634  1.00  0.00    -0.206 F 
HETATM   25  C6  UNL     1      34.317  18.110  41.200  1.00  0.00     0.084 A 
HETATM   26  C7  UNL     1      35.621  17.775  41.458  1.00  0.00     0.119 A 
HETATM   27  F2  UNL     1      35.977  17.520  42.738  1.00  0.00    -0.206 F 
HETATM   28  C8  UNL     1      36.533  17.705  40.423  1.00  0.00     0.050 A 
ENDBRANCH  20  21
ENDBRANCH  17  20
ENDBRANCH  15  16
ENDBRANCH  14  15
ENDBRANCH  12  14
ENDBRANCH   1  12
BRANCH  11  29
HETATM   29  N5  UNL     1      40.985  14.473  39.647  1.00  0.00    -0.373 N 
ATOM     30  H5  UNL     1      41.307  14.834  40.545  1.00  0.00     0.161 HD
BRANCH  29  31
HETATM   31  C16 UNL     1      39.707  13.843  39.635  1.00  0.00     0.121 C 
BRANCH  31  32
HETATM   32  C17 UNL     1      38.554  14.766  39.341  1.00  0.00     0.024 C 
BRANCH  32  33
HETATM   33  C18 UNL     1      37.347  13.902  39.054  1.00  0.00     0.040 C 
BRANCH  33  34
HETATM   34  C19 UNL     1      36.270  14.091  40.047  1.00  0.00    -0.058 A 
HETATM   35  C20 UNL     1      36.493  14.027  41.409  1.00  0.00     0.007 A 
HETATM   36  C21 UNL     1      35.506  14.200  42.344  1.00  0.00     0.001 A 
HETATM   37  C22 UNL     1      34.217  14.452  41.903  1.00  0.00     0.000 A 
HETATM   38  C23 UNL     1      33.946  14.525  40.549  1.00  0.00     0.001 A 
HETATM   39  C24 UNL     1      34.981  14.342  39.624  1.00  0.00     0.007 A 
ENDBRANCH  33  34
ENDBRANCH  32  33
ENDBRANCH  31  32
ENDBRANCH  29  31
ENDBRANCH  11  29
TORSDOF 11
ENDMDL
