MODEL 1
REMARK VINA RESULT: -6.156919727      0.000      0.000
REMARK  8 active torsions:
REMARK  status: ('A' for Active; 'I' for Inactive)
REMARK    1  A    between atoms: C1_2  and  C2_3 
REMARK       I    between atoms: C1_2  and  N2_10 
REMARK    2  A    between atoms: N2_10  and  C6_11 
REMARK    3  A    between atoms: N2_10  and  C13_25 
REMARK    4  A    between atoms: C6_11  and  C7_12 
REMARK    5  A    between atoms: C7_12  and  O2_13 
REMARK    6  A    between atoms: C7_12  and  C8_15 
REMARK    7  A    between atoms: C8_15  and  C9_16 
REMARK    8  A    between atoms: C13_25  and  C14_26 
ROOT
HETATM    1  O1  UNL     1      36.252  13.837  40.986  1.00  0.00    -0.271 OA
HETATM    2  C1  UNL     1      36.688  14.603  40.049  1.00  0.00     0.254 C 
HETATM    3  N2  UNL     1      36.022  15.830  39.767  1.00  0.00    -0.319 N 
ENDROOT
BRANCH   3   4
HETATM    4  C6  UNL     1      36.455  16.610  38.668  1.00  0.00     0.163 C 
BRANCH   4   5
HETATM    5  C7  UNL     1      37.526  17.624  38.821  1.00  0.00     0.141 C 
BRANCH   5   6
HETATM    6  O2  UNL     1      36.879  18.816  39.260  1.00  0.00    -0.394 OA
ATOM      7  H2  UNL     1      37.097  18.909  40.180  1.00  0.00     0.210 HD
ENDBRANCH   5   6
BRANCH   5   8
HETATM    8  C8  UNL     1      38.392  17.930  37.654  1.00  0.00     0.077 C 
BRANCH   8   9
HETATM    9  C9  UNL     1      39.368  19.037  37.977  1.00  0.00     0.008 A 
HETATM   10  C10 UNL     1      40.576  18.975  38.613  1.00  0.00     0.112 A 
HETATM   11 CL1  UNL     1      41.344  17.583  39.285  1.00  0.00    -0.064 Cl
HETATM   12  N3  UNL     1      41.079  20.217  38.646  1.00  0.00    -0.336 N 
HETATM   13  C11 UNL     1      40.235  21.075  38.053  1.00  0.00     0.127 A 
ATOM     14  H3  UNL     1      41.975  20.473  39.062  1.00  0.00     0.168 HD
HETATM   15 CL2  UNL     1      40.470  22.822  37.855  1.00  0.00    -0.063 Cl
HETATM   16  C12 UNL     1      39.152  20.348  37.627  1.00  0.00     0.082 A 
HETATM   17 CL3  UNL     1      37.752  20.993  36.786  1.00  0.00    -0.080 Cl
ENDBRANCH   8   9
ENDBRANCH   5   8
ENDBRANCH   4   5
ENDBRANCH   3   4
BRANCH   3  18
HETATM   18  C13 UNL     1      35.065  16.234  40.749  1.00  0.00     0.182 C 
BRANCH  18  19
HETATM   19  C14 UNL     1      35.376  17.064  41.895  1.00  0.00     0.422 C 
HETATM   20  F1  UNL     1      34.443  18.040  42.216  1.00  0.00    -0.166 F 
HETATM   21  F2  UNL     1      36.618  17.514  42.137  1.00  0.00    -0.166 F 
HETATM   22  F3  UNL     1      35.171  16.157  43.033  1.00  0.00    -0.166 F 
ENDBRANCH  18  19
ENDBRANCH   3  18
BRANCH   2  23
HETATM   23  C2  UNL     1      37.859  14.129  39.340  1.00  0.00     0.277 C 
HETATM   24  C3  UNL     1      38.716  13.147  40.162  1.00  0.00     0.044 C 
HETATM   25  C4  UNL     1      39.638  12.616  39.052  1.00  0.00     0.030 C 
HETATM   26  C5  UNL     1      38.724  12.572  37.874  1.00  0.00     0.233 C 
HETATM   27  N1  UNL     1      37.469  13.157  38.281  1.00  0.00    -0.062 N 
ATOM     28  H12 UNL     1      36.762  12.480  38.569  1.00  0.00     0.278 HD
ATOM     29  H11 UNL     1      36.925  13.561  37.518  1.00  0.00     0.278 HD
ENDBRANCH   2  23
TORSDOF 8
ENDMDL
MODEL 2
REMARK VINA RESULT: -6.084929563      4.693      7.556
REMARK  8 active torsions:
REMARK  status: ('A' for Active; 'I' for Inactive)
REMARK    1  A    between atoms: C1_2  and  C2_3 
REMARK       I    between atoms: C1_2  and  N2_10 
REMARK    2  A    between atoms: N2_10  and  C6_11 
REMARK    3  A    between atoms: N2_10  and  C13_25 
REMARK    4  A    between atoms: C6_11  and  C7_12 
REMARK    5  A    between atoms: C7_12  and  O2_13 
REMARK    6  A    between atoms: C7_12  and  C8_15 
REMARK    7  A    between atoms: C8_15  and  C9_16 
REMARK    8  A    between atoms: C13_25  and  C14_26 
ROOT
HETATM    1  O1  UNL     1      43.185  22.392  35.714  1.00  0.00    -0.271 OA
HETATM    2  C1  UNL     1      42.824  21.190  35.995  1.00  0.00     0.254 C 
HETATM    3  N2  UNL     1      42.124  20.924  37.206  1.00  0.00    -0.319 N 
ENDROOT
BRANCH   3   4
HETATM    4  C6  UNL     1      41.823  19.582  37.545  1.00  0.00     0.163 C 
BRANCH   4   5
HETATM    5  C7  UNL     1      40.737  19.257  38.501  1.00  0.00     0.141 C 
BRANCH   5   6
HETATM    6  O2  UNL     1      41.374  19.011  39.752  1.00  0.00    -0.394 OA
ATOM      7  H2  UNL     1      40.681  18.998  40.401  1.00  0.00     0.210 HD
ENDBRANCH   5   6
BRANCH   5   8
HETATM    8  C8  UNL     1      39.818  18.134  38.182  1.00  0.00     0.077 C 
BRANCH   8   9
HETATM    9  C9  UNL     1      38.469  18.647  37.734  1.00  0.00     0.008 A 
HETATM   10  C10 UNL     1      37.296  18.732  38.430  1.00  0.00     0.112 A 
HETATM   11 CL1  UNL     1      36.992  18.230  40.053  1.00  0.00    -0.064 Cl
HETATM   12  N3  UNL     1      36.381  19.274  37.612  1.00  0.00    -0.336 N 
HETATM   13  C11 UNL     1      36.927  19.539  36.417  1.00  0.00     0.127 A 
ATOM     14  H3  UNL     1      35.409  19.458  37.864  1.00  0.00     0.168 HD
HETATM   15 CL2  UNL     1      36.109  20.257  35.017  1.00  0.00    -0.063 Cl
HETATM   16  C12 UNL     1      38.241  19.149  36.476  1.00  0.00     0.082 A 
HETATM   17 CL3  UNL     1      39.409  19.279  35.170  1.00  0.00    -0.080 Cl
ENDBRANCH   8   9
ENDBRANCH   5   8
ENDBRANCH   4   5
ENDBRANCH   3   4
BRANCH   3  18
HETATM   18  C13 UNL     1      41.644  22.083  37.891  1.00  0.00     0.182 C 
BRANCH  18  19
HETATM   19  C14 UNL     1      40.408  22.766  37.565  1.00  0.00     0.422 C 
HETATM   20  F1  UNL     1      39.239  22.045  37.762  1.00  0.00    -0.166 F 
HETATM   21  F2  UNL     1      40.288  23.555  36.484  1.00  0.00    -0.166 F 
HETATM   22  F3  UNL     1      40.268  23.745  38.653  1.00  0.00    -0.166 F 
ENDBRANCH  18  19
ENDBRANCH   3  18
BRANCH   2  23
HETATM   23  C2  UNL     1      43.176  20.180  35.017  1.00  0.00     0.277 C 
HETATM   24  C3  UNL     1      42.990  20.647  33.560  1.00  0.00     0.044 C 
HETATM   25  C4  UNL     1      43.729  19.516  32.829  1.00  0.00     0.030 C 
HETATM   26  C5  UNL     1      44.854  19.216  33.762  1.00  0.00     0.233 C 
HETATM   27  N1  UNL     1      44.654  20.015  34.947  1.00  0.00    -0.062 N 
ATOM     28  H12 UNL     1      45.177  20.891  34.958  1.00  0.00     0.278 HD
ATOM     29  H11 UNL     1      45.075  19.628  35.792  1.00  0.00     0.278 HD
ENDBRANCH   2  23
TORSDOF 8
ENDMDL
MODEL 3
REMARK VINA RESULT: -6.075798798      5.725      7.221
REMARK  8 active torsions:
REMARK  status: ('A' for Active; 'I' for Inactive)
REMARK    1  A    between atoms: C1_2  and  C2_3 
REMARK       I    between atoms: C1_2  and  N2_10 
REMARK    2  A    between atoms: N2_10  and  C6_11 
REMARK    3  A    between atoms: N2_10  and  C13_25 
REMARK    4  A    between atoms: C6_11  and  C7_12 
REMARK    5  A    between atoms: C7_12  and  O2_13 
REMARK    6  A    between atoms: C7_12  and  C8_15 
REMARK    7  A    between atoms: C8_15  and  C9_16 
REMARK    8  A    between atoms: C13_25  and  C14_26 
ROOT
HETATM    1  O1  UNL     1      42.530  21.369  37.479  1.00  0.00    -0.271 OA
HETATM    2  C1  UNL     1      41.350  20.864  37.569  1.00  0.00     0.254 C 
HETATM    3  N2  UNL     1      40.207  21.701  37.431  1.00  0.00    -0.319 N 
ENDROOT
BRANCH   3   4
HETATM    4  C6  UNL     1      38.920  21.147  37.634  1.00  0.00     0.163 C 
BRANCH   4   5
HETATM    5  C7  UNL     1      38.065  20.754  36.489  1.00  0.00     0.141 C 
BRANCH   5   6
HETATM    6  O2  UNL     1      36.720  20.841  36.954  1.00  0.00    -0.394 OA
ATOM      7  H2  UNL     1      36.420  19.946  37.055  1.00  0.00     0.210 HD
ENDBRANCH   5   6
BRANCH   5   8
HETATM    8  C8  UNL     1      38.285  19.429  35.853  1.00  0.00     0.077 C 
BRANCH   8   9
HETATM    9  C9  UNL     1      38.380  19.557  34.351  1.00  0.00     0.008 A 
HETATM   10  C10 UNL     1      39.478  19.763  33.562  1.00  0.00     0.112 A 
HETATM   11 CL1  UNL     1      41.114  19.982  34.067  1.00  0.00    -0.064 Cl
HETATM   12  N3  UNL     1      39.061  19.784  32.288  1.00  0.00    -0.336 N 
HETATM   13  C11 UNL     1      37.734  19.600  32.232  1.00  0.00     0.127 A 
ATOM     14  H3  UNL     1      39.666  19.922  31.478  1.00  0.00     0.168 HD
HETATM   15 CL2  UNL     1      36.734  19.551  30.768  1.00  0.00    -0.063 Cl
HETATM   16  C12 UNL     1      37.290  19.456  33.522  1.00  0.00     0.082 A 
HETATM   17 CL3  UNL     1      35.623  19.189  34.009  1.00  0.00    -0.080 Cl
ENDBRANCH   8   9
ENDBRANCH   5   8
ENDBRANCH   4   5
ENDBRANCH   3   4
BRANCH   3  18
HETATM   18  C13 UNL     1      40.479  23.012  36.929  1.00  0.00     0.182 C 
BRANCH  18  19
HETATM   19  C14 UNL     1      40.772  24.159  37.765  1.00  0.00     0.422 C 
HETATM   20  F1  UNL     1      41.211  23.882  39.052  1.00  0.00    -0.166 F 
HETATM   21  F2  UNL     1      40.005  25.261  37.765  1.00  0.00    -0.166 F 
HETATM   22  F3  UNL     1      42.023  24.679  37.195  1.00  0.00    -0.166 F 
ENDBRANCH  18  19
ENDBRANCH   3  18
BRANCH   2  23
HETATM   23  C2  UNL     1      41.292  19.437  37.814  1.00  0.00     0.277 C 
HETATM   24  C3  UNL     1      42.416  18.649  37.114  1.00  0.00     0.044 C 
HETATM   25  C4  UNL     1      42.258  17.292  37.819  1.00  0.00     0.030 C 
HETATM   26  C5  UNL     1      41.886  17.695  39.206  1.00  0.00     0.233 C 
HETATM   27  N1  UNL     1      41.721  19.129  39.207  1.00  0.00    -0.062 N 
ATOM     28  H12 UNL     1      42.542  19.647  39.520  1.00  0.00     0.278 HD
ATOM     29  H11 UNL     1      41.091  19.480  39.929  1.00  0.00     0.278 HD
ENDBRANCH   2  23
TORSDOF 8
ENDMDL
MODEL 4
REMARK VINA RESULT: -5.987547023      5.041      8.123
REMARK  8 active torsions:
REMARK  status: ('A' for Active; 'I' for Inactive)
REMARK    1  A    between atoms: C1_2  and  C2_3 
REMARK       I    between atoms: C1_2  and  N2_10 
REMARK    2  A    between atoms: N2_10  and  C6_11 
REMARK    3  A    between atoms: N2_10  and  C13_25 
REMARK    4  A    between atoms: C6_11  and  C7_12 
REMARK    5  A    between atoms: C7_12  and  O2_13 
REMARK    6  A    between atoms: C7_12  and  C8_15 
REMARK    7  A    between atoms: C8_15  and  C9_16 
REMARK    8  A    between atoms: C13_25  and  C14_26 
ROOT
HETATM    1  O1  UNL     1      43.668  22.928  35.198  1.00  0.00    -0.271 OA
HETATM    2  C1  UNL     1      43.495  21.710  35.572  1.00  0.00     0.254 C 
HETATM    3  N2  UNL     1      42.316  21.345  36.282  1.00  0.00    -0.319 N 
ENDROOT
BRANCH   3   4
HETATM    4  C6  UNL     1      42.191  20.023  36.772  1.00  0.00     0.163 C 
BRANCH   4   5
HETATM    5  C7  UNL     1      41.127  19.660  37.739  1.00  0.00     0.141 C 
BRANCH   5   6
HETATM    6  O2  UNL     1      41.786  19.435  38.983  1.00  0.00    -0.394 OA
ATOM      7  H2  UNL     1      41.927  20.294  39.364  1.00  0.00     0.210 HD
ENDBRANCH   5   6
BRANCH   5   8
HETATM    8  C8  UNL     1      40.243  18.507  37.430  1.00  0.00     0.077 C 
BRANCH   8   9
HETATM    9  C9  UNL     1      38.829  18.964  37.158  1.00  0.00     0.008 A 
HETATM   10  C10 UNL     1      37.743  18.973  37.987  1.00  0.00     0.112 A 
HETATM   11 CL1  UNL     1      37.655  18.414  39.618  1.00  0.00    -0.064 Cl
HETATM   12  N3  UNL     1      36.715  19.491  37.298  1.00  0.00    -0.336 N 
HETATM   13  C11 UNL     1      37.104  19.813  36.057  1.00  0.00     0.127 A 
ATOM     14  H3  UNL     1      35.772  19.620  37.667  1.00  0.00     0.168 HD
HETATM   15 CL2  UNL     1      36.095  20.527  34.784  1.00  0.00    -0.063 Cl
HETATM   16  C12 UNL     1      38.433  19.487  35.951  1.00  0.00     0.082 A 
HETATM   17 CL3  UNL     1      39.432  19.708  34.524  1.00  0.00    -0.080 Cl
ENDBRANCH   8   9
ENDBRANCH   5   8
ENDBRANCH   4   5
ENDBRANCH   3   4
BRANCH   3  18
HETATM   18  C13 UNL     1      41.284  22.334  36.283  1.00  0.00     0.182 C 
BRANCH  18  19
HETATM   19  C14 UNL     1      40.809  23.013  37.471  1.00  0.00     0.422 C 
HETATM   20  F1  UNL     1      40.377  24.320  37.299  1.00  0.00    -0.166 F 
HETATM   21  F2  UNL     1      41.413  22.878  38.663  1.00  0.00    -0.166 F 
HETATM   22  F3  UNL     1      39.514  22.368  37.731  1.00  0.00    -0.166 F 
ENDBRANCH  18  19
ENDBRANCH   3  18
BRANCH   2  23
HETATM   23  C2  UNL     1      44.557  20.787  35.225  1.00  0.00     0.277 C 
HETATM   24  C3  UNL     1      44.797  20.671  33.707  1.00  0.00     0.044 C 
HETATM   25  C4  UNL     1      46.133  19.911  33.713  1.00  0.00     0.030 C 
HETATM   26  C5  UNL     1      46.822  20.490  34.903  1.00  0.00     0.233 C 
HETATM   27  N1  UNL     1      45.886  21.374  35.555  1.00  0.00    -0.062 N 
ATOM     28  H12 UNL     1      45.988  22.356  35.301  1.00  0.00     0.278 HD
ATOM     29  H11 UNL     1      46.053  21.503  36.553  1.00  0.00     0.278 HD
ENDBRANCH   2  23
TORSDOF 8
ENDMDL
MODEL 5
REMARK VINA RESULT: -5.978196414      4.994      7.220
REMARK  8 active torsions:
REMARK  status: ('A' for Active; 'I' for Inactive)
REMARK    1  A    between atoms: C1_2  and  C2_3 
REMARK       I    between atoms: C1_2  and  N2_10 
REMARK    2  A    between atoms: N2_10  and  C6_11 
REMARK    3  A    between atoms: N2_10  and  C13_25 
REMARK    4  A    between atoms: C6_11  and  C7_12 
REMARK    5  A    between atoms: C7_12  and  O2_13 
REMARK    6  A    between atoms: C7_12  and  C8_15 
REMARK    7  A    between atoms: C8_15  and  C9_16 
REMARK    8  A    between atoms: C13_25  and  C14_26 
ROOT
HETATM    1  O1  UNL     1      42.603  21.411  37.406  1.00  0.00    -0.271 OA
HETATM    2  C1  UNL     1      41.416  20.931  37.528  1.00  0.00     0.254 C 
HETATM    3  N2  UNL     1      40.288  21.796  37.441  1.00  0.00    -0.319 N 
ENDROOT
BRANCH   3   4
HETATM    4  C6  UNL     1      38.996  21.267  37.678  1.00  0.00     0.163 C 
BRANCH   4   5
HETATM    5  C7  UNL     1      38.410  20.243  36.780  1.00  0.00     0.141 C 
BRANCH   5   6
HETATM    6  O2  UNL     1      38.712  20.665  35.453  1.00  0.00    -0.394 OA
ATOM      7  H2  UNL     1      37.879  20.718  34.999  1.00  0.00     0.210 HD
ENDBRANCH   5   6
BRANCH   5   8
HETATM    8  C8  UNL     1      36.958  19.946  36.889  1.00  0.00     0.077 C 
BRANCH   8   9
HETATM    9  C9  UNL     1      36.722  18.471  37.117  1.00  0.00     0.008 A 
HETATM   10  C10 UNL     1      36.579  17.783  38.289  1.00  0.00     0.112 A 
HETATM   11 CL1  UNL     1      36.666  18.407  39.896  1.00  0.00    -0.064 Cl
HETATM   12  N3  UNL     1      36.367  16.496  37.978  1.00  0.00    -0.336 N 
HETATM   13  C11 UNL     1      36.371  16.334  36.647  1.00  0.00     0.127 A 
ATOM     14  H3  UNL     1      36.225  15.747  38.656  1.00  0.00     0.168 HD
HETATM   15 CL2  UNL     1      36.133  14.813  35.766  1.00  0.00    -0.063 Cl
HETATM   16  C12 UNL     1      36.594  17.568  36.089  1.00  0.00     0.082 A 
HETATM   17 CL3  UNL     1      36.692  17.914  34.370  1.00  0.00    -0.080 Cl
ENDBRANCH   8   9
ENDBRANCH   5   8
ENDBRANCH   4   5
ENDBRANCH   3   4
BRANCH   3  18
HETATM   18  C13 UNL     1      40.573  23.108  36.951  1.00  0.00     0.182 C 
BRANCH  18  19
HETATM   19  C14 UNL     1      40.821  24.257  37.798  1.00  0.00     0.422 C 
HETATM   20  F1  UNL     1      41.219  23.984  39.099  1.00  0.00    -0.166 F 
HETATM   21  F2  UNL     1      40.038  25.348  37.773  1.00  0.00    -0.166 F 
HETATM   22  F3  UNL     1      42.083  24.797  37.272  1.00  0.00    -0.166 F 
ENDBRANCH  18  19
ENDBRANCH   3  18
BRANCH   2  23
HETATM   23  C2  UNL     1      41.332  19.502  37.752  1.00  0.00     0.277 C 
HETATM   24  C3  UNL     1      42.456  18.706  37.059  1.00  0.00     0.044 C 
HETATM   25  C4  UNL     1      42.267  17.343  37.742  1.00  0.00     0.030 C 
HETATM   26  C5  UNL     1      41.879  17.733  39.129  1.00  0.00     0.233 C 
HETATM   27  N1  UNL     1      41.735  19.169  39.147  1.00  0.00    -0.062 N 
ATOM     28  H12 UNL     1      42.559  19.670  39.479  1.00  0.00     0.278 HD
ATOM     29  H11 UNL     1      41.100  19.520  39.864  1.00  0.00     0.278 HD
ENDBRANCH   2  23
TORSDOF 8
ENDMDL
