MODEL 1
REMARK VINA RESULT: -5.033879491      0.000      0.000
REMARK  2 active torsions:
REMARK  status: ('A' for Active; 'I' for Inactive)
REMARK    1  A    between atoms: N3_4  and  N4_6 
REMARK    2  A    between atoms: N5_8  and  C2_10 
ROOT
HETATM    1  N4  UNL     1      74.049  39.333  44.036  1.00  0.00    -0.238 N 
ATOM      2  H4  UNL     1      74.874  38.872  43.651  1.00  0.00     0.208 HD
HETATM    3  N5  UNL     1      73.583  39.017  45.174  1.00  0.00    -0.257 N 
ATOM      4  H5  UNL     1      72.758  39.490  45.541  1.00  0.00     0.191 HD
ENDROOT
BRANCH   3   5
HETATM    5  C2  UNL     1      74.226  37.997  45.931  1.00  0.00     0.191 C 
HETATM    6  N6  UNL     1      75.263  38.170  46.684  1.00  0.00    -0.360 N 
HETATM    7  C3  UNL     1      75.654  36.925  47.305  1.00  0.00     0.142 C 
ATOM      8  H6  UNL     1      75.739  39.062  46.822  1.00  0.00     0.162 HD
HETATM    9  C4  UNL     1      74.974  35.909  46.416  1.00  0.00     0.142 C 
HETATM   10  N7  UNL     1      73.817  36.643  45.959  1.00  0.00    -0.360 N 
ATOM     11  H7  UNL     1      72.903  36.266  45.711  1.00  0.00     0.162 HD
ENDBRANCH   3   5
BRANCH   1  12
HETATM   12  N3  UNL     1      73.381  40.341  43.334  1.00  0.00    -0.261 N 
HETATM   13  C1  UNL     1      73.385  41.570  43.710  1.00  0.00     0.216 C 
HETATM   14  N1  UNL     1      74.092  41.935  44.888  1.00  0.00    -0.065 NA
HETATM   15  N2  UNL     1      72.668  42.509  42.914  1.00  0.00    -0.065 NA
ATOM     16  H3  UNL     1      72.869  40.091  42.488  1.00  0.00     0.190 HD
ENDBRANCH   1  12
TORSDOF 2
ENDMDL
MODEL 2
REMARK VINA RESULT: -4.959910817      0.275      1.178
REMARK  2 active torsions:
REMARK  status: ('A' for Active; 'I' for Inactive)
REMARK    1  A    between atoms: N3_4  and  N4_6 
REMARK    2  A    between atoms: N5_8  and  C2_10 
ROOT
HETATM    1  N4  UNL     1      74.048  39.319  44.080  1.00  0.00    -0.238 N 
ATOM      2  H4  UNL     1      74.872  38.842  43.712  1.00  0.00     0.208 HD
HETATM    3  N5  UNL     1      73.565  39.027  45.217  1.00  0.00    -0.257 N 
ATOM      4  H5  UNL     1      72.741  39.514  45.568  1.00  0.00     0.191 HD
ENDROOT
BRANCH   3   5
HETATM    5  C2  UNL     1      74.188  38.011  45.998  1.00  0.00     0.191 C 
HETATM    6  N6  UNL     1      73.790  36.783  46.076  1.00  0.00    -0.360 N 
HETATM    7  C3  UNL     1      74.650  36.025  46.956  1.00  0.00     0.142 C 
ATOM      8  H6  UNL     1      72.982  36.402  45.584  1.00  0.00     0.162 HD
HETATM    9  C4  UNL     1      75.321  37.121  47.753  1.00  0.00     0.142 C 
HETATM   10  N7  UNL     1      75.333  38.211  46.805  1.00  0.00    -0.360 N 
ATOM     11  H7  UNL     1      76.020  38.961  46.733  1.00  0.00     0.162 HD
ENDBRANCH   3   5
BRANCH   1  12
HETATM   12  N3  UNL     1      73.400  40.322  43.354  1.00  0.00    -0.261 N 
HETATM   13  C1  UNL     1      73.410  41.556  43.712  1.00  0.00     0.216 C 
HETATM   14  N1  UNL     1      74.106  41.932  44.894  1.00  0.00    -0.065 NA
HETATM   15  N2  UNL     1      72.714  42.491  42.893  1.00  0.00    -0.065 NA
ATOM     16  H3  UNL     1      72.896  40.064  42.505  1.00  0.00     0.190 HD
ENDBRANCH   1  12
TORSDOF 2
ENDMDL
MODEL 3
REMARK VINA RESULT: -4.778887444      1.157      1.662
REMARK  2 active torsions:
REMARK  status: ('A' for Active; 'I' for Inactive)
REMARK    1  A    between atoms: N3_4  and  N4_6 
REMARK    2  A    between atoms: N5_8  and  C2_10 
ROOT
HETATM    1  N4  UNL     1      73.423  40.769  44.965  1.00  0.00    -0.238 N 
ATOM      2  H4  UNL     1      73.915  41.139  45.779  1.00  0.00     0.208 HD
HETATM    3  N5  UNL     1      73.468  39.536  44.666  1.00  0.00    -0.257 N 
ATOM      4  H5  UNL     1      72.970  39.186  43.847  1.00  0.00     0.191 HD
ENDROOT
BRANCH   3   5
HETATM    5  C2  UNL     1      74.222  38.648  45.484  1.00  0.00     0.191 C 
HETATM    6  N6  UNL     1      74.367  37.380  45.271  1.00  0.00    -0.360 N 
HETATM    7  C3  UNL     1      75.193  36.784  46.296  1.00  0.00     0.142 C 
ATOM      8  H6  UNL     1      73.955  36.872  44.488  1.00  0.00     0.162 HD
HETATM    9  C4  UNL     1      75.106  37.811  47.401  1.00  0.00     0.142 C 
HETATM   10  N7  UNL     1      74.918  39.034  46.655  1.00  0.00    -0.360 N 
ATOM     11  H7  UNL     1      75.222  39.972  46.915  1.00  0.00     0.162 HD
ENDBRANCH   3   5
BRANCH   1  12
HETATM   12  N3  UNL     1      72.670  41.598  44.128  1.00  0.00    -0.261 N 
HETATM   13  C1  UNL     1      73.147  42.126  43.058  1.00  0.00     0.216 C 
HETATM   14  N1  UNL     1      74.498  41.866  42.698  1.00  0.00    -0.065 NA
HETATM   15  N2  UNL     1      72.284  42.954  42.285  1.00  0.00    -0.065 NA
ATOM     16  H3  UNL     1      71.700  41.793  44.378  1.00  0.00     0.190 HD
ENDBRANCH   1  12
TORSDOF 2
ENDMDL
MODEL 4
REMARK VINA RESULT: -4.724609867      3.874      5.501
REMARK  2 active torsions:
REMARK  status: ('A' for Active; 'I' for Inactive)
REMARK    1  A    between atoms: N3_4  and  N4_6 
REMARK    2  A    between atoms: N5_8  and  C2_10 
ROOT
HETATM    1  N4  UNL     1      71.994  41.002  45.550  1.00  0.00    -0.238 N 
ATOM      2  H4  UNL     1      71.045  41.088  45.184  1.00  0.00     0.208 HD
HETATM    3  N5  UNL     1      72.280  41.349  46.737  1.00  0.00    -0.257 N 
ATOM      4  H5  UNL     1      73.234  41.256  47.085  1.00  0.00     0.191 HD
ENDROOT
BRANCH   3   5
HETATM    5  C2  UNL     1      71.255  41.869  47.577  1.00  0.00     0.191 C 
HETATM    6  N6  UNL     1      70.071  41.365  47.707  1.00  0.00    -0.360 N 
HETATM    7  C3  UNL     1      69.286  42.143  48.639  1.00  0.00     0.142 C 
ATOM      8  H6  UNL     1      69.737  40.533  47.219  1.00  0.00     0.162 HD
HETATM    9  C4  UNL     1      70.040  43.453  48.661  1.00  0.00     0.142 C 
HETATM   10  N7  UNL     1      71.391  43.021  48.389  1.00  0.00    -0.360 N 
ATOM     11  H7  UNL     1      72.257  43.453  48.712  1.00  0.00     0.162 HD
ENDBRANCH   3   5
BRANCH   1  12
HETATM   12  N3  UNL     1      73.037  40.498  44.768  1.00  0.00    -0.261 N 
HETATM   13  C1  UNL     1      73.538  39.328  44.948  1.00  0.00     0.216 C 
HETATM   14  N1  UNL     1      73.021  38.501  45.983  1.00  0.00    -0.065 NA
HETATM   15  N2  UNL     1      74.599  38.922  44.088  1.00  0.00    -0.065 NA
ATOM     16  H3  UNL     1      73.416  41.082  44.023  1.00  0.00     0.190 HD
ENDBRANCH   1  12
TORSDOF 2
ENDMDL
MODEL 5
REMARK VINA RESULT: -4.611504519      2.984      4.622
REMARK  2 active torsions:
REMARK  status: ('A' for Active; 'I' for Inactive)
REMARK    1  A    between atoms: N3_4  and  N4_6 
REMARK    2  A    between atoms: N5_8  and  C2_10 
ROOT
HETATM    1  N4  UNL     1      74.897  35.852  45.577  1.00  0.00    -0.238 N 
ATOM      2  H4  UNL     1      75.904  35.980  45.477  1.00  0.00     0.208 HD
HETATM    3  N5  UNL     1      74.356  34.711  45.440  1.00  0.00    -0.257 N 
ATOM      4  H5  UNL     1      73.347  34.604  45.543  1.00  0.00     0.191 HD
ENDROOT
BRANCH   3   5
HETATM    5  C2  UNL     1      75.173  33.585  45.142  1.00  0.00     0.191 C 
HETATM    6  N6  UNL     1      75.028  32.809  44.116  1.00  0.00    -0.360 N 
HETATM    7  C3  UNL     1      76.028  31.766  44.122  1.00  0.00     0.142 C 
ATOM      8  H6  UNL     1      74.307  32.919  43.403  1.00  0.00     0.162 HD
HETATM    9  C4  UNL     1      76.476  31.773  45.566  1.00  0.00     0.142 C 
HETATM   10  N7  UNL     1      76.264  33.154  45.934  1.00  0.00    -0.360 N 
ATOM     11  H7  UNL     1      76.788  33.700  46.618  1.00  0.00     0.162 HD
ENDBRANCH   3   5
BRANCH   1  12
HETATM   12  N3  UNL     1      74.049  36.925  45.869  1.00  0.00    -0.261 N 
HETATM   13  C1  UNL     1      74.020  38.000  45.166  1.00  0.00     0.216 C 
HETATM   14  N1  UNL     1      74.882  38.119  44.041  1.00  0.00    -0.065 NA
HETATM   15  N2  UNL     1      73.115  39.027  45.561  1.00  0.00    -0.065 NA
ATOM     16  H3  UNL     1      73.428  36.851  46.675  1.00  0.00     0.190 HD
ENDBRANCH   1  12
TORSDOF 2
ENDMDL
