MODEL 1
REMARK VINA RESULT: -6.127244461      0.000      0.000
REMARK  7 active torsions:
REMARK  status: ('A' for Active; 'I' for Inactive)
REMARK    1  A    between atoms: N1_2  and  C3_4 
REMARK    2  A    between atoms: C3_4  and  C4_5 
REMARK    3  A    between atoms: C4_5  and  N2_6 
REMARK    4  A    between atoms: N2_6  and  C6_8 
REMARK    5  A    between atoms: C6_8  and  C7_9 
REMARK    6  A    between atoms: C13_15  and  O1_16 
REMARK    7  A    between atoms: C15_19  and  O2_20 
ROOT
HETATM    1  C7  UNL     1       3.710   3.730  19.162  1.00  0.00     0.031 C 
HETATM    2  C8  UNL     1       3.867   2.845  17.891  1.00  0.00     0.013 C 
HETATM    3  C9  UNL     1       5.370   2.654  17.941  1.00  0.00     0.008 C 
HETATM    4  C10 UNL     1       5.884   1.621  17.037  1.00  0.00    -0.017 C 
HETATM    5  C11 UNL     1       4.989   0.441  16.761  1.00  0.00     0.018 C 
HETATM    6  C12 UNL     1       6.063   2.259  15.639  1.00  0.00     0.018 C 
HETATM    7  C13 UNL     1       7.246   1.156  17.426  1.00  0.00     0.128 C 
HETATM    8  C14 UNL     1       7.456   0.894  18.863  1.00  0.00     0.065 C 
HETATM    9  C15 UNL     1       6.291   1.182  19.758  1.00  0.00     0.130 C 
HETATM   10  C16 UNL     1       5.651   2.490  19.419  1.00  0.00     0.002 C 
HETATM   11  C17 UNL     1       6.728   3.516  19.723  1.00  0.00     0.019 C 
HETATM   12  C18 UNL     1       4.360   2.763  20.139  1.00  0.00     0.040 C 
HETATM   13  C19 UNL     1       3.513   1.530  20.328  1.00  0.00     0.030 C 
HETATM   14  C20 UNL     1       3.588   0.881  21.671  1.00  0.00     0.046 C 
HETATM   15  C21 UNL     1       2.275   0.112  21.936  1.00  0.00     0.038 C 
HETATM   16  C22 UNL     1       2.420  -0.099  23.440  1.00  0.00     0.176 C 
HETATM   17  O3  UNL     1       2.983   1.126  23.884  1.00  0.00    -0.355 OA
HETATM   18  C23 UNL     1       3.563   1.809  22.800  1.00  0.00     0.054 C 
HETATM   19  C24 UNL     1       4.030   3.033  22.691  1.00  0.00     0.083 C 
HETATM   20  C25 UNL     1       4.592   3.478  21.401  1.00  0.00     0.161 C 
HETATM   21  O4  UNL     1       5.293   4.543  21.510  1.00  0.00    -0.292 OA
ENDROOT
BRANCH   1  22
HETATM   22  C6  UNL     1       2.322   4.115  19.372  1.00  0.00     0.277 C 
BRANCH  22  23
HETATM   23  N2  UNL     1       2.023   5.485  19.686  1.00  0.00     0.086 N 
HETATM   24  C5  UNL     1       3.126   6.377  19.373  1.00  0.00     0.310 C 
BRANCH  23  25
HETATM   25  C4  UNL     1       1.711   5.699  21.093  1.00  0.00     0.302 C 
BRANCH  25  26
HETATM   26  C3  UNL     1       2.603   6.833  21.571  1.00  0.00     0.301 C 
BRANCH  26  27
HETATM   27  N1  UNL     1       2.530   7.009  23.010  1.00  0.00     0.081 N 
HETATM   28  C1  UNL     1       1.869   5.888  23.633  1.00  0.00     0.309 C 
HETATM   29  C2  UNL     1       3.884   7.070  23.525  1.00  0.00     0.309 C 
ENDBRANCH  26  27
ENDBRANCH  25  26
ENDBRANCH  23  25
ENDBRANCH  22  23
ENDBRANCH   1  22
BRANCH   9  30
HETATM   30  O2  UNL     1       6.854   1.344  21.053  1.00  0.00    -0.395 OA
ATOM     31  H2  UNL     1       7.304   0.526  21.229  1.00  0.00     0.210 HD
ENDBRANCH   9  30
BRANCH   7  32
HETATM   32  O1  UNL     1       7.505  -0.002  16.652  1.00  0.00    -0.395 OA
ATOM     33  H1  UNL     1       7.514   0.281  15.746  1.00  0.00     0.210 HD
ENDBRANCH   7  32
TORSDOF 7
ENDMDL
MODEL 2
REMARK VINA RESULT: -5.908943730      0.909      1.161
REMARK  7 active torsions:
REMARK  status: ('A' for Active; 'I' for Inactive)
REMARK    1  A    between atoms: N1_2  and  C3_4 
REMARK    2  A    between atoms: C3_4  and  C4_5 
REMARK    3  A    between atoms: C4_5  and  N2_6 
REMARK    4  A    between atoms: N2_6  and  C6_8 
REMARK    5  A    between atoms: C6_8  and  C7_9 
REMARK    6  A    between atoms: C13_15  and  O1_16 
REMARK    7  A    between atoms: C15_19  and  O2_20 
ROOT
HETATM    1  C7  UNL     1       3.690   3.704  19.129  1.00  0.00     0.031 C 
HETATM    2  C8  UNL     1       3.859   2.806  17.868  1.00  0.00     0.013 C 
HETATM    3  C9  UNL     1       5.364   2.632  17.923  1.00  0.00     0.008 C 
HETATM    4  C10 UNL     1       5.892   1.595  17.033  1.00  0.00    -0.017 C 
HETATM    5  C11 UNL     1       5.010   0.402  16.767  1.00  0.00     0.018 C 
HETATM    6  C12 UNL     1       6.068   2.219  15.628  1.00  0.00     0.018 C 
HETATM    7  C13 UNL     1       7.258   1.148  17.431  1.00  0.00     0.128 C 
HETATM    8  C14 UNL     1       7.466   0.904  18.871  1.00  0.00     0.065 C 
HETATM    9  C15 UNL     1       6.296   1.190  19.759  1.00  0.00     0.130 C 
HETATM   10  C16 UNL     1       5.643   2.487  19.405  1.00  0.00     0.002 C 
HETATM   11  C17 UNL     1       6.709   3.527  19.700  1.00  0.00     0.019 C 
HETATM   12  C18 UNL     1       4.347   2.754  20.118  1.00  0.00     0.040 C 
HETATM   13  C19 UNL     1       3.513   1.514  20.319  1.00  0.00     0.030 C 
HETATM   14  C20 UNL     1       3.591   0.881  21.669  1.00  0.00     0.046 C 
HETATM   15  C21 UNL     1       2.286   0.101  21.938  1.00  0.00     0.038 C 
HETATM   16  C22 UNL     1       2.428  -0.092  23.445  1.00  0.00     0.176 C 
HETATM   17  O3  UNL     1       2.977   1.144  23.877  1.00  0.00    -0.355 OA
HETATM   18  C23 UNL     1       3.553   1.821  22.788  1.00  0.00     0.054 C 
HETATM   19  C24 UNL     1       4.007   3.049  22.666  1.00  0.00     0.083 C 
HETATM   20  C25 UNL     1       4.568   3.486  21.373  1.00  0.00     0.161 C 
HETATM   21  O4  UNL     1       5.258   4.559  21.472  1.00  0.00    -0.292 OA
ENDROOT
BRANCH   1  22
HETATM   22  C6  UNL     1       2.297   4.076  19.331  1.00  0.00     0.277 C 
BRANCH  22  23
HETATM   23  N2  UNL     1       1.986   5.438  19.666  1.00  0.00     0.086 N 
HETATM   24  C5  UNL     1       3.107   6.334  19.437  1.00  0.00     0.310 C 
BRANCH  23  25
HETATM   25  C4  UNL     1       1.599   5.616  21.059  1.00  0.00     0.302 C 
BRANCH  25  26
HETATM   26  C3  UNL     1       0.817   4.375  21.457  1.00  0.00     0.301 C 
BRANCH  26  27
HETATM   27  N1  UNL     1       0.283   4.480  22.802  1.00  0.00     0.081 N 
HETATM   28  C1  UNL     1       0.110   3.175  23.391  1.00  0.00     0.309 C 
HETATM   29  C2  UNL     1       1.240   5.210  23.611  1.00  0.00     0.309 C 
ENDBRANCH  26  27
ENDBRANCH  25  26
ENDBRANCH  23  25
ENDBRANCH  22  23
ENDBRANCH   1  22
BRANCH   9  30
HETATM   30  O2  UNL     1       6.854   1.372  21.054  1.00  0.00    -0.395 OA
ATOM     31  H2  UNL     1       6.442   0.709  21.594  1.00  0.00     0.210 HD
ENDBRANCH   9  30
BRANCH   7  32
HETATM   32  O1  UNL     1       7.530  -0.015  16.670  1.00  0.00    -0.395 OA
ATOM     33  H1  UNL     1       8.453   0.022  16.449  1.00  0.00     0.210 HD
ENDBRANCH   7  32
TORSDOF 7
ENDMDL
MODEL 3
REMARK VINA RESULT: -5.895666469      2.545      5.447
REMARK  7 active torsions:
REMARK  status: ('A' for Active; 'I' for Inactive)
REMARK    1  A    between atoms: N1_2  and  C3_4 
REMARK    2  A    between atoms: C3_4  and  C4_5 
REMARK    3  A    between atoms: C4_5  and  N2_6 
REMARK    4  A    between atoms: N2_6  and  C6_8 
REMARK    5  A    between atoms: C6_8  and  C7_9 
REMARK    6  A    between atoms: C13_15  and  O1_16 
REMARK    7  A    between atoms: C15_19  and  O2_20 
ROOT
HETATM    1  C7  UNL     1       4.747   4.355  20.225  1.00  0.00     0.031 C 
HETATM    2  C8  UNL     1       4.414   3.745  21.618  1.00  0.00     0.013 C 
HETATM    3  C9  UNL     1       3.077   3.121  21.270  1.00  0.00     0.008 C 
HETATM    4  C10 UNL     1       2.555   2.194  22.278  1.00  0.00    -0.017 C 
HETATM    5  C11 UNL     1       3.563   1.408  23.077  1.00  0.00     0.018 C 
HETATM    6  C12 UNL     1       1.826   3.027  23.358  1.00  0.00     0.018 C 
HETATM    7  C13 UNL     1       1.513   1.283  21.724  1.00  0.00     0.128 C 
HETATM    8  C14 UNL     1       1.811   0.679  20.411  1.00  0.00     0.065 C 
HETATM    9  C15 UNL     1       3.098   1.102  19.774  1.00  0.00     0.130 C 
HETATM   10  C16 UNL     1       3.300   2.580  19.874  1.00  0.00     0.002 C 
HETATM   11  C17 UNL     1       2.166   3.162  19.050  1.00  0.00     0.019 C 
HETATM   12  C18 UNL     1       4.654   3.060  19.433  1.00  0.00     0.040 C 
HETATM   13  C19 UNL     1       5.769   2.115  19.803  1.00  0.00     0.030 C 
HETATM   14  C20 UNL     1       6.249   1.209  18.717  1.00  0.00     0.046 C 
HETATM   15  C21 UNL     1       7.716   0.817  18.997  1.00  0.00     0.038 C 
HETATM   16  C22 UNL     1       8.084   0.265  17.622  1.00  0.00     0.176 C 
HETATM   17  O3  UNL     1       7.425   1.155  16.733  1.00  0.00    -0.355 OA
HETATM   18  C23 UNL     1       6.408   1.848  17.413  1.00  0.00     0.054 C 
HETATM   19  C24 UNL     1       5.672   2.879  17.061  1.00  0.00     0.083 C 
HETATM   20  C25 UNL     1       4.662   3.399  18.004  1.00  0.00     0.161 C 
HETATM   21  O4  UNL     1       3.809   4.168  17.439  1.00  0.00    -0.292 OA
ENDROOT
BRANCH   1  22
HETATM   22  C6  UNL     1       6.013   5.073  20.251  1.00  0.00     0.277 C 
BRANCH  22  23
HETATM   23  N2  UNL     1       6.173   6.161  21.176  1.00  0.00     0.086 N 
HETATM   24  C5  UNL     1       5.590   7.397  20.683  1.00  0.00     0.310 C 
BRANCH  23  25
HETATM   25  C4  UNL     1       7.566   6.459  21.482  1.00  0.00     0.302 C 
BRANCH  25  26
HETATM   26  C3  UNL     1       7.592   7.852  22.087  1.00  0.00     0.301 C 
BRANCH  26  27
HETATM   27  N1  UNL     1       7.917   7.821  23.501  1.00  0.00     0.081 N 
HETATM   28  C1  UNL     1       9.028   8.693  23.794  1.00  0.00     0.309 C 
HETATM   29  C2  UNL     1       6.766   8.305  24.239  1.00  0.00     0.309 C 
ENDBRANCH  26  27
ENDBRANCH  25  26
ENDBRANCH  23  25
ENDBRANCH  22  23
ENDBRANCH   1  22
BRANCH   9  30
HETATM   30  O2  UNL     1       2.931   0.821  18.390  1.00  0.00    -0.395 OA
ATOM     31  H2  UNL     1       2.710   1.656  17.995  1.00  0.00     0.210 HD
ENDBRANCH   9  30
BRANCH   7  32
HETATM   32  O1  UNL     1       1.296   0.287  22.707  1.00  0.00    -0.395 OA
ATOM     33  H1  UNL     1       0.912  -0.455  22.254  1.00  0.00     0.210 HD
ENDBRANCH   7  32
TORSDOF 7
ENDMDL
MODEL 4
REMARK VINA RESULT: -5.887933365      3.271      5.521
REMARK  7 active torsions:
REMARK  status: ('A' for Active; 'I' for Inactive)
REMARK    1  A    between atoms: N1_2  and  C3_4 
REMARK    2  A    between atoms: C3_4  and  C4_5 
REMARK    3  A    between atoms: C4_5  and  N2_6 
REMARK    4  A    between atoms: N2_6  and  C6_8 
REMARK    5  A    between atoms: C6_8  and  C7_9 
REMARK    6  A    between atoms: C13_15  and  O1_16 
REMARK    7  A    between atoms: C15_19  and  O2_20 
ROOT
HETATM    1  C7  UNL     1       6.085   5.625  21.490  1.00  0.00     0.031 C 
HETATM    2  C8  UNL     1       6.645   4.771  20.316  1.00  0.00     0.013 C 
HETATM    3  C9  UNL     1       5.842   3.508  20.561  1.00  0.00     0.008 C 
HETATM    4  C10 UNL     1       5.889   2.534  19.467  1.00  0.00    -0.017 C 
HETATM    5  C11 UNL     1       6.022   3.076  18.067  1.00  0.00     0.018 C 
HETATM    6  C12 UNL     1       7.172   1.688  19.639  1.00  0.00     0.018 C 
HETATM    7  C13 UNL     1       4.768   1.552  19.536  1.00  0.00     0.128 C 
HETATM    8  C14 UNL     1       3.433   2.112  19.821  1.00  0.00     0.065 C 
HETATM    9  C15 UNL     1       3.380   3.588  20.063  1.00  0.00     0.130 C 
HETATM   10  C16 UNL     1       4.483   4.035  20.968  1.00  0.00     0.002 C 
HETATM   11  C17 UNL     1       4.180   3.343  22.285  1.00  0.00     0.019 C 
HETATM   12  C18 UNL     1       4.618   5.526  21.104  1.00  0.00     0.040 C 
HETATM   13  C19 UNL     1       4.342   6.268  19.821  1.00  0.00     0.030 C 
HETATM   14  C20 UNL     1       2.981   6.869  19.690  1.00  0.00     0.046 C 
HETATM   15  C21 UNL     1       3.051   8.074  18.728  1.00  0.00     0.038 C 
HETATM   16  C22 UNL     1       1.713   8.728  19.064  1.00  0.00     0.176 C 
HETATM   17  O3  UNL     1       1.617   8.558  20.471  1.00  0.00    -0.355 OA
HETATM   18  C23 UNL     1       2.490   7.539  20.892  1.00  0.00     0.054 C 
HETATM   19  C24 UNL     1       2.873   7.162  22.092  1.00  0.00     0.083 C 
HETATM   20  C25 UNL     1       3.817   6.035  22.226  1.00  0.00     0.161 C 
HETATM   21  O4  UNL     1       3.855   5.562  23.415  1.00  0.00    -0.292 OA
ENDROOT
BRANCH   1  22
HETATM   22  C6  UNL     1       6.713   6.938  21.537  1.00  0.00     0.277 C 
BRANCH  22  23
HETATM   23  N2  UNL     1       7.223   7.417  22.792  1.00  0.00     0.086 N 
HETATM   24  C5  UNL     1       6.310   8.339  23.444  1.00  0.00     0.310 C 
BRANCH  23  25
HETATM   25  C4  UNL     1       8.494   8.119  22.667  1.00  0.00     0.302 C 
BRANCH  25  26
HETATM   26  C3  UNL     1       8.760   8.781  24.009  1.00  0.00     0.301 C 
BRANCH  26  27
HETATM   27  N1  UNL     1       9.724   8.037  24.798  1.00  0.00     0.081 N 
HETATM   28  C1  UNL     1      10.829   8.878  25.189  1.00  0.00     0.309 C 
HETATM   29  C2  UNL     1       9.062   7.581  26.005  1.00  0.00     0.309 C 
ENDBRANCH  26  27
ENDBRANCH  25  26
ENDBRANCH  23  25
ENDBRANCH  22  23
ENDBRANCH   1  22
BRANCH   9  30
HETATM   30  O2  UNL     1       2.171   3.799  20.782  1.00  0.00    -0.395 OA
ATOM     31  H2  UNL     1       2.243   4.680  21.129  1.00  0.00     0.210 HD
ENDBRANCH   9  30
BRANCH   7  32
HETATM   32  O1  UNL     1       4.777   0.855  18.303  1.00  0.00    -0.395 OA
ATOM     33  H1  UNL     1       5.447   1.267  17.770  1.00  0.00     0.210 HD
ENDBRANCH   7  32
TORSDOF 7
ENDMDL
MODEL 5
REMARK VINA RESULT: -5.765984878      3.358      7.117
REMARK  7 active torsions:
REMARK  status: ('A' for Active; 'I' for Inactive)
REMARK    1  A    between atoms: N1_2  and  C3_4 
REMARK    2  A    between atoms: C3_4  and  C4_5 
REMARK    3  A    between atoms: C4_5  and  N2_6 
REMARK    4  A    between atoms: N2_6  and  C6_8 
REMARK    5  A    between atoms: C6_8  and  C7_9 
REMARK    6  A    between atoms: C13_15  and  O1_16 
REMARK    7  A    between atoms: C15_19  and  O2_20 
ROOT
HETATM    1  C7  UNL     1       4.567   7.405  22.632  1.00  0.00     0.031 C 
HETATM    2  C8  UNL     1       3.590   7.290  23.838  1.00  0.00     0.013 C 
HETATM    3  C9  UNL     1       2.296   7.573  23.100  1.00  0.00     0.008 C 
HETATM    4  C10 UNL     1       1.081   7.278  23.864  1.00  0.00    -0.017 C 
HETATM    5  C11 UNL     1       1.146   6.140  24.850  1.00  0.00     0.018 C 
HETATM    6  C12 UNL     1       0.775   8.501  24.761  1.00  0.00     0.018 C 
HETATM    7  C13 UNL     1      -0.117   7.133  22.988  1.00  0.00     0.128 C 
HETATM    8  C14 UNL     1       0.067   6.327  21.766  1.00  0.00     0.065 C 
HETATM    9  C15 UNL     1       1.449   5.802  21.531  1.00  0.00     0.130 C 
HETATM   10  C16 UNL     1       2.484   6.852  21.782  1.00  0.00     0.002 C 
HETATM   11  C17 UNL     1       2.205   7.904  20.724  1.00  0.00     0.019 C 
HETATM   12  C18 UNL     1       3.902   6.354  21.758  1.00  0.00     0.040 C 
HETATM   13  C19 UNL     1       4.059   4.976  22.349  1.00  0.00     0.030 C 
HETATM   14  C20 UNL     1       4.135   3.848  21.374  1.00  0.00     0.046 C 
HETATM   15  C21 UNL     1       4.918   2.680  22.012  1.00  0.00     0.038 C 
HETATM   16  C22 UNL     1       5.201   1.865  20.754  1.00  0.00     0.176 C 
HETATM   17  O3  UNL     1       5.483   2.862  19.782  1.00  0.00    -0.355 OA
HETATM   18  C23 UNL     1       4.978   4.103  20.208  1.00  0.00     0.054 C 
HETATM   19  C24 UNL     1       5.152   5.320  19.742  1.00  0.00     0.083 C 
HETATM   20  C25 UNL     1       4.479   6.451  20.411  1.00  0.00     0.161 C 
HETATM   21  O4  UNL     1       4.459   7.508  19.690  1.00  0.00    -0.292 OA
ENDROOT
BRANCH   1  22
HETATM   22  C6  UNL     1       5.947   7.203  23.048  1.00  0.00     0.277 C 
BRANCH  22  23
HETATM   23  N2  UNL     1       6.975   8.009  22.450  1.00  0.00     0.086 N 
HETATM   24  C5  UNL     1       7.916   7.220  21.674  1.00  0.00     0.310 C 
BRANCH  23  25
HETATM   25  C4  UNL     1       7.768   8.749  23.424  1.00  0.00     0.302 C 
BRANCH  25  26
HETATM   26  C3  UNL     1       8.108   7.775  24.540  1.00  0.00     0.301 C 
BRANCH  26  27
HETATM   27  N1  UNL     1       9.141   8.297  25.416  1.00  0.00     0.081 N 
HETATM   28  C1  UNL     1       9.524   7.316  26.402  1.00  0.00     0.309 C 
HETATM   29  C2  UNL     1      10.308   8.596  24.609  1.00  0.00     0.309 C 
ENDBRANCH  26  27
ENDBRANCH  25  26
ENDBRANCH  23  25
ENDBRANCH  22  23
ENDBRANCH   1  22
BRANCH   9  30
HETATM   30  O2  UNL     1       1.503   5.524  20.137  1.00  0.00    -0.395 OA
ATOM     31  H2  UNL     1       1.437   6.372  19.715  1.00  0.00     0.210 HD
ENDBRANCH   9  30
BRANCH   7  32
HETATM   32  O1  UNL     1      -1.142   6.596  23.805  1.00  0.00    -0.395 OA
ATOM     33  H1  UNL     1      -1.393   5.770  23.409  1.00  0.00     0.210 HD
ENDBRANCH   7  32
TORSDOF 7
ENDMDL
