MODEL 1
REMARK VINA RESULT: -7.177113120      0.000      0.000
REMARK  10 active torsions:
REMARK  status: ('A' for Active; 'I' for Inactive)
REMARK    1  A    between atoms: O1_2  and  C2_3 
REMARK    2  A    between atoms: C3_4  and  O2_5 
REMARK    3  A    between atoms: C4_7  and  C5_8 
REMARK    4  A    between atoms: C5_8  and  O3_9 
REMARK    5  A    between atoms: N1_11  and  C6_12 
REMARK    6  A    between atoms: C6_12  and  O4_13 
REMARK    7  A    between atoms: C6_12  and  C7_15 
REMARK    8  A    between atoms: C7_15  and  N2_16 
REMARK       I    between atoms: N2_16  and  C8_18 
REMARK    9  A    between atoms: C15_26  and  N3_27 
REMARK       I    between atoms: N3_27  and  C16_28 
REMARK   10  A    between atoms: C16_28  and  C17_30 
ROOT
HETATM    1  C2  UNL     1      12.034  -9.169  21.965  1.00  0.00     0.215 C 
HETATM    2  C3  UNL     1      11.846  -7.897  21.211  1.00  0.00     0.201 C 
HETATM    3  C4  UNL     1      12.805  -6.812  21.546  1.00  0.00     0.046 C 
HETATM    4  N1  UNL     1      14.147  -6.980  20.975  1.00  0.00    -0.327 N 
HETATM    5  C10 UNL     1      14.571  -8.201  20.437  1.00  0.00     0.102 C 
HETATM    6  C11 UNL     1      15.992  -8.374  19.975  1.00  0.00     0.026 C 
HETATM    7  C12 UNL     1      15.898  -9.868  19.521  1.00  0.00     0.003 C 
HETATM    8  C13 UNL     1      14.821 -10.473  20.392  1.00  0.00     0.014 C 
HETATM    9  C14 UNL     1      14.518  -9.339  21.408  1.00  0.00     0.072 C 
HETATM   10  C15 UNL     1      13.412  -9.580  22.290  1.00  0.00     0.104 C 
ENDROOT
BRANCH   4  11
HETATM   11  C6  UNL     1      14.876  -5.790  20.989  1.00  0.00     0.136 C 
BRANCH  11  12
HETATM   12  O4  UNL     1      15.864  -5.660  21.840  1.00  0.00    -0.348 OA
ATOM     13  H4  UNL     1      16.191  -6.432  22.287  1.00  0.00     0.219 HD
ENDBRANCH  11  12
BRANCH  11  14
HETATM   14  C7  UNL     1      14.702  -4.599  20.166  1.00  0.00     0.206 C 
BRANCH  14  15
HETATM   15  N2  UNL     1      15.780  -4.585  19.144  1.00  0.00    -0.354 N 
HETATM   16  C8  UNL     1      16.494  -3.380  18.926  1.00  0.00     0.213 C 
HETATM   17  C9  UNL     1      17.575  -3.328  17.912  1.00  0.00     0.117 C 
HETATM   18  O5  UNL     1      16.219  -2.358  19.585  1.00  0.00    -0.274 OA
ATOM     19  H2  UNL     1      16.002  -5.426  18.611  1.00  0.00     0.162 HD
ENDBRANCH  14  15
ENDBRANCH  11  14
ENDBRANCH   4  11
BRANCH   3  20
HETATM   20  C5  UNL     1      12.671  -6.341  22.924  1.00  0.00     0.219 C 
BRANCH  20  21
HETATM   21  O3  UNL     1      11.276  -5.981  23.083  1.00  0.00    -0.395 OA
ATOM     22  H3  UNL     1      11.209  -5.075  22.802  1.00  0.00     0.209 HD
ENDBRANCH  20  21
ENDBRANCH   3  20
BRANCH   2  23
HETATM   23  O2  UNL     1      11.627  -8.076  19.844  1.00  0.00    -0.387 OA
ATOM     24  H2  UNL     1      11.973  -7.375  19.304  1.00  0.00     0.210 HD
ENDBRANCH   2  23
BRANCH   1  25
HETATM   25  O1  UNL     1      11.382 -10.136  21.197  1.00  0.00    -0.381 OA
HETATM   26  C1  UNL     1      10.162 -10.532  21.707  1.00  0.00     0.202 C 
ENDBRANCH   1  25
BRANCH  10  27
HETATM   27  N3  UNL     1      13.396 -10.872  22.857  1.00  0.00    -0.376 NA
HETATM   28  C16 UNL     1      13.379 -12.096  23.396  1.00  0.00     0.295 C 
HETATM   29  O6  UNL     1      12.436 -12.615  24.057  1.00  0.00    -0.257 OA
BRANCH  28  30
HETATM   30  C17 UNL     1      14.556 -13.059  23.272  1.00  0.00     0.093 C 
HETATM   31  C18 UNL     1      14.065 -14.259  22.549  1.00  0.00     0.015 C 
HETATM   32  C19 UNL     1      13.477 -15.325  23.430  1.00  0.00     0.001 C 
HETATM   33  C20 UNL     1      14.401 -15.651  24.575  1.00  0.00     0.000 C 
HETATM   34  C21 UNL     1      14.590 -14.397  25.391  1.00  0.00     0.001 C 
HETATM   35  C22 UNL     1      15.187 -13.272  24.585  1.00  0.00     0.015 C 
ENDBRANCH  28  30
ENDBRANCH  10  27
TORSDOF 10
ENDMDL
MODEL 2
REMARK VINA RESULT: -6.921794027      3.767      5.488
REMARK  10 active torsions:
REMARK  status: ('A' for Active; 'I' for Inactive)
REMARK    1  A    between atoms: O1_2  and  C2_3 
REMARK    2  A    between atoms: C3_4  and  O2_5 
REMARK    3  A    between atoms: C4_7  and  C5_8 
REMARK    4  A    between atoms: C5_8  and  O3_9 
REMARK    5  A    between atoms: N1_11  and  C6_12 
REMARK    6  A    between atoms: C6_12  and  O4_13 
REMARK    7  A    between atoms: C6_12  and  C7_15 
REMARK    8  A    between atoms: C7_15  and  N2_16 
REMARK       I    between atoms: N2_16  and  C8_18 
REMARK    9  A    between atoms: C15_26  and  N3_27 
REMARK       I    between atoms: N3_27  and  C16_28 
REMARK   10  A    between atoms: C16_28  and  C17_30 
ROOT
HETATM    1  C2  UNL     1      13.632  -7.738  19.451  1.00  0.00     0.215 C 
HETATM    2  C3  UNL     1      12.453  -6.943  19.898  1.00  0.00     0.201 C 
HETATM    3  C4  UNL     1      12.616  -6.240  21.198  1.00  0.00     0.046 C 
HETATM    4  N1  UNL     1      13.442  -5.028  21.142  1.00  0.00    -0.327 N 
HETATM    5  C10 UNL     1      14.258  -4.743  20.041  1.00  0.00     0.102 C 
HETATM    6  C11 UNL     1      15.185  -3.559  20.069  1.00  0.00     0.026 C 
HETATM    7  C12 UNL     1      15.829  -3.746  18.655  1.00  0.00     0.003 C 
HETATM    8  C13 UNL     1      15.764  -5.233  18.392  1.00  0.00     0.014 C 
HETATM    9  C14 UNL     1      15.271  -5.806  19.748  1.00  0.00     0.072 C 
HETATM   10  C15 UNL     1      14.974  -7.209  19.754  1.00  0.00     0.104 C 
ENDROOT
BRANCH   4  11
HETATM   11  C6  UNL     1      13.257  -4.214  22.260  1.00  0.00     0.136 C 
BRANCH  11  12
HETATM   12  O4  UNL     1      12.120  -3.579  22.401  1.00  0.00    -0.348 OA
ATOM     13  H4  UNL     1      11.791  -3.413  23.277  1.00  0.00     0.219 HD
ENDBRANCH  11  12
BRANCH  11  14
HETATM   14  C7  UNL     1      14.180  -3.936  23.355  1.00  0.00     0.206 C 
BRANCH  14  15
HETATM   15  N2  UNL     1      13.482  -4.237  24.630  1.00  0.00    -0.354 N 
HETATM   16  C8  UNL     1      13.585  -3.308  25.697  1.00  0.00     0.213 C 
HETATM   17  C9  UNL     1      12.905  -3.577  26.987  1.00  0.00     0.117 C 
HETATM   18  O5  UNL     1      14.247  -2.261  25.557  1.00  0.00    -0.274 OA
ATOM     19  H2  UNL     1      12.940  -5.094  24.737  1.00  0.00     0.162 HD
ENDBRANCH  14  15
ENDBRANCH  11  14
ENDBRANCH   4  11
BRANCH   3  20
HETATM   20  C5  UNL     1      12.774  -7.159  22.324  1.00  0.00     0.219 C 
BRANCH  20  21
HETATM   21  O3  UNL     1      12.019  -6.579  23.416  1.00  0.00    -0.395 OA
ATOM     22  H3  UNL     1      12.516  -5.821  23.701  1.00  0.00     0.209 HD
ENDBRANCH  20  21
ENDBRANCH   3  20
BRANCH   2  23
HETATM   23  O2  UNL     1      11.875  -6.169  18.890  1.00  0.00    -0.387 OA
ATOM     24  H2  UNL     1      11.005  -5.852  19.099  1.00  0.00     0.210 HD
ENDBRANCH   2  23
BRANCH   1  25
HETATM   25  O1  UNL     1      13.448  -7.902  18.076  1.00  0.00    -0.381 OA
HETATM   26  C1  UNL     1      12.944  -9.136  17.719  1.00  0.00     0.202 C 
ENDBRANCH   1  25
BRANCH  10  27
HETATM   27  N3  UNL     1      15.948  -8.009  19.120  1.00  0.00    -0.376 NA
HETATM   28  C16 UNL     1      16.871  -8.766  18.518  1.00  0.00     0.295 C 
HETATM   29  O6  UNL     1      17.476  -8.502  17.441  1.00  0.00    -0.257 OA
BRANCH  28  30
HETATM   30  C17 UNL     1      17.326 -10.107  19.087  1.00  0.00     0.093 C 
HETATM   31  C18 UNL     1      18.122 -10.784  18.032  1.00  0.00     0.015 C 
HETATM   32  C19 UNL     1      17.317 -11.627  17.083  1.00  0.00     0.001 C 
HETATM   33  C20 UNL     1      16.401 -12.559  17.833  1.00  0.00     0.000 C 
HETATM   34  C21 UNL     1      15.457 -11.719  18.656  1.00  0.00     0.001 C 
HETATM   35  C22 UNL     1      16.181 -10.843  19.646  1.00  0.00     0.015 C 
ENDBRANCH  28  30
ENDBRANCH  10  27
TORSDOF 10
ENDMDL
MODEL 3
REMARK VINA RESULT: -6.902957127      3.710      5.197
REMARK  10 active torsions:
REMARK  status: ('A' for Active; 'I' for Inactive)
REMARK    1  A    between atoms: O1_2  and  C2_3 
REMARK    2  A    between atoms: C3_4  and  O2_5 
REMARK    3  A    between atoms: C4_7  and  C5_8 
REMARK    4  A    between atoms: C5_8  and  O3_9 
REMARK    5  A    between atoms: N1_11  and  C6_12 
REMARK    6  A    between atoms: C6_12  and  O4_13 
REMARK    7  A    between atoms: C6_12  and  C7_15 
REMARK    8  A    between atoms: C7_15  and  N2_16 
REMARK       I    between atoms: N2_16  and  C8_18 
REMARK    9  A    between atoms: C15_26  and  N3_27 
REMARK       I    between atoms: N3_27  and  C16_28 
REMARK   10  A    between atoms: C16_28  and  C17_30 
ROOT
HETATM    1  C2  UNL     1      11.822  -7.842  19.658  1.00  0.00     0.215 C 
HETATM    2  C3  UNL     1      10.998  -6.625  19.905  1.00  0.00     0.201 C 
HETATM    3  C4  UNL     1      11.237  -5.949  21.207  1.00  0.00     0.046 C 
HETATM    4  N1  UNL     1      12.471  -5.157  21.272  1.00  0.00    -0.327 N 
HETATM    5  C10 UNL     1      13.480  -5.287  20.311  1.00  0.00     0.102 C 
HETATM    6  C11 UNL     1      14.784  -4.553  20.476  1.00  0.00     0.026 C 
HETATM    7  C12 UNL     1      15.497  -5.075  19.184  1.00  0.00     0.003 C 
HETATM    8  C13 UNL     1      14.893  -6.436  18.928  1.00  0.00     0.014 C 
HETATM    9  C14 UNL     1      14.026  -6.676  20.193  1.00  0.00     0.072 C 
HETATM   10  C15 UNL     1      13.206  -7.853  20.165  1.00  0.00     0.104 C 
ENDROOT
BRANCH   4  11
HETATM   11  C6  UNL     1      12.462  -4.257  22.338  1.00  0.00     0.136 C 
BRANCH  11  12
HETATM   12  O4  UNL     1      11.513  -3.357  22.402  1.00  0.00    -0.348 OA
ATOM     13  H4  UNL     1      11.719  -2.493  22.737  1.00  0.00     0.219 HD
ENDBRANCH  11  12
BRANCH  11  14
HETATM   14  C7  UNL     1      13.396  -4.148  23.453  1.00  0.00     0.206 C 
BRANCH  14  15
HETATM   15  N2  UNL     1      12.641  -4.384  24.710  1.00  0.00    -0.354 N 
HETATM   16  C8  UNL     1      12.930  -3.575  25.838  1.00  0.00     0.213 C 
HETATM   17  C9  UNL     1      12.198  -3.784  27.111  1.00  0.00     0.117 C 
HETATM   18  O5  UNL     1      13.799  -2.684  25.767  1.00  0.00    -0.274 OA
ATOM     19  H2  UNL     1      11.929  -5.112  24.760  1.00  0.00     0.162 HD
ENDBRANCH  14  15
ENDBRANCH  11  14
ENDBRANCH   4  11
BRANCH   3  20
HETATM   20  C5  UNL     1      10.860  -6.776  22.353  1.00  0.00     0.219 C 
BRANCH  20  21
HETATM   21  O3  UNL     1      10.046  -5.928  23.200  1.00  0.00    -0.395 OA
ATOM     22  H3  UNL     1      10.050  -6.338  24.057  1.00  0.00     0.209 HD
ENDBRANCH  20  21
ENDBRANCH   3  20
BRANCH   2  23
HETATM   23  O2  UNL     1      10.920  -5.762  18.810  1.00  0.00    -0.387 OA
ATOM     24  H2  UNL     1      10.385  -4.992  18.964  1.00  0.00     0.210 HD
ENDBRANCH   2  23
BRANCH   1  25
HETATM   25  O1  UNL     1      11.785  -8.020  18.273  1.00  0.00    -0.381 OA
HETATM   26  C1  UNL     1      10.931  -9.020  17.855  1.00  0.00     0.202 C 
ENDBRANCH   1  25
BRANCH  10  27
HETATM   27  N3  UNL     1      13.868  -9.009  19.702  1.00  0.00    -0.376 NA
HETATM   28  C16 UNL     1      14.494 -10.106  19.261  1.00  0.00     0.295 C 
HETATM   29  O6  UNL     1      14.108 -10.872  18.335  1.00  0.00    -0.257 OA
BRANCH  28  30
HETATM   30  C17 UNL     1      15.815 -10.586  19.855  1.00  0.00     0.093 C 
HETATM   31  C18 UNL     1      16.801  -9.492  19.671  1.00  0.00     0.015 C 
HETATM   32  C19 UNL     1      17.545  -9.532  18.365  1.00  0.00     0.001 C 
HETATM   33  C20 UNL     1      18.115 -10.903  18.109  1.00  0.00     0.000 C 
HETATM   34  C21 UNL     1      16.966 -11.878  18.043  1.00  0.00     0.001 C 
HETATM   35  C22 UNL     1      16.167 -11.912  19.320  1.00  0.00     0.015 C 
ENDBRANCH  28  30
ENDBRANCH  10  27
TORSDOF 10
ENDMDL
MODEL 4
REMARK VINA RESULT: -6.823469173      2.040      2.554
REMARK  10 active torsions:
REMARK  status: ('A' for Active; 'I' for Inactive)
REMARK    1  A    between atoms: O1_2  and  C2_3 
REMARK    2  A    between atoms: C3_4  and  O2_5 
REMARK    3  A    between atoms: C4_7  and  C5_8 
REMARK    4  A    between atoms: C5_8  and  O3_9 
REMARK    5  A    between atoms: N1_11  and  C6_12 
REMARK    6  A    between atoms: C6_12  and  O4_13 
REMARK    7  A    between atoms: C6_12  and  C7_15 
REMARK    8  A    between atoms: C7_15  and  N2_16 
REMARK       I    between atoms: N2_16  and  C8_18 
REMARK    9  A    between atoms: C15_26  and  N3_27 
REMARK       I    between atoms: N3_27  and  C16_28 
REMARK   10  A    between atoms: C16_28  and  C17_30 
ROOT
HETATM    1  C2  UNL     1      12.299 -10.734  20.862  1.00  0.00     0.215 C 
HETATM    2  C3  UNL     1      12.298  -9.337  20.344  1.00  0.00     0.201 C 
HETATM    3  C4  UNL     1      13.247  -8.410  21.014  1.00  0.00     0.046 C 
HETATM    4  N1  UNL     1      14.652  -8.579  20.623  1.00  0.00    -0.327 N 
HETATM    5  C10 UNL     1      15.092  -9.713  19.931  1.00  0.00     0.102 C 
HETATM    6  C11 UNL     1      16.557  -9.914  19.656  1.00  0.00     0.026 C 
HETATM    7  C12 UNL     1      16.459 -11.290  18.917  1.00  0.00     0.003 C 
HETATM    8  C13 UNL     1      15.228 -11.953  19.492  1.00  0.00     0.014 C 
HETATM    9  C14 UNL     1      14.827 -11.000  20.650  1.00  0.00     0.072 C 
HETATM   10  C15 UNL     1      13.585 -11.306  21.300  1.00  0.00     0.104 C 
ENDROOT
BRANCH   4  11
HETATM   11  C6  UNL     1      15.430  -7.474  20.968  1.00  0.00     0.136 C 
BRANCH  11  12
HETATM   12  O4  UNL     1      16.455  -7.643  21.767  1.00  0.00    -0.348 OA
ATOM     13  H4  UNL     1      17.304  -7.308  21.504  1.00  0.00     0.219 HD
ENDBRANCH  11  12
BRANCH  11  14
HETATM   14  C7  UNL     1      15.274  -6.081  20.564  1.00  0.00     0.206 C 
BRANCH  14  15
HETATM   15  N2  UNL     1      15.373  -5.236  21.781  1.00  0.00    -0.354 N 
HETATM   16  C8  UNL     1      14.212  -4.561  22.236  1.00  0.00     0.213 C 
HETATM   17  C9  UNL     1      14.273  -3.706  23.445  1.00  0.00     0.117 C 
HETATM   18  O5  UNL     1      13.134  -4.682  21.621  1.00  0.00    -0.274 OA
ATOM     19  H2  UNL     1      16.257  -5.144  22.281  1.00  0.00     0.162 HD
ENDBRANCH  14  15
ENDBRANCH  11  14
ENDBRANCH   4  11
BRANCH   3  20
HETATM   20  C5  UNL     1      12.921  -8.184  22.422  1.00  0.00     0.219 C 
BRANCH  20  21
HETATM   21  O3  UNL     1      11.850  -7.210  22.427  1.00  0.00    -0.395 OA
ATOM     22  H3  UNL     1      12.237  -6.397  22.123  1.00  0.00     0.209 HD
ENDBRANCH  20  21
ENDBRANCH   3  20
BRANCH   2  23
HETATM   23  O2  UNL     1      12.289  -9.248  18.951  1.00  0.00    -0.387 OA
ATOM     24  H2  UNL     1      12.353  -8.360  18.621  1.00  0.00     0.210 HD
ENDBRANCH   2  23
BRANCH   1  25
HETATM   25  O1  UNL     1      11.727 -11.492  19.838  1.00  0.00    -0.381 OA
HETATM   26  C1  UNL     1      10.418 -11.860  20.073  1.00  0.00     0.202 C 
ENDBRANCH   1  25
BRANCH  10  27
HETATM   27  N3  UNL     1      13.413 -12.673  21.603  1.00  0.00    -0.376 NA
HETATM   28  C16 UNL     1      13.250 -13.969  21.889  1.00  0.00     0.295 C 
HETATM   29  O6  UNL     1      13.467 -14.944  21.116  1.00  0.00    -0.257 OA
BRANCH  28  30
HETATM   30  C17 UNL     1      12.756 -14.449  23.251  1.00  0.00     0.093 C 
HETATM   31  C18 UNL     1      13.032 -13.364  24.225  1.00  0.00     0.015 C 
HETATM   32  C19 UNL     1      14.392 -13.425  24.862  1.00  0.00     0.001 C 
HETATM   33  C20 UNL     1      14.674 -14.802  25.404  1.00  0.00     0.000 C 
HETATM   34  C21 UNL     1      14.636 -15.772  24.249  1.00  0.00     0.001 C 
HETATM   35  C22 UNL     1      13.299 -15.784  23.553  1.00  0.00     0.015 C 
ENDBRANCH  28  30
ENDBRANCH  10  27
TORSDOF 10
ENDMDL
MODEL 5
REMARK VINA RESULT: -6.802602736      2.485      4.122
REMARK  10 active torsions:
REMARK  status: ('A' for Active; 'I' for Inactive)
REMARK    1  A    between atoms: O1_2  and  C2_3 
REMARK    2  A    between atoms: C3_4  and  O2_5 
REMARK    3  A    between atoms: C4_7  and  C5_8 
REMARK    4  A    between atoms: C5_8  and  O3_9 
REMARK    5  A    between atoms: N1_11  and  C6_12 
REMARK    6  A    between atoms: C6_12  and  O4_13 
REMARK    7  A    between atoms: C6_12  and  C7_15 
REMARK    8  A    between atoms: C7_15  and  N2_16 
REMARK       I    between atoms: N2_16  and  C8_18 
REMARK    9  A    between atoms: C15_26  and  N3_27 
REMARK       I    between atoms: N3_27  and  C16_28 
REMARK   10  A    between atoms: C16_28  and  C17_30 
ROOT
HETATM    1  C2  UNL     1      11.249  -6.803  20.411  1.00  0.00     0.215 C 
HETATM    2  C3  UNL     1      11.776  -5.463  20.024  1.00  0.00     0.201 C 
HETATM    3  C4  UNL     1      12.337  -4.655  21.138  1.00  0.00     0.046 C 
HETATM    4  N1  UNL     1      13.668  -5.074  21.593  1.00  0.00    -0.327 N 
HETATM    5  C10 UNL     1      14.215  -6.310  21.229  1.00  0.00     0.102 C 
HETATM    6  C11 UNL     1      15.526  -6.762  21.812  1.00  0.00     0.026 C 
HETATM    7  C12 UNL     1      15.618  -8.153  21.102  1.00  0.00     0.003 C 
HETATM    8  C13 UNL     1      14.184  -8.568  20.871  1.00  0.00     0.014 C 
HETATM    9  C14 UNL     1      13.379  -7.483  21.637  1.00  0.00     0.072 C 
HETATM   10  C15 UNL     1      11.955  -7.540  21.474  1.00  0.00     0.104 C 
ENDROOT
BRANCH   4  11
HETATM   11  C6  UNL     1      14.301  -4.086  22.347  1.00  0.00     0.136 C 
BRANCH  11  12
HETATM   12  O4  UNL     1      14.649  -2.966  21.763  1.00  0.00    -0.348 OA
ATOM     13  H4  UNL     1      14.426  -2.835  20.849  1.00  0.00     0.219 HD
ENDBRANCH  11  12
BRANCH  11  14
HETATM   14  C7  UNL     1      14.663  -4.102  23.760  1.00  0.00     0.206 C 
BRANCH  14  15
HETATM   15  N2  UNL     1      13.432  -4.369  24.546  1.00  0.00    -0.354 N 
HETATM   16  C8  UNL     1      13.139  -3.534  25.654  1.00  0.00     0.213 C 
HETATM   17  C9  UNL     1      11.920  -3.772  26.464  1.00  0.00     0.117 C 
HETATM   18  O5  UNL     1      13.902  -2.595  25.953  1.00  0.00    -0.274 OA
ATOM     19  H2  UNL     1      12.811  -5.137  24.295  1.00  0.00     0.162 HD
ENDBRANCH  14  15
ENDBRANCH  11  14
ENDBRANCH   4  11
BRANCH   3  20
HETATM   20  C5  UNL     1      11.330  -4.281  22.131  1.00  0.00     0.219 C 
BRANCH  20  21
HETATM   21  O3  UNL     1      10.466  -3.322  21.474  1.00  0.00    -0.395 OA
ATOM     22  H3  UNL     1       9.904  -2.970  22.156  1.00  0.00     0.209 HD
ENDBRANCH  20  21
ENDBRANCH   3  20
BRANCH   2  23
HETATM   23  O2  UNL     1      12.556  -5.473  18.866  1.00  0.00    -0.387 OA
ATOM     24  H2  UNL     1      12.397  -4.736  18.289  1.00  0.00     0.210 HD
ENDBRANCH   2  23
BRANCH   1  25
HETATM   25  O1  UNL     1      11.220  -7.529  19.219  1.00  0.00    -0.381 OA
HETATM   26  C1  UNL     1       9.961  -7.662  18.670  1.00  0.00     0.202 C 
ENDBRANCH   1  25
BRANCH  10  27
HETATM   27  N3  UNL     1      11.411  -8.837  21.587  1.00  0.00    -0.376 NA
HETATM   28  C16 UNL     1      10.895 -10.066  21.693  1.00  0.00     0.295 C 
HETATM   29  O6  UNL     1      10.221 -10.678  20.817  1.00  0.00    -0.257 OA
BRANCH  28  30
HETATM   30  C17 UNL     1      11.064 -10.918  22.947  1.00  0.00     0.093 C 
HETATM   31  C18 UNL     1      12.378 -10.566  23.542  1.00  0.00     0.015 C 
HETATM   32  C19 UNL     1      13.537 -11.368  23.021  1.00  0.00     0.001 C 
HETATM   33  C20 UNL     1      13.237 -12.844  23.062  1.00  0.00     0.000 C 
HETATM   34  C21 UNL     1      12.037 -13.098  22.185  1.00  0.00     0.001 C 
HETATM   35  C22 UNL     1      10.819 -12.337  22.641  1.00  0.00     0.015 C 
ENDBRANCH  28  30
ENDBRANCH  10  27
TORSDOF 10
ENDMDL
