MODEL 1
REMARK VINA RESULT: -6.251688716      0.000      0.000
REMARK  10 active torsions:
REMARK  status: ('A' for Active; 'I' for Inactive)
REMARK    1  A    between atoms: N1_2  and  C2_3 
REMARK    2  A    between atoms: N1_2  and  C13_19 
REMARK    3  A    between atoms: C2_3  and  O1_4 
REMARK       I    between atoms: N3_9  and  C5_10 
REMARK    4  A    between atoms: C5_10  and  C6_12 
REMARK    5  A    between atoms: C13_19  and  C14_20 
REMARK    6  A    between atoms: C13_19  and  C18_31 
REMARK    7  A    between atoms: C16_25  and  O3_26 
REMARK    8  A    between atoms: C17_28  and  O4_29 
REMARK    9  A    between atoms: C18_31  and  C21_34 
REMARK   10  A    between atoms: C21_34  and  C22_35 
ROOT
HETATM    1  C13 UNL     1      12.760  -5.755  20.524  1.00  0.00     0.034 C 
ENDROOT
BRANCH   1   2
HETATM    2  N1  UNL     1      12.373  -6.922  19.719  1.00  0.00    -0.322 N 
HETATM    3  C1  UNL     1      11.362  -6.791  18.709  1.00  0.00     0.159 C 
BRANCH   2   4
HETATM    4  C2  UNL     1      13.005  -8.180  19.934  1.00  0.00     0.221 C 
HETATM    5  N2  UNL     1      12.661  -9.338  20.550  1.00  0.00    -0.344 N 
HETATM    6  C3  UNL     1      13.682 -10.448  20.549  1.00  0.00     0.146 C 
HETATM    7  C12 UNL     1      11.471  -9.710  21.217  1.00  0.00     0.146 C 
HETATM    8  C4  UNL     1      13.981 -10.879  21.963  1.00  0.00     0.145 C 
HETATM    9  N3  UNL     1      12.765 -11.110  22.695  1.00  0.00    -0.349 N 
HETATM   10  C5  UNL     1      12.499 -12.283  23.433  1.00  0.00     0.224 C 
HETATM   11  C11 UNL     1      11.753 -10.064  22.689  1.00  0.00     0.145 C 
HETATM   12  O2  UNL     1      11.386 -12.402  24.013  1.00  0.00    -0.273 OA
BRANCH   4  13
HETATM   13  O1  UNL     1      14.240  -8.244  19.405  1.00  0.00    -0.332 OA
ATOM     14  H1  UNL     1      14.627  -9.109  19.471  1.00  0.00     0.221 HD
ENDBRANCH   4  13
BRANCH  10  15
HETATM   15  C6  UNL     1      13.494 -13.369  23.540  1.00  0.00     0.078 C 
HETATM   16  C7  UNL     1      14.101 -13.521  24.903  1.00  0.00     0.014 C 
HETATM   17  C8  UNL     1      14.713 -14.926  24.838  1.00  0.00     0.001 C 
HETATM   18  C9  UNL     1      13.968 -15.660  23.773  1.00  0.00     0.001 C 
HETATM   19  C10 UNL     1      12.852 -14.736  23.334  1.00  0.00     0.014 C 
ENDBRANCH  10  15
ENDBRANCH   2   4
ENDBRANCH   1   2
BRANCH   1  20
HETATM   20  C14 UNL     1      13.634  -4.761  19.893  1.00  0.00     0.263 C 
HETATM   21  N4  UNL     1      13.734  -4.721  18.476  1.00  0.00    -0.061 N 
HETATM   22  C15 UNL     1      14.977  -4.128  18.089  1.00  0.00     0.267 C 
ATOM     23  H42 UNL     1      13.603  -5.642  18.058  1.00  0.00     0.278 HD
ATOM     24  H41 UNL     1      12.936  -4.248  18.050  1.00  0.00     0.278 HD
HETATM   25  C16 UNL     1      15.820  -3.913  19.311  1.00  0.00     0.174 C 
HETATM   26  C17 UNL     1      15.068  -4.760  20.344  1.00  0.00     0.184 C 
BRANCH  25  27
HETATM   27  O3  UNL     1      15.935  -2.602  19.697  1.00  0.00    -0.391 OA
ATOM     28  H3  UNL     1      16.640  -2.128  19.273  1.00  0.00     0.210 HD
ENDBRANCH  25  27
BRANCH  26  29
HETATM   29  O4  UNL     1      15.706  -5.957  20.390  1.00  0.00    -0.390 OA
ATOM     30  H4  UNL     1      15.731  -6.467  19.589  1.00  0.00     0.210 HD
ENDBRANCH  26  29
ENDBRANCH   1  20
BRANCH   1  31
HETATM   31  C18 UNL     1      11.644  -5.224  21.380  1.00  0.00     0.003 C 
HETATM   32  C19 UNL     1      10.680  -4.495  20.464  1.00  0.00     0.021 C 
HETATM   33  C20 UNL     1      10.826  -6.207  22.148  1.00  0.00     0.021 C 
BRANCH  31  34
HETATM   34  C21 UNL     1      12.158  -4.197  22.353  1.00  0.00     0.128 C 
BRANCH  34  35
HETATM   35  C22 UNL     1      12.802  -4.738  23.559  1.00  0.00     0.173 C 
HETATM   36  O5  UNL     1      14.026  -5.015  23.623  1.00  0.00    -0.648 OA
HETATM   37  O6  UNL     1      12.089  -4.991  24.745  1.00  0.00    -0.648 OA
ENDBRANCH  34  35
ENDBRANCH  31  34
ENDBRANCH   1  31
TORSDOF 10
ENDMDL
MODEL 2
REMARK VINA RESULT: -6.164773284      1.802      2.537
REMARK  10 active torsions:
REMARK  status: ('A' for Active; 'I' for Inactive)
REMARK    1  A    between atoms: N1_2  and  C2_3 
REMARK    2  A    between atoms: N1_2  and  C13_19 
REMARK    3  A    between atoms: C2_3  and  O1_4 
REMARK       I    between atoms: N3_9  and  C5_10 
REMARK    4  A    between atoms: C5_10  and  C6_12 
REMARK    5  A    between atoms: C13_19  and  C14_20 
REMARK    6  A    between atoms: C13_19  and  C18_31 
REMARK    7  A    between atoms: C16_25  and  O3_26 
REMARK    8  A    between atoms: C17_28  and  O4_29 
REMARK    9  A    between atoms: C18_31  and  C21_34 
REMARK   10  A    between atoms: C21_34  and  C22_35 
ROOT
HETATM    1  C13 UNL     1      11.884  -6.618  20.395  1.00  0.00     0.034 C 
ENDROOT
BRANCH   1   2
HETATM    2  N1  UNL     1      11.561  -8.049  20.322  1.00  0.00    -0.322 N 
HETATM    3  C1  UNL     1      11.089  -8.614  19.090  1.00  0.00     0.159 C 
BRANCH   2   4
HETATM    4  C2  UNL     1      11.723  -8.879  21.468  1.00  0.00     0.221 C 
HETATM    5  N2  UNL     1      12.649  -9.777  21.886  1.00  0.00    -0.344 N 
HETATM    6  C3  UNL     1      12.403 -10.458  23.208  1.00  0.00     0.146 C 
HETATM    7  C12 UNL     1      13.854 -10.206  21.283  1.00  0.00     0.146 C 
HETATM    8  C4  UNL     1      12.399 -11.955  23.028  1.00  0.00     0.145 C 
HETATM    9  N3  UNL     1      13.549 -12.383  22.278  1.00  0.00    -0.349 N 
HETATM   10  C5  UNL     1      14.420 -13.415  22.687  1.00  0.00     0.224 C 
HETATM   11  C11 UNL     1      13.824 -11.722  21.010  1.00  0.00     0.145 C 
HETATM   12  O2  UNL     1      15.421 -13.691  21.972  1.00  0.00    -0.273 OA
BRANCH   4  13
HETATM   13  O1  UNL     1      10.720  -8.749  22.356  1.00  0.00    -0.332 OA
ATOM     14  H1  UNL     1      10.595  -9.524  22.890  1.00  0.00     0.221 HD
ENDBRANCH   4  13
BRANCH  10  15
HETATM   15  C6  UNL     1      14.182 -14.176  23.930  1.00  0.00     0.078 C 
HETATM   16  C7  UNL     1      14.540 -15.630  23.845  1.00  0.00     0.014 C 
HETATM   17  C8  UNL     1      14.619 -16.039  25.321  1.00  0.00     0.001 C 
HETATM   18  C9  UNL     1      14.879 -14.786  26.091  1.00  0.00     0.001 C 
HETATM   19  C10 UNL     1      15.090 -13.700  25.058  1.00  0.00     0.014 C 
ENDBRANCH  10  15
ENDBRANCH   2   4
ENDBRANCH   1   2
BRANCH   1  20
HETATM   20  C14 UNL     1      13.246  -6.214  20.032  1.00  0.00     0.263 C 
HETATM   21  N4  UNL     1      14.104  -7.153  19.397  1.00  0.00    -0.061 N 
HETATM   22  C15 UNL     1      15.471  -6.801  19.629  1.00  0.00     0.267 C 
ATOM     23  H42 UNL     1      13.902  -8.110  19.685  1.00  0.00     0.278 HD
ATOM     24  H41 UNL     1      13.897  -7.249  18.403  1.00  0.00     0.278 HD
HETATM   25  C16 UNL     1      15.527  -5.664  20.605  1.00  0.00     0.174 C 
HETATM   26  C17 UNL     1      14.092  -5.664  21.146  1.00  0.00     0.184 C 
BRANCH  25  27
HETATM   27  O3  UNL     1      15.874  -4.458  20.052  1.00  0.00    -0.391 OA
ATOM     28  H3  UNL     1      15.216  -3.779  20.145  1.00  0.00     0.210 HD
ENDBRANCH  25  27
BRANCH  26  29
HETATM   29  O4  UNL     1      14.124  -6.367  22.307  1.00  0.00    -0.390 OA
ATOM     30  H4  UNL     1      13.923  -5.895  23.106  1.00  0.00     0.210 HD
ENDBRANCH  26  29
ENDBRANCH   1  20
BRANCH   1  31
HETATM   31  C18 UNL     1      10.769  -5.730  19.919  1.00  0.00     0.003 C 
HETATM   32  C19 UNL     1      11.287  -4.956  18.723  1.00  0.00     0.021 C 
HETATM   33  C20 UNL     1       9.500  -6.378  19.477  1.00  0.00     0.021 C 
BRANCH  31  34
HETATM   34  C21 UNL     1      10.417  -4.705  20.963  1.00  0.00     0.128 C 
BRANCH  34  35
HETATM   35  C22 UNL     1      10.498  -5.170  22.357  1.00  0.00     0.173 C 
HETATM   36  O5  UNL     1       9.691  -5.990  22.858  1.00  0.00    -0.648 OA
HETATM   37  O6  UNL     1      11.497  -4.725  23.243  1.00  0.00    -0.648 OA
ENDBRANCH  34  35
ENDBRANCH  31  34
ENDBRANCH   1  31
TORSDOF 10
ENDMDL
MODEL 3
REMARK VINA RESULT: -6.142677903      4.309      7.045
REMARK  10 active torsions:
REMARK  status: ('A' for Active; 'I' for Inactive)
REMARK    1  A    between atoms: N1_2  and  C2_3 
REMARK    2  A    between atoms: N1_2  and  C13_19 
REMARK    3  A    between atoms: C2_3  and  O1_4 
REMARK       I    between atoms: N3_9  and  C5_10 
REMARK    4  A    between atoms: C5_10  and  C6_12 
REMARK    5  A    between atoms: C13_19  and  C14_20 
REMARK    6  A    between atoms: C13_19  and  C18_31 
REMARK    7  A    between atoms: C16_25  and  O3_26 
REMARK    8  A    between atoms: C17_28  and  O4_29 
REMARK    9  A    between atoms: C18_31  and  C21_34 
REMARK   10  A    between atoms: C21_34  and  C22_35 
ROOT
HETATM    1  C13 UNL     1      16.319  -6.815  17.029  1.00  0.00     0.034 C 
ENDROOT
BRANCH   1   2
HETATM    2  N1  UNL     1      15.151  -7.354  17.740  1.00  0.00    -0.322 N 
HETATM    3  C1  UNL     1      14.063  -7.924  16.998  1.00  0.00     0.159 C 
BRANCH   2   4
HETATM    4  C2  UNL     1      15.100  -7.318  19.162  1.00  0.00     0.221 C 
HETATM    5  N2  UNL     1      14.253  -6.795  20.084  1.00  0.00    -0.344 N 
HETATM    6  C3  UNL     1      14.609  -6.991  21.536  1.00  0.00     0.146 C 
HETATM    7  C12 UNL     1      13.048  -6.073  19.924  1.00  0.00     0.146 C 
HETATM    8  C4  UNL     1      14.696  -5.656  22.233  1.00  0.00     0.145 C 
HETATM    9  N3  UNL     1      13.537  -4.853  21.947  1.00  0.00    -0.349 N 
HETATM   10  C5  UNL     1      12.754  -4.217  22.934  1.00  0.00     0.224 C 
HETATM   11  C11 UNL     1      13.158  -4.672  20.553  1.00  0.00     0.145 C 
HETATM   12  O2  UNL     1      11.737  -3.562  22.579  1.00  0.00    -0.273 OA
BRANCH   4  13
HETATM   13  O1  UNL     1      16.137  -7.951  19.741  1.00  0.00    -0.332 OA
ATOM     14  H1  UNL     1      15.881  -8.745  20.194  1.00  0.00     0.221 HD
ENDBRANCH   4  13
BRANCH  10  15
HETATM   15  C6  UNL     1      13.103  -4.301  24.366  1.00  0.00     0.078 C 
HETATM   16  C7  UNL     1      14.175  -3.348  24.800  1.00  0.00     0.014 C 
HETATM   17  C8  UNL     1      14.012  -3.337  26.325  1.00  0.00     0.001 C 
HETATM   18  C9  UNL     1      12.607  -3.762  26.601  1.00  0.00     0.001 C 
HETATM   19  C10 UNL     1      11.935  -3.874  25.249  1.00  0.00     0.014 C 
ENDBRANCH  10  15
ENDBRANCH   2   4
ENDBRANCH   1   2
BRANCH   1  20
HETATM   20  C14 UNL     1      17.008  -7.706  16.092  1.00  0.00     0.263 C 
HETATM   21  N4  UNL     1      16.254  -8.658  15.354  1.00  0.00    -0.061 N 
HETATM   22  C15 UNL     1      17.092  -9.748  14.959  1.00  0.00     0.267 C 
ATOM     23  H42 UNL     1      15.432  -8.975  15.867  1.00  0.00     0.278 HD
ATOM     24  H41 UNL     1      15.779  -8.234  14.557  1.00  0.00     0.278 HD
HETATM   25  C16 UNL     1      18.435  -9.595  15.609  1.00  0.00     0.174 C 
HETATM   26  C17 UNL     1      18.136  -8.521  16.661  1.00  0.00     0.184 C 
BRANCH  25  27
HETATM   27  O3  UNL     1      19.440  -9.220  14.754  1.00  0.00    -0.391 OA
ATOM     28  H3  UNL     1      19.993  -8.520  15.080  1.00  0.00     0.210 HD
ENDBRANCH  25  27
BRANCH  26  29
HETATM   29  O4  UNL     1      17.900  -9.183  17.823  1.00  0.00    -0.390 OA
ATOM     30  H4  UNL     1      18.405  -9.971  17.985  1.00  0.00     0.210 HD
ENDBRANCH  26  29
ENDBRANCH   1  20
BRANCH   1  31
HETATM   31  C18 UNL     1      16.147  -5.385  16.597  1.00  0.00     0.003 C 
HETATM   32  C19 UNL     1      16.326  -5.345  15.092  1.00  0.00     0.021 C 
HETATM   33  C20 UNL     1      14.840  -4.724  16.877  1.00  0.00     0.021 C 
BRANCH  31  34
HETATM   34  C21 UNL     1      17.232  -4.517  17.173  1.00  0.00     0.128 C 
BRANCH  34  35
HETATM   35  C22 UNL     1      16.834  -3.692  18.325  1.00  0.00     0.173 C 
HETATM   36  O5  UNL     1      16.728  -2.442  18.274  1.00  0.00    -0.648 OA
HETATM   37  O6  UNL     1      16.542  -4.247  19.584  1.00  0.00    -0.648 OA
ENDBRANCH  34  35
ENDBRANCH  31  34
ENDBRANCH   1  31
TORSDOF 10
ENDMDL
MODEL 4
REMARK VINA RESULT: -6.089000629      2.235      3.251
REMARK  10 active torsions:
REMARK  status: ('A' for Active; 'I' for Inactive)
REMARK    1  A    between atoms: N1_2  and  C2_3 
REMARK    2  A    between atoms: N1_2  and  C13_19 
REMARK    3  A    between atoms: C2_3  and  O1_4 
REMARK       I    between atoms: N3_9  and  C5_10 
REMARK    4  A    between atoms: C5_10  and  C6_12 
REMARK    5  A    between atoms: C13_19  and  C14_20 
REMARK    6  A    between atoms: C13_19  and  C18_31 
REMARK    7  A    between atoms: C16_25  and  O3_26 
REMARK    8  A    between atoms: C17_28  and  O4_29 
REMARK    9  A    between atoms: C18_31  and  C21_34 
REMARK   10  A    between atoms: C21_34  and  C22_35 
ROOT
HETATM    1  C13 UNL     1      11.453  -6.313  20.757  1.00  0.00     0.034 C 
ENDROOT
BRANCH   1   2
HETATM    2  N1  UNL     1      11.534  -7.761  20.526  1.00  0.00    -0.322 N 
HETATM    3  C1  UNL     1      11.461  -8.278  19.189  1.00  0.00     0.159 C 
BRANCH   2   4
HETATM    4  C2  UNL     1      11.693  -8.653  21.625  1.00  0.00     0.221 C 
HETATM    5  N2  UNL     1      12.612  -9.583  21.987  1.00  0.00    -0.344 N 
HETATM    6  C3  UNL     1      12.366 -10.331  23.272  1.00  0.00     0.146 C 
HETATM    7  C12 UNL     1      13.808  -9.993  21.353  1.00  0.00     0.146 C 
HETATM    8  C4  UNL     1      12.344 -11.816  23.012  1.00  0.00     0.145 C 
HETATM    9  N3  UNL     1      13.484 -12.216  22.232  1.00  0.00    -0.349 N 
HETATM   10  C5  UNL     1      14.345 -13.278  22.579  1.00  0.00     0.224 C 
HETATM   11  C11 UNL     1      13.758 -11.491  20.999  1.00  0.00     0.145 C 
HETATM   12  O2  UNL     1      15.338 -13.527  21.843  1.00  0.00    -0.273 OA
BRANCH   4  13
HETATM   13  O1  UNL     1      10.698  -8.560  22.525  1.00  0.00    -0.332 OA
ATOM     14  H1  UNL     1      10.722  -9.250  23.177  1.00  0.00     0.221 HD
ENDBRANCH   4  13
BRANCH  10  15
HETATM   15  C6  UNL     1      14.106 -14.103  23.781  1.00  0.00     0.078 C 
HETATM   16  C7  UNL     1      14.511 -15.539  23.638  1.00  0.00     0.014 C 
HETATM   17  C8  UNL     1      14.572 -16.013  25.095  1.00  0.00     0.001 C 
HETATM   18  C9  UNL     1      14.778 -14.790  25.927  1.00  0.00     0.001 C 
HETATM   19  C10 UNL     1      14.976 -13.652  24.948  1.00  0.00     0.014 C 
ENDBRANCH  10  15
ENDBRANCH   2   4
ENDBRANCH   1   2
BRANCH   1  20
HETATM   20  C14 UNL     1      12.697  -5.612  21.091  1.00  0.00     0.263 C 
HETATM   21  N4  UNL     1      13.941  -6.180  20.704  1.00  0.00    -0.061 N 
HETATM   22  C15 UNL     1      14.985  -5.699  21.556  1.00  0.00     0.267 C 
ATOM     23  H42 UNL     1      13.905  -7.199  20.681  1.00  0.00     0.278 HD
ATOM     24  H41 UNL     1      14.146  -6.015  19.718  1.00  0.00     0.278 HD
HETATM   25  C16 UNL     1      14.379  -4.899  22.671  1.00  0.00     0.174 C 
HETATM   26  C17 UNL     1      12.900  -5.282  22.543  1.00  0.00     0.184 C 
BRANCH  25  27
HETATM   27  O3  UNL     1      14.577  -3.546  22.570  1.00  0.00    -0.391 OA
ATOM     28  H3  UNL     1      13.800  -3.051  22.341  1.00  0.00     0.210 HD
ENDBRANCH  25  27
BRANCH  26  29
HETATM   29  O4  UNL     1      12.687  -6.276  23.442  1.00  0.00    -0.390 OA
ATOM     30  H4  UNL     1      13.127  -6.206  24.282  1.00  0.00     0.210 HD
ENDBRANCH  26  29
ENDBRANCH   1  20
BRANCH   1  31
HETATM   31  C18 UNL     1      10.517  -5.610  19.814  1.00  0.00     0.003 C 
HETATM   32  C19 UNL     1      10.192  -4.260  20.423  1.00  0.00     0.021 C 
HETATM   33  C20 UNL     1      10.998  -5.335  18.428  1.00  0.00     0.021 C 
BRANCH  31  34
HETATM   34  C21 UNL     1       9.210  -6.348  19.706  1.00  0.00     0.128 C 
BRANCH  34  35
HETATM   35  C22 UNL     1       8.322  -6.234  20.873  1.00  0.00     0.173 C 
HETATM   36  O5  UNL     1       8.503  -6.867  21.942  1.00  0.00    -0.648 OA
HETATM   37  O6  UNL     1       7.190  -5.398  20.879  1.00  0.00    -0.648 OA
ENDBRANCH  34  35
ENDBRANCH  31  34
ENDBRANCH   1  31
TORSDOF 10
ENDMDL
MODEL 5
REMARK VINA RESULT: -6.053430083      1.932      2.465
REMARK  10 active torsions:
REMARK  status: ('A' for Active; 'I' for Inactive)
REMARK    1  A    between atoms: N1_2  and  C2_3 
REMARK    2  A    between atoms: N1_2  and  C13_19 
REMARK    3  A    between atoms: C2_3  and  O1_4 
REMARK       I    between atoms: N3_9  and  C5_10 
REMARK    4  A    between atoms: C5_10  and  C6_12 
REMARK    5  A    between atoms: C13_19  and  C14_20 
REMARK    6  A    between atoms: C13_19  and  C18_31 
REMARK    7  A    between atoms: C16_25  and  O3_26 
REMARK    8  A    between atoms: C17_28  and  O4_29 
REMARK    9  A    between atoms: C18_31  and  C21_34 
REMARK   10  A    between atoms: C21_34  and  C22_35 
ROOT
HETATM    1  C13 UNL     1      12.841  -6.711  20.065  1.00  0.00     0.034 C 
ENDROOT
BRANCH   1   2
HETATM    2  N1  UNL     1      11.969  -7.877  20.261  1.00  0.00    -0.322 N 
HETATM    3  C1  UNL     1      10.972  -8.197  19.281  1.00  0.00     0.159 C 
BRANCH   2   4
HETATM    4  C2  UNL     1      12.117  -8.694  21.418  1.00  0.00     0.221 C 
HETATM    5  N2  UNL     1      12.980  -9.665  21.810  1.00  0.00    -0.344 N 
HETATM    6  C3  UNL     1      12.745 -10.293  23.160  1.00  0.00     0.146 C 
HETATM    7  C12 UNL     1      14.107 -10.215  21.156  1.00  0.00     0.146 C 
HETATM    8  C4  UNL     1      12.596 -11.787  23.018  1.00  0.00     0.145 C 
HETATM    9  N3  UNL     1      13.661 -12.333  22.220  1.00  0.00    -0.349 N 
HETATM   10  C5  UNL     1      14.456 -13.432  22.610  1.00  0.00     0.224 C 
HETATM   11  C11 UNL     1      13.926 -11.727  20.923  1.00  0.00     0.145 C 
HETATM   12  O2  UNL     1      15.389 -13.813  21.851  1.00  0.00    -0.273 OA
BRANCH   4  13
HETATM   13  O1  UNL     1      11.179  -8.455  22.353  1.00  0.00    -0.332 OA
ATOM     14  H1  UNL     1      11.115  -9.149  22.999  1.00  0.00     0.221 HD
ENDBRANCH   4  13
BRANCH  10  15
HETATM   15  C6  UNL     1      14.217 -14.143  23.882  1.00  0.00     0.078 C 
HETATM   16  C7  UNL     1      14.555 -15.604  23.849  1.00  0.00     0.014 C 
HETATM   17  C8  UNL     1      14.639 -15.958  25.338  1.00  0.00     0.001 C 
HETATM   18  C9  UNL     1      14.924 -14.682  26.059  1.00  0.00     0.001 C 
HETATM   19  C10 UNL     1      15.142 -13.638  24.984  1.00  0.00     0.014 C 
ENDBRANCH  10  15
ENDBRANCH   2   4
ENDBRANCH   1   2
BRANCH   1  20
HETATM   20  C14 UNL     1      13.813  -6.773  18.969  1.00  0.00     0.263 C 
HETATM   21  N4  UNL     1      13.924  -7.966  18.203  1.00  0.00    -0.061 N 
HETATM   22  C15 UNL     1      15.222  -8.046  17.607  1.00  0.00     0.267 C 
ATOM     23  H42 UNL     1      13.705  -8.795  18.755  1.00  0.00     0.278 HD
ATOM     24  H41 UNL     1      13.179  -8.046  17.510  1.00  0.00     0.278 HD
HETATM   25  C16 UNL     1      16.076  -6.932  18.136  1.00  0.00     0.174 C 
HETATM   26  C17 UNL     1      15.238  -6.456  19.329  1.00  0.00     0.184 C 
BRANCH  25  27
HETATM   27  O3  UNL     1      16.318  -5.927  17.237  1.00  0.00    -0.391 OA
ATOM     28  H3  UNL     1      16.432  -5.068  17.627  1.00  0.00     0.210 HD
ENDBRANCH  25  27
BRANCH  26  29
HETATM   29  O4  UNL     1      15.753  -7.070  20.424  1.00  0.00    -0.390 OA
ATOM     30  H4  UNL     1      16.521  -6.676  20.823  1.00  0.00     0.210 HD
ENDBRANCH  26  29
ENDBRANCH   1  20
BRANCH   1  31
HETATM   31  C18 UNL     1      12.138  -5.399  20.268  1.00  0.00     0.003 C 
HETATM   32  C19 UNL     1      12.269  -4.612  18.978  1.00  0.00     0.021 C 
HETATM   33  C20 UNL     1      10.682  -5.430  20.589  1.00  0.00     0.021 C 
BRANCH  31  34
HETATM   34  C21 UNL     1      12.823  -4.582  21.330  1.00  0.00     0.128 C 
BRANCH  34  35
HETATM   35  C22 UNL     1      13.366  -5.348  22.463  1.00  0.00     0.173 C 
HETATM   36  O5  UNL     1      14.594  -5.530  22.648  1.00  0.00    -0.648 OA
HETATM   37  O6  UNL     1      12.540  -5.943  23.434  1.00  0.00    -0.648 OA
ENDBRANCH  34  35
ENDBRANCH  31  34
ENDBRANCH   1  31
TORSDOF 10
ENDMDL
