MODEL 1
REMARK VINA RESULT: -8.801343184      0.000      0.000
REMARK  11 active torsions:
REMARK  status: ('A' for Active; 'I' for Inactive)
REMARK    1  A    between atoms: C2_2  and  C4_4 
REMARK    2  A    between atoms: C4_4  and  C5_5 
REMARK    3  A    between atoms: C5_5  and  N1_6 
REMARK    4  A    between atoms: C5_5  and  C22_30 
REMARK       I    between atoms: N1_6  and  C6_8 
REMARK    5  A    between atoms: C6_8  and  O2_10 
REMARK    6  A    between atoms: O2_10  and  C7_11 
REMARK    7  A    between atoms: C11_15  and  O3_16 
REMARK    8  A    between atoms: O3_16  and  C12_17 
REMARK    9  A    between atoms: C12_17  and  C13_21 
REMARK       I    between atoms: C22_30  and  N3_32 
REMARK   10  A    between atoms: N3_32  and  C23_34 
REMARK   11  A    between atoms: C23_34  and  C24_35 
ROOT
HETATM    1  N1  UNL     1       2.742 -20.959  25.616  1.00  0.00    -0.324 N 
ATOM      2  H1  UNL     1       2.833 -19.943  25.618  1.00  0.00     0.165 HD
HETATM    3  C6  UNL     1       3.710 -21.713  24.954  1.00  0.00     0.361 C 
HETATM    4  O1  UNL     1       3.563 -22.972  24.956  1.00  0.00    -0.238 OA
ENDROOT
BRANCH   3   5
HETATM    5  O2  UNL     1       4.774 -21.169  24.323  1.00  0.00    -0.297 OA
BRANCH   5   6
HETATM    6  C7  UNL     1       5.289 -19.893  24.511  1.00  0.00     0.146 C 
HETATM    7  C8  UNL     1       4.441 -18.765  23.920  1.00  0.00     0.021 C 
HETATM    8  C9  UNL     1       3.936 -17.867  24.975  1.00  0.00     0.010 C 
HETATM    9  C18 UNL     1       5.637 -18.347  23.157  1.00  0.00     0.005 C 
HETATM   10  C10 UNL     1       4.262 -16.420  24.881  1.00  0.00     0.033 C 
HETATM   11  C11 UNL     1       5.129 -16.051  23.735  1.00  0.00     0.130 C 
HETATM   12  C17 UNL     1       6.266 -17.043  23.657  1.00  0.00     0.038 C 
HETATM   13  C19 UNL     1       6.415 -19.586  23.564  1.00  0.00    -0.016 C 
HETATM   14  C20 UNL     1       6.591 -20.480  22.371  1.00  0.00     0.018 C 
HETATM   15  C21 UNL     1       7.727 -19.258  24.271  1.00  0.00     0.018 C 
BRANCH  11  16
HETATM   16  O3  UNL     1       5.494 -14.748  23.580  1.00  0.00    -0.333 OA
BRANCH  16  17
HETATM   17  C12 UNL     1       4.969 -13.732  22.823  1.00  0.00     0.119 C 
HETATM   18  N2  UNL     1       4.669 -12.686  23.395  1.00  0.00    -0.383 N 
ATOM     19  H22 UNL     1       4.803 -12.569  24.400  1.00  0.00     0.158 HD
ATOM     20  H21 UNL     1       4.277 -11.930  22.832  1.00  0.00     0.158 HD
BRANCH  17  21
HETATM   21  C13 UNL     1       4.769 -13.905  21.329  1.00  0.00     0.013 C 
HETATM   22  C14 UNL     1       6.127 -14.210  20.733  1.00  0.00     0.023 C 
HETATM   23  C15 UNL     1       4.273 -12.607  20.745  1.00  0.00     0.023 C 
HETATM   24  C16 UNL     1       3.812 -15.034  21.040  1.00  0.00     0.023 C 
ENDBRANCH  17  21
ENDBRANCH  16  17
ENDBRANCH  11  16
ENDBRANCH   5   6
ENDBRANCH   3   5
BRANCH   1  25
HETATM   25  C5  UNL     1       1.621 -21.551  26.295  1.00  0.00     0.179 C 
BRANCH  25  26
HETATM   26  C4  UNL     1       1.233 -20.783  27.515  1.00  0.00     0.038 C 
BRANCH  26  27
HETATM   27  C2  UNL     1       0.660 -21.748  28.560  1.00  0.00    -0.020 C 
HETATM   28  C1  UNL     1       0.839 -21.081  29.913  1.00  0.00     0.009 C 
HETATM   29  C3  UNL     1       1.567 -22.992  28.560  1.00  0.00     0.009 C 
ENDBRANCH  26  27
ENDBRANCH  25  26
BRANCH  25  30
HETATM   30  C22 UNL     1       0.455 -21.624  25.318  1.00  0.00     0.240 C 
HETATM   31  O4  UNL     1      -0.445 -20.801  25.338  1.00  0.00    -0.271 OA
HETATM   32  N3  UNL     1       0.449 -22.699  24.386  1.00  0.00    -0.359 N 
ATOM     33  H3  UNL     1       1.205 -23.381  24.433  1.00  0.00     0.162 HD
BRANCH  32  34
HETATM   34  C23 UNL     1      -0.582 -22.879  23.364  1.00  0.00     0.127 C 
BRANCH  34  35
HETATM   35  C24 UNL     1      -0.577 -24.351  22.973  1.00  0.00     0.006 C 
HETATM   36  C25 UNL     1      -1.680 -25.138  23.625  1.00  0.00     0.034 C 
HETATM   37  C26 UNL     1      -1.513 -26.593  23.188  1.00  0.00     0.232 C 
HETATM   38  N4  UNL     1      -0.234 -27.145  23.585  1.00  0.00    -0.075 N 
HETATM   39  C27 UNL     1       0.847 -26.348  23.043  1.00  0.00     0.232 C 
ATOM     40  H42 UNL     1      -0.162 -27.247  24.597  1.00  0.00     0.277 HD
ATOM     41  H41 UNL     1      -0.149 -28.128  23.328  1.00  0.00     0.277 HD
HETATM   42  C28 UNL     1       0.720 -24.952  23.589  1.00  0.00     0.034 C 
ENDBRANCH  34  35
ENDBRANCH  32  34
ENDBRANCH  25  30
ENDBRANCH   1  25
TORSDOF 11
ENDMDL
MODEL 2
REMARK VINA RESULT: -8.787593560      1.678      4.180
REMARK  11 active torsions:
REMARK  status: ('A' for Active; 'I' for Inactive)
REMARK    1  A    between atoms: C2_2  and  C4_4 
REMARK    2  A    between atoms: C4_4  and  C5_5 
REMARK    3  A    between atoms: C5_5  and  N1_6 
REMARK    4  A    between atoms: C5_5  and  C22_30 
REMARK       I    between atoms: N1_6  and  C6_8 
REMARK    5  A    between atoms: C6_8  and  O2_10 
REMARK    6  A    between atoms: O2_10  and  C7_11 
REMARK    7  A    between atoms: C11_15  and  O3_16 
REMARK    8  A    between atoms: O3_16  and  C12_17 
REMARK    9  A    between atoms: C12_17  and  C13_21 
REMARK       I    between atoms: C22_30  and  N3_32 
REMARK   10  A    between atoms: N3_32  and  C23_34 
REMARK   11  A    between atoms: C23_34  and  C24_35 
ROOT
HETATM    1  N1  UNL     1       2.870 -22.737  24.373  1.00  0.00    -0.324 N 
ATOM      2  H1  UNL     1       3.387 -23.333  23.725  1.00  0.00     0.165 HD
HETATM    3  C6  UNL     1       3.479 -21.573  24.838  1.00  0.00     0.361 C 
HETATM    4  O1  UNL     1       2.819 -20.861  25.653  1.00  0.00    -0.238 OA
ENDROOT
BRANCH   3   5
HETATM    5  O2  UNL     1       4.719 -21.182  24.468  1.00  0.00    -0.297 OA
BRANCH   5   6
HETATM    6  C7  UNL     1       5.262 -19.910  24.599  1.00  0.00     0.146 C 
HETATM    7  C8  UNL     1       4.426 -18.788  23.982  1.00  0.00     0.021 C 
HETATM    8  C9  UNL     1       3.959 -17.841  25.012  1.00  0.00     0.010 C 
HETATM    9  C18 UNL     1       5.616 -18.422  23.183  1.00  0.00     0.005 C 
HETATM   10  C10 UNL     1       4.312 -16.406  24.858  1.00  0.00     0.033 C 
HETATM   11  C11 UNL     1       5.165 -16.097  23.684  1.00  0.00     0.130 C 
HETATM   12  C17 UNL     1       6.280 -17.115  23.622  1.00  0.00     0.038 C 
HETATM   13  C19 UNL     1       6.376 -19.662  23.621  1.00  0.00    -0.016 C 
HETATM   14  C20 UNL     1       6.512 -20.603  22.459  1.00  0.00     0.018 C 
HETATM   15  C21 UNL     1       7.708 -19.336  24.291  1.00  0.00     0.018 C 
BRANCH  11  16
HETATM   16  O3  UNL     1       5.553 -14.808  23.474  1.00  0.00    -0.333 OA
BRANCH  16  17
HETATM   17  C12 UNL     1       4.978 -13.780  22.772  1.00  0.00     0.119 C 
HETATM   18  N2  UNL     1       4.641 -12.776  23.399  1.00  0.00    -0.383 N 
ATOM     19  H22 UNL     1       4.783 -12.703  24.407  1.00  0.00     0.158 HD
ATOM     20  H21 UNL     1       4.213 -12.011  22.877  1.00  0.00     0.158 HD
BRANCH  17  21
HETATM   21  C13 UNL     1       4.768 -13.888  21.275  1.00  0.00     0.013 C 
HETATM   22  C14 UNL     1       6.117 -14.190  20.659  1.00  0.00     0.023 C 
HETATM   23  C15 UNL     1       4.291 -12.559  20.747  1.00  0.00     0.023 C 
HETATM   24  C16 UNL     1       3.791 -14.988  20.945  1.00  0.00     0.023 C 
ENDBRANCH  17  21
ENDBRANCH  16  17
ENDBRANCH  11  16
ENDBRANCH   5   6
ENDBRANCH   3   5
BRANCH   1  25
HETATM   25  C5  UNL     1       1.545 -23.136  24.765  1.00  0.00     0.179 C 
BRANCH  25  26
HETATM   26  C4  UNL     1       0.803 -23.798  23.651  1.00  0.00     0.038 C 
BRANCH  26  27
HETATM   27  C2  UNL     1      -0.528 -23.072  23.426  1.00  0.00    -0.020 C 
HETATM   28  C1  UNL     1      -0.505 -21.837  24.309  1.00  0.00     0.009 C 
HETATM   29  C3  UNL     1      -1.633 -23.989  23.980  1.00  0.00     0.009 C 
ENDBRANCH  26  27
ENDBRANCH  25  26
BRANCH  25  30
HETATM   30  C22 UNL     1       1.662 -24.073  25.959  1.00  0.00     0.240 C 
HETATM   31  O4  UNL     1       1.546 -25.280  25.835  1.00  0.00    -0.271 OA
HETATM   32  N3  UNL     1       1.901 -23.483  27.233  1.00  0.00    -0.359 N 
ATOM     33  H3  UNL     1       1.955 -22.466  27.290  1.00  0.00     0.162 HD
BRANCH  32  34
HETATM   34  C23 UNL     1       2.074 -24.256  28.463  1.00  0.00     0.127 C 
BRANCH  34  35
HETATM   35  C24 UNL     1       1.903 -23.291  29.629  1.00  0.00     0.006 C 
HETATM   36  C25 UNL     1       1.156 -23.892  30.787  1.00  0.00     0.034 C 
HETATM   37  C26 UNL     1       1.013 -22.800  31.846  1.00  0.00     0.232 C 
HETATM   38  N4  UNL     1       0.284 -21.648  31.356  1.00  0.00    -0.075 N 
HETATM   39  C27 UNL     1       0.936 -21.104  30.181  1.00  0.00     0.232 C 
ATOM     40  H42 UNL     1      -0.697 -21.865  31.181  1.00  0.00     0.277 HD
ATOM     41  H41 UNL     1       0.155 -20.943  32.081  1.00  0.00     0.277 HD
HETATM   42  C28 UNL     1       0.952 -22.169  29.119  1.00  0.00     0.034 C 
ENDBRANCH  34  35
ENDBRANCH  32  34
ENDBRANCH  25  30
ENDBRANCH   1  25
TORSDOF 11
ENDMDL
MODEL 3
REMARK VINA RESULT: -8.606780007      1.598      2.337
REMARK  11 active torsions:
REMARK  status: ('A' for Active; 'I' for Inactive)
REMARK    1  A    between atoms: C2_2  and  C4_4 
REMARK    2  A    between atoms: C4_4  and  C5_5 
REMARK    3  A    between atoms: C5_5  and  N1_6 
REMARK    4  A    between atoms: C5_5  and  C22_30 
REMARK       I    between atoms: N1_6  and  C6_8 
REMARK    5  A    between atoms: C6_8  and  O2_10 
REMARK    6  A    between atoms: O2_10  and  C7_11 
REMARK    7  A    between atoms: C11_15  and  O3_16 
REMARK    8  A    between atoms: O3_16  and  C12_17 
REMARK    9  A    between atoms: C12_17  and  C13_21 
REMARK       I    between atoms: C22_30  and  N3_32 
REMARK   10  A    between atoms: N3_32  and  C23_34 
REMARK   11  A    between atoms: C23_34  and  C24_35 
ROOT
HETATM    1  N1  UNL     1       2.709 -21.189  25.424  1.00  0.00    -0.324 N 
ATOM      2  H1  UNL     1       2.523 -20.223  25.154  1.00  0.00     0.165 HD
HETATM    3  C6  UNL     1       3.892 -21.786  24.991  1.00  0.00     0.361 C 
HETATM    4  O1  UNL     1       4.089 -22.992  25.329  1.00  0.00    -0.238 OA
ENDROOT
BRANCH   3   5
HETATM    5  O2  UNL     1       4.816 -21.148  24.239  1.00  0.00    -0.297 OA
BRANCH   5   6
HETATM    6  C7  UNL     1       5.320 -19.871  24.448  1.00  0.00     0.146 C 
HETATM    7  C8  UNL     1       4.462 -18.741  23.877  1.00  0.00     0.021 C 
HETATM    8  C9  UNL     1       3.949 -17.865  24.947  1.00  0.00     0.010 C 
HETATM    9  C18 UNL     1       5.654 -18.299  23.121  1.00  0.00     0.005 C 
HETATM   10  C10 UNL     1       4.262 -16.414  24.878  1.00  0.00     0.033 C 
HETATM   11  C11 UNL     1       5.126 -16.017  23.738  1.00  0.00     0.130 C 
HETATM   12  C17 UNL     1       6.271 -16.999  23.642  1.00  0.00     0.038 C 
HETATM   13  C19 UNL     1       6.442 -19.538  23.506  1.00  0.00    -0.016 C 
HETATM   14  C20 UNL     1       6.626 -20.410  22.298  1.00  0.00     0.018 C 
HETATM   15  C21 UNL     1       7.752 -19.211  24.217  1.00  0.00     0.018 C 
BRANCH  11  16
HETATM   16  O3  UNL     1       5.479 -14.709  23.605  1.00  0.00    -0.333 OA
BRANCH  16  17
HETATM   17  C12 UNL     1       4.966 -13.694  22.838  1.00  0.00     0.119 C 
HETATM   18  N2  UNL     1       4.674 -12.640  23.401  1.00  0.00    -0.383 N 
ATOM     19  H22 UNL     1       4.807 -12.518  24.406  1.00  0.00     0.158 HD
ATOM     20  H21 UNL     1       4.293 -11.886  22.831  1.00  0.00     0.158 HD
BRANCH  17  21
HETATM   21  C13 UNL     1       4.770 -13.876  21.345  1.00  0.00     0.013 C 
HETATM   22  C14 UNL     1       6.128 -14.186  20.754  1.00  0.00     0.023 C 
HETATM   23  C15 UNL     1       4.277 -12.582  20.751  1.00  0.00     0.023 C 
HETATM   24  C16 UNL     1       3.812 -15.006  21.061  1.00  0.00     0.023 C 
ENDBRANCH  17  21
ENDBRANCH  16  17
ENDBRANCH  11  16
ENDBRANCH   5   6
ENDBRANCH   3   5
BRANCH   1  25
HETATM   25  C5  UNL     1       1.739 -21.875  26.235  1.00  0.00     0.179 C 
BRANCH  25  26
HETATM   26  C4  UNL     1       0.887 -20.929  27.013  1.00  0.00     0.038 C 
BRANCH  26  27
HETATM   27  C2  UNL     1       0.466 -21.592  28.330  1.00  0.00    -0.020 C 
HETATM   28  C1  UNL     1      -1.031 -21.832  28.238  1.00  0.00     0.009 C 
HETATM   29  C3  UNL     1       0.677 -20.547  29.441  1.00  0.00     0.009 C 
ENDBRANCH  26  27
ENDBRANCH  25  26
BRANCH  25  30
HETATM   30  C22 UNL     1       0.880 -22.740  25.322  1.00  0.00     0.240 C 
HETATM   31  O4  UNL     1       0.938 -23.957  25.360  1.00  0.00    -0.271 OA
HETATM   32  N3  UNL     1       0.012 -22.071  24.414  1.00  0.00    -0.359 N 
ATOM     33  H3  UNL     1       0.026 -21.052  24.397  1.00  0.00     0.162 HD
BRANCH  32  34
HETATM   34  C23 UNL     1      -0.899 -22.766  23.505  1.00  0.00     0.127 C 
BRANCH  34  35
HETATM   35  C24 UNL     1      -2.316 -22.492  23.991  1.00  0.00     0.006 C 
HETATM   36  C25 UNL     1      -2.457 -21.163  24.680  1.00  0.00     0.034 C 
HETATM   37  C26 UNL     1      -3.904 -21.055  25.158  1.00  0.00     0.232 C 
HETATM   38  N4  UNL     1      -4.259 -22.112  26.084  1.00  0.00    -0.075 N 
HETATM   39  C27 UNL     1      -4.045 -23.408  25.473  1.00  0.00     0.232 C 
ATOM     40  H42 UNL     1      -3.765 -22.023  26.971  1.00  0.00     0.277 HD
ATOM     41  H41 UNL     1      -5.212 -22.008  26.432  1.00  0.00     0.277 HD
HETATM   42  C28 UNL     1      -2.587 -23.526  25.124  1.00  0.00     0.034 C 
ENDBRANCH  34  35
ENDBRANCH  32  34
ENDBRANCH  25  30
ENDBRANCH   1  25
TORSDOF 11
ENDMDL
MODEL 4
REMARK VINA RESULT: -8.599836602      1.954      2.563
REMARK  11 active torsions:
REMARK  status: ('A' for Active; 'I' for Inactive)
REMARK    1  A    between atoms: C2_2  and  C4_4 
REMARK    2  A    between atoms: C4_4  and  C5_5 
REMARK    3  A    between atoms: C5_5  and  N1_6 
REMARK    4  A    between atoms: C5_5  and  C22_30 
REMARK       I    between atoms: N1_6  and  C6_8 
REMARK    5  A    between atoms: C6_8  and  O2_10 
REMARK    6  A    between atoms: O2_10  and  C7_11 
REMARK    7  A    between atoms: C11_15  and  O3_16 
REMARK    8  A    between atoms: O3_16  and  C12_17 
REMARK    9  A    between atoms: C12_17  and  C13_21 
REMARK       I    between atoms: C22_30  and  N3_32 
REMARK   10  A    between atoms: N3_32  and  C23_34 
REMARK   11  A    between atoms: C23_34  and  C24_35 
ROOT
HETATM    1  N1  UNL     1       2.667 -21.143  25.259  1.00  0.00    -0.324 N 
ATOM      2  H1  UNL     1       2.593 -20.150  25.036  1.00  0.00     0.165 HD
HETATM    3  C6  UNL     1       3.830 -21.822  24.895  1.00  0.00     0.361 C 
HETATM    4  O1  UNL     1       3.888 -23.058  25.171  1.00  0.00    -0.238 OA
ENDROOT
BRANCH   3   5
HETATM    5  O2  UNL     1       4.874 -21.231  24.273  1.00  0.00    -0.297 OA
BRANCH   5   6
HETATM    6  C7  UNL     1       5.354 -19.946  24.493  1.00  0.00     0.146 C 
HETATM    7  C8  UNL     1       4.475 -18.827  23.931  1.00  0.00     0.021 C 
HETATM    8  C9  UNL     1       3.945 -17.970  25.008  1.00  0.00     0.010 C 
HETATM    9  C18 UNL     1       5.659 -18.357  23.180  1.00  0.00     0.005 C 
HETATM   10  C10 UNL     1       4.232 -16.513  24.951  1.00  0.00     0.033 C 
HETATM   11  C11 UNL     1       5.089 -16.091  23.815  1.00  0.00     0.130 C 
HETATM   12  C17 UNL     1       6.252 -17.050  23.712  1.00  0.00     0.038 C 
HETATM   13  C19 UNL     1       6.470 -19.585  23.555  1.00  0.00    -0.016 C 
HETATM   14  C20 UNL     1       6.670 -20.443  22.340  1.00  0.00     0.018 C 
HETATM   15  C21 UNL     1       7.773 -19.239  24.270  1.00  0.00     0.018 C 
BRANCH  11  16
HETATM   16  O3  UNL     1       5.418 -14.775  23.693  1.00  0.00    -0.333 OA
BRANCH  16  17
HETATM   17  C12 UNL     1       4.899 -13.768  22.921  1.00  0.00     0.119 C 
HETATM   18  N2  UNL     1       4.521 -12.745  23.491  1.00  0.00    -0.383 N 
ATOM     19  H22 UNL     1       4.589 -12.642  24.504  1.00  0.00     0.158 HD
ATOM     20  H21 UNL     1       4.134 -11.995  22.917  1.00  0.00     0.158 HD
BRANCH  17  21
HETATM   21  C13 UNL     1       4.798 -13.920  21.416  1.00  0.00     0.013 C 
HETATM   22  C14 UNL     1       4.279 -12.607  20.871  1.00  0.00     0.023 C 
HETATM   23  C15 UNL     1       3.794 -14.998  21.096  1.00  0.00     0.023 C 
HETATM   24  C16 UNL     1       6.145 -14.234  20.814  1.00  0.00     0.023 C 
ENDBRANCH  17  21
ENDBRANCH  16  17
ENDBRANCH  11  16
ENDBRANCH   5   6
ENDBRANCH   3   5
BRANCH   1  25
HETATM   25  C5  UNL     1       1.569 -21.781  25.933  1.00  0.00     0.179 C 
BRANCH  25  26
HETATM   26  C4  UNL     1       1.112 -21.005  27.123  1.00  0.00     0.038 C 
BRANCH  26  27
HETATM   27  C2  UNL     1       0.742 -21.976  28.250  1.00  0.00    -0.020 C 
HETATM   28  C1  UNL     1       0.995 -21.245  29.556  1.00  0.00     0.009 C 
HETATM   29  C3  UNL     1       1.756 -23.133  28.190  1.00  0.00     0.009 C 
ENDBRANCH  26  27
ENDBRANCH  25  26
BRANCH  25  30
HETATM   30  C22 UNL     1       0.430 -21.950  24.936  1.00  0.00     0.240 C 
HETATM   31  O4  UNL     1       0.556 -22.631  23.933  1.00  0.00    -0.271 OA
HETATM   32  N3  UNL     1      -0.790 -21.270  25.217  1.00  0.00    -0.359 N 
ATOM     33  H3  UNL     1      -0.834 -20.684  26.050  1.00  0.00     0.162 HD
BRANCH  32  34
HETATM   34  C23 UNL     1      -1.982 -21.366  24.374  1.00  0.00     0.127 C 
BRANCH  34  35
HETATM   35  C24 UNL     1      -2.996 -22.218  25.125  1.00  0.00     0.006 C 
HETATM   36  C25 UNL     1      -4.327 -21.539  25.294  1.00  0.00     0.034 C 
HETATM   37  C26 UNL     1      -5.214 -22.480  26.107  1.00  0.00     0.232 C 
HETATM   38  N4  UNL     1      -4.659 -22.769  27.414  1.00  0.00    -0.075 N 
HETATM   39  C27 UNL     1      -3.334 -23.343  27.280  1.00  0.00     0.232 C 
ATOM     40  H42 UNL     1      -4.659 -21.948  28.017  1.00  0.00     0.277 HD
ATOM     41  H41 UNL     1      -5.277 -23.363  27.966  1.00  0.00     0.277 HD
HETATM   42  C28 UNL     1      -2.458 -22.340  26.582  1.00  0.00     0.034 C 
ENDBRANCH  34  35
ENDBRANCH  32  34
ENDBRANCH  25  30
ENDBRANCH   1  25
TORSDOF 11
ENDMDL
MODEL 5
REMARK VINA RESULT: -8.593514908      1.617      2.274
REMARK  11 active torsions:
REMARK  status: ('A' for Active; 'I' for Inactive)
REMARK    1  A    between atoms: C2_2  and  C4_4 
REMARK    2  A    between atoms: C4_4  and  C5_5 
REMARK    3  A    between atoms: C5_5  and  N1_6 
REMARK    4  A    between atoms: C5_5  and  C22_30 
REMARK       I    between atoms: N1_6  and  C6_8 
REMARK    5  A    between atoms: C6_8  and  O2_10 
REMARK    6  A    between atoms: O2_10  and  C7_11 
REMARK    7  A    between atoms: C11_15  and  O3_16 
REMARK    8  A    between atoms: O3_16  and  C12_17 
REMARK    9  A    between atoms: C12_17  and  C13_21 
REMARK       I    between atoms: C22_30  and  N3_32 
REMARK   10  A    between atoms: N3_32  and  C23_34 
REMARK   11  A    between atoms: C23_34  and  C24_35 
ROOT
HETATM    1  N1  UNL     1       2.540 -21.302  25.245  1.00  0.00    -0.324 N 
ATOM      2  H1  UNL     1       2.318 -20.379  24.872  1.00  0.00     0.165 HD
HETATM    3  C6  UNL     1       3.792 -21.849  24.967  1.00  0.00     0.361 C 
HETATM    4  O1  UNL     1       4.035 -23.003  25.432  1.00  0.00    -0.238 OA
ENDROOT
BRANCH   3   5
HETATM    5  O2  UNL     1       4.736 -21.215  24.236  1.00  0.00    -0.297 OA
BRANCH   5   6
HETATM    6  C7  UNL     1       5.264 -19.953  24.476  1.00  0.00     0.146 C 
HETATM    7  C8  UNL     1       4.431 -18.794  23.927  1.00  0.00     0.021 C 
HETATM    8  C9  UNL     1       3.931 -17.932  25.014  1.00  0.00     0.010 C 
HETATM    9  C18 UNL     1       5.634 -18.359  23.185  1.00  0.00     0.005 C 
HETATM   10  C10 UNL     1       4.273 -16.486  24.979  1.00  0.00     0.033 C 
HETATM   11  C11 UNL     1       5.149 -16.082  23.851  1.00  0.00     0.130 C 
HETATM   12  C17 UNL     1       6.275 -17.083  23.737  1.00  0.00     0.038 C 
HETATM   13  C19 UNL     1       6.396 -19.621  23.545  1.00  0.00    -0.016 C 
HETATM   14  C20 UNL     1       6.567 -20.470  22.319  1.00  0.00     0.018 C 
HETATM   15  C21 UNL     1       7.710 -19.336  24.269  1.00  0.00     0.018 C 
BRANCH  11  16
HETATM   16  O3  UNL     1       5.529 -14.778  23.748  1.00  0.00    -0.333 OA
BRANCH  16  17
HETATM   17  C12 UNL     1       5.024 -13.730  23.021  1.00  0.00     0.119 C 
HETATM   18  N2  UNL     1       4.798 -12.676  23.613  1.00  0.00    -0.383 N 
ATOM     19  H22 UNL     1       4.977 -12.577  24.613  1.00  0.00     0.158 HD
ATOM     20  H21 UNL     1       4.422 -11.897  23.072  1.00  0.00     0.158 HD
BRANCH  17  21
HETATM   21  C13 UNL     1       4.758 -13.878  21.535  1.00  0.00     0.013 C 
HETATM   22  C14 UNL     1       6.080 -14.217  20.880  1.00  0.00     0.023 C 
HETATM   23  C15 UNL     1       4.280 -12.558  20.987  1.00  0.00     0.023 C 
HETATM   24  C16 UNL     1       3.755 -14.973  21.273  1.00  0.00     0.023 C 
ENDBRANCH  17  21
ENDBRANCH  16  17
ENDBRANCH  11  16
ENDBRANCH   5   6
ENDBRANCH   3   5
BRANCH   1  25
HETATM   25  C5  UNL     1       1.549 -21.981  26.035  1.00  0.00     0.179 C 
BRANCH  25  26
HETATM   26  C4  UNL     1       0.606 -21.030  26.694  1.00  0.00     0.038 C 
BRANCH  26  27
HETATM   27  C2  UNL     1       0.894 -20.990  28.199  1.00  0.00    -0.020 C 
HETATM   28  C1  UNL     1       1.274 -22.402  28.608  1.00  0.00     0.009 C 
HETATM   29  C3  UNL     1      -0.440 -20.673  28.899  1.00  0.00     0.009 C 
ENDBRANCH  26  27
ENDBRANCH  25  26
BRANCH  25  30
HETATM   30  C22 UNL     1       0.792 -22.942  25.129  1.00  0.00     0.240 C 
HETATM   31  O4  UNL     1       0.758 -24.139  25.357  1.00  0.00    -0.271 OA
HETATM   32  N3  UNL     1       0.131 -22.389  23.996  1.00  0.00    -0.359 N 
ATOM     33  H3  UNL     1       0.219 -21.386  23.829  1.00  0.00     0.162 HD
BRANCH  32  34
HETATM   34  C23 UNL     1      -0.666 -23.179  23.058  1.00  0.00     0.127 C 
BRANCH  34  35
HETATM   35  C24 UNL     1      -1.940 -22.394  22.777  1.00  0.00     0.006 C 
HETATM   36  C25 UNL     1      -2.780 -22.174  24.005  1.00  0.00     0.034 C 
HETATM   37  C26 UNL     1      -4.039 -21.431  23.561  1.00  0.00     0.232 C 
HETATM   38  N4  UNL     1      -4.807 -22.181  22.588  1.00  0.00    -0.075 N 
HETATM   39  C27 UNL     1      -3.990 -22.486  21.431  1.00  0.00     0.232 C 
ATOM     40  H42 UNL     1      -5.221 -23.020  22.994  1.00  0.00     0.277 HD
ATOM     41  H41 UNL     1      -5.668 -21.698  22.330  1.00  0.00     0.277 HD
HETATM   42  C28 UNL     1      -2.824 -23.318  21.887  1.00  0.00     0.034 C 
ENDBRANCH  34  35
ENDBRANCH  32  34
ENDBRANCH  25  30
ENDBRANCH   1  25
TORSDOF 11
ENDMDL
