MODEL 1
REMARK VINA RESULT: -7.037439758      0.000      0.000
REMARK  10 active torsions:
REMARK  status: ('A' for Active; 'I' for Inactive)
REMARK    1  A    between atoms: C2_2  and  C3_3 
REMARK    2  A    between atoms: C7_8  and  C8_9 
REMARK    3  A    between atoms: C8_9  and  O2_10 
REMARK    4  A    between atoms: C9_12  and  O3_13 
REMARK    5  A    between atoms: O3_13  and  C10_14 
REMARK    6  A    between atoms: C11_15  and  O4_16 
REMARK    7  A    between atoms: C12_18  and  O5_19 
REMARK    8  A    between atoms: C13_21  and  O6_22 
REMARK    9  A    between atoms: C14_24  and  C15_25 
REMARK   10  A    between atoms: C15_25  and  C16_26 
ROOT
HETATM    1  C10 UNL     1     -13.329  47.020  34.009  1.00  0.00     0.170 C 
HETATM    2  C11 UNL     1     -12.656  47.588  32.773  1.00  0.00     0.179 C 
HETATM    3  C12 UNL     1     -13.688  48.251  31.923  1.00  0.00     0.182 C 
HETATM    4  C13 UNL     1     -14.586  49.231  32.694  1.00  0.00     0.179 C 
HETATM    5  C14 UNL     1     -15.160  48.561  33.931  1.00  0.00    -0.037 C 
HETATM    6  C18 UNL     1     -14.029  48.091  34.792  1.00  0.00     0.057 C 
HETATM    7  C19 UNL     1     -13.031  49.102  35.253  1.00  0.00     0.186 C 
HETATM    8  O7  UNL     1     -13.640  49.034  36.529  1.00  0.00    -0.389 OA
HETATM    9  C20 UNL     1     -14.279  47.812  36.212  1.00  0.00     0.186 C 
ENDROOT
BRANCH   1  10
HETATM   10  O3  UNL     1     -12.542  46.219  34.750  1.00  0.00    -0.373 OA
BRANCH  10  11
HETATM   11  C9  UNL     1     -12.263  44.983  34.214  1.00  0.00     0.159 C 
HETATM   12  C5  UNL     1     -12.123  44.047  35.432  1.00  0.00     0.048 C 
HETATM   13  C4  UNL     1     -13.061  44.408  36.579  1.00  0.00     0.020 C 
HETATM   14  C6  UNL     1     -13.099  42.919  35.119  1.00  0.00     0.136 C 
HETATM   15  C3  UNL     1     -13.587  42.969  36.531  1.00  0.00     0.037 C 
HETATM   16  O1  UNL     1     -14.054  43.498  34.277  1.00  0.00    -0.375 OA
HETATM   17  C7  UNL     1     -13.299  44.293  33.439  1.00  0.00     0.174 C 
BRANCH  15  18
HETATM   18  C2  UNL     1     -12.973  42.075  37.521  1.00  0.00    -0.030 C 
HETATM   19  C1  UNL     1     -13.583  41.005  37.972  1.00  0.00     0.007 C 
ENDBRANCH  15  18
BRANCH  17  20
HETATM   20  C8  UNL     1     -12.654  43.348  32.415  1.00  0.00     0.198 C 
BRANCH  20  21
HETATM   21  O2  UNL     1     -11.580  43.995  31.812  1.00  0.00    -0.398 OA
ATOM     22  H2  UNL     1     -10.813  43.437  31.862  1.00  0.00     0.209 HD
ENDBRANCH  20  21
ENDBRANCH  17  20
ENDBRANCH  10  11
ENDBRANCH   1  10
BRANCH   2  23
HETATM   23  O4  UNL     1     -11.625  48.441  33.000  1.00  0.00    -0.390 OA
ATOM     24  H4  UNL     1     -11.475  49.096  32.329  1.00  0.00     0.210 HD
ENDBRANCH   2  23
BRANCH   3  25
HETATM   25  O5  UNL     1     -13.158  48.904  30.838  1.00  0.00    -0.390 OA
ATOM     26  H5  UNL     1     -13.715  48.866  30.069  1.00  0.00     0.210 HD
ENDBRANCH   3  25
BRANCH   5  27
HETATM   27  C15 UNL     1     -16.322  49.181  34.539  1.00  0.00    -0.021 C 
BRANCH  27  28
HETATM   28  C16 UNL     1     -16.494  50.593  34.802  1.00  0.00     0.023 C 
HETATM   29  C17 UNL     1     -16.127  51.138  36.155  1.00  0.00     0.009 C 
ENDBRANCH  27  28
ENDBRANCH   5  27
BRANCH   4  30
HETATM   30  O6  UNL     1     -15.692  49.356  31.809  1.00  0.00    -0.389 OA
ATOM     31  H6  UNL     1     -16.316  49.823  32.352  1.00  0.00     0.210 HD
ENDBRANCH   4  30
TORSDOF 10
ENDMDL
MODEL 2
REMARK VINA RESULT: -6.931114163      1.295      1.641
REMARK  10 active torsions:
REMARK  status: ('A' for Active; 'I' for Inactive)
REMARK    1  A    between atoms: C2_2  and  C3_3 
REMARK    2  A    between atoms: C7_8  and  C8_9 
REMARK    3  A    between atoms: C8_9  and  O2_10 
REMARK    4  A    between atoms: C9_12  and  O3_13 
REMARK    5  A    between atoms: O3_13  and  C10_14 
REMARK    6  A    between atoms: C11_15  and  O4_16 
REMARK    7  A    between atoms: C12_18  and  O5_19 
REMARK    8  A    between atoms: C13_21  and  O6_22 
REMARK    9  A    between atoms: C14_24  and  C15_25 
REMARK   10  A    between atoms: C15_25  and  C16_26 
ROOT
HETATM    1  C10 UNL     1     -12.335  46.097  34.693  1.00  0.00     0.170 C 
HETATM    2  C11 UNL     1     -11.213  46.835  33.986  1.00  0.00     0.179 C 
HETATM    3  C12 UNL     1     -11.789  47.623  32.857  1.00  0.00     0.182 C 
HETATM    4  C13 UNL     1     -12.995  48.486  33.259  1.00  0.00     0.179 C 
HETATM    5  C14 UNL     1     -14.023  47.647  33.998  1.00  0.00    -0.037 C 
HETATM    6  C18 UNL     1     -13.376  47.047  35.208  1.00  0.00     0.057 C 
HETATM    7  C19 UNL     1     -12.755  47.972  36.202  1.00  0.00     0.186 C 
HETATM    8  O7  UNL     1     -13.868  47.722  37.040  1.00  0.00    -0.389 OA
HETATM    9  C20 UNL     1     -14.221  46.564  36.307  1.00  0.00     0.186 C 
ENDROOT
BRANCH   1  10
HETATM   10  O3  UNL     1     -11.920  45.191  35.596  1.00  0.00    -0.373 OA
BRANCH  10  11
HETATM   11  C9  UNL     1     -11.791  43.899  35.139  1.00  0.00     0.159 C 
HETATM   12  C5  UNL     1     -11.797  43.028  36.413  1.00  0.00     0.048 C 
HETATM   13  C4  UNL     1     -12.703  43.575  37.511  1.00  0.00     0.020 C 
HETATM   14  C6  UNL     1     -12.903  42.016  36.139  1.00  0.00     0.136 C 
HETATM   15  C3  UNL     1     -13.409  42.214  37.532  1.00  0.00     0.037 C 
HETATM   16  O1  UNL     1     -13.760  42.661  35.240  1.00  0.00    -0.375 OA
HETATM   17  C7  UNL     1     -12.893  43.300  34.378  1.00  0.00     0.174 C 
BRANCH  15  18
HETATM   18  C2  UNL     1     -12.933  41.311  38.589  1.00  0.00    -0.030 C 
HETATM   19  C1  UNL     1     -13.700  40.387  39.118  1.00  0.00     0.007 C 
ENDBRANCH  15  18
BRANCH  17  20
HETATM   20  C8  UNL     1     -12.355  42.220  33.428  1.00  0.00     0.198 C 
BRANCH  20  21
HETATM   21  O2  UNL     1     -12.877  42.433  32.156  1.00  0.00    -0.398 OA
ATOM     22  H2  UNL     1     -13.125  41.597  31.779  1.00  0.00     0.209 HD
ENDBRANCH  20  21
ENDBRANCH  17  20
ENDBRANCH  10  11
ENDBRANCH   1  10
BRANCH   2  23
HETATM   23  O4  UNL     1     -10.448  47.638  34.768  1.00  0.00    -0.390 OA
ATOM     24  H4  UNL     1     -10.872  47.987  35.543  1.00  0.00     0.210 HD
ENDBRANCH   2  23
BRANCH   3  25
HETATM   25  O5  UNL     1     -10.868  48.424  32.230  1.00  0.00    -0.390 OA
ATOM     26  H5  UNL     1     -11.254  49.187  31.817  1.00  0.00     0.210 HD
ENDBRANCH   3  25
BRANCH   5  27
HETATM   27  C15 UNL     1     -15.369  48.179  34.089  1.00  0.00    -0.021 C 
BRANCH  27  28
HETATM   28  C16 UNL     1     -15.724  49.565  34.299  1.00  0.00     0.023 C 
HETATM   29  C17 UNL     1     -15.790  50.102  35.702  1.00  0.00     0.009 C 
ENDBRANCH  27  28
ENDBRANCH   5  27
BRANCH   4  30
HETATM   30  O6  UNL     1     -13.589  48.747  31.994  1.00  0.00    -0.389 OA
ATOM     31  H6  UNL     1     -13.808  49.668  32.075  1.00  0.00     0.210 HD
ENDBRANCH   4  30
TORSDOF 10
ENDMDL
MODEL 3
REMARK VINA RESULT: -6.807294646      1.933      2.824
REMARK  10 active torsions:
REMARK  status: ('A' for Active; 'I' for Inactive)
REMARK    1  A    between atoms: C2_2  and  C3_3 
REMARK    2  A    between atoms: C7_8  and  C8_9 
REMARK    3  A    between atoms: C8_9  and  O2_10 
REMARK    4  A    between atoms: C9_12  and  O3_13 
REMARK    5  A    between atoms: O3_13  and  C10_14 
REMARK    6  A    between atoms: C11_15  and  O4_16 
REMARK    7  A    between atoms: C12_18  and  O5_19 
REMARK    8  A    between atoms: C13_21  and  O6_22 
REMARK    9  A    between atoms: C14_24  and  C15_25 
REMARK   10  A    between atoms: C15_25  and  C16_26 
ROOT
HETATM    1  C10 UNL     1     -12.966  45.953  33.399  1.00  0.00     0.170 C 
HETATM    2  C11 UNL     1     -12.862  45.872  31.887  1.00  0.00     0.179 C 
HETATM    3  C12 UNL     1     -13.848  46.816  31.283  1.00  0.00     0.182 C 
HETATM    4  C13 UNL     1     -13.786  48.233  31.873  1.00  0.00     0.179 C 
HETATM    5  C14 UNL     1     -13.851  48.178  33.390  1.00  0.00    -0.037 C 
HETATM    6  C18 UNL     1     -12.710  47.347  33.890  1.00  0.00     0.057 C 
HETATM    7  C19 UNL     1     -11.325  47.759  33.517  1.00  0.00     0.186 C 
HETATM    8  O7  UNL     1     -11.173  48.233  34.842  1.00  0.00    -0.389 OA
HETATM    9  C20 UNL     1     -12.285  47.483  35.290  1.00  0.00     0.186 C 
ENDROOT
BRANCH   1  10
HETATM   10  O3  UNL     1     -12.277  45.001  34.054  1.00  0.00    -0.373 OA
BRANCH  10  11
HETATM   11  C9  UNL     1     -12.961  44.334  35.044  1.00  0.00     0.159 C 
HETATM   12  C5  UNL     1     -13.021  42.869  34.564  1.00  0.00     0.048 C 
HETATM   13  C4  UNL     1     -11.777  42.437  33.795  1.00  0.00     0.020 C 
HETATM   14  C6  UNL     1     -12.444  42.092  35.741  1.00  0.00     0.136 C 
HETATM   15  C3  UNL     1     -11.633  41.276  34.787  1.00  0.00     0.037 C 
HETATM   16  O1  UNL     1     -11.610  43.005  36.395  1.00  0.00    -0.375 OA
HETATM   17  C7  UNL     1     -12.334  44.179  36.361  1.00  0.00     0.174 C 
BRANCH  15  18
HETATM   18  C2  UNL     1     -12.185  40.005  34.301  1.00  0.00    -0.030 C 
HETATM   19  C1  UNL     1     -11.546  38.866  34.439  1.00  0.00     0.007 C 
ENDBRANCH  15  18
BRANCH  17  20
HETATM   20  C8  UNL     1     -13.411  44.053  37.449  1.00  0.00     0.198 C 
BRANCH  20  21
HETATM   21  O2  UNL     1     -14.175  45.215  37.469  1.00  0.00    -0.398 OA
ATOM     22  H2  UNL     1     -13.975  45.704  38.259  1.00  0.00     0.209 HD
ENDBRANCH  20  21
ENDBRANCH  17  20
ENDBRANCH  10  11
ENDBRANCH   1  10
BRANCH   2  23
HETATM   23  O4  UNL     1     -11.628  46.094  31.366  1.00  0.00    -0.390 OA
ATOM     24  H4  UNL     1     -11.120  45.319  31.161  1.00  0.00     0.210 HD
ENDBRANCH   2  23
BRANCH   3  25
HETATM   25  O5  UNL     1     -13.746  46.906  29.917  1.00  0.00    -0.390 OA
ATOM     26  H5  UNL     1     -14.569  47.117  29.493  1.00  0.00     0.210 HD
ENDBRANCH   3  25
BRANCH   5  27
HETATM   27  C15 UNL     1     -14.211  49.402  34.081  1.00  0.00    -0.021 C 
BRANCH  27  28
HETATM   28  C16 UNL     1     -15.393  49.607  34.888  1.00  0.00     0.023 C 
HETATM   29  C17 UNL     1     -15.237  50.026  36.324  1.00  0.00     0.009 C 
ENDBRANCH  27  28
ENDBRANCH   5  27
BRANCH   4  30
HETATM   30  O6  UNL     1     -15.048  48.758  31.479  1.00  0.00    -0.389 OA
ATOM     31  H6  UNL     1     -15.610  48.436  32.174  1.00  0.00     0.210 HD
ENDBRANCH   4  30
TORSDOF 10
ENDMDL
MODEL 4
REMARK VINA RESULT: -6.515886918      1.413      6.469
REMARK  10 active torsions:
REMARK  status: ('A' for Active; 'I' for Inactive)
REMARK    1  A    between atoms: C2_2  and  C3_3 
REMARK    2  A    between atoms: C7_8  and  C8_9 
REMARK    3  A    between atoms: C8_9  and  O2_10 
REMARK    4  A    between atoms: C9_12  and  O3_13 
REMARK    5  A    between atoms: O3_13  and  C10_14 
REMARK    6  A    between atoms: C11_15  and  O4_16 
REMARK    7  A    between atoms: C12_18  and  O5_19 
REMARK    8  A    between atoms: C13_21  and  O6_22 
REMARK    9  A    between atoms: C14_24  and  C15_25 
REMARK   10  A    between atoms: C15_25  and  C16_26 
ROOT
HETATM    1  C10 UNL     1     -12.311  44.664  34.591  1.00  0.00     0.170 C 
HETATM    2  C11 UNL     1     -12.641  43.972  33.282  1.00  0.00     0.179 C 
HETATM    3  C12 UNL     1     -12.209  42.546  33.366  1.00  0.00     0.182 C 
HETATM    4  C13 UNL     1     -12.699  41.827  34.634  1.00  0.00     0.179 C 
HETATM    5  C14 UNL     1     -12.351  42.639  35.870  1.00  0.00    -0.037 C 
HETATM    6  C18 UNL     1     -12.984  43.991  35.751  1.00  0.00     0.057 C 
HETATM    7  C19 UNL     1     -14.465  44.060  35.572  1.00  0.00     0.186 C 
HETATM    8  O7  UNL     1     -14.549  44.466  36.925  1.00  0.00    -0.389 OA
HETATM    9  C20 UNL     1     -13.176  44.801  36.961  1.00  0.00     0.186 C 
ENDROOT
BRANCH   1  10
HETATM   10  O3  UNL     1     -12.460  46.000  34.565  1.00  0.00    -0.373 OA
BRANCH  10  11
HETATM   11  C9  UNL     1     -12.939  46.532  33.390  1.00  0.00     0.159 C 
HETATM   12  C5  UNL     1     -14.243  47.256  33.786  1.00  0.00     0.048 C 
HETATM   13  C4  UNL     1     -14.182  47.887  35.173  1.00  0.00     0.020 C 
HETATM   14  C6  UNL     1     -14.038  48.665  33.243  1.00  0.00     0.136 C 
HETATM   15  C3  UNL     1     -14.571  49.221  34.524  1.00  0.00     0.037 C 
HETATM   16  O1  UNL     1     -12.650  48.834  33.207  1.00  0.00    -0.375 OA
HETATM   17  C7  UNL     1     -12.193  47.617  32.744  1.00  0.00     0.174 C 
BRANCH  15  18
HETATM   18  C2  UNL     1     -16.003  49.533  34.615  1.00  0.00    -0.030 C 
HETATM   19  C1  UNL     1     -16.442  50.684  35.069  1.00  0.00     0.007 C 
ENDBRANCH  15  18
BRANCH  17  20
HETATM   20  C8  UNL     1     -12.449  47.608  31.230  1.00  0.00     0.198 C 
BRANCH  20  21
HETATM   21  O2  UNL     1     -11.550  48.471  30.612  1.00  0.00    -0.398 OA
ATOM     22  H2  UNL     1     -11.886  49.358  30.662  1.00  0.00     0.209 HD
ENDBRANCH  20  21
ENDBRANCH  17  20
ENDBRANCH  10  11
ENDBRANCH   1  10
BRANCH   2  23
HETATM   23  O4  UNL     1     -13.938  44.041  32.887  1.00  0.00    -0.390 OA
ATOM     24  H4  UNL     1     -14.584  44.004  33.582  1.00  0.00     0.210 HD
ENDBRANCH   2  23
BRANCH   3  25
HETATM   25  O5  UNL     1     -12.577  41.802  32.273  1.00  0.00    -0.390 OA
ATOM     26  H5  UNL     1     -12.132  40.964  32.223  1.00  0.00     0.210 HD
ENDBRANCH   3  25
BRANCH   5  27
HETATM   27  C15 UNL     1     -12.366  41.945  37.143  1.00  0.00    -0.021 C 
BRANCH  27  28
HETATM   28  C16 UNL     1     -13.468  41.180  37.683  1.00  0.00     0.023 C 
HETATM   29  C17 UNL     1     -13.229  39.768  38.140  1.00  0.00     0.009 C 
ENDBRANCH  27  28
ENDBRANCH   5  27
BRANCH   4  30
HETATM   30  O6  UNL     1     -11.820  40.710  34.681  1.00  0.00    -0.389 OA
ATOM     31  H6  UNL     1     -12.243  40.166  35.335  1.00  0.00     0.210 HD
ENDBRANCH   4  30
TORSDOF 10
ENDMDL
MODEL 5
REMARK VINA RESULT: -6.466410220      1.966      3.175
REMARK  10 active torsions:
REMARK  status: ('A' for Active; 'I' for Inactive)
REMARK    1  A    between atoms: C2_2  and  C3_3 
REMARK    2  A    between atoms: C7_8  and  C8_9 
REMARK    3  A    between atoms: C8_9  and  O2_10 
REMARK    4  A    between atoms: C9_12  and  O3_13 
REMARK    5  A    between atoms: O3_13  and  C10_14 
REMARK    6  A    between atoms: C11_15  and  O4_16 
REMARK    7  A    between atoms: C12_18  and  O5_19 
REMARK    8  A    between atoms: C13_21  and  O6_22 
REMARK    9  A    between atoms: C14_24  and  C15_25 
REMARK   10  A    between atoms: C15_25  and  C16_26 
ROOT
HETATM    1  C10 UNL     1     -12.910  45.764  32.820  1.00  0.00     0.170 C 
HETATM    2  C11 UNL     1     -12.726  45.307  31.385  1.00  0.00     0.179 C 
HETATM    3  C12 UNL     1     -13.690  46.043  30.516  1.00  0.00     0.182 C 
HETATM    4  C13 UNL     1     -13.677  47.564  30.730  1.00  0.00     0.179 C 
HETATM    5  C14 UNL     1     -13.821  47.891  32.207  1.00  0.00    -0.037 C 
HETATM    6  C18 UNL     1     -12.698  47.242  32.955  1.00  0.00     0.057 C 
HETATM    7  C19 UNL     1     -11.300  47.582  32.556  1.00  0.00     0.186 C 
HETATM    8  O7  UNL     1     -11.224  48.379  33.723  1.00  0.00    -0.389 OA
HETATM    9  C20 UNL     1     -12.349  47.738  34.293  1.00  0.00     0.186 C 
ENDROOT
BRANCH   1  10
HETATM   10  O3  UNL     1     -12.245  45.025  33.726  1.00  0.00    -0.373 OA
BRANCH  10  11
HETATM   11  C9  UNL     1     -13.012  44.429  34.701  1.00  0.00     0.159 C 
HETATM   12  C5  UNL     1     -13.033  42.932  34.327  1.00  0.00     0.048 C 
HETATM   13  C4  UNL     1     -11.728  42.451  33.701  1.00  0.00     0.020 C 
HETATM   14  C6  UNL     1     -12.560  42.247  35.603  1.00  0.00     0.136 C 
HETATM   15  C3  UNL     1     -11.672  41.367  34.784  1.00  0.00     0.037 C 
HETATM   16  O1  UNL     1     -11.783  43.210  36.257  1.00  0.00    -0.375 OA
HETATM   17  C7  UNL     1     -12.500  44.374  36.074  1.00  0.00     0.174 C 
BRANCH  15  18
HETATM   18  C2  UNL     1     -12.182  40.061  34.348  1.00  0.00    -0.030 C 
HETATM   19  C1  UNL     1     -11.566  38.938  34.634  1.00  0.00     0.007 C 
ENDBRANCH  15  18
BRANCH  17  20
HETATM   20  C8  UNL     1     -13.666  44.324  37.073  1.00  0.00     0.198 C 
BRANCH  20  21
HETATM   21  O2  UNL     1     -14.048  45.622  37.392  1.00  0.00    -0.398 OA
ATOM     22  H2  UNL     1     -13.982  45.744  38.332  1.00  0.00     0.209 HD
ENDBRANCH  20  21
ENDBRANCH  17  20
ENDBRANCH  10  11
ENDBRANCH   1  10
BRANCH   2  23
HETATM   23  O4  UNL     1     -11.470  45.422  30.884  1.00  0.00    -0.390 OA
ATOM     24  H4  UNL     1     -11.291  46.216  30.393  1.00  0.00     0.210 HD
ENDBRANCH   2  23
BRANCH   3  25
HETATM   25  O5  UNL     1     -13.518  45.788  29.178  1.00  0.00    -0.390 OA
ATOM     26  H5  UNL     1     -13.517  44.862  28.969  1.00  0.00     0.210 HD
ENDBRANCH   3  25
BRANCH   5  27
HETATM   27  C15 UNL     1     -14.232  49.240  32.548  1.00  0.00    -0.021 C 
BRANCH  27  28
HETATM   28  C16 UNL     1     -15.408  49.606  33.306  1.00  0.00     0.023 C 
HETATM   29  C17 UNL     1     -16.333  48.525  33.793  1.00  0.00     0.009 C 
ENDBRANCH  27  28
ENDBRANCH   5  27
BRANCH   4  30
HETATM   30  O6  UNL     1     -14.923  47.940  30.157  1.00  0.00    -0.389 OA
ATOM     31  H6  UNL     1     -15.129  48.725  30.652  1.00  0.00     0.210 HD
ENDBRANCH   4  30
TORSDOF 10
ENDMDL
