MODEL 1
REMARK VINA RESULT: -6.557889368      0.000      0.000
REMARK  4 active torsions:
REMARK  status: ('A' for Active; 'I' for Inactive)
REMARK    1  A    between atoms: N1_1  and  C1_5 
REMARK    2  A    between atoms: C1_5  and  C2_6 
REMARK    3  A    between atoms: C2_6  and  C3_7 
REMARK    4  A    between atoms: C3_7  and  N2_8 
ROOT
HETATM    1  N2  UNL     1      37.091  60.141  80.312  1.00  0.00    -0.352 N 
HETATM    2  C4  UNL     1      36.937  58.728  80.635  1.00  0.00     0.126 C 
HETATM    3  C5  UNL     1      36.376  58.611  82.037  1.00  0.00     0.030 C 
HETATM    4  C6  UNL     1      34.974  59.223  82.074  1.00  0.00    -0.021 C 
HETATM    5  C7  UNL     1      34.201  58.501  80.961  1.00  0.00     0.011 C 
HETATM    6  C8  UNL     1      32.816  58.299  81.535  1.00  0.00     0.002 C 
HETATM    7  C9  UNL     1      33.169  57.870  82.965  1.00  0.00     0.012 C 
HETATM    8  C10 UNL     1      34.228  58.896  83.310  1.00  0.00    -0.009 C 
HETATM    9  C11 UNL     1      35.055  58.380  84.440  1.00  0.00     0.038 C 
HETATM   10  C12 UNL     1      35.202  59.556  85.339  1.00  0.00     0.168 C 
HETATM   11  O1  UNL     1      34.353  60.548  84.944  1.00  0.00    -0.390 OA
HETATM   12  C13 UNL     1      33.529  60.072  83.946  1.00  0.00     0.177 C 
HETATM   13  C14 UNL     1      35.053  60.688  81.754  1.00  0.00     0.113 C 
HETATM   14  C15 UNL     1      36.269  61.054  80.990  1.00  0.00     0.220 C 
HETATM   15  O2  UNL     1      36.575  62.278  80.957  1.00  0.00    -0.273 OA
ENDROOT
BRANCH   1  16
HETATM   16  C3  UNL     1      38.064  60.562  79.323  1.00  0.00     0.127 C 
BRANCH  16  17
HETATM   17  C2  UNL     1      37.471  60.650  77.939  1.00  0.00     0.047 C 
BRANCH  17  18
HETATM   18  C1  UNL     1      38.478  60.384  76.862  1.00  0.00     0.231 C 
BRANCH  18  19
HETATM   19  N1  UNL     1      38.744  61.602  76.111  1.00  0.00    -0.079 N 
ATOM     20  H13 UNL     1      39.329  62.252  76.635  1.00  0.00     0.274 HD
ATOM     21  H12 UNL     1      39.371  61.436  75.325  1.00  0.00     0.274 HD
ATOM     22  H11 UNL     1      37.867  62.032  75.815  1.00  0.00     0.274 HD
ENDBRANCH  18  19
ENDBRANCH  17  18
ENDBRANCH  16  17
ENDBRANCH   1  16
TORSDOF 4
ENDMDL
MODEL 2
REMARK VINA RESULT: -6.543049733      3.153      5.660
REMARK  4 active torsions:
REMARK  status: ('A' for Active; 'I' for Inactive)
REMARK    1  A    between atoms: N1_1  and  C1_5 
REMARK    2  A    between atoms: C1_5  and  C2_6 
REMARK    3  A    between atoms: C2_6  and  C3_7 
REMARK    4  A    between atoms: C3_7  and  N2_8 
ROOT
HETATM    1  N2  UNL     1      36.700  61.481  81.233  1.00  0.00    -0.352 N 
HETATM    2  C4  UNL     1      38.116  61.272  80.955  1.00  0.00     0.126 C 
HETATM    3  C5  UNL     1      38.307  59.853  80.461  1.00  0.00     0.030 C 
HETATM    4  C6  UNL     1      37.568  59.676  79.133  1.00  0.00    -0.021 C 
HETATM    5  C7  UNL     1      38.107  60.795  78.231  1.00  0.00     0.011 C 
HETATM    6  C8  UNL     1      38.228  60.155  76.866  1.00  0.00     0.002 C 
HETATM    7  C9  UNL     1      38.818  58.793  77.250  1.00  0.00     0.012 C 
HETATM    8  C10 UNL     1      37.935  58.427  78.426  1.00  0.00    -0.009 C 
HETATM    9  C11 UNL     1      38.629  57.400  79.256  1.00  0.00     0.038 C 
HETATM   10  C12 UNL     1      37.560  56.414  79.569  1.00  0.00     0.168 C 
HETATM   11  O1  UNL     1      36.459  56.668  78.805  1.00  0.00    -0.390 OA
HETATM   12  C13 UNL     1      36.761  57.650  77.884  1.00  0.00     0.177 C 
HETATM   13  C14 UNL     1      36.095  59.873  79.342  1.00  0.00     0.113 C 
HETATM   14  C15 UNL     1      35.779  60.677  80.546  1.00  0.00     0.220 C 
HETATM   15  O2  UNL     1      34.592  60.624  80.972  1.00  0.00    -0.273 OA
ENDROOT
BRANCH   1  16
HETATM   16  C3  UNL     1      36.286  62.490  82.188  1.00  0.00     0.127 C 
BRANCH  16  17
HETATM   17  C2  UNL     1      37.138  63.732  82.115  1.00  0.00     0.047 C 
BRANCH  17  18
HETATM   18  C1  UNL     1      36.850  64.695  83.225  1.00  0.00     0.231 C 
BRANCH  18  19
HETATM   19  N1  UNL     1      35.679  65.498  82.902  1.00  0.00    -0.079 N 
ATOM     20  H13 UNL     1      35.813  66.480  83.143  1.00  0.00     0.274 HD
ATOM     21  H12 UNL     1      35.556  65.605  81.896  1.00  0.00     0.274 HD
ATOM     22  H11 UNL     1      34.849  65.106  83.348  1.00  0.00     0.274 HD
ENDBRANCH  18  19
ENDBRANCH  17  18
ENDBRANCH  16  17
ENDBRANCH   1  16
TORSDOF 4
ENDMDL
MODEL 3
REMARK VINA RESULT: -6.503331347      1.446      1.940
REMARK  4 active torsions:
REMARK  status: ('A' for Active; 'I' for Inactive)
REMARK    1  A    between atoms: N1_1  and  C1_5 
REMARK    2  A    between atoms: C1_5  and  C2_6 
REMARK    3  A    between atoms: C2_6  and  C3_7 
REMARK    4  A    between atoms: C3_7  and  N2_8 
ROOT
HETATM    1  N2  UNL     1      36.449  60.651  80.830  1.00  0.00    -0.352 N 
HETATM    2  C4  UNL     1      35.989  59.275  80.974  1.00  0.00     0.126 C 
HETATM    3  C5  UNL     1      36.358  58.783  82.357  1.00  0.00     0.030 C 
HETATM    4  C6  UNL     1      35.607  59.607  83.405  1.00  0.00    -0.021 C 
HETATM    5  C7  UNL     1      34.128  59.494  83.007  1.00  0.00     0.011 C 
HETATM    6  C8  UNL     1      33.391  59.380  84.323  1.00  0.00     0.002 C 
HETATM    7  C9  UNL     1      34.314  58.412  85.074  1.00  0.00     0.012 C 
HETATM    8  C10 UNL     1      35.667  59.018  84.762  1.00  0.00    -0.009 C 
HETATM    9  C11 UNL     1      36.723  57.983  84.965  1.00  0.00     0.038 C 
HETATM   10  C12 UNL     1      37.800  58.711  85.688  1.00  0.00     0.168 C 
HETATM   11  O1  UNL     1      37.338  59.926  86.103  1.00  0.00    -0.390 OA
HETATM   12  C13 UNL     1      35.983  60.006  85.857  1.00  0.00     0.177 C 
HETATM   13  C14 UNL     1      36.035  61.044  83.321  1.00  0.00     0.113 C 
HETATM   14  C15 UNL     1      36.602  61.408  82.001  1.00  0.00     0.220 C 
HETATM   15  O2  UNL     1      37.268  62.479  81.943  1.00  0.00    -0.273 OA
ENDROOT
BRANCH   1  16
HETATM   16  C3  UNL     1      36.731  61.193  79.516  1.00  0.00     0.127 C 
BRANCH  16  17
HETATM   17  C2  UNL     1      38.025  60.671  78.946  1.00  0.00     0.047 C 
BRANCH  17  18
HETATM   18  C1  UNL     1      37.914  60.308  77.498  1.00  0.00     0.231 C 
BRANCH  18  19
HETATM   19  N1  UNL     1      38.618  61.284  76.679  1.00  0.00    -0.079 N 
ATOM     20  H13 UNL     1      38.310  62.237  76.873  1.00  0.00     0.274 HD
ATOM     21  H12 UNL     1      39.594  61.382  76.958  1.00  0.00     0.274 HD
ATOM     22  H11 UNL     1      38.527  61.047  75.691  1.00  0.00     0.274 HD
ENDBRANCH  18  19
ENDBRANCH  17  18
ENDBRANCH  16  17
ENDBRANCH   1  16
TORSDOF 4
ENDMDL
MODEL 4
REMARK VINA RESULT: -6.412660966      3.123      5.463
REMARK  4 active torsions:
REMARK  status: ('A' for Active; 'I' for Inactive)
REMARK    1  A    between atoms: N1_1  and  C1_5 
REMARK    2  A    between atoms: C1_5  and  C2_6 
REMARK    3  A    between atoms: C2_6  and  C3_7 
REMARK    4  A    between atoms: C3_7  and  N2_8 
ROOT
HETATM    1  N2  UNL     1      37.717  57.313  83.800  1.00  0.00    -0.352 N 
HETATM    2  C4  UNL     1      36.653  56.905  82.892  1.00  0.00     0.126 C 
HETATM    3  C5  UNL     1      35.647  58.033  82.786  1.00  0.00     0.030 C 
HETATM    4  C6  UNL     1      36.320  59.252  82.152  1.00  0.00    -0.021 C 
HETATM    5  C7  UNL     1      36.912  58.732  80.833  1.00  0.00     0.011 C 
HETATM    6  C8  UNL     1      36.679  59.855  79.847  1.00  0.00     0.002 C 
HETATM    7  C9  UNL     1      35.249  60.262  80.224  1.00  0.00     0.012 C 
HETATM    8  C10 UNL     1      35.358  60.297  81.735  1.00  0.00    -0.009 C 
HETATM    9  C11 UNL     1      33.991  60.182  82.324  1.00  0.00     0.038 C 
HETATM   10  C12 UNL     1      33.985  61.199  83.408  1.00  0.00     0.168 C 
HETATM   11  O1  UNL     1      35.085  61.998  83.299  1.00  0.00    -0.390 OA
HETATM   12  C13 UNL     1      35.750  61.699  82.128  1.00  0.00     0.177 C 
HETATM   13  C14 UNL     1      37.432  59.736  83.038  1.00  0.00     0.113 C 
HETATM   14  C15 UNL     1      37.948  58.689  83.951  1.00  0.00     0.220 C 
HETATM   15  O2  UNL     1      38.642  59.079  84.930  1.00  0.00    -0.273 OA
ENDROOT
BRANCH   1  16
HETATM   16  C3  UNL     1      38.496  56.316  84.508  1.00  0.00     0.127 C 
BRANCH  16  17
HETATM   17  C2  UNL     1      37.716  55.668  85.624  1.00  0.00     0.047 C 
BRANCH  17  18
HETATM   18  C1  UNL     1      38.367  55.844  86.961  1.00  0.00     0.231 C 
BRANCH  18  19
HETATM   19  N1  UNL     1      38.506  57.260  87.269  1.00  0.00    -0.079 N 
ATOM     20  H13 UNL     1      39.263  57.692  86.740  1.00  0.00     0.274 HD
ATOM     21  H12 UNL     1      37.731  57.808  86.899  1.00  0.00     0.274 HD
ATOM     22  H11 UNL     1      38.621  57.392  88.274  1.00  0.00     0.274 HD
ENDBRANCH  18  19
ENDBRANCH  17  18
ENDBRANCH  16  17
ENDBRANCH   1  16
TORSDOF 4
ENDMDL
MODEL 5
REMARK VINA RESULT: -6.365384588      3.205      6.136
REMARK  4 active torsions:
REMARK  status: ('A' for Active; 'I' for Inactive)
REMARK    1  A    between atoms: N1_1  and  C1_5 
REMARK    2  A    between atoms: C1_5  and  C2_6 
REMARK    3  A    between atoms: C2_6  and  C3_7 
REMARK    4  A    between atoms: C3_7  and  N2_8 
ROOT
HETATM    1  N2  UNL     1      36.807  57.676  84.229  1.00  0.00    -0.352 N 
HETATM    2  C4  UNL     1      36.164  57.465  82.937  1.00  0.00     0.126 C 
HETATM    3  C5  UNL     1      36.055  58.798  82.227  1.00  0.00     0.030 C 
HETATM    4  C6  UNL     1      37.460  59.331  81.935  1.00  0.00    -0.021 C 
HETATM    5  C7  UNL     1      38.158  58.198  81.169  1.00  0.00     0.011 C 
HETATM    6  C8  UNL     1      38.979  58.907  80.113  1.00  0.00     0.002 C 
HETATM    7  C9  UNL     1      37.977  59.973  79.653  1.00  0.00     0.012 C 
HETATM    8  C10 UNL     1      37.465  60.470  80.989  1.00  0.00    -0.009 C 
HETATM    9  C11 UNL     1      36.148  61.141  80.786  1.00  0.00     0.038 C 
HETATM   10  C12 UNL     1      36.244  62.371  81.616  1.00  0.00     0.168 C 
HETATM   11  O1  UNL     1      37.531  62.551  82.030  1.00  0.00    -0.390 OA
HETATM   12  C13 UNL     1      38.342  61.624  81.407  1.00  0.00     0.177 C 
HETATM   13  C14 UNL     1      38.186  59.579  83.225  1.00  0.00     0.113 C 
HETATM   14  C15 UNL     1      37.647  58.792  84.359  1.00  0.00     0.220 C 
HETATM   15  O2  UNL     1      37.974  59.166  85.519  1.00  0.00    -0.273 OA
ENDROOT
BRANCH   1  16
HETATM   16  C3  UNL     1      36.572  56.753  85.321  1.00  0.00     0.127 C 
BRANCH  16  17
HETATM   17  C2  UNL     1      37.626  55.678  85.399  1.00  0.00     0.047 C 
BRANCH  17  18
HETATM   18  C1  UNL     1      38.212  55.543  86.770  1.00  0.00     0.231 C 
BRANCH  18  19
HETATM   19  N1  UNL     1      38.474  56.858  87.337  1.00  0.00    -0.079 N 
ATOM     20  H13 UNL     1      37.634  57.436  87.360  1.00  0.00     0.274 HD
ATOM     21  H12 UNL     1      38.652  56.813  88.339  1.00  0.00     0.274 HD
ATOM     22  H11 UNL     1      39.236  57.313  86.834  1.00  0.00     0.274 HD
ENDBRANCH  18  19
ENDBRANCH  17  18
ENDBRANCH  16  17
ENDBRANCH   1  16
TORSDOF 4
ENDMDL
