MODEL 1
REMARK VINA RESULT: -5.634161416      0.000      0.000
REMARK  7 active torsions:
REMARK  status: ('A' for Active; 'I' for Inactive)
REMARK    1  A    between atoms: N1_1  and  N2_4 
REMARK    2  A    between atoms: N2_4  and  C1_5 
REMARK    3  A    between atoms: C1_5  and  C2_6 
REMARK    4  A    between atoms: C2_6  and  C3_7 
REMARK    5  A    between atoms: C3_7  and  N3_8 
REMARK    6  A    between atoms: C5_10  and  C6_11 
REMARK    7  A    between atoms: C7_12  and  N4_13 
ROOT
HETATM    1  N3  UNL     1     -14.992 -23.038  14.415  1.00  0.00    -0.303 N 
HETATM    2  C4  UNL     1     -13.709 -23.287  14.679  1.00  0.00     0.122 A 
HETATM    3  C5  UNL     1     -12.996 -22.112  14.733  1.00  0.00    -0.001 A 
HETATM    4  C11 UNL     1     -13.921 -21.119  14.486  1.00  0.00     0.120 A 
HETATM    5  N7  UNL     1     -15.108 -21.729  14.301  1.00  0.00    -0.309 N 
ATOM      6  H7  UNL     1     -15.982 -21.243  14.100  1.00  0.00     0.186 HD
ENDROOT
BRANCH   3   7
HETATM    7  C6  UNL     1     -11.559 -21.937  14.998  1.00  0.00     0.032 C 
HETATM    8  C7  UNL     1     -11.128 -21.973  16.206  1.00  0.00     0.107 C 
BRANCH   8   9
HETATM    9  N4  UNL     1      -9.807 -21.832  16.702  1.00  0.00    -0.226 N 
HETATM   10  C8  UNL     1      -9.303 -20.570  16.895  1.00  0.00     0.338 A 
HETATM   11  O1  UNL     1     -10.051 -19.588  16.617  1.00  0.00    -0.246 OA
HETATM   12  N5  UNL     1      -8.073 -20.336  17.358  1.00  0.00    -0.260 N 
HETATM   13  C9  UNL     1      -7.255 -21.354  17.661  1.00  0.00     0.332 A 
ATOM     14  H5  UNL     1      -7.753 -19.375  17.481  1.00  0.00     0.175 HD
HETATM   15  O2  UNL     1      -6.080 -21.134  18.104  1.00  0.00    -0.246 OA
HETATM   16  N6  UNL     1      -7.707 -22.597  17.488  1.00  0.00    -0.260 N 
HETATM   17  C10 UNL     1      -8.967 -22.817  17.014  1.00  0.00     0.338 A 
ATOM     18  H6  UNL     1      -7.106 -23.390  17.712  1.00  0.00     0.175 HD
HETATM   19  O3  UNL     1      -9.352 -24.017  16.865  1.00  0.00    -0.246 OA
ENDBRANCH   8   9
ENDBRANCH   3   7
BRANCH   1  20
HETATM   20  C3  UNL     1     -16.102 -23.961  14.267  1.00  0.00     0.149 C 
BRANCH  20  21
HETATM   21  C2  UNL     1     -16.535 -24.460  15.623  1.00  0.00     0.039 C 
BRANCH  21  22
HETATM   22  C1  UNL     1     -17.656 -23.633  16.205  1.00  0.00     0.136 C 
BRANCH  22  23
HETATM   23  N2  UNL     1     -18.842 -23.646  15.396  1.00  0.00    -0.148 NA
BRANCH  23  24
HETATM   24  N1  UNL     1     -19.602 -22.514  15.779  1.00  0.00    -0.348 N 
ATOM     25  H12 UNL     1     -20.555 -22.526  16.142  1.00  0.00     0.172 HD
ATOM     26  H11 UNL     1     -19.009 -21.699  15.620  1.00  0.00     0.172 HD
ENDBRANCH  23  24
ENDBRANCH  22  23
ENDBRANCH  21  22
ENDBRANCH  20  21
ENDBRANCH   1  20
TORSDOF 7
ENDMDL
MODEL 2
REMARK VINA RESULT: -5.622824633      2.945      8.281
REMARK  7 active torsions:
REMARK  status: ('A' for Active; 'I' for Inactive)
REMARK    1  A    between atoms: N1_1  and  N2_4 
REMARK    2  A    between atoms: N2_4  and  C1_5 
REMARK    3  A    between atoms: C1_5  and  C2_6 
REMARK    4  A    between atoms: C2_6  and  C3_7 
REMARK    5  A    between atoms: C3_7  and  N3_8 
REMARK    6  A    between atoms: C5_10  and  C6_11 
REMARK    7  A    between atoms: C7_12  and  N4_13 
ROOT
HETATM    1  N3  UNL     1      -8.543 -22.076  16.950  1.00  0.00    -0.303 N 
HETATM    2  C4  UNL     1      -9.587 -22.761  16.481  1.00  0.00     0.122 A 
HETATM    3  C5  UNL     1     -10.450 -21.921  15.818  1.00  0.00    -0.001 A 
HETATM    4  C11 UNL     1      -9.874 -20.671  15.906  1.00  0.00     0.120 A 
HETATM    5  N7  UNL     1      -8.727 -20.818  16.598  1.00  0.00    -0.309 N 
ATOM      6  H7  UNL     1      -8.085 -20.057  16.819  1.00  0.00     0.186 HD
ENDROOT
BRANCH   3   7
HETATM    7  C6  UNL     1     -11.716 -22.267  15.153  1.00  0.00     0.032 C 
HETATM    8  C7  UNL     1     -12.696 -22.714  15.850  1.00  0.00     0.107 C 
BRANCH   8   9
HETATM    9  N4  UNL     1     -13.996 -23.109  15.440  1.00  0.00    -0.226 N 
HETATM   10  C8  UNL     1     -14.332 -24.438  15.499  1.00  0.00     0.338 A 
HETATM   11  O1  UNL     1     -13.458 -25.250  15.921  1.00  0.00    -0.246 OA
HETATM   12  N5  UNL     1     -15.528 -24.907  15.136  1.00  0.00    -0.260 N 
HETATM   13  C9  UNL     1     -16.477 -24.074  14.685  1.00  0.00     0.332 A 
ATOM     14  H5  UNL     1     -15.722 -25.907  15.203  1.00  0.00     0.175 HD
HETATM   15  O2  UNL     1     -17.621 -24.519  14.338  1.00  0.00    -0.246 OA
HETATM   16  N6  UNL     1     -16.190 -22.773  14.613  1.00  0.00    -0.260 N 
HETATM   17  C10 UNL     1     -14.962 -22.312  14.988  1.00  0.00     0.338 A 
ATOM     18  H6  UNL     1     -16.894 -22.118  14.274  1.00  0.00     0.175 HD
HETATM   19  O3  UNL     1     -14.735 -21.067  14.900  1.00  0.00    -0.246 OA
ENDBRANCH   8   9
ENDBRANCH   3   7
BRANCH   1  20
HETATM   20  C3  UNL     1      -7.395 -22.541  17.705  1.00  0.00     0.149 C 
BRANCH  20  21
HETATM   21  C2  UNL     1      -7.076 -21.559  18.805  1.00  0.00     0.039 C 
BRANCH  21  22
HETATM   22  C1  UNL     1      -7.750 -21.917  20.106  1.00  0.00     0.136 C 
BRANCH  22  23
HETATM   23  N2  UNL     1      -6.822 -22.292  21.136  1.00  0.00    -0.148 NA
BRANCH  23  24
HETATM   24  N1  UNL     1      -7.082 -23.652  21.436  1.00  0.00    -0.348 N 
ATOM     25  H12 UNL     1      -7.420 -24.014  22.327  1.00  0.00     0.172 HD
ATOM     26  H11 UNL     1      -6.865 -24.182  20.592  1.00  0.00     0.172 HD
ENDBRANCH  23  24
ENDBRANCH  22  23
ENDBRANCH  21  22
ENDBRANCH  20  21
ENDBRANCH   1  20
TORSDOF 7
ENDMDL
MODEL 3
REMARK VINA RESULT: -5.561836591      5.441      6.287
REMARK  7 active torsions:
REMARK  status: ('A' for Active; 'I' for Inactive)
REMARK    1  A    between atoms: N1_1  and  N2_4 
REMARK    2  A    between atoms: N2_4  and  C1_5 
REMARK    3  A    between atoms: C1_5  and  C2_6 
REMARK    4  A    between atoms: C2_6  and  C3_7 
REMARK    5  A    between atoms: C3_7  and  N3_8 
REMARK    6  A    between atoms: C5_10  and  C6_11 
REMARK    7  A    between atoms: C7_12  and  N4_13 
ROOT
HETATM    1  N3  UNL     1     -13.413 -19.619  22.416  1.00  0.00    -0.303 N 
HETATM    2  C4  UNL     1     -12.188 -19.174  22.135  1.00  0.00     0.122 A 
HETATM    3  C5  UNL     1     -11.681 -19.831  21.039  1.00  0.00    -0.001 A 
HETATM    4  C11 UNL     1     -12.671 -20.713  20.659  1.00  0.00     0.120 A 
HETATM    5  N7  UNL     1     -13.694 -20.546  21.519  1.00  0.00    -0.309 N 
ATOM      6  H7  UNL     1     -14.570 -21.067  21.483  1.00  0.00     0.186 HD
ENDROOT
BRANCH   3   7
HETATM    7  C6  UNL     1     -10.368 -19.644  20.400  1.00  0.00     0.032 C 
HETATM    8  C7  UNL     1      -9.962 -20.492  19.527  1.00  0.00     0.107 C 
BRANCH   8   9
HETATM    9  N4  UNL     1      -8.752 -20.524  18.786  1.00  0.00    -0.226 N 
HETATM   10  C8  UNL     1      -8.574 -19.617  17.772  1.00  0.00     0.338 A 
HETATM   11  O1  UNL     1      -9.506 -18.791  17.548  1.00  0.00    -0.246 OA
HETATM   12  N5  UNL     1      -7.471 -19.568  17.020  1.00  0.00    -0.260 N 
HETATM   13  C9  UNL     1      -6.465 -20.429  17.231  1.00  0.00     0.332 A 
ATOM     14  H5  UNL     1      -7.394 -18.870  16.280  1.00  0.00     0.175 HD
HETATM   15  O2  UNL     1      -5.411 -20.384  16.515  1.00  0.00    -0.246 OA
HETATM   16  N6  UNL     1      -6.600 -21.326  18.209  1.00  0.00    -0.260 N 
HETATM   17  C10 UNL     1      -7.733 -21.362  18.967  1.00  0.00     0.338 A 
ATOM     18  H6  UNL     1      -5.849 -21.992  18.391  1.00  0.00     0.175 HD
HETATM   19  O3  UNL     1      -7.816 -22.234  19.884  1.00  0.00    -0.246 OA
ENDBRANCH   8   9
ENDBRANCH   3   7
BRANCH   1  20
HETATM   20  C3  UNL     1     -14.323 -19.221  23.473  1.00  0.00     0.149 C 
BRANCH  20  21
HETATM   21  C2  UNL     1     -15.695 -19.787  23.205  1.00  0.00     0.039 C 
BRANCH  21  22
HETATM   22  C1  UNL     1     -16.744 -19.206  24.122  1.00  0.00     0.136 C 
BRANCH  22  23
HETATM   23  N2  UNL     1     -17.306 -17.981  23.627  1.00  0.00    -0.148 NA
BRANCH  23  24
HETATM   24  N1  UNL     1     -18.220 -18.341  22.607  1.00  0.00    -0.348 N 
ATOM     25  H12 UNL     1     -18.041 -18.310  21.603  1.00  0.00     0.172 HD
ATOM     26  H11 UNL     1     -19.077 -18.635  23.076  1.00  0.00     0.172 HD
ENDBRANCH  23  24
ENDBRANCH  22  23
ENDBRANCH  21  22
ENDBRANCH  20  21
ENDBRANCH   1  20
TORSDOF 7
ENDMDL
MODEL 4
REMARK VINA RESULT: -5.538761713      2.826      7.765
REMARK  7 active torsions:
REMARK  status: ('A' for Active; 'I' for Inactive)
REMARK    1  A    between atoms: N1_1  and  N2_4 
REMARK    2  A    between atoms: N2_4  and  C1_5 
REMARK    3  A    between atoms: C1_5  and  C2_6 
REMARK    4  A    between atoms: C2_6  and  C3_7 
REMARK    5  A    between atoms: C3_7  and  N3_8 
REMARK    6  A    between atoms: C5_10  and  C6_11 
REMARK    7  A    between atoms: C7_12  and  N4_13 
ROOT
HETATM    1  N3  UNL     1      -8.548 -22.030  17.010  1.00  0.00    -0.303 N 
HETATM    2  C4  UNL     1      -9.588 -22.729  16.554  1.00  0.00     0.122 A 
HETATM    3  C5  UNL     1     -10.422 -21.920  15.818  1.00  0.00    -0.001 A 
HETATM    4  C11 UNL     1      -9.831 -20.675  15.847  1.00  0.00     0.120 A 
HETATM    5  N7  UNL     1      -8.704 -20.794  16.577  1.00  0.00    -0.309 N 
ATOM      6  H7  UNL     1      -8.058 -20.029  16.770  1.00  0.00     0.186 HD
ENDROOT
BRANCH   3   7
HETATM    7  C6  UNL     1     -11.675 -22.290  15.140  1.00  0.00     0.032 C 
HETATM    8  C7  UNL     1     -12.679 -22.681  15.836  1.00  0.00     0.107 C 
BRANCH   8   9
HETATM    9  N4  UNL     1     -13.973 -23.084  15.416  1.00  0.00    -0.226 N 
HETATM   10  C8  UNL     1     -14.308 -24.412  15.488  1.00  0.00     0.338 A 
HETATM   11  O1  UNL     1     -13.437 -25.218  15.931  1.00  0.00    -0.246 OA
HETATM   12  N5  UNL     1     -15.499 -24.888  15.116  1.00  0.00    -0.260 N 
HETATM   13  C9  UNL     1     -16.443 -24.062  14.642  1.00  0.00     0.332 A 
ATOM     14  H5  UNL     1     -15.691 -25.887  15.193  1.00  0.00     0.175 HD
HETATM   15  O2  UNL     1     -17.582 -24.514  14.286  1.00  0.00    -0.246 OA
HETATM   16  N6  UNL     1     -16.157 -22.763  14.556  1.00  0.00    -0.260 N 
HETATM   17  C10 UNL     1     -14.935 -22.295  14.941  1.00  0.00     0.338 A 
ATOM     18  H6  UNL     1     -16.858 -22.113  14.200  1.00  0.00     0.175 HD
HETATM   19  O3  UNL     1     -14.709 -21.051  14.840  1.00  0.00    -0.246 OA
ENDBRANCH   8   9
ENDBRANCH   3   7
BRANCH   1  20
HETATM   20  C3  UNL     1      -7.427 -22.463  17.822  1.00  0.00     0.149 C 
BRANCH  20  21
HETATM   21  C2  UNL     1      -7.313 -21.585  19.043  1.00  0.00     0.039 C 
BRANCH  21  22
HETATM   22  C1  UNL     1      -8.570 -21.601  19.879  1.00  0.00     0.136 C 
BRANCH  22  23
HETATM   23  N2  UNL     1      -9.346 -20.400  19.749  1.00  0.00    -0.148 NA
BRANCH  23  24
HETATM   24  N1  UNL     1     -10.677 -20.807  19.487  1.00  0.00    -0.348 N 
ATOM     25  H12 UNL     1     -11.076 -21.722  19.696  1.00  0.00     0.172 HD
ATOM     26  H11 UNL     1     -11.144 -20.009  19.056  1.00  0.00     0.172 HD
ENDBRANCH  23  24
ENDBRANCH  22  23
ENDBRANCH  21  22
ENDBRANCH  20  21
ENDBRANCH   1  20
TORSDOF 7
ENDMDL
MODEL 5
REMARK VINA RESULT: -5.481185571      2.731      4.670
REMARK  7 active torsions:
REMARK  status: ('A' for Active; 'I' for Inactive)
REMARK    1  A    between atoms: N1_1  and  N2_4 
REMARK    2  A    between atoms: N2_4  and  C1_5 
REMARK    3  A    between atoms: C1_5  and  C2_6 
REMARK    4  A    between atoms: C2_6  and  C3_7 
REMARK    5  A    between atoms: C3_7  and  N3_8 
REMARK    6  A    between atoms: C5_10  and  C6_11 
REMARK    7  A    between atoms: C7_12  and  N4_13 
ROOT
HETATM    1  N3  UNL     1     -19.599 -23.898  15.891  1.00  0.00    -0.303 N 
HETATM    2  C4  UNL     1     -18.407 -24.067  15.317  1.00  0.00     0.122 A 
HETATM    3  C5  UNL     1     -17.424 -23.470  16.071  1.00  0.00    -0.001 A 
HETATM    4  C11 UNL     1     -18.084 -22.920  17.150  1.00  0.00     0.120 A 
HETATM    5  N7  UNL     1     -19.392 -23.206  16.995  1.00  0.00    -0.309 N 
ATOM      6  H7  UNL     1     -20.125 -22.925  17.645  1.00  0.00     0.186 HD
ENDROOT
BRANCH   3   7
HETATM    7  C6  UNL     1     -15.979 -23.421  15.798  1.00  0.00     0.032 C 
HETATM    8  C7  UNL     1     -15.313 -22.366  16.098  1.00  0.00     0.107 C 
BRANCH   8   9
HETATM    9  N4  UNL     1     -13.932 -22.087  15.933  1.00  0.00    -0.226 N 
HETATM   10  C8  UNL     1     -13.536 -21.305  14.877  1.00  0.00     0.338 A 
HETATM   11  O1  UNL     1     -14.433 -20.869  14.098  1.00  0.00    -0.246 OA
HETATM   12  N5  UNL     1     -12.262 -20.988  14.639  1.00  0.00    -0.260 N 
HETATM   13  C9  UNL     1     -11.287 -21.435  15.444  1.00  0.00     0.332 A 
ATOM     14  H5  UNL     1     -12.027 -20.402  13.838  1.00  0.00     0.175 HD
HETATM   15  O2  UNL     1     -10.069 -21.133  15.219  1.00  0.00    -0.246 OA
HETATM   16  N6  UNL     1     -11.630 -22.198  16.483  1.00  0.00    -0.260 N 
HETATM   17  C10 UNL     1     -12.938 -22.512  16.711  1.00  0.00     0.338 A 
ATOM     18  H6  UNL     1     -10.909 -22.550  17.112  1.00  0.00     0.175 HD
HETATM   19  O3  UNL     1     -13.215 -23.242  17.711  1.00  0.00    -0.246 OA
ENDBRANCH   8   9
ENDBRANCH   3   7
BRANCH   1  20
HETATM   20  C3  UNL     1     -20.907 -24.351  15.458  1.00  0.00     0.149 C 
BRANCH  20  21
HETATM   21  C2  UNL     1     -21.502 -23.348  14.501  1.00  0.00     0.039 C 
BRANCH  21  22
HETATM   22  C1  UNL     1     -22.432 -22.381  15.191  1.00  0.00     0.136 C 
BRANCH  22  23
HETATM   23  N2  UNL     1     -21.738 -21.377  15.948  1.00  0.00    -0.148 NA
BRANCH  23  24
HETATM   24  N1  UNL     1     -22.565 -20.226  15.943  1.00  0.00    -0.348 N 
ATOM     25  H12 UNL     1     -22.817 -19.673  15.125  1.00  0.00     0.172 HD
ATOM     26  H11 UNL     1     -22.850 -20.071  16.910  1.00  0.00     0.172 HD
ENDBRANCH  23  24
ENDBRANCH  22  23
ENDBRANCH  21  22
ENDBRANCH  20  21
ENDBRANCH   1  20
TORSDOF 7
ENDMDL
