MODEL 1
REMARK VINA RESULT: -3.946722341      0.000      0.000
REMARK  1 active torsions:
REMARK  status: ('A' for Active; 'I' for Inactive)
REMARK    1  A    between atoms: C2_2  and  N1_3 
ROOT
HETATM    1  N1  UNL     1      30.372   7.110  28.510  1.00  0.00    -0.040 N 
HETATM    2  C3  UNL     1      29.679   6.158  29.302  1.00  0.00     0.468 C 
HETATM    3  N2  UNL     1      28.730   7.039  30.020  1.00  0.00    -0.043 N 
ATOM      4  H21 UNL     1      28.821   7.063  31.036  1.00  0.00     0.279 HD
ATOM      5  H22 UNL     1      27.758   6.733  30.036  1.00  0.00     0.279 HD
HETATM    6  C4  UNL     1      28.991   8.267  29.338  1.00  0.00     0.239 C 
HETATM    7  C5  UNL     1      30.497   8.314  29.331  1.00  0.00     0.274 C 
HETATM    8  C6  UNL     1      29.228   7.813  27.893  1.00  0.00     0.274 C 
ENDROOT
BRANCH   1   9
HETATM    9  C2  UNL     1      31.430   6.754  27.684  1.00  0.00     0.235 C 
HETATM   10  C1  UNL     1      32.020   5.393  27.973  1.00  0.00     0.035 C 
ENDBRANCH   1   9
TORSDOF 1
ENDMDL
MODEL 2
REMARK VINA RESULT: -3.717725895      1.205      1.323
REMARK  1 active torsions:
REMARK  status: ('A' for Active; 'I' for Inactive)
REMARK    1  A    between atoms: C2_2  and  N1_3 
ROOT
HETATM    1  N1  UNL     1      30.580   6.179  28.299  1.00  0.00    -0.040 N 
HETATM    2  C3  UNL     1      29.607   5.151  28.197  1.00  0.00     0.468 C 
HETATM    3  N2  UNL     1      28.369   5.921  28.452  1.00  0.00    -0.043 N 
ATOM      4  H21 UNL     1      27.832   5.647  29.275  1.00  0.00     0.279 HD
ATOM      5  H22 UNL     1      27.600   5.761  27.802  1.00  0.00     0.279 HD
HETATM    6  C4  UNL     1      28.913   7.241  28.468  1.00  0.00     0.239 C 
HETATM    7  C5  UNL     1      30.118   7.077  29.358  1.00  0.00     0.274 C 
HETATM    8  C6  UNL     1      29.993   7.179  27.382  1.00  0.00     0.274 C 
ENDROOT
BRANCH   1   9
HETATM    9  C2  UNL     1      31.940   5.924  28.187  1.00  0.00     0.235 C 
HETATM   10  C1  UNL     1      32.309   4.460  28.247  1.00  0.00     0.035 C 
ENDBRANCH   1   9
TORSDOF 1
ENDMDL
MODEL 3
REMARK VINA RESULT: -3.633936644      1.178      2.505
REMARK  1 active torsions:
REMARK  status: ('A' for Active; 'I' for Inactive)
REMARK    1  A    between atoms: C2_2  and  N1_3 
ROOT
HETATM    1  N1  UNL     1      30.225   7.159  28.323  1.00  0.00    -0.040 N 
HETATM    2  C3  UNL     1      31.507   6.889  27.776  1.00  0.00     0.468 C 
HETATM    3  N2  UNL     1      31.922   8.250  27.369  1.00  0.00    -0.043 N 
ATOM      4  H21 UNL     1      32.087   8.389  26.371  1.00  0.00     0.279 HD
ATOM      5  H22 UNL     1      32.862   8.533  27.643  1.00  0.00     0.279 HD
HETATM    6  C4  UNL     1      30.848   9.002  27.938  1.00  0.00     0.239 C 
HETATM    7  C5  UNL     1      29.641   8.216  27.497  1.00  0.00     0.274 C 
HETATM    8  C6  UNL     1      30.568   8.259  29.249  1.00  0.00     0.274 C 
ENDROOT
BRANCH   1   9
HETATM    9  C2  UNL     1      29.398   6.152  28.800  1.00  0.00     0.235 C 
HETATM   10  C1  UNL     1      30.128   4.938  29.327  1.00  0.00     0.035 C 
ENDBRANCH   1   9
TORSDOF 1
ENDMDL
MODEL 4
REMARK VINA RESULT: -3.606158314      1.638      2.906
REMARK  1 active torsions:
REMARK  status: ('A' for Active; 'I' for Inactive)
REMARK    1  A    between atoms: C2_2  and  N1_3 
ROOT
HETATM    1  N1  UNL     1      30.870   5.819  28.124  1.00  0.00    -0.040 N 
HETATM    2  C3  UNL     1      31.964   4.932  28.303  1.00  0.00     0.468 C 
HETATM    3  N2  UNL     1      31.433   4.058  29.373  1.00  0.00    -0.043 N 
ATOM      4  H21 UNL     1      31.950   4.061  30.253  1.00  0.00     0.279 HD
ATOM      5  H22 UNL     1      31.538   3.054  29.226  1.00  0.00     0.279 HD
HETATM    6  C4  UNL     1      30.092   4.547  29.431  1.00  0.00     0.239 C 
HETATM    7  C5  UNL     1      30.298   6.039  29.452  1.00  0.00     0.274 C 
HETATM    8  C6  UNL     1      29.772   4.842  27.962  1.00  0.00     0.274 C 
ENDROOT
BRANCH   1   9
HETATM    9  C2  UNL     1      30.920   6.884  27.234  1.00  0.00     0.235 C 
HETATM   10  C1  UNL     1      29.949   8.001  27.540  1.00  0.00     0.035 C 
ENDBRANCH   1   9
TORSDOF 1
ENDMDL
MODEL 5
REMARK VINA RESULT: -3.604591664      1.168      1.629
REMARK  1 active torsions:
REMARK  status: ('A' for Active; 'I' for Inactive)
REMARK    1  A    between atoms: C2_2  and  N1_3 
ROOT
HETATM    1  N1  UNL     1      30.007   7.584  28.196  1.00  0.00    -0.040 N 
HETATM    2  C3  UNL     1      29.576   6.325  28.692  1.00  0.00     0.468 C 
HETATM    3  N2  UNL     1      28.871   6.745  29.924  1.00  0.00    -0.043 N 
ATOM      4  H21 UNL     1      29.251   6.388  30.801  1.00  0.00     0.279 HD
ATOM      5  H22 UNL     1      27.946   6.341  30.071  1.00  0.00     0.279 HD
HETATM    6  C4  UNL     1      28.918   8.162  29.750  1.00  0.00     0.239 C 
HETATM    7  C5  UNL     1      30.358   8.387  29.367  1.00  0.00     0.274 C 
HETATM    8  C6  UNL     1      28.730   8.327  28.238  1.00  0.00     0.274 C 
ENDROOT
BRANCH   1   9
HETATM    9  C2  UNL     1      30.782   7.701  27.050  1.00  0.00     0.235 C 
HETATM   10  C1  UNL     1      30.697   9.048  26.372  1.00  0.00     0.035 C 
ENDBRANCH   1   9
TORSDOF 1
ENDMDL
