MODEL 1
REMARK VINA RESULT: -5.276945090      0.000      0.000
REMARK  7 active torsions:
REMARK  status: ('A' for Active; 'I' for Inactive)
REMARK    1  A    between atoms: C3_3  and  N1_4 
REMARK    2  A    between atoms: N1_4  and  C4_6 
REMARK    3  A    between atoms: C5_9  and  C6_10 
REMARK    4  A    between atoms: C6_10  and  C7_11 
REMARK    5  A    between atoms: C7_11  and  N3_12 
REMARK    6  A    between atoms: N4_18  and  N5_19 
REMARK    7  A    between atoms: C12_22  and  N6_23 
ROOT
HETATM    1  C1  UNL     1      15.921   6.205  30.341  1.00  0.00     0.014 C 
HETATM    2  C2  UNL     1      14.907   6.178  31.002  1.00  0.00    -0.097 C 
HETATM    3  C3  UNL     1      13.655   6.169  31.797  1.00  0.00     0.231 C 
ENDROOT
BRANCH   3   4
HETATM    4  N1  UNL     1      12.839   7.275  31.377  1.00  0.00    -0.216 N 
ATOM      5  H1  UNL     1      12.541   7.948  32.083  1.00  0.00     0.178 HD
BRANCH   4   6
HETATM    6  C4  UNL     1      12.462   7.466  30.160  1.00  0.00     0.680 A 
HETATM    7  N2  UNL     1      11.625   6.635  29.541  1.00  0.00    -0.194 N 
HETATM    8  C5  UNL     1      11.171   6.752  28.265  1.00  0.00     0.048 A 
ATOM      9  H2  UNL     1      11.291   5.834  30.077  1.00  0.00     0.184 HD
HETATM   10  C10 UNL     1      11.667   7.857  27.616  1.00  0.00     0.103 A 
HETATM   11  C11 UNL     1      11.321   8.097  26.320  1.00  0.00     0.297 A 
HETATM   12  C13 UNL     1      12.548   8.744  28.249  1.00  0.00     0.154 A 
HETATM   13  O1  UNL     1      10.560   7.337  25.748  1.00  0.00    -0.265 OA
HETATM   14  N4  UNL     1      11.800   9.154  25.649  1.00  0.00    -0.054 N 
HETATM   15  C12 UNL     1      12.653  10.014  26.269  1.00  0.00     0.701 A 
HETATM   16  N7  UNL     1      13.017   9.802  27.556  1.00  0.00    -0.173 N 
ATOM     17  H7  UNL     1      13.657  10.454  28.009  1.00  0.00     0.186 HD
HETATM   18  N8  UNL     1      12.936   8.540  29.513  1.00  0.00    -0.175 N 
ATOM     19  H8  UNL     1      13.578   9.186  29.973  1.00  0.00     0.186 HD
BRANCH   8  20
HETATM   20  C6  UNL     1      10.199   5.783  27.738  1.00  0.00     0.089 C 
BRANCH  20  21
HETATM   21  C7  UNL     1      10.643   4.364  27.657  1.00  0.00     0.277 C 
BRANCH  21  22
HETATM   22  N3  UNL     1      11.879   4.248  26.943  1.00  0.00     0.080 N 
HETATM   23  C8  UNL     1      11.821   3.994  25.557  1.00  0.00     0.309 C 
HETATM   24  C9  UNL     1      12.755   3.302  27.595  1.00  0.00     0.309 C 
ENDBRANCH  21  22
ENDBRANCH  20  21
ENDBRANCH   8  20
BRANCH  14  25
HETATM   25  N5  UNL     1      11.396   9.326  24.325  1.00  0.00    -0.321 N 
ATOM     26  H52 UNL     1      11.831   8.823  23.551  1.00  0.00     0.178 HD
ATOM     27  H51 UNL     1      10.636   9.980  24.137  1.00  0.00     0.178 HD
ENDBRANCH  14  25
BRANCH  15  28
HETATM   28  N6  UNL     1      13.110  11.023  25.618  1.00  0.00    -0.233 N 
ATOM     29  H62 UNL     1      12.737  11.958  25.782  1.00  0.00     0.174 HD
ATOM     30  H61 UNL     1      13.855  10.879  24.936  1.00  0.00     0.174 HD
ENDBRANCH  15  28
ENDBRANCH   4   6
ENDBRANCH   3   4
TORSDOF 7
ENDMDL
MODEL 2
REMARK VINA RESULT: -5.152248022      2.638      6.243
REMARK  7 active torsions:
REMARK  status: ('A' for Active; 'I' for Inactive)
REMARK    1  A    between atoms: C3_3  and  N1_4 
REMARK    2  A    between atoms: N1_4  and  C4_6 
REMARK    3  A    between atoms: C5_9  and  C6_10 
REMARK    4  A    between atoms: C6_10  and  C7_11 
REMARK    5  A    between atoms: C7_11  and  N3_12 
REMARK    6  A    between atoms: N4_18  and  N5_19 
REMARK    7  A    between atoms: C12_22  and  N6_23 
ROOT
HETATM    1  C1  UNL     1       5.892   7.828  25.828  1.00  0.00     0.014 C 
HETATM    2  C2  UNL     1       7.040   7.455  25.919  1.00  0.00    -0.097 C 
HETATM    3  C3  UNL     1       8.448   7.012  26.058  1.00  0.00     0.231 C 
ENDROOT
BRANCH   3   4
HETATM    4  N1  UNL     1       8.968   7.524  27.296  1.00  0.00    -0.216 N 
ATOM      5  H1  UNL     1       8.307   7.892  27.980  1.00  0.00     0.178 HD
BRANCH   4   6
HETATM    6  C4  UNL     1      10.222   7.545  27.592  1.00  0.00     0.680 A 
HETATM    7  N2  UNL     1      11.053   8.452  27.081  1.00  0.00    -0.194 N 
HETATM    8  C5  UNL     1      12.385   8.556  27.331  1.00  0.00     0.048 A 
ATOM      9  H2  UNL     1      10.650   9.135  26.439  1.00  0.00     0.184 HD
HETATM   10  C10 UNL     1      12.844   7.600  28.205  1.00  0.00     0.103 A 
HETATM   11  C11 UNL     1      14.165   7.560  28.536  1.00  0.00     0.297 A 
HETATM   12  C13 UNL     1      11.987   6.638  28.754  1.00  0.00     0.154 A 
HETATM   13  O1  UNL     1      14.930   8.384  28.066  1.00  0.00    -0.265 OA
HETATM   14  N4  UNL     1      14.653   6.630  29.370  1.00  0.00    -0.054 N 
HETATM   15  C12 UNL     1      13.816   5.700  29.903  1.00  0.00     0.701 A 
HETATM   16  N7  UNL     1      12.498   5.712  29.593  1.00  0.00    -0.173 N 
ATOM     17  H7  UNL     1      11.881   5.009  30.000  1.00  0.00     0.186 HD
HETATM   18  N8  UNL     1      10.686   6.620  28.443  1.00  0.00    -0.175 N 
ATOM     19  H8  UNL     1      10.062   5.919  28.844  1.00  0.00     0.186 HD
BRANCH   8  20
HETATM   20  C6  UNL     1      13.162   9.651  26.735  1.00  0.00     0.089 C 
BRANCH  20  21
HETATM   21  C7  UNL     1      12.796  10.057  25.349  1.00  0.00     0.277 C 
BRANCH  21  22
HETATM   22  N3  UNL     1      13.748  10.982  24.812  1.00  0.00     0.080 N 
HETATM   23  C8  UNL     1      15.119  10.707  25.001  1.00  0.00     0.309 C 
HETATM   24  C9  UNL     1      13.439  12.330  25.233  1.00  0.00     0.309 C 
ENDBRANCH  21  22
ENDBRANCH  20  21
ENDBRANCH   8  20
BRANCH  14  25
HETATM   25  N5  UNL     1      16.019   6.660  29.655  1.00  0.00    -0.321 N 
ATOM     26  H52 UNL     1      16.635   7.396  29.308  1.00  0.00     0.178 HD
ATOM     27  H51 UNL     1      16.403   5.913  30.234  1.00  0.00     0.178 HD
ENDBRANCH  14  25
BRANCH  15  28
HETATM   28  N6  UNL     1      14.292   4.811  30.699  1.00  0.00    -0.233 N 
ATOM     29  H62 UNL     1      14.785   5.085  31.549  1.00  0.00     0.174 HD
ATOM     30  H61 UNL     1      14.170   3.823  30.473  1.00  0.00     0.174 HD
ENDBRANCH  15  28
ENDBRANCH   4   6
ENDBRANCH   3   4
TORSDOF 7
ENDMDL
MODEL 3
REMARK VINA RESULT: -5.053700722      3.510      6.565
REMARK  7 active torsions:
REMARK  status: ('A' for Active; 'I' for Inactive)
REMARK    1  A    between atoms: C3_3  and  N1_4 
REMARK    2  A    between atoms: N1_4  and  C4_6 
REMARK    3  A    between atoms: C5_9  and  C6_10 
REMARK    4  A    between atoms: C6_10  and  C7_11 
REMARK    5  A    between atoms: C7_11  and  N3_12 
REMARK    6  A    between atoms: N4_18  and  N5_19 
REMARK    7  A    between atoms: C12_22  and  N6_23 
ROOT
HETATM    1  C1  UNL     1      12.920   7.530  30.724  1.00  0.00     0.014 C 
HETATM    2  C2  UNL     1      12.405   7.941  29.708  1.00  0.00    -0.097 C 
HETATM    3  C3  UNL     1      11.793   8.468  28.465  1.00  0.00     0.231 C 
ENDROOT
BRANCH   3   4
HETATM    4  N1  UNL     1      12.442   9.704  28.124  1.00  0.00    -0.216 N 
ATOM      5  H1  UNL     1      12.533  10.415  28.850  1.00  0.00     0.178 HD
BRANCH   4   6
HETATM    6  C4  UNL     1      12.916   9.966  26.956  1.00  0.00     0.680 A 
HETATM    7  N2  UNL     1      13.271  11.199  26.597  1.00  0.00    -0.194 N 
HETATM    8  C5  UNL     1      13.779  11.574  25.393  1.00  0.00     0.048 A 
ATOM      9  H2  UNL     1      13.149  11.934  27.294  1.00  0.00     0.184 HD
HETATM   10  C10 UNL     1      13.911  10.524  24.516  1.00  0.00     0.103 A 
HETATM   11  C11 UNL     1      14.386  10.746  23.258  1.00  0.00     0.297 A 
HETATM   12  C13 UNL     1      13.545   9.220  24.873  1.00  0.00     0.154 A 
HETATM   13  O1  UNL     1      14.706  11.873  22.923  1.00  0.00    -0.265 OA
HETATM   14  N4  UNL     1      14.511   9.751  22.368  1.00  0.00    -0.054 N 
HETATM   15  C12 UNL     1      14.157   8.486  22.721  1.00  0.00     0.701 A 
HETATM   16  N7  UNL     1      13.681   8.233  23.963  1.00  0.00    -0.173 N 
ATOM     17  H7  UNL     1      13.419   7.280  24.215  1.00  0.00     0.186 HD
HETATM   18  N8  UNL     1      13.052   8.954  26.088  1.00  0.00    -0.175 N 
ATOM     19  H8  UNL     1      12.786   8.004  26.347  1.00  0.00     0.186 HD
BRANCH   8  20
HETATM   20  C6  UNL     1      14.179  12.969  25.165  1.00  0.00     0.089 C 
BRANCH  20  21
HETATM   21  C7  UNL     1      13.110  14.000  25.271  1.00  0.00     0.277 C 
BRANCH  21  22
HETATM   22  N3  UNL     1      13.147  14.900  24.159  1.00  0.00     0.080 N 
HETATM   23  C8  UNL     1      12.607  14.461  22.932  1.00  0.00     0.309 C 
HETATM   24  C9  UNL     1      14.483  15.417  23.968  1.00  0.00     0.309 C 
ENDBRANCH  21  22
ENDBRANCH  20  21
ENDBRANCH   8  20
BRANCH  14  25
HETATM   25  N5  UNL     1      15.004  10.065  21.101  1.00  0.00    -0.321 N 
ATOM     26  H52 UNL     1      15.999  10.196  20.918  1.00  0.00     0.178 HD
ATOM     27  H51 UNL     1      14.334  10.163  20.338  1.00  0.00     0.178 HD
ENDBRANCH  14  25
BRANCH  15  28
HETATM   28  N6  UNL     1      14.276   7.538  21.861  1.00  0.00    -0.233 N 
ATOM     29  H62 UNL     1      13.570   7.402  21.137  1.00  0.00     0.174 HD
ATOM     30  H61 UNL     1      15.088   6.922  21.908  1.00  0.00     0.174 HD
ENDBRANCH  15  28
ENDBRANCH   4   6
ENDBRANCH   3   4
TORSDOF 7
ENDMDL
MODEL 4
REMARK VINA RESULT: -5.048243389      1.617      1.905
REMARK  7 active torsions:
REMARK  status: ('A' for Active; 'I' for Inactive)
REMARK    1  A    between atoms: C3_3  and  N1_4 
REMARK    2  A    between atoms: N1_4  and  C4_6 
REMARK    3  A    between atoms: C5_9  and  C6_10 
REMARK    4  A    between atoms: C6_10  and  C7_11 
REMARK    5  A    between atoms: C7_11  and  N3_12 
REMARK    6  A    between atoms: N4_18  and  N5_19 
REMARK    7  A    between atoms: C12_22  and  N6_23 
ROOT
HETATM    1  C1  UNL     1      16.499   6.207  33.624  1.00  0.00     0.014 C 
HETATM    2  C2  UNL     1      16.094   5.837  32.545  1.00  0.00    -0.097 C 
HETATM    3  C3  UNL     1      15.571   5.393  31.230  1.00  0.00     0.231 C 
ENDROOT
BRANCH   3   4
HETATM    4  N1  UNL     1      14.162   5.670  31.181  1.00  0.00    -0.216 N 
ATOM      5  H1  UNL     1      13.610   5.506  32.024  1.00  0.00     0.178 HD
BRANCH   4   6
HETATM    6  C4  UNL     1      13.555   6.115  30.136  1.00  0.00     0.680 A 
HETATM    7  N2  UNL     1      12.634   5.397  29.495  1.00  0.00    -0.194 N 
HETATM    8  C5  UNL     1      11.941   5.777  28.389  1.00  0.00     0.048 A 
ATOM      9  H2  UNL     1      12.427   4.471  29.872  1.00  0.00     0.184 HD
HETATM   10  C10 UNL     1      12.279   7.035  27.950  1.00  0.00     0.103 A 
HETATM   11  C11 UNL     1      11.685   7.547  26.835  1.00  0.00     0.297 A 
HETATM   12  C13 UNL     1      13.244   7.807  28.609  1.00  0.00     0.154 A 
HETATM   13  O1  UNL     1      10.847   6.893  26.243  1.00  0.00    -0.265 OA
HETATM   14  N4  UNL     1      12.003   8.762  26.365  1.00  0.00    -0.054 N 
HETATM   15  C12 UNL     1      12.939   9.509  27.011  1.00  0.00     0.701 A 
HETATM   16  N7  UNL     1      13.548   9.027  28.121  1.00  0.00    -0.173 N 
ATOM     17  H7  UNL     1      14.248   9.597  28.595  1.00  0.00     0.186 HD
HETATM   18  N8  UNL     1      13.872   7.339  29.694  1.00  0.00    -0.175 N 
ATOM     19  H8  UNL     1      14.575   7.902  30.174  1.00  0.00     0.186 HD
BRANCH   8  20
HETATM   20  C6  UNL     1      10.909   4.895  27.828  1.00  0.00     0.089 C 
BRANCH  20  21
HETATM   21  C7  UNL     1      11.322   3.502  27.502  1.00  0.00     0.277 C 
BRANCH  21  22
HETATM   22  N3  UNL     1      10.848   2.578  28.488  1.00  0.00     0.080 N 
HETATM   23  C8  UNL     1      11.803   1.915  29.288  1.00  0.00     0.309 C 
HETATM   24  C9  UNL     1       9.936   1.626  27.895  1.00  0.00     0.309 C 
ENDBRANCH  21  22
ENDBRANCH  20  21
ENDBRANCH   8  20
BRANCH  14  25
HETATM   25  N5  UNL     1      11.349   9.211  25.217  1.00  0.00    -0.321 N 
ATOM     26  H52 UNL     1      10.401   8.919  24.978  1.00  0.00     0.178 HD
ATOM     27  H51 UNL     1      11.848   9.855  24.604  1.00  0.00     0.178 HD
ENDBRANCH  14  25
BRANCH  15  28
HETATM   28  N6  UNL     1      13.240  10.671  26.553  1.00  0.00    -0.233 N 
ATOM     29  H62 UNL     1      13.152  11.500  27.141  1.00  0.00     0.174 HD
ATOM     30  H61 UNL     1      13.573  10.757  25.592  1.00  0.00     0.174 HD
ENDBRANCH  15  28
ENDBRANCH   4   6
ENDBRANCH   3   4
TORSDOF 7
ENDMDL
MODEL 5
REMARK VINA RESULT: -4.904590263      1.577      2.049
REMARK  7 active torsions:
REMARK  status: ('A' for Active; 'I' for Inactive)
REMARK    1  A    between atoms: C3_3  and  N1_4 
REMARK    2  A    between atoms: N1_4  and  C4_6 
REMARK    3  A    between atoms: C5_9  and  C6_10 
REMARK    4  A    between atoms: C6_10  and  C7_11 
REMARK    5  A    between atoms: C7_11  and  N3_12 
REMARK    6  A    between atoms: N4_18  and  N5_19 
REMARK    7  A    between atoms: C12_22  and  N6_23 
ROOT
HETATM    1  C1  UNL     1      14.823   5.906  31.203  1.00  0.00     0.014 C 
HETATM    2  C2  UNL     1      13.839   6.611  31.205  1.00  0.00    -0.097 C 
HETATM    3  C3  UNL     1      12.625   7.462  31.182  1.00  0.00     0.231 C 
ENDROOT
BRANCH   3   4
HETATM    4  N1  UNL     1      11.875   7.155  29.995  1.00  0.00    -0.216 N 
ATOM      5  H1  UNL     1      11.034   6.585  30.092  1.00  0.00     0.178 HD
BRANCH   4   6
HETATM    6  C4  UNL     1      12.202   7.559  28.816  1.00  0.00     0.680 A 
HETATM    7  N2  UNL     1      12.311   6.721  27.787  1.00  0.00    -0.194 N 
HETATM    8  C5  UNL     1      12.648   7.049  26.512  1.00  0.00     0.048 A 
ATOM      9  H2  UNL     1      12.122   5.736  27.974  1.00  0.00     0.184 HD
HETATM   10  C10 UNL     1      12.884   8.393  26.348  1.00  0.00     0.103 A 
HETATM   11  C11 UNL     1      13.255   8.874  25.128  1.00  0.00     0.297 A 
HETATM   12  C13 UNL     1      12.774   9.292  27.416  1.00  0.00     0.154 A 
HETATM   13  O1  UNL     1      13.362   8.110  24.185  1.00  0.00    -0.265 OA
HETATM   14  N4  UNL     1      13.512  10.175  24.934  1.00  0.00    -0.054 N 
HETATM   15  C12 UNL     1      13.401  11.044  25.974  1.00  0.00     0.701 A 
HETATM   16  N7  UNL     1      13.035  10.598  27.199  1.00  0.00    -0.173 N 
ATOM     17  H7  UNL     1      12.955  11.261  27.970  1.00  0.00     0.186 HD
HETATM   18  N8  UNL     1      12.434   8.867  28.638  1.00  0.00    -0.175 N 
ATOM     19  H8  UNL     1      12.354   9.522  29.416  1.00  0.00     0.186 HD
BRANCH   8  20
HETATM   20  C6  UNL     1      12.670   6.016  25.467  1.00  0.00     0.089 C 
BRANCH  20  21
HETATM   21  C7  UNL     1      12.699   4.600  25.925  1.00  0.00     0.277 C 
BRANCH  21  22
HETATM   22  N3  UNL     1      11.417   3.980  25.774  1.00  0.00     0.080 N 
HETATM   23  C8  UNL     1      10.724   3.597  26.942  1.00  0.00     0.309 C 
HETATM   24  C9  UNL     1      11.493   2.876  24.845  1.00  0.00     0.309 C 
ENDBRANCH  21  22
ENDBRANCH  20  21
ENDBRANCH   8  20
BRANCH  14  25
HETATM   25  N5  UNL     1      13.888  10.584  23.654  1.00  0.00    -0.321 N 
ATOM     26  H52 UNL     1      13.348  10.344  22.822  1.00  0.00     0.178 HD
ATOM     27  H51 UNL     1      14.736  11.143  23.560  1.00  0.00     0.178 HD
ENDBRANCH  14  25
BRANCH  15  28
HETATM   28  N6  UNL     1      13.651  12.290  25.780  1.00  0.00    -0.233 N 
ATOM     29  H62 UNL     1      14.608  12.640  25.828  1.00  0.00     0.174 HD
ATOM     30  H61 UNL     1      12.882  12.927  25.575  1.00  0.00     0.174 HD
ENDBRANCH  15  28
ENDBRANCH   4   6
ENDBRANCH   3   4
TORSDOF 7
ENDMDL
