MODEL 1
REMARK VINA RESULT: -6.110053191      0.000      0.000
REMARK  6 active torsions:
REMARK  status: ('A' for Active; 'I' for Inactive)
REMARK    1  A    between atoms: C1_2  and  C2_4 
REMARK    2  A    between atoms: C2_4  and  N2_5 
REMARK    3  A    between atoms: N2_5  and  C3_7 
REMARK    4  A    between atoms: C6_14  and  C7_15 
REMARK    5  A    between atoms: C7_15  and  N5_16 
REMARK    6  A    between atoms: N5_16  and  C8_18 
ROOT
HETATM    1  C3  UNL     1      11.663   8.081  26.525  1.00  0.00     0.115 A 
HETATM    2  N3  UNL     1      11.587   8.567  27.826  1.00  0.00    -0.338 N 
ATOM      3  H3  UNL     1      11.064   8.028  28.516  1.00  0.00     0.168 HD
HETATM    4  C4  UNL     1      12.161   9.694  28.211  1.00  0.00     0.182 A 
HETATM    5  N4  UNL     1      12.872  10.466  27.368  1.00  0.00    -0.351 N 
ATOM      6  H4  UNL     1      13.306  11.335  27.681  1.00  0.00     0.166 HD
HETATM    7  C5  UNL     1      12.989  10.040  26.080  1.00  0.00     0.055 A 
HETATM    8  C6  UNL     1      13.820  10.812  25.258  1.00  0.00    -0.012 A 
HETATM    9  C9  UNL     1      14.028  10.347  24.003  1.00  0.00     0.011 A 
HETATM   10  C10 UNL     1      13.455   9.179  23.547  1.00  0.00     0.002 A 
HETATM   11  C11 UNL     1      12.636   8.434  24.368  1.00  0.00     0.017 A 
HETATM   12  C12 UNL     1      12.402   8.876  25.657  1.00  0.00     0.035 A 
ENDROOT
BRANCH   8  13
HETATM   13  C7  UNL     1      14.237  12.109  25.835  1.00  0.00     0.179 C 
BRANCH  13  14
HETATM   14  N5  UNL     1      13.282  13.077  25.401  1.00  0.00    -0.219 N 
ATOM     15  H5  UNL     1      12.307  12.868  25.611  1.00  0.00     0.178 HD
BRANCH  14  16
HETATM   16  C8  UNL     1      13.498  14.171  24.784  1.00  0.00     0.709 A 
HETATM   17  N6  UNL     1      14.654  14.877  25.007  1.00  0.00    -0.115 N 
HETATM   18  N7  UNL     1      14.634  15.962  24.238  1.00  0.00    -0.213 N 
ATOM     19  H6  UNL     1      15.400  14.616  25.651  1.00  0.00     0.207 HD
HETATM   20  N8  UNL     1      13.516  15.963  23.540  1.00  0.00    -0.213 N 
ATOM     21  H7  UNL     1      15.363  16.674  24.195  1.00  0.00     0.210 HD
HETATM   22  N9  UNL     1      12.820  14.874  23.868  1.00  0.00    -0.115 N 
ATOM     23  H8  UNL     1      13.232  16.674  22.866  1.00  0.00     0.210 HD
ATOM     24  H9  UNL     1      11.912  14.616  23.481  1.00  0.00     0.207 HD
ENDBRANCH  14  16
ENDBRANCH  13  14
ENDBRANCH   8  13
BRANCH   1  25
HETATM   25  N2  UNL     1      11.103   7.041  26.289  1.00  0.00    -0.367 N 
ATOM     26  H2  UNL     1      10.284   7.342  25.761  1.00  0.00     0.161 HD
BRANCH  25  27
HETATM   27  C2  UNL     1      10.951   5.693  26.331  1.00  0.00     0.220 C 
BRANCH  27  28
HETATM   28  C1  UNL     1      10.144   5.281  27.569  1.00  0.00     0.248 C 
HETATM   29  N1  UNL     1       9.503   6.259  28.328  1.00  0.00    -0.061 NA
HETATM   30  O1  UNL     1      10.049   4.067  27.921  1.00  0.00    -0.275 OA
ENDBRANCH  27  28
ENDBRANCH  25  27
ENDBRANCH   1  25
TORSDOF 6
ENDMDL
MODEL 2
REMARK VINA RESULT: -6.066862882      1.788      2.415
REMARK  6 active torsions:
REMARK  status: ('A' for Active; 'I' for Inactive)
REMARK    1  A    between atoms: C1_2  and  C2_4 
REMARK    2  A    between atoms: C2_4  and  N2_5 
REMARK    3  A    between atoms: N2_5  and  C3_7 
REMARK    4  A    between atoms: C6_14  and  C7_15 
REMARK    5  A    between atoms: C7_15  and  N5_16 
REMARK    6  A    between atoms: N5_16  and  C8_18 
ROOT
HETATM    1  C3  UNL     1      12.161   7.815  26.782  1.00  0.00     0.115 A 
HETATM    2  N3  UNL     1      11.956   8.464  27.995  1.00  0.00    -0.338 N 
ATOM      3  H3  UNL     1      11.609   7.918  28.785  1.00  0.00     0.168 HD
HETATM    4  C4  UNL     1      12.189   9.753  28.173  1.00  0.00     0.182 A 
HETATM    5  N4  UNL     1      12.648  10.546  27.188  1.00  0.00    -0.351 N 
ATOM      6  H4  UNL     1      12.820  11.540  27.342  1.00  0.00     0.166 HD
HETATM    7  C5  UNL     1      12.876   9.967  25.976  1.00  0.00     0.055 A 
HETATM    8  C6  UNL     1      13.451  10.797  25.005  1.00  0.00    -0.012 A 
HETATM    9  C9  UNL     1      13.777  10.212  23.828  1.00  0.00     0.011 A 
HETATM   10  C10 UNL     1      13.557   8.874  23.586  1.00  0.00     0.002 A 
HETATM   11  C11 UNL     1      12.986   8.072  24.552  1.00  0.00     0.017 A 
HETATM   12  C12 UNL     1      12.642   8.633  25.767  1.00  0.00     0.035 A 
ENDROOT
BRANCH   8  13
HETATM   13  C7  UNL     1      13.486  12.234  25.355  1.00  0.00     0.179 C 
BRANCH  13  14
HETATM   14  N5  UNL     1      14.847  12.651  25.243  1.00  0.00    -0.219 N 
ATOM     15  H5  UNL     1      15.117  13.061  24.349  1.00  0.00     0.178 HD
BRANCH  14  16
HETATM   16  C8  UNL     1      15.767  12.573  26.121  1.00  0.00     0.709 A 
HETATM   17  N6  UNL     1      15.917  13.566  27.059  1.00  0.00    -0.115 N 
HETATM   18  N7  UNL     1      16.932  13.237  27.854  1.00  0.00    -0.213 N 
ATOM     19  H6  UNL     1      15.350  14.409  27.133  1.00  0.00     0.207 HD
HETATM   20  N8  UNL     1      17.421  12.079  27.456  1.00  0.00    -0.213 N 
ATOM     21  H7  UNL     1      17.274  13.789  28.640  1.00  0.00     0.210 HD
HETATM   22  N9  UNL     1      16.715  11.669  26.401  1.00  0.00    -0.115 N 
ATOM     23  H8  UNL     1      18.204  11.584  27.881  1.00  0.00     0.210 HD
ATOM     24  H9  UNL     1      16.872  10.802  25.888  1.00  0.00     0.207 HD
ENDBRANCH  14  16
ENDBRANCH  13  14
ENDBRANCH   8  13
BRANCH   1  25
HETATM   25  N2  UNL     1      11.918   6.636  26.737  1.00  0.00    -0.367 N 
ATOM     26  H2  UNL     1      11.574   6.515  25.784  1.00  0.00     0.161 HD
BRANCH  25  27
HETATM   27  C2  UNL     1      11.845   5.378  27.242  1.00  0.00     0.220 C 
BRANCH  27  28
HETATM   28  C1  UNL     1      10.433   5.090  27.767  1.00  0.00     0.248 C 
HETATM   29  N1  UNL     1       9.621   6.148  28.172  1.00  0.00    -0.061 NA
HETATM   30  O1  UNL     1       9.986   3.906  27.844  1.00  0.00    -0.275 OA
ENDBRANCH  27  28
ENDBRANCH  25  27
ENDBRANCH   1  25
TORSDOF 6
ENDMDL
MODEL 3
REMARK VINA RESULT: -5.944768974      5.208      7.543
REMARK  6 active torsions:
REMARK  status: ('A' for Active; 'I' for Inactive)
REMARK    1  A    between atoms: C1_2  and  C2_4 
REMARK    2  A    between atoms: C2_4  and  N2_5 
REMARK    3  A    between atoms: N2_5  and  C3_7 
REMARK    4  A    between atoms: C6_14  and  C7_15 
REMARK    5  A    between atoms: C7_15  and  N5_16 
REMARK    6  A    between atoms: N5_16  and  C8_18 
ROOT
HETATM    1  C3  UNL     1      15.759   5.475  30.939  1.00  0.00     0.115 A 
HETATM    2  N3  UNL     1      16.544   5.239  29.815  1.00  0.00    -0.338 N 
ATOM      3  H3  UNL     1      17.339   4.607  29.902  1.00  0.00     0.168 HD
HETATM    4  C4  UNL     1      16.307   5.797  28.639  1.00  0.00     0.182 A 
HETATM    5  N4  UNL     1      15.279   6.641  28.434  1.00  0.00    -0.351 N 
ATOM      6  H4  UNL     1      15.113   7.065  27.521  1.00  0.00     0.166 HD
HETATM    7  C5  UNL     1      14.469   6.907  29.497  1.00  0.00     0.055 A 
HETATM    8  C6  UNL     1      13.351   7.705  29.223  1.00  0.00    -0.012 A 
HETATM    9  C9  UNL     1      12.481   7.895  30.243  1.00  0.00     0.011 A 
HETATM   10  C10 UNL     1      12.676   7.340  31.489  1.00  0.00     0.002 A 
HETATM   11  C11 UNL     1      13.784   6.560  31.742  1.00  0.00     0.017 A 
HETATM   12  C12 UNL     1      14.694   6.341  30.725  1.00  0.00     0.035 A 
ENDROOT
BRANCH   8  13
HETATM   13  C7  UNL     1      13.357   8.350  27.891  1.00  0.00     0.179 C 
BRANCH  13  14
HETATM   14  N5  UNL     1      12.062   8.922  27.707  1.00  0.00    -0.219 N 
ATOM     15  H5  UNL     1      11.962   9.899  27.979  1.00  0.00     0.178 HD
BRANCH  14  16
HETATM   16  C8  UNL     1      11.015   8.362  27.243  1.00  0.00     0.709 A 
HETATM   17  N6  UNL     1       9.858   8.334  27.982  1.00  0.00    -0.115 N 
HETATM   18  N7  UNL     1       8.925   7.706  27.270  1.00  0.00    -0.213 N 
ATOM     19  H6  UNL     1       9.735   8.725  28.915  1.00  0.00     0.207 HD
HETATM   20  N8  UNL     1       9.449   7.344  26.116  1.00  0.00    -0.213 N 
ATOM     21  H7  UNL     1       7.965   7.535  27.569  1.00  0.00     0.210 HD
HETATM   22  N9  UNL     1      10.722   7.742  26.093  1.00  0.00    -0.115 N 
ATOM     23  H8  UNL     1       8.964   6.845  25.370  1.00  0.00     0.210 HD
ATOM     24  H9  UNL     1      11.370   7.596  25.320  1.00  0.00     0.207 HD
ENDBRANCH  14  16
ENDBRANCH  13  14
ENDBRANCH   8  13
BRANCH   1  25
HETATM   25  N2  UNL     1      16.066   4.909  31.957  1.00  0.00    -0.367 N 
ATOM     26  H2  UNL     1      15.292   4.259  32.094  1.00  0.00     0.161 HD
BRANCH  25  27
HETATM   27  C2  UNL     1      16.865   4.651  33.024  1.00  0.00     0.220 C 
BRANCH  27  28
HETATM   28  C1  UNL     1      17.095   5.925  33.845  1.00  0.00     0.248 C 
HETATM   29  N1  UNL     1      17.966   6.904  33.367  1.00  0.00    -0.061 NA
HETATM   30  O1  UNL     1      16.511   6.109  34.955  1.00  0.00    -0.275 OA
ENDBRANCH  27  28
ENDBRANCH  25  27
ENDBRANCH   1  25
TORSDOF 6
ENDMDL
MODEL 4
REMARK VINA RESULT: -5.917537930      5.607      8.555
REMARK  6 active torsions:
REMARK  status: ('A' for Active; 'I' for Inactive)
REMARK    1  A    between atoms: C1_2  and  C2_4 
REMARK    2  A    between atoms: C2_4  and  N2_5 
REMARK    3  A    between atoms: N2_5  and  C3_7 
REMARK    4  A    between atoms: C6_14  and  C7_15 
REMARK    5  A    between atoms: C7_15  and  N5_16 
REMARK    6  A    between atoms: N5_16  and  C8_18 
ROOT
HETATM    1  C3  UNL     1      13.939   8.415  27.885  1.00  0.00     0.115 A 
HETATM    2  N3  UNL     1      15.111   8.063  27.225  1.00  0.00    -0.338 N 
ATOM      3  H3  UNL     1      15.324   8.518  26.337  1.00  0.00     0.168 HD
HETATM    4  C4  UNL     1      15.962   7.166  27.693  1.00  0.00     0.182 A 
HETATM    5  N4  UNL     1      15.762   6.519  28.856  1.00  0.00    -0.351 N 
ATOM      6  H4  UNL     1      16.429   5.827  29.201  1.00  0.00     0.166 HD
HETATM    7  C5  UNL     1      14.634   6.825  29.554  1.00  0.00     0.055 A 
HETATM    8  C6  UNL     1      14.509   6.212  30.808  1.00  0.00    -0.012 A 
HETATM    9  C9  UNL     1      13.445   6.583  31.558  1.00  0.00     0.011 A 
HETATM   10  C10 UNL     1      12.525   7.511  31.121  1.00  0.00     0.002 A 
HETATM   11  C11 UNL     1      12.661   8.103  29.883  1.00  0.00     0.017 A 
HETATM   12  C12 UNL     1      13.736   7.751  29.089  1.00  0.00     0.035 A 
ENDROOT
BRANCH   8  13
HETATM   13  C7  UNL     1      15.485   5.132  31.072  1.00  0.00     0.179 C 
BRANCH  13  14
HETATM   14  N5  UNL     1      15.875   5.257  32.440  1.00  0.00    -0.219 N 
ATOM     15  H5  UNL     1      15.332   4.716  33.111  1.00  0.00     0.178 HD
BRANCH  14  16
HETATM   16  C8  UNL     1      16.819   5.963  32.925  1.00  0.00     0.709 A 
HETATM   17  N6  UNL     1      16.860   6.236  34.270  1.00  0.00    -0.115 N 
HETATM   18  N7  UNL     1      17.941   6.973  34.512  1.00  0.00    -0.213 N 
ATOM     19  H6  UNL     1      16.180   5.928  34.964  1.00  0.00     0.207 HD
HETATM   20  N8  UNL     1      18.580   7.170  33.376  1.00  0.00    -0.213 N 
ATOM     21  H7  UNL     1      18.227   7.327  35.425  1.00  0.00     0.210 HD
HETATM   22  N9  UNL     1      17.902   6.556  32.405  1.00  0.00    -0.115 N 
ATOM     23  H8  UNL     1      19.443   7.700  33.260  1.00  0.00     0.210 HD
ATOM     24  H9  UNL     1      18.167   6.540  31.421  1.00  0.00     0.207 HD
ENDBRANCH  14  16
ENDBRANCH  13  14
ENDBRANCH   8  13
BRANCH   1  25
HETATM   25  N2  UNL     1      13.240   9.247  27.366  1.00  0.00    -0.367 N 
ATOM     26  H2  UNL     1      12.850   9.743  28.168  1.00  0.00     0.161 HD
BRANCH  25  27
HETATM   27  C2  UNL     1      12.680   9.895  26.313  1.00  0.00     0.220 C 
BRANCH  27  28
HETATM   28  C1  UNL     1      13.525  11.113  25.919  1.00  0.00     0.248 C 
HETATM   29  N1  UNL     1      14.915  11.035  25.986  1.00  0.00    -0.061 NA
HETATM   30  O1  UNL     1      12.987  12.194  25.534  1.00  0.00    -0.275 OA
ENDBRANCH  27  28
ENDBRANCH  25  27
ENDBRANCH   1  25
TORSDOF 6
ENDMDL
MODEL 5
REMARK VINA RESULT: -5.867260324      4.363      8.509
REMARK  6 active torsions:
REMARK  status: ('A' for Active; 'I' for Inactive)
REMARK    1  A    between atoms: C1_2  and  C2_4 
REMARK    2  A    between atoms: C2_4  and  N2_5 
REMARK    3  A    between atoms: N2_5  and  C3_7 
REMARK    4  A    between atoms: C6_14  and  C7_15 
REMARK    5  A    between atoms: C7_15  and  N5_16 
REMARK    6  A    between atoms: N5_16  and  C8_18 
ROOT
HETATM    1  C3  UNL     1      13.867   8.462  27.767  1.00  0.00     0.115 A 
HETATM    2  N3  UNL     1      14.994   8.086  27.043  1.00  0.00    -0.338 N 
ATOM      3  H3  UNL     1      15.177   8.550  26.153  1.00  0.00     0.168 HD
HETATM    4  C4  UNL     1      15.839   7.156  27.454  1.00  0.00     0.182 A 
HETATM    5  N4  UNL     1      15.677   6.495  28.616  1.00  0.00    -0.351 N 
ATOM      6  H4  UNL     1      16.337   5.778  28.916  1.00  0.00     0.166 HD
HETATM    7  C5  UNL     1      14.594   6.824  29.373  1.00  0.00     0.055 A 
HETATM    8  C6  UNL     1      14.512   6.193  30.622  1.00  0.00    -0.012 A 
HETATM    9  C9  UNL     1      13.498   6.582  31.430  1.00  0.00     0.011 A 
HETATM   10  C10 UNL     1      12.587   7.545  31.054  1.00  0.00     0.002 A 
HETATM   11  C11 UNL     1      12.680   8.154  29.820  1.00  0.00     0.017 A 
HETATM   12  C12 UNL     1      13.704   7.784  28.969  1.00  0.00     0.035 A 
ENDROOT
BRANCH   8  13
HETATM   13  C7  UNL     1      15.466   5.079  30.820  1.00  0.00     0.179 C 
BRANCH  13  14
HETATM   14  N5  UNL     1      14.696   3.877  30.834  1.00  0.00    -0.219 N 
ATOM     15  H5  UNL     1      14.894   3.228  31.595  1.00  0.00     0.178 HD
BRANCH  14  16
HETATM   16  C8  UNL     1      13.792   3.514  30.012  1.00  0.00     0.709 A 
HETATM   17  N6  UNL     1      12.526   3.222  30.458  1.00  0.00    -0.115 N 
HETATM   18  N7  UNL     1      11.783   2.885  29.407  1.00  0.00    -0.213 N 
ATOM     19  H6  UNL     1      12.211   3.256  31.426  1.00  0.00     0.207 HD
HETATM   20  N8  UNL     1      12.529   2.958  28.323  1.00  0.00    -0.213 N 
ATOM     21  H7  UNL     1      10.800   2.615  29.436  1.00  0.00     0.210 HD
HETATM   22  N9  UNL     1      13.754   3.342  28.685  1.00  0.00    -0.115 N 
ATOM     23  H8  UNL     1      12.222   2.755  27.372  1.00  0.00     0.210 HD
ATOM     24  H9  UNL     1      14.539   3.482  28.049  1.00  0.00     0.207 HD
ENDBRANCH  14  16
ENDBRANCH  13  14
ENDBRANCH   8  13
BRANCH   1  25
HETATM   25  N2  UNL     1      13.169   9.323  27.296  1.00  0.00    -0.367 N 
ATOM     26  H2  UNL     1      12.783   9.776  28.125  1.00  0.00     0.161 HD
BRANCH  25  27
HETATM   27  C2  UNL     1      12.609  10.031  26.282  1.00  0.00     0.220 C 
BRANCH  27  28
HETATM   28  C1  UNL     1      13.497  11.222  25.902  1.00  0.00     0.248 C 
HETATM   29  N1  UNL     1      14.884  11.093  25.965  1.00  0.00    -0.061 NA
HETATM   30  O1  UNL     1      12.997  12.327  25.532  1.00  0.00    -0.275 OA
ENDBRANCH  27  28
ENDBRANCH  25  27
ENDBRANCH   1  25
TORSDOF 6
ENDMDL
