MODEL 1
REMARK VINA RESULT: -6.062873862      0.000      0.000
REMARK  6 active torsions:
REMARK  status: ('A' for Active; 'I' for Inactive)
REMARK    1  A    between atoms: C3_5  and  N2_6 
REMARK    2  A    between atoms: N2_6  and  N3_8 
REMARK    3  A    between atoms: C4_13  and  C5_14 
REMARK    4  A    between atoms: C5_14  and  C6_15 
REMARK       I    between atoms: C6_15  and  N5_17 
REMARK    5  A    between atoms: N5_17  and  C7_19 
REMARK    6  A    between atoms: C7_19  and  N6_20 
ROOT
HETATM    1  N1  UNL     1      13.374   6.926  30.500  1.00  0.00    -0.191 NA
HETATM    2  C1  UNL     1      12.572   7.094  29.685  1.00  0.00     0.109 C 
HETATM    3  C2  UNL     1      11.552   7.281  28.656  1.00  0.00     0.111 A 
HETATM    4  S1  UNL     1      10.343   6.214  28.103  1.00  0.00    -0.040 SA
HETATM    5  C3  UNL     1       9.632   7.223  26.933  1.00  0.00     0.164 A 
HETATM    6  N4  UNL     1      10.352   8.343  27.011  1.00  0.00    -0.337 N 
ATOM      7  H4  UNL     1      10.148   9.142  26.411  1.00  0.00     0.168 HD
HETATM    8  C4  UNL     1      11.332   8.386  27.884  1.00  0.00     0.048 A 
ENDROOT
BRANCH   8   9
HETATM    9  C5  UNL     1      12.201   9.624  28.037  1.00  0.00     0.162 C 
BRANCH   9  10
HETATM   10  C6  UNL     1      12.917   9.925  26.798  1.00  0.00     0.224 C 
HETATM   11  O1  UNL     1      13.110   8.975  25.977  1.00  0.00    -0.273 OA
HETATM   12  N5  UNL     1      13.372  11.242  26.546  1.00  0.00    -0.335 N 
ATOM     13  H5  UNL     1      13.191  11.966  27.240  1.00  0.00     0.164 HD
BRANCH  12  14
HETATM   14  C7  UNL     1      14.077  11.591  25.348  1.00  0.00     0.399 C 
BRANCH  14  15
HETATM   15  N6  UNL     1      13.332  12.583  24.558  1.00  0.00     0.122 N 
HETATM   16  C8  UNL     1      14.122  13.014  23.418  1.00  0.00     0.277 C 
HETATM   17  C9  UNL     1      13.548  14.273  22.866  1.00  0.00     0.032 C 
HETATM   18  C10 UNL     1      13.984  15.529  23.528  1.00  0.00     0.021 C 
HETATM   19  C11 UNL     1      14.829  15.377  24.738  1.00  0.00     0.115 C 
HETATM   20  N7  UNL     1      14.495  14.303  25.605  1.00  0.00    -0.398 N 
HETATM   21  C12 UNL     1      13.188  13.747  25.417  1.00  0.00     0.392 C 
ATOM     22  H7  UNL     1      15.141  13.951  26.311  1.00  0.00     0.154 HD
ENDBRANCH  14  15
ENDBRANCH  12  14
ENDBRANCH   9  10
ENDBRANCH   8   9
BRANCH   5  23
HETATM   23  N2  UNL     1       8.620   6.984  26.135  1.00  0.00    -0.286 N 
ATOM     24  H2  UNL     1       8.696   6.244  25.436  1.00  0.00     0.188 HD
BRANCH  23  25
HETATM   25  N3  UNL     1       7.444   7.723  26.226  1.00  0.00    -0.343 N 
ATOM     26  H32 UNL     1       6.831   7.564  27.025  1.00  0.00     0.176 HD
ATOM     27  H31 UNL     1       7.198   8.408  25.512  1.00  0.00     0.176 HD
ENDBRANCH  23  25
ENDBRANCH   5  23
TORSDOF 6
ENDMDL
MODEL 2
REMARK VINA RESULT: -5.776721824      0.769      1.243
REMARK  6 active torsions:
REMARK  status: ('A' for Active; 'I' for Inactive)
REMARK    1  A    between atoms: C3_5  and  N2_6 
REMARK    2  A    between atoms: N2_6  and  N3_8 
REMARK    3  A    between atoms: C4_13  and  C5_14 
REMARK    4  A    between atoms: C5_14  and  C6_15 
REMARK       I    between atoms: C6_15  and  N5_17 
REMARK    5  A    between atoms: N5_17  and  C7_19 
REMARK    6  A    between atoms: C7_19  and  N6_20 
ROOT
HETATM    1  N1  UNL     1      13.497   7.006  30.413  1.00  0.00    -0.191 NA
HETATM    2  C1  UNL     1      12.675   7.159  29.615  1.00  0.00     0.109 C 
HETATM    3  C2  UNL     1      11.630   7.328  28.609  1.00  0.00     0.111 A 
HETATM    4  S1  UNL     1      10.447   6.230  28.062  1.00  0.00    -0.040 SA
HETATM    5  C3  UNL     1       9.680   7.232  26.921  1.00  0.00     0.164 A 
HETATM    6  N4  UNL     1      10.364   8.374  27.003  1.00  0.00    -0.337 N 
ATOM      7  H4  UNL     1      10.122   9.175  26.420  1.00  0.00     0.168 HD
HETATM    8  C4  UNL     1      11.358   8.437  27.859  1.00  0.00     0.048 A 
ENDROOT
BRANCH   8   9
HETATM    9  C5  UNL     1      12.188   9.701  28.016  1.00  0.00     0.162 C 
BRANCH   9  10
HETATM   10  C6  UNL     1      12.879  10.039  26.773  1.00  0.00     0.224 C 
HETATM   11  O1  UNL     1      12.875   9.179  25.837  1.00  0.00    -0.273 OA
HETATM   12  N5  UNL     1      13.526  11.290  26.640  1.00  0.00    -0.335 N 
ATOM     13  H5  UNL     1      13.500  11.943  27.423  1.00  0.00     0.164 HD
BRANCH  12  14
HETATM   14  C7  UNL     1      14.216  11.672  25.444  1.00  0.00     0.399 C 
BRANCH  14  15
HETATM   15  N6  UNL     1      14.192  13.130  25.252  1.00  0.00     0.122 N 
HETATM   16  C8  UNL     1      12.932  13.538  24.657  1.00  0.00     0.277 C 
HETATM   17  C9  UNL     1      13.066  14.918  24.112  1.00  0.00     0.032 C 
HETATM   18  C10 UNL     1      13.641  15.023  22.747  1.00  0.00     0.021 C 
HETATM   19  C11 UNL     1      14.135  13.762  22.141  1.00  0.00     0.115 C 
HETATM   20  N7  UNL     1      14.787  12.858  23.022  1.00  0.00    -0.398 N 
HETATM   21  C12 UNL     1      15.221  13.419  24.267  1.00  0.00     0.392 C 
ATOM     22  H7  UNL     1      14.937  11.877  22.784  1.00  0.00     0.154 HD
ENDBRANCH  14  15
ENDBRANCH  12  14
ENDBRANCH   9  10
ENDBRANCH   8   9
BRANCH   5  23
HETATM   23  N2  UNL     1       8.662   6.971  26.138  1.00  0.00    -0.286 N 
ATOM     24  H2  UNL     1       8.738   6.224  25.448  1.00  0.00     0.188 HD
BRANCH  23  25
HETATM   25  N3  UNL     1       7.479   7.698  26.233  1.00  0.00    -0.343 N 
ATOM     26  H32 UNL     1       6.703   7.298  26.760  1.00  0.00     0.176 HD
ATOM     27  H31 UNL     1       7.386   8.610  25.787  1.00  0.00     0.176 HD
ENDBRANCH  23  25
ENDBRANCH   5  23
TORSDOF 6
ENDMDL
MODEL 3
REMARK VINA RESULT: -5.612957914      1.296      1.355
REMARK  6 active torsions:
REMARK  status: ('A' for Active; 'I' for Inactive)
REMARK    1  A    between atoms: C3_5  and  N2_6 
REMARK    2  A    between atoms: N2_6  and  N3_8 
REMARK    3  A    between atoms: C4_13  and  C5_14 
REMARK    4  A    between atoms: C5_14  and  C6_15 
REMARK       I    between atoms: C6_15  and  N5_17 
REMARK    5  A    between atoms: N5_17  and  C7_19 
REMARK    6  A    between atoms: C7_19  and  N6_20 
ROOT
HETATM    1  N1  UNL     1      14.185   5.575  27.821  1.00  0.00    -0.191 NA
HETATM    2  C1  UNL     1      13.156   6.047  27.591  1.00  0.00     0.109 C 
HETATM    3  C2  UNL     1      11.844   6.626  27.314  1.00  0.00     0.111 A 
HETATM    4  S1  UNL     1      10.319   6.256  27.979  1.00  0.00    -0.040 SA
HETATM    5  C3  UNL     1       9.384   7.381  27.110  1.00  0.00     0.164 A 
HETATM    6  N4  UNL     1      10.281   7.999  26.339  1.00  0.00    -0.337 N 
ATOM      7  H4  UNL     1      10.000   8.739  25.697  1.00  0.00     0.168 HD
HETATM    8  C4  UNL     1      11.536   7.625  26.434  1.00  0.00     0.048 A 
ENDROOT
BRANCH   8   9
HETATM    9  C5  UNL     1      12.621   8.278  25.592  1.00  0.00     0.162 C 
BRANCH   9  10
HETATM   10  C6  UNL     1      12.795   9.684  25.949  1.00  0.00     0.224 C 
HETATM   11  O1  UNL     1      12.161  10.125  26.958  1.00  0.00    -0.273 OA
HETATM   12  N5  UNL     1      13.649  10.509  25.178  1.00  0.00    -0.335 N 
ATOM     13  H5  UNL     1      14.133  10.105  24.378  1.00  0.00     0.164 HD
BRANCH  12  14
HETATM   14  C7  UNL     1      13.855  11.894  25.485  1.00  0.00     0.399 C 
BRANCH  14  15
HETATM   15  N6  UNL     1      13.219  12.765  24.485  1.00  0.00     0.122 N 
HETATM   16  C8  UNL     1      14.116  12.984  23.365  1.00  0.00     0.277 C 
HETATM   17  C9  UNL     1      13.641  14.151  22.571  1.00  0.00     0.032 C 
HETATM   18  C10 UNL     1      14.073  15.486  23.059  1.00  0.00     0.021 C 
HETATM   19  C11 UNL     1      14.809  15.510  24.347  1.00  0.00     0.115 C 
HETATM   20  N7  UNL     1      14.361  14.600  25.342  1.00  0.00    -0.398 N 
HETATM   21  C12 UNL     1      13.052  14.056  25.132  1.00  0.00     0.392 C 
ATOM     22  H7  UNL     1      14.933  14.350  26.149  1.00  0.00     0.154 HD
ENDBRANCH  14  15
ENDBRANCH  12  14
ENDBRANCH   9  10
ENDBRANCH   8   9
BRANCH   5  23
HETATM   23  N2  UNL     1       8.094   7.607  27.164  1.00  0.00    -0.286 N 
ATOM     24  H2  UNL     1       7.654   7.786  28.067  1.00  0.00     0.188 HD
BRANCH  23  25
HETATM   25  N3  UNL     1       7.317   7.605  26.010  1.00  0.00    -0.343 N 
ATOM     26  H32 UNL     1       6.892   6.728  25.711  1.00  0.00     0.176 HD
ATOM     27  H31 UNL     1       7.172   8.460  25.473  1.00  0.00     0.176 HD
ENDBRANCH  23  25
ENDBRANCH   5  23
TORSDOF 6
ENDMDL
MODEL 4
REMARK VINA RESULT: -5.498017812      2.872      7.632
REMARK  6 active torsions:
REMARK  status: ('A' for Active; 'I' for Inactive)
REMARK    1  A    between atoms: C3_5  and  N2_6 
REMARK    2  A    between atoms: N2_6  and  N3_8 
REMARK    3  A    between atoms: C4_13  and  C5_14 
REMARK    4  A    between atoms: C5_14  and  C6_15 
REMARK       I    between atoms: C6_15  and  N5_17 
REMARK    5  A    between atoms: N5_17  and  C7_19 
REMARK    6  A    between atoms: C7_19  and  N6_20 
ROOT
HETATM    1  N1  UNL     1      14.534   8.516  22.060  1.00  0.00    -0.191 NA
HETATM    2  C1  UNL     1      14.398   9.355  22.844  1.00  0.00     0.109 C 
HETATM    3  C2  UNL     1      14.249  10.423  23.829  1.00  0.00     0.111 A 
HETATM    4  S1  UNL     1      15.255  11.758  24.161  1.00  0.00    -0.040 SA
HETATM    5  C3  UNL     1      14.344  12.455  25.417  1.00  0.00     0.164 A 
HETATM    6  N4  UNL     1      13.300  11.634  25.535  1.00  0.00    -0.337 N 
ATOM      7  H4  UNL     1      12.571  11.806  26.227  1.00  0.00     0.168 HD
HETATM    8  C4  UNL     1      13.239  10.596  24.733  1.00  0.00     0.048 A 
ENDROOT
BRANCH   8   9
HETATM    9  C5  UNL     1      12.083   9.610  24.802  1.00  0.00     0.162 C 
BRANCH   9  10
HETATM   10  C6  UNL     1      11.922   9.075  26.153  1.00  0.00     0.224 C 
HETATM   11  O1  UNL     1      11.721   9.899  27.099  1.00  0.00    -0.273 OA
HETATM   12  N5  UNL     1      11.994   7.679  26.374  1.00  0.00    -0.335 N 
ATOM     13  H5  UNL     1      12.158   7.063  25.579  1.00  0.00     0.164 HD
BRANCH  12  14
HETATM   14  C7  UNL     1      11.842   7.103  27.677  1.00  0.00     0.399 C 
BRANCH  14  15
HETATM   15  N6  UNL     1      13.145   6.742  28.258  1.00  0.00     0.122 N 
HETATM   16  C8  UNL     1      13.018   5.548  29.074  1.00  0.00     0.277 C 
HETATM   17  C9  UNL     1      14.213   5.422  29.955  1.00  0.00     0.032 C 
HETATM   18  C10 UNL     1      14.164   6.186  31.227  1.00  0.00     0.021 C 
HETATM   19  C11 UNL     1      13.000   7.086  31.411  1.00  0.00     0.115 C 
HETATM   20  N7  UNL     1      12.554   7.778  30.253  1.00  0.00    -0.398 N 
HETATM   21  C12 UNL     1      13.487   7.823  29.167  1.00  0.00     0.392 C 
ATOM     22  H7  UNL     1      11.633   8.213  30.199  1.00  0.00     0.154 HD
ENDBRANCH  14  15
ENDBRANCH  12  14
ENDBRANCH   9  10
ENDBRANCH   8   9
BRANCH   5  23
HETATM   23  N2  UNL     1      14.586  13.537  26.116  1.00  0.00    -0.286 N 
ATOM     24  H2  UNL     1      13.952  14.332  26.046  1.00  0.00     0.188 HD
BRANCH  23  25
HETATM   25  N3  UNL     1      15.697  13.617  26.951  1.00  0.00    -0.343 N 
ATOM     26  H32 UNL     1      16.274  12.786  27.074  1.00  0.00     0.176 HD
ATOM     27  H31 UNL     1      15.931  14.486  27.432  1.00  0.00     0.176 HD
ENDBRANCH  23  25
ENDBRANCH   5  23
TORSDOF 6
ENDMDL
MODEL 5
REMARK VINA RESULT: -5.466132498      1.658      2.056
REMARK  6 active torsions:
REMARK  status: ('A' for Active; 'I' for Inactive)
REMARK    1  A    between atoms: C3_5  and  N2_6 
REMARK    2  A    between atoms: N2_6  and  N3_8 
REMARK    3  A    between atoms: C4_13  and  C5_14 
REMARK    4  A    between atoms: C5_14  and  C6_15 
REMARK       I    between atoms: C6_15  and  N5_17 
REMARK    5  A    between atoms: N5_17  and  C7_19 
REMARK    6  A    between atoms: C7_19  and  N6_20 
ROOT
HETATM    1  N1  UNL     1      14.208   5.523  28.122  1.00  0.00    -0.191 NA
HETATM    2  C1  UNL     1      13.194   6.061  27.989  1.00  0.00     0.109 C 
HETATM    3  C2  UNL     1      11.901   6.719  27.818  1.00  0.00     0.111 A 
HETATM    4  S1  UNL     1      10.332   6.056  27.759  1.00  0.00    -0.040 SA
HETATM    5  C3  UNL     1       9.456   7.498  27.543  1.00  0.00     0.164 A 
HETATM    6  N4  UNL     1      10.404   8.436  27.524  1.00  0.00    -0.337 N 
ATOM      7  H4  UNL     1      10.167   9.420  27.404  1.00  0.00     0.168 HD
HETATM    8  C4  UNL     1      11.652   8.053  27.664  1.00  0.00     0.048 A 
ENDROOT
BRANCH   8   9
HETATM    9  C5  UNL     1      12.793   9.059  27.652  1.00  0.00     0.162 C 
BRANCH   9  10
HETATM   10  C6  UNL     1      12.724   9.926  26.478  1.00  0.00     0.224 C 
HETATM   11  O1  UNL     1      11.998   9.552  25.504  1.00  0.00    -0.273 OA
HETATM   12  N5  UNL     1      13.452  11.139  26.451  1.00  0.00    -0.335 N 
ATOM     13  H5  UNL     1      14.020  11.391  27.260  1.00  0.00     0.164 HD
BRANCH  12  14
HETATM   14  C7  UNL     1      13.418  12.026  25.326  1.00  0.00     0.399 C 
BRANCH  14  15
HETATM   15  N6  UNL     1      14.771  12.288  24.809  1.00  0.00     0.122 N 
HETATM   16  C8  UNL     1      15.768  11.720  25.699  1.00  0.00     0.277 C 
HETATM   17  C9  UNL     1      17.099  12.315  25.394  1.00  0.00     0.032 C 
HETATM   18  C10 UNL     1      17.391  13.617  26.046  1.00  0.00     0.021 C 
HETATM   19  C11 UNL     1      16.281  14.234  26.812  1.00  0.00     0.115 C 
HETATM   20  N7  UNL     1      14.982  14.098  26.252  1.00  0.00    -0.398 N 
HETATM   21  C12 UNL     1      14.946  13.729  24.868  1.00  0.00     0.392 C 
ATOM     22  H7  UNL     1      14.135  14.252  26.799  1.00  0.00     0.154 HD
ENDBRANCH  14  15
ENDBRANCH  12  14
ENDBRANCH   9  10
ENDBRANCH   8   9
BRANCH   5  23
HETATM   23  N2  UNL     1       8.162   7.673  27.423  1.00  0.00    -0.286 N 
ATOM     24  H2  UNL     1       7.599   7.839  28.256  1.00  0.00     0.188 HD
BRANCH  23  25
HETATM   25  N3  UNL     1       7.547   7.635  26.175  1.00  0.00    -0.343 N 
ATOM     26  H32 UNL     1       7.894   8.254  25.443  1.00  0.00     0.176 HD
ATOM     27  H31 UNL     1       6.767   7.004  25.993  1.00  0.00     0.176 HD
ENDBRANCH  23  25
ENDBRANCH   5  23
TORSDOF 6
ENDMDL
