MODEL 1
REMARK VINA RESULT: -7.204910078      0.000      0.000
REMARK  7 active torsions:
REMARK  status: ('A' for Active; 'I' for Inactive)
REMARK    1  A    between atoms: N1_1  and  C1_4 
REMARK    2  A    between atoms: N5_15  and  C5_17 
REMARK    3  A    between atoms: C5_17  and  C6_18 
REMARK    4  A    between atoms: C6_18  and  N6_19 
REMARK    5  A    between atoms: C7_25  and  O2_26 
REMARK    6  A    between atoms: O2_26  and  C8_27 
REMARK    7  A    between atoms: C8_27  and  C9_28 
ROOT
HETATM    1  C1  UNL     1      27.996  20.089  64.351  1.00  0.00     0.114 A 
HETATM    2  C2  UNL     1      29.129  20.780  63.961  1.00  0.00     0.287 A 
HETATM    3  O1  UNL     1      29.573  21.650  64.754  1.00  0.00    -0.264 OA
HETATM    4  N2  UNL     1      29.709  20.504  62.774  1.00  0.00    -0.263 N 
ATOM      5  H2  UNL     1      30.545  21.019  62.496  1.00  0.00     0.190 HD
HETATM    6  N3  UNL     1      29.217  19.575  61.954  1.00  0.00    -0.281 N 
ATOM      7  H3  UNL     1      29.682  19.396  61.065  1.00  0.00     0.188 HD
HETATM    8  C3  UNL     1      28.108  18.866  62.280  1.00  0.00     0.152 A 
HETATM    9  N4  UNL     1      27.652  17.940  61.417  1.00  0.00    -0.174 N 
ATOM     10  H4  UNL     1      28.126  17.768  60.531  1.00  0.00     0.186 HD
HETATM   11  C4  UNL     1      26.554  17.250  61.760  1.00  0.00     0.681 A 
HETATM   12  N5  UNL     1      26.040  16.353  61.017  1.00  0.00    -0.224 N 
ATOM     13  H5  UNL     1      25.204  15.871  61.347  1.00  0.00     0.177 HD
HETATM   14  N7  UNL     1      25.926  17.490  62.955  1.00  0.00    -0.170 N 
ATOM     15  H7  UNL     1      25.093  16.950  63.188  1.00  0.00     0.186 HD
HETATM   16  C7  UNL     1      26.361  18.401  63.820  1.00  0.00     0.174 A 
HETATM   17  C10 UNL     1      27.486  19.117  63.484  1.00  0.00     0.093 A 
ENDROOT
BRANCH  12  18
HETATM   18  C5  UNL     1      26.572  15.990  59.754  1.00  0.00     0.165 C 
BRANCH  18  19
HETATM   19  C6  UNL     1      26.849  14.489  59.694  1.00  0.00     0.249 C 
BRANCH  19  20
HETATM   20  N6  UNL     1      25.660  13.815  60.186  1.00  0.00    -0.078 N 
ATOM     21  H63 UNL     1      25.148  13.323  59.455  1.00  0.00     0.274 HD
ATOM     22  H62 UNL     1      25.871  13.004  60.767  1.00  0.00     0.274 HD
ATOM     23  H61 UNL     1      25.095  14.515  60.668  1.00  0.00     0.274 HD
ENDBRANCH  19  20
ENDBRANCH  18  19
ENDBRANCH  12  18
BRANCH  16  24
HETATM   24  O2  UNL     1      25.751  18.668  65.036  1.00  0.00    -0.326 OA
BRANCH  24  25
HETATM   25  C8  UNL     1      24.357  18.451  65.134  1.00  0.00     0.276 C 
BRANCH  25  26
HETATM   26  C9  UNL     1      23.662  19.745  64.918  1.00  0.00     0.255 C 
HETATM   27  N8  UNL     1      24.478  20.865  64.655  1.00  0.00    -0.060 NA
HETATM   28  O3  UNL     1      22.419  19.903  64.952  1.00  0.00    -0.274 OA
ENDBRANCH  25  26
ENDBRANCH  24  25
ENDBRANCH  16  24
BRANCH   1  29
HETATM   29  N1  UNL     1      27.422  20.319  65.458  1.00  0.00    -0.394 N 
ATOM     30  H12 UNL     1      27.341  21.274  65.805  1.00  0.00     0.156 HD
ATOM     31  H11 UNL     1      27.031  19.567  66.026  1.00  0.00     0.156 HD
ENDBRANCH   1  29
TORSDOF 7
ENDMDL
MODEL 2
REMARK VINA RESULT: -7.173150973      1.662      1.870
REMARK  7 active torsions:
REMARK  status: ('A' for Active; 'I' for Inactive)
REMARK    1  A    between atoms: N1_1  and  C1_4 
REMARK    2  A    between atoms: N5_15  and  C5_17 
REMARK    3  A    between atoms: C5_17  and  C6_18 
REMARK    4  A    between atoms: C6_18  and  N6_19 
REMARK    5  A    between atoms: C7_25  and  O2_26 
REMARK    6  A    between atoms: O2_26  and  C8_27 
REMARK    7  A    between atoms: C8_27  and  C9_28 
ROOT
HETATM    1  C1  UNL     1      27.453  19.748  63.650  1.00  0.00     0.114 A 
HETATM    2  C2  UNL     1      28.231  20.243  62.619  1.00  0.00     0.287 A 
HETATM    3  O1  UNL     1      29.041  21.164  62.901  1.00  0.00    -0.264 OA
HETATM    4  N2  UNL     1      28.101  19.735  61.375  1.00  0.00    -0.263 N 
ATOM      5  H2  UNL     1      28.679  20.107  60.621  1.00  0.00     0.190 HD
HETATM    6  N3  UNL     1      27.234  18.759  61.106  1.00  0.00    -0.281 N 
ATOM      7  H3  UNL     1      27.163  18.401  60.153  1.00  0.00     0.188 HD
HETATM    8  C3  UNL     1      26.443  18.233  62.074  1.00  0.00     0.152 A 
HETATM    9  N4  UNL     1      25.585  17.249  61.750  1.00  0.00    -0.174 N 
ATOM     10  H4  UNL     1      25.523  16.899  60.795  1.00  0.00     0.186 HD
HETATM   11  C4  UNL     1      24.813  16.745  62.723  1.00  0.00     0.681 A 
HETATM   12  N5  UNL     1      23.968  15.812  62.524  1.00  0.00    -0.224 N 
ATOM     13  H5  UNL     1      23.417  15.481  63.316  1.00  0.00     0.177 HD
HETATM   14  N7  UNL     1      24.905  17.224  64.004  1.00  0.00    -0.170 N 
ATOM     15  H7  UNL     1      24.305  16.821  64.723  1.00  0.00     0.186 HD
HETATM   16  C7  UNL     1      25.747  18.196  64.344  1.00  0.00     0.174 A 
HETATM   17  C10 UNL     1      26.546  18.725  63.358  1.00  0.00     0.093 A 
ENDROOT
BRANCH  12  18
HETATM   18  C5  UNL     1      23.755  15.214  61.257  1.00  0.00     0.165 C 
BRANCH  18  19
HETATM   19  C6  UNL     1      24.577  13.933  61.119  1.00  0.00     0.249 C 
BRANCH  19  20
HETATM   20  N6  UNL     1      25.539  14.156  60.054  1.00  0.00    -0.078 N 
ATOM     21  H63 UNL     1      25.106  14.229  59.133  1.00  0.00     0.274 HD
ATOM     22  H62 UNL     1      25.954  15.087  60.078  1.00  0.00     0.274 HD
ATOM     23  H61 UNL     1      26.230  13.408  60.112  1.00  0.00     0.274 HD
ENDBRANCH  19  20
ENDBRANCH  18  19
ENDBRANCH  12  18
BRANCH  16  24
HETATM   24  O2  UNL     1      25.866  18.703  65.629  1.00  0.00    -0.326 OA
BRANCH  24  25
HETATM   25  C8  UNL     1      24.694  19.185  66.257  1.00  0.00     0.276 C 
BRANCH  25  26
HETATM   26  C9  UNL     1      24.018  20.130  65.333  1.00  0.00     0.255 C 
HETATM   27  N8  UNL     1      22.692  19.819  64.967  1.00  0.00    -0.060 NA
HETATM   28  O3  UNL     1      24.540  21.170  64.866  1.00  0.00    -0.274 OA
ENDBRANCH  25  26
ENDBRANCH  24  25
ENDBRANCH  16  24
BRANCH   1  29
HETATM   29  N1  UNL     1      27.546  20.199  64.831  1.00  0.00    -0.394 N 
ATOM     30  H12 UNL     1      28.232  20.921  65.052  1.00  0.00     0.156 HD
ATOM     31  H11 UNL     1      26.948  19.858  65.584  1.00  0.00     0.156 HD
ENDBRANCH   1  29
TORSDOF 7
ENDMDL
MODEL 3
REMARK VINA RESULT: -7.088479855      2.427      4.934
REMARK  7 active torsions:
REMARK  status: ('A' for Active; 'I' for Inactive)
REMARK    1  A    between atoms: N1_1  and  C1_4 
REMARK    2  A    between atoms: N5_15  and  C5_17 
REMARK    3  A    between atoms: C5_17  and  C6_18 
REMARK    4  A    between atoms: C6_18  and  N6_19 
REMARK    5  A    between atoms: C7_25  and  O2_26 
REMARK    6  A    between atoms: O2_26  and  C8_27 
REMARK    7  A    between atoms: C8_27  and  C9_28 
ROOT
HETATM    1  C1  UNL     1      24.558  15.882  62.272  1.00  0.00     0.114 A 
HETATM    2  C2  UNL     1      24.500  14.943  61.258  1.00  0.00     0.287 A 
HETATM    3  O1  UNL     1      23.405  14.345  61.091  1.00  0.00    -0.264 OA
HETATM    4  N2  UNL     1      25.591  14.705  60.499  1.00  0.00    -0.263 N 
ATOM      5  H2  UNL     1      25.537  14.010  59.754  1.00  0.00     0.190 HD
HETATM    6  N3  UNL     1      26.737  15.355  60.700  1.00  0.00    -0.281 N 
ATOM      7  H3  UNL     1      27.540  15.147  60.106  1.00  0.00     0.188 HD
HETATM    8  C3  UNL     1      26.857  16.286  61.678  1.00  0.00     0.152 A 
HETATM    9  N4  UNL     1      28.036  16.913  61.839  1.00  0.00    -0.174 N 
ATOM     10  H4  UNL     1      28.832  16.698  61.239  1.00  0.00     0.186 HD
HETATM   11  C4  UNL     1      28.131  17.830  62.813  1.00  0.00     0.681 A 
HETATM   12  N5  UNL     1      29.201  18.480  63.049  1.00  0.00    -0.224 N 
ATOM     13  H5  UNL     1      29.195  19.162  63.808  1.00  0.00     0.177 HD
HETATM   14  N7  UNL     1      27.054  18.110  63.613  1.00  0.00    -0.170 N 
ATOM     15  H7  UNL     1      27.157  18.812  64.345  1.00  0.00     0.186 HD
HETATM   16  C7  UNL     1      25.881  17.501  63.470  1.00  0.00     0.174 A 
HETATM   17  C10 UNL     1      25.766  16.558  62.476  1.00  0.00     0.093 A 
ENDROOT
BRANCH  12  18
HETATM   18  C5  UNL     1      30.398  18.303  62.311  1.00  0.00     0.165 C 
BRANCH  18  19
HETATM   19  C6  UNL     1      31.407  17.478  63.108  1.00  0.00     0.249 C 
BRANCH  19  20
HETATM   20  N6  UNL     1      32.510  17.173  62.215  1.00  0.00    -0.078 N 
ATOM     21  H63 UNL     1      32.493  17.722  61.356  1.00  0.00     0.274 HD
ATOM     22  H62 UNL     1      33.410  17.503  62.563  1.00  0.00     0.274 HD
ATOM     23  H61 UNL     1      32.492  16.167  62.047  1.00  0.00     0.274 HD
ENDBRANCH  19  20
ENDBRANCH  18  19
ENDBRANCH  12  18
BRANCH  16  24
HETATM   24  O2  UNL     1      24.771  17.761  64.260  1.00  0.00    -0.326 OA
BRANCH  24  25
HETATM   25  C8  UNL     1      24.898  18.745  65.269  1.00  0.00     0.276 C 
BRANCH  25  26
HETATM   26  C9  UNL     1      24.070  19.917  64.891  1.00  0.00     0.255 C 
HETATM   27  N8  UNL     1      22.674  19.779  65.040  1.00  0.00    -0.060 NA
HETATM   28  O3  UNL     1      24.522  21.002  64.458  1.00  0.00    -0.274 OA
ENDBRANCH  25  26
ENDBRANCH  24  25
ENDBRANCH  16  24
BRANCH   1  29
HETATM   29  N1  UNL     1      23.556  16.134  63.006  1.00  0.00    -0.394 N 
ATOM     30  H12 UNL     1      22.613  16.077  62.623  1.00  0.00     0.156 HD
ATOM     31  H11 UNL     1      23.661  16.398  63.986  1.00  0.00     0.156 HD
ENDBRANCH   1  29
TORSDOF 7
ENDMDL
MODEL 4
REMARK VINA RESULT: -6.984516931      1.735      4.148
REMARK  7 active torsions:
REMARK  status: ('A' for Active; 'I' for Inactive)
REMARK    1  A    between atoms: N1_1  and  C1_4 
REMARK    2  A    between atoms: N5_15  and  C5_17 
REMARK    3  A    between atoms: C5_17  and  C6_18 
REMARK    4  A    between atoms: C6_18  and  N6_19 
REMARK    5  A    between atoms: C7_25  and  O2_26 
REMARK    6  A    between atoms: O2_26  and  C8_27 
REMARK    7  A    between atoms: C8_27  and  C9_28 
ROOT
HETATM    1  C1  UNL     1      24.873  19.036  64.740  1.00  0.00     0.114 A 
HETATM    2  C2  UNL     1      23.499  19.020  64.588  1.00  0.00     0.287 A 
HETATM    3  O1  UNL     1      22.847  19.936  65.154  1.00  0.00    -0.264 OA
HETATM    4  N2  UNL     1      22.915  18.048  63.854  1.00  0.00    -0.263 N 
ATOM      5  H2  UNL     1      21.900  18.046  63.748  1.00  0.00     0.190 HD
HETATM    6  N3  UNL     1      23.631  17.091  63.266  1.00  0.00    -0.281 N 
ATOM      7  H3  UNL     1      23.155  16.374  62.720  1.00  0.00     0.188 HD
HETATM    8  C3  UNL     1      24.982  17.053  63.379  1.00  0.00     0.152 A 
HETATM    9  N4  UNL     1      25.659  16.065  62.765  1.00  0.00    -0.174 N 
ATOM     10  H4  UNL     1      25.171  15.353  62.221  1.00  0.00     0.186 HD
HETATM   11  C4  UNL     1      26.993  16.047  62.890  1.00  0.00     0.681 A 
HETATM   12  N5  UNL     1      27.728  15.157  62.350  1.00  0.00    -0.224 N 
ATOM     13  H5  UNL     1      28.736  15.211  62.491  1.00  0.00     0.177 HD
HETATM   14  N7  UNL     1      27.637  17.010  63.624  1.00  0.00    -0.170 N 
ATOM     15  H7  UNL     1      28.653  16.970  63.701  1.00  0.00     0.186 HD
HETATM   16  C7  UNL     1      26.986  17.994  64.238  1.00  0.00     0.174 A 
HETATM   17  C10 UNL     1      25.617  18.027  64.119  1.00  0.00     0.093 A 
ENDROOT
BRANCH  12  18
HETATM   18  C5  UNL     1      27.213  14.096  61.564  1.00  0.00     0.165 C 
BRANCH  18  19
HETATM   19  C6  UNL     1      27.156  14.495  60.090  1.00  0.00     0.249 C 
BRANCH  19  20
HETATM   20  N6  UNL     1      25.862  14.073  59.583  1.00  0.00    -0.078 N 
ATOM     21  H63 UNL     1      25.861  13.113  59.240  1.00  0.00     0.274 HD
ATOM     22  H62 UNL     1      25.165  13.951  60.317  1.00  0.00     0.274 HD
ATOM     23  H61 UNL     1      25.582  14.751  58.875  1.00  0.00     0.274 HD
ENDBRANCH  19  20
ENDBRANCH  18  19
ENDBRANCH  12  18
BRANCH  16  24
HETATM   24  O2  UNL     1      27.605  18.983  64.986  1.00  0.00    -0.326 OA
BRANCH  24  25
HETATM   25  C8  UNL     1      28.904  19.388  64.597  1.00  0.00     0.276 C 
BRANCH  25  26
HETATM   26  C9  UNL     1      28.839  20.796  64.131  1.00  0.00     0.255 C 
HETATM   27  N8  UNL     1      28.782  21.790  65.130  1.00  0.00    -0.060 NA
HETATM   28  O3  UNL     1      28.833  21.152  62.930  1.00  0.00    -0.274 OA
ENDBRANCH  25  26
ENDBRANCH  24  25
ENDBRANCH  16  24
BRANCH   1  29
HETATM   29  N1  UNL     1      25.459  19.931  65.421  1.00  0.00    -0.394 N 
ATOM     30  H12 UNL     1      26.390  19.760  65.799  1.00  0.00     0.156 HD
ATOM     31  H11 UNL     1      25.023  20.835  65.606  1.00  0.00     0.156 HD
ENDBRANCH   1  29
TORSDOF 7
ENDMDL
MODEL 5
REMARK VINA RESULT: -6.916241563      2.884      5.598
REMARK  7 active torsions:
REMARK  status: ('A' for Active; 'I' for Inactive)
REMARK    1  A    between atoms: N1_1  and  C1_4 
REMARK    2  A    between atoms: N5_15  and  C5_17 
REMARK    3  A    between atoms: C5_17  and  C6_18 
REMARK    4  A    between atoms: C6_18  and  N6_19 
REMARK    5  A    between atoms: C7_25  and  O2_26 
REMARK    6  A    between atoms: O2_26  and  C8_27 
REMARK    7  A    between atoms: C8_27  and  C9_28 
ROOT
HETATM    1  C1  UNL     1      26.682  17.931  60.453  1.00  0.00     0.114 A 
HETATM    2  C2  UNL     1      27.617  18.917  60.198  1.00  0.00     0.287 A 
HETATM    3  O1  UNL     1      28.165  18.911  59.065  1.00  0.00    -0.264 OA
HETATM    4  N2  UNL     1      27.905  19.833  61.148  1.00  0.00    -0.263 N 
ATOM      5  H2  UNL     1      28.596  20.556  60.950  1.00  0.00     0.190 HD
HETATM    6  N3  UNL     1      27.308  19.814  62.340  1.00  0.00    -0.281 N 
ATOM      7  H3  UNL     1      27.552  20.522  63.032  1.00  0.00     0.188 HD
HETATM    8  C3  UNL     1      26.383  18.872  62.649  1.00  0.00     0.152 A 
HETATM    9  N4  UNL     1      25.809  18.898  63.866  1.00  0.00    -0.174 N 
ATOM     10  H4  UNL     1      26.061  19.611  64.550  1.00  0.00     0.186 HD
HETATM   11  C4  UNL     1      24.898  17.957  64.150  1.00  0.00     0.681 A 
HETATM   12  N5  UNL     1      24.297  17.892  65.271  1.00  0.00    -0.224 N 
ATOM     13  H5  UNL     1      23.615  17.146  65.412  1.00  0.00     0.177 HD
HETATM   14  N7  UNL     1      24.569  17.004  63.222  1.00  0.00    -0.170 N 
ATOM     15  H7  UNL     1      23.872  16.301  63.467  1.00  0.00     0.186 HD
HETATM   16  C7  UNL     1      25.124  16.961  62.014  1.00  0.00     0.174 A 
HETATM   17  C10 UNL     1      26.061  17.919  61.706  1.00  0.00     0.093 A 
ENDROOT
BRANCH  12  18
HETATM   18  C5  UNL     1      24.528  18.803  66.332  1.00  0.00     0.165 C 
BRANCH  18  19
HETATM   19  C6  UNL     1      23.618  18.492  67.519  1.00  0.00     0.249 C 
BRANCH  19  20
HETATM   20  N6  UNL     1      24.276  17.462  68.304  1.00  0.00    -0.078 N 
ATOM     21  H63 UNL     1      24.317  16.561  67.828  1.00  0.00     0.274 HD
ATOM     22  H62 UNL     1      25.281  17.609  68.394  1.00  0.00     0.274 HD
ATOM     23  H61 UNL     1      23.797  17.417  69.203  1.00  0.00     0.274 HD
ENDBRANCH  19  20
ENDBRANCH  18  19
ENDBRANCH  12  18
BRANCH  16  24
HETATM   24  O2  UNL     1      24.814  16.013  61.052  1.00  0.00    -0.326 OA
BRANCH  24  25
HETATM   25  C8  UNL     1      24.877  14.650  61.427  1.00  0.00     0.276 C 
BRANCH  25  26
HETATM   26  C9  UNL     1      26.305  14.251  61.513  1.00  0.00     0.255 C 
HETATM   27  N8  UNL     1      26.985  14.064  60.292  1.00  0.00    -0.060 NA
HETATM   28  O3  UNL     1      26.934  14.075  62.582  1.00  0.00    -0.274 OA
ENDBRANCH  25  26
ENDBRANCH  24  25
ENDBRANCH  16  24
BRANCH   1  29
HETATM   29  N1  UNL     1      26.384  17.054  59.587  1.00  0.00    -0.394 N 
ATOM     30  H12 UNL     1      26.964  16.222  59.480  1.00  0.00     0.156 HD
ATOM     31  H11 UNL     1      25.569  17.152  58.982  1.00  0.00     0.156 HD
ENDBRANCH   1  29
TORSDOF 7
ENDMDL
