MODEL 1
REMARK VINA RESULT: -6.304627760      0.000      0.000
REMARK  8 active torsions:
REMARK  status: ('A' for Active; 'I' for Inactive)
REMARK    1  A    between atoms: N1_2  and  C2_4 
REMARK    2  A    between atoms: C3_7  and  N3_8 
REMARK    3  A    between atoms: C6_13  and  N5_14 
REMARK    4  A    between atoms: N5_14  and  N6_16 
REMARK    5  A    between atoms: N6_16  and  C7_18 
REMARK    6  A    between atoms: C7_18  and  C8_19 
REMARK    7  A    between atoms: C8_19  and  N7_20 
REMARK    8  A    between atoms: N7_20  and  C9_22 
ROOT
HETATM    1  C2  UNL     1      25.870  19.404  63.715  1.00  0.00     0.706 A 
HETATM    2  N2  UNL     1      26.906  19.731  64.509  1.00  0.00    -0.021 N 
ATOM      3  H2  UNL     1      26.769  19.728  65.520  1.00  0.00     0.203 HD
HETATM    4  C3  UNL     1      28.117  20.061  64.022  1.00  0.00     0.708 A 
HETATM    5  N4  UNL     1      28.243  20.050  62.680  1.00  0.00    -0.020 N 
ATOM      6  H4  UNL     1      29.142  20.294  62.265  1.00  0.00     0.203 HD
HETATM    7  C6  UNL     1      27.210  19.723  61.871  1.00  0.00     0.725 A 
HETATM    8  N9  UNL     1      26.006  19.395  62.376  1.00  0.00    -0.020 N 
ATOM      9  H9  UNL     1      25.227  19.150  61.767  1.00  0.00     0.203 HD
ENDROOT
BRANCH   7  10
HETATM   10  N5  UNL     1      27.356  19.717  60.589  1.00  0.00    -0.135 N 
ATOM     11  H5  UNL     1      27.064  20.554  60.084  1.00  0.00     0.205 HD
BRANCH  10  12
HETATM   12  N6  UNL     1      27.870  18.683  59.846  1.00  0.00    -0.321 N 
ATOM     13  H6  UNL     1      28.885  18.602  59.790  1.00  0.00     0.180 HD
BRANCH  12  14
HETATM   14  C7  UNL     1      27.086  17.704  59.138  1.00  0.00     0.159 C 
BRANCH  14  15
HETATM   15  C8  UNL     1      26.501  16.663  60.064  1.00  0.00     0.143 C 
BRANCH  15  16
HETATM   16  N7  UNL     1      25.064  16.743  60.123  1.00  0.00    -0.368 N 
ATOM     17  H7  UNL     1      24.547  17.152  59.344  1.00  0.00     0.161 HD
BRANCH  16  18
HETATM   18  C9  UNL     1      24.365  16.258  61.250  1.00  0.00     0.181 C 
HETATM   19  N8  UNL     1      23.661  17.170  62.080  1.00  0.00    -0.070 NA
HETATM   20  S1  UNL     1      24.319  14.680  61.660  1.00  0.00    -0.044 SA
ENDBRANCH  16  18
ENDBRANCH  15  16
ENDBRANCH  14  15
ENDBRANCH  12  14
ENDBRANCH  10  12
ENDBRANCH   7  10
BRANCH   4  21
HETATM   21  N3  UNL     1      29.212  20.407  64.877  1.00  0.00    -0.225 N 
HETATM   22  C4  UNL     1      29.290  21.608  65.653  1.00  0.00     0.168 C 
HETATM   23  C5  UNL     1      30.314  19.465  64.952  1.00  0.00     0.168 C 
ENDBRANCH   4  21
BRANCH   1  24
HETATM   24  N1  UNL     1      24.707  19.089  64.175  1.00  0.00    -0.229 N 
HETATM   25  C1  UNL     1      24.187  19.878  65.274  1.00  0.00     0.165 C 
ATOM     26  H1  UNL     1      24.174  18.314  63.780  1.00  0.00     0.177 HD
ENDBRANCH   1  24
TORSDOF 8
ENDMDL
MODEL 2
REMARK VINA RESULT: -6.131408415      1.181      3.309
REMARK  8 active torsions:
REMARK  status: ('A' for Active; 'I' for Inactive)
REMARK    1  A    between atoms: N1_2  and  C2_4 
REMARK    2  A    between atoms: C3_7  and  N3_8 
REMARK    3  A    between atoms: C6_13  and  N5_14 
REMARK    4  A    between atoms: N5_14  and  N6_16 
REMARK    5  A    between atoms: N6_16  and  C7_18 
REMARK    6  A    between atoms: C7_18  and  C8_19 
REMARK    7  A    between atoms: C8_19  and  N7_20 
REMARK    8  A    between atoms: N7_20  and  C9_22 
ROOT
HETATM    1  C2  UNL     1      27.240  19.832  61.597  1.00  0.00     0.706 A 
HETATM    2  N2  UNL     1      28.249  20.109  62.444  1.00  0.00    -0.021 N 
ATOM      3  H2  UNL     1      29.100  20.529  62.071  1.00  0.00     0.203 HD
HETATM    4  C3  UNL     1      28.178  19.853  63.763  1.00  0.00     0.708 A 
HETATM    5  N4  UNL     1      27.031  19.298  64.203  1.00  0.00    -0.020 N 
ATOM      6  H4  UNL     1      26.931  19.085  65.195  1.00  0.00     0.203 HD
HETATM    7  C6  UNL     1      26.009  19.015  63.362  1.00  0.00     0.725 A 
HETATM    8  N9  UNL     1      26.098  19.278  62.045  1.00  0.00    -0.020 N 
ATOM      9  H9  UNL     1      25.330  19.064  61.410  1.00  0.00     0.203 HD
ENDROOT
BRANCH   7  10
HETATM   10  N5  UNL     1      24.920  18.486  63.806  1.00  0.00    -0.135 N 
ATOM     11  H5  UNL     1      24.699  18.633  64.791  1.00  0.00     0.205 HD
BRANCH  10  12
HETATM   12  N6  UNL     1      24.033  17.740  63.069  1.00  0.00    -0.321 N 
ATOM     13  H6  UNL     1      23.194  18.208  62.728  1.00  0.00     0.180 HD
BRANCH  12  14
HETATM   14  C7  UNL     1      24.196  16.348  62.741  1.00  0.00     0.159 C 
BRANCH  14  15
HETATM   15  C8  UNL     1      24.066  16.091  61.258  1.00  0.00     0.143 C 
BRANCH  15  16
HETATM   16  N7  UNL     1      25.261  16.454  60.542  1.00  0.00    -0.368 N 
ATOM     17  H7  UNL     1      25.241  17.236  59.886  1.00  0.00     0.161 HD
BRANCH  16  18
HETATM   18  C9  UNL     1      26.461  15.737  60.739  1.00  0.00     0.181 C 
HETATM   19  N8  UNL     1      27.481  16.295  61.554  1.00  0.00    -0.070 NA
HETATM   20  S1  UNL     1      26.749  14.278  60.070  1.00  0.00    -0.044 SA
ENDBRANCH  16  18
ENDBRANCH  15  16
ENDBRANCH  14  15
ENDBRANCH  12  14
ENDBRANCH  10  12
ENDBRANCH   7  10
BRANCH   4  21
HETATM   21  N3  UNL     1      29.257  20.151  64.655  1.00  0.00    -0.225 N 
HETATM   22  C4  UNL     1      30.372  19.287  64.900  1.00  0.00     0.168 C 
HETATM   23  C5  UNL     1      29.204  21.423  65.353  1.00  0.00     0.168 C 
ENDBRANCH   4  21
BRANCH   1  24
HETATM   24  N1  UNL     1      27.303  20.073  60.332  1.00  0.00    -0.229 N 
HETATM   25  C1  UNL     1      27.806  19.018  59.475  1.00  0.00     0.165 C 
ATOM     26  H1  UNL     1      27.009  20.971  59.948  1.00  0.00     0.177 HD
ENDBRANCH   1  24
TORSDOF 8
ENDMDL
MODEL 3
REMARK VINA RESULT: -6.122336770      2.598      4.029
REMARK  8 active torsions:
REMARK  status: ('A' for Active; 'I' for Inactive)
REMARK    1  A    between atoms: N1_2  and  C2_4 
REMARK    2  A    between atoms: C3_7  and  N3_8 
REMARK    3  A    between atoms: C6_13  and  N5_14 
REMARK    4  A    between atoms: N5_14  and  N6_16 
REMARK    5  A    between atoms: N6_16  and  C7_18 
REMARK    6  A    between atoms: C7_18  and  C8_19 
REMARK    7  A    between atoms: C8_19  and  N7_20 
REMARK    8  A    between atoms: N7_20  and  C9_22 
ROOT
HETATM    1  C2  UNL     1      24.101  17.452  63.581  1.00  0.00     0.706 A 
HETATM    2  N2  UNL     1      25.122  18.296  63.343  1.00  0.00    -0.021 N 
ATOM      3  H2  UNL     1      25.320  19.029  64.024  1.00  0.00     0.203 HD
HETATM    4  C3  UNL     1      25.893  18.209  62.243  1.00  0.00     0.708 A 
HETATM    5  N4  UNL     1      25.588  17.222  61.377  1.00  0.00    -0.020 N 
ATOM      6  H4  UNL     1      26.144  17.117  60.528  1.00  0.00     0.203 HD
HETATM    7  C6  UNL     1      24.564  16.367  61.605  1.00  0.00     0.725 A 
HETATM    8  N9  UNL     1      23.804  16.469  62.710  1.00  0.00    -0.020 N 
ATOM      9  H9  UNL     1      23.032  15.826  62.882  1.00  0.00     0.203 HD
ENDROOT
BRANCH   7  10
HETATM   10  N5  UNL     1      24.293  15.429  60.762  1.00  0.00    -0.135 N 
ATOM     11  H5  UNL     1      23.477  15.562  60.164  1.00  0.00     0.205 HD
BRANCH  10  12
HETATM   12  N6  UNL     1      25.006  14.266  60.599  1.00  0.00    -0.321 N 
ATOM     13  H6  UNL     1      24.567  13.398  60.905  1.00  0.00     0.180 HD
BRANCH  12  14
HETATM   14  C7  UNL     1      26.326  14.179  60.031  1.00  0.00     0.159 C 
BRANCH  14  15
HETATM   15  C8  UNL     1      27.398  14.074  61.091  1.00  0.00     0.143 C 
BRANCH  15  16
HETATM   16  N7  UNL     1      28.277  15.214  61.082  1.00  0.00    -0.368 N 
ATOM     17  H7  UNL     1      28.646  15.562  60.197  1.00  0.00     0.161 HD
BRANCH  16  18
HETATM   18  C9  UNL     1      28.632  15.855  62.289  1.00  0.00     0.181 C 
HETATM   19  N8  UNL     1      27.786  15.727  63.422  1.00  0.00    -0.070 NA
HETATM   20  S1  UNL     1      29.983  16.753  62.458  1.00  0.00    -0.044 SA
ENDBRANCH  16  18
ENDBRANCH  15  16
ENDBRANCH  14  15
ENDBRANCH  12  14
ENDBRANCH  10  12
ENDBRANCH   7  10
BRANCH   4  21
HETATM   21  N3  UNL     1      26.976  19.112  62.000  1.00  0.00    -0.225 N 
HETATM   22  C4  UNL     1      27.526  19.395  60.709  1.00  0.00     0.168 C 
HETATM   23  C5  UNL     1      27.548  19.782  63.155  1.00  0.00     0.168 C 
ENDBRANCH   4  21
BRANCH   1  24
HETATM   24  N1  UNL     1      23.358  17.531  64.632  1.00  0.00    -0.229 N 
HETATM   25  C1  UNL     1      23.787  18.425  65.689  1.00  0.00     0.165 C 
ATOM     26  H1  UNL     1      22.500  16.984  64.716  1.00  0.00     0.177 HD
ENDBRANCH   1  24
TORSDOF 8
ENDMDL
MODEL 4
REMARK VINA RESULT: -6.067759932      2.355      3.762
REMARK  8 active torsions:
REMARK  status: ('A' for Active; 'I' for Inactive)
REMARK    1  A    between atoms: N1_2  and  C2_4 
REMARK    2  A    between atoms: C3_7  and  N3_8 
REMARK    3  A    between atoms: C6_13  and  N5_14 
REMARK    4  A    between atoms: N5_14  and  N6_16 
REMARK    5  A    between atoms: N6_16  and  C7_18 
REMARK    6  A    between atoms: C7_18  and  C8_19 
REMARK    7  A    between atoms: C8_19  and  N7_20 
REMARK    8  A    between atoms: N7_20  and  C9_22 
ROOT
HETATM    1  C2  UNL     1      27.151  18.970  61.669  1.00  0.00     0.706 A 
HETATM    2  N2  UNL     1      28.132  18.467  62.440  1.00  0.00    -0.021 N 
ATOM      3  H2  UNL     1      29.099  18.711  62.224  1.00  0.00     0.203 HD
HETATM    4  C3  UNL     1      27.889  17.655  63.485  1.00  0.00     0.708 A 
HETATM    5  N4  UNL     1      26.595  17.364  63.725  1.00  0.00    -0.020 N 
ATOM      6  H4  UNL     1      26.360  16.751  64.507  1.00  0.00     0.203 HD
HETATM    7  C6  UNL     1      25.599  17.863  62.958  1.00  0.00     0.725 A 
HETATM    8  N9  UNL     1      25.861  18.673  61.916  1.00  0.00    -0.020 N 
ATOM      9  H9  UNL     1      25.111  19.049  61.336  1.00  0.00     0.203 HD
ENDROOT
BRANCH   7  10
HETATM   10  N5  UNL     1      24.367  17.572  63.209  1.00  0.00    -0.135 N 
ATOM     11  H5  UNL     1      24.043  17.708  64.166  1.00  0.00     0.205 HD
BRANCH  10  12
HETATM   12  N6  UNL     1      23.455  17.093  62.300  1.00  0.00    -0.321 N 
ATOM     13  H6  UNL     1      22.471  17.301  62.467  1.00  0.00     0.180 HD
BRANCH  12  14
HETATM   14  C7  UNL     1      23.782  16.321  61.130  1.00  0.00     0.159 C 
BRANCH  14  15
HETATM   15  C8  UNL     1      23.881  14.844  61.430  1.00  0.00     0.143 C 
BRANCH  15  16
HETATM   16  N7  UNL     1      25.055  14.253  60.841  1.00  0.00    -0.368 N 
ATOM     17  H7  UNL     1      24.954  13.545  60.112  1.00  0.00     0.161 HD
BRANCH  16  18
HETATM   18  C9  UNL     1      26.344  14.644  61.263  1.00  0.00     0.181 C 
HETATM   19  N8  UNL     1      26.764  14.348  62.587  1.00  0.00    -0.070 NA
HETATM   20  S1  UNL     1      27.398  15.432  60.300  1.00  0.00    -0.044 SA
ENDBRANCH  16  18
ENDBRANCH  15  16
ENDBRANCH  14  15
ENDBRANCH  12  14
ENDBRANCH  10  12
ENDBRANCH   7  10
BRANCH   4  21
HETATM   21  N3  UNL     1      28.941  17.126  64.298  1.00  0.00    -0.225 N 
HETATM   22  C4  UNL     1      28.839  16.888  65.707  1.00  0.00     0.168 C 
HETATM   23  C5  UNL     1      30.194  16.812  63.636  1.00  0.00     0.168 C 
ENDBRANCH   4  21
BRANCH   1  24
HETATM   24  N1  UNL     1      27.378  19.746  60.664  1.00  0.00    -0.229 N 
HETATM   25  C1  UNL     1      27.792  19.128  59.421  1.00  0.00     0.165 C 
ATOM     26  H1  UNL     1      27.269  20.758  60.742  1.00  0.00     0.177 HD
ENDBRANCH   1  24
TORSDOF 8
ENDMDL
MODEL 5
REMARK VINA RESULT: -6.064062161      2.227      3.699
REMARK  8 active torsions:
REMARK  status: ('A' for Active; 'I' for Inactive)
REMARK    1  A    between atoms: N1_2  and  C2_4 
REMARK    2  A    between atoms: C3_7  and  N3_8 
REMARK    3  A    between atoms: C6_13  and  N5_14 
REMARK    4  A    between atoms: N5_14  and  N6_16 
REMARK    5  A    between atoms: N6_16  and  C7_18 
REMARK    6  A    between atoms: C7_18  and  C8_19 
REMARK    7  A    between atoms: C8_19  and  N7_20 
REMARK    8  A    between atoms: N7_20  and  C9_22 
ROOT
HETATM    1  C2  UNL     1      24.086  17.855  64.120  1.00  0.00     0.706 A 
HETATM    2  N2  UNL     1      25.188  18.613  63.973  1.00  0.00    -0.021 N 
ATOM      3  H2  UNL     1      25.502  19.180  64.761  1.00  0.00     0.203 HD
HETATM    4  C3  UNL     1      25.892  18.653  62.826  1.00  0.00     0.708 A 
HETATM    5  N4  UNL     1      25.433  17.887  61.817  1.00  0.00    -0.020 N 
ATOM      6  H4  UNL     1      25.933  17.884  60.928  1.00  0.00     0.203 HD
HETATM    7  C6  UNL     1      24.327  17.120  61.953  1.00  0.00     0.725 A 
HETATM    8  N9  UNL     1      23.635  17.092  63.107  1.00  0.00    -0.020 N 
ATOM      9  H9  UNL     1      22.801  16.515  63.209  1.00  0.00     0.203 HD
ENDROOT
BRANCH   7  10
HETATM   10  N5  UNL     1      23.908  16.392  60.973  1.00  0.00    -0.135 N 
ATOM     11  H5  UNL     1      23.262  16.827  60.314  1.00  0.00     0.205 HD
BRANCH  10  12
HETATM   12  N6  UNL     1      24.255  15.084  60.740  1.00  0.00    -0.321 N 
ATOM     13  H6  UNL     1      24.053  14.700  59.818  1.00  0.00     0.180 HD
BRANCH  12  14
HETATM   14  C7  UNL     1      24.884  14.213  61.698  1.00  0.00     0.159 C 
BRANCH  14  15
HETATM   15  C8  UNL     1      26.268  13.789  61.264  1.00  0.00     0.143 C 
BRANCH  15  16
HETATM   16  N7  UNL     1      27.297  14.507  61.971  1.00  0.00    -0.368 N 
ATOM     17  H7  UNL     1      27.617  14.169  62.879  1.00  0.00     0.161 HD
BRANCH  16  18
HETATM   18  C9  UNL     1      27.866  15.674  61.417  1.00  0.00     0.181 C 
HETATM   19  N8  UNL     1      27.325  16.214  60.221  1.00  0.00    -0.070 NA
HETATM   20  S1  UNL     1      29.135  16.451  62.085  1.00  0.00    -0.044 SA
ENDBRANCH  16  18
ENDBRANCH  15  16
ENDBRANCH  14  15
ENDBRANCH  12  14
ENDBRANCH  10  12
ENDBRANCH   7  10
BRANCH   4  21
HETATM   21  N3  UNL     1      27.062  19.464  62.681  1.00  0.00    -0.225 N 
HETATM   22  C4  UNL     1      27.909  19.872  63.761  1.00  0.00     0.168 C 
HETATM   23  C5  UNL     1      27.405  19.895  61.337  1.00  0.00     0.168 C 
ENDBRANCH   4  21
BRANCH   1  24
HETATM   24  N1  UNL     1      23.405  17.814  65.215  1.00  0.00    -0.229 N 
HETATM   25  C1  UNL     1      23.897  18.588  66.337  1.00  0.00     0.165 C 
ATOM     26  H1  UNL     1      22.553  17.257  65.288  1.00  0.00     0.177 HD
ENDBRANCH   1  24
TORSDOF 8
ENDMDL
