MODEL 1
REMARK VINA RESULT: -7.856849255      0.000      0.000
REMARK  5 active torsions:
REMARK  status: ('A' for Active; 'I' for Inactive)
REMARK    1  A    between atoms: C2_2  and  N1_3 
REMARK       I    between atoms: C3_5  and  N2_6 
REMARK       I    between atoms: C3_5  and  N4_10 
REMARK    2  A    between atoms: N4_10  and  C5_12 
REMARK    3  A    between atoms: C5_12  and  C6_13 
REMARK    4  A    between atoms: C6_13  and  N5_14 
REMARK    5  A    between atoms: N5_14  and  C7_16 
ROOT
HETATM    1  N1  UNL     1      26.187  16.848  59.444  1.00  0.00    -0.226 N 
ATOM      2  H1  UNL     1      25.263  17.094  59.090  1.00  0.00     0.177 HD
HETATM    3  C3  UNL     1      26.338  15.770  60.132  1.00  0.00     0.682 C 
HETATM    4  N2  UNL     1      27.611  15.395  60.643  1.00  0.00    -0.126 N 
ATOM      5  H2  UNL     1      28.317  14.995  60.025  1.00  0.00     0.197 HD
HETATM    6  C4  UNL     1      27.883  15.581  62.005  1.00  0.00     0.196 C 
HETATM    7  N3  UNL     1      28.099  15.719  63.134  1.00  0.00    -0.171 NA
HETATM    8  N4  UNL     1      25.210  14.943  60.381  1.00  0.00    -0.224 N 
ATOM      9  H4  UNL     1      24.763  14.462  59.600  1.00  0.00     0.177 HD
ENDROOT
BRANCH   1  10
HETATM   10  C2  UNL     1      27.310  17.717  59.167  1.00  0.00     0.133 C 
HETATM   11  C1  UNL     1      27.559  18.734  60.229  1.00  0.00     0.027 C 
ENDBRANCH   1  10
BRANCH   8  12
HETATM   12  C5  UNL     1      24.679  14.764  61.720  1.00  0.00     0.158 C 
BRANCH  12  13
HETATM   13  C6  UNL     1      24.153  16.044  62.290  1.00  0.00     0.158 C 
BRANCH  13  14
HETATM   14  N5  UNL     1      24.913  16.513  63.413  1.00  0.00    -0.224 N 
ATOM     15  H5  UNL     1      25.455  15.831  63.943  1.00  0.00     0.177 HD
BRANCH  14  16
HETATM   16  C7  UNL     1      24.951  17.726  63.788  1.00  0.00     0.685 C 
HETATM   17  N6  UNL     1      26.191  18.271  63.846  1.00  0.00    -0.141 N 
HETATM   18  C8  UNL     1      26.612  19.444  64.367  1.00  0.00     0.341 C 
ATOM     19  H6  UNL     1      26.927  17.702  63.428  1.00  0.00     0.189 HD
HETATM   20  O1  UNL     1      27.734  19.883  64.018  1.00  0.00    -0.246 OA
HETATM   21  N7  UNL     1      25.932  20.208  65.243  1.00  0.00    -0.270 N 
HETATM   22  C9  UNL     1      24.595  20.215  65.502  1.00  0.00     0.318 C 
ATOM     23  H7  UNL     1      26.491  20.868  65.783  1.00  0.00     0.174 HD
HETATM   24  O2  UNL     1      24.202  20.964  66.413  1.00  0.00    -0.262 OA
HETATM   25  C10 UNL     1      23.638  19.473  64.853  1.00  0.00     0.328 C 
HETATM   26  O3  UNL     1      22.466  19.889  65.003  1.00  0.00    -0.261 OA
HETATM   27  N8  UNL     1      23.818  18.374  64.093  1.00  0.00    -0.151 N 
ATOM     28  H8  UNL     1      22.968  17.977  63.692  1.00  0.00     0.188 HD
ENDBRANCH  14  16
ENDBRANCH  13  14
ENDBRANCH  12  13
ENDBRANCH   8  12
TORSDOF 5
ENDMDL
MODEL 2
REMARK VINA RESULT: -7.619417009      2.822      4.435
REMARK  5 active torsions:
REMARK  status: ('A' for Active; 'I' for Inactive)
REMARK    1  A    between atoms: C2_2  and  N1_3 
REMARK       I    between atoms: C3_5  and  N2_6 
REMARK       I    between atoms: C3_5  and  N4_10 
REMARK    2  A    between atoms: N4_10  and  C5_12 
REMARK    3  A    between atoms: C5_12  and  C6_13 
REMARK    4  A    between atoms: C6_13  and  N5_14 
REMARK    5  A    between atoms: N5_14  and  C7_16 
ROOT
HETATM    1  N1  UNL     1      25.861  15.835  60.322  1.00  0.00    -0.226 N 
ATOM      2  H1  UNL     1      26.408  16.693  60.395  1.00  0.00     0.177 HD
HETATM    3  C3  UNL     1      24.637  15.828  60.721  1.00  0.00     0.682 C 
HETATM    4  N2  UNL     1      23.842  14.651  60.636  1.00  0.00    -0.126 N 
ATOM      5  H2  UNL     1      23.459  14.351  59.739  1.00  0.00     0.197 HD
HETATM    6  C4  UNL     1      23.591  13.909  61.798  1.00  0.00     0.196 C 
HETATM    7  N3  UNL     1      23.371  13.308  62.762  1.00  0.00    -0.171 NA
HETATM    8  N4  UNL     1      24.073  17.018  61.255  1.00  0.00    -0.224 N 
ATOM      9  H4  UNL     1      23.939  17.823  60.643  1.00  0.00     0.177 HD
ENDROOT
BRANCH   1  10
HETATM   10  C2  UNL     1      26.471  14.645  59.771  1.00  0.00     0.133 C 
HETATM   11  C1  UNL     1      27.531  14.058  60.638  1.00  0.00     0.027 C 
ENDBRANCH   1  10
BRANCH   8  12
HETATM   12  C5  UNL     1      23.684  17.116  62.649  1.00  0.00     0.158 C 
BRANCH  12  13
HETATM   13  C6  UNL     1      24.772  17.698  63.496  1.00  0.00     0.158 C 
BRANCH  13  14
HETATM   14  N5  UNL     1      25.679  18.527  62.756  1.00  0.00    -0.224 N 
ATOM     15  H5  UNL     1      25.286  19.175  62.073  1.00  0.00     0.177 HD
BRANCH  14  16
HETATM   16  C7  UNL     1      26.941  18.504  62.899  1.00  0.00     0.685 C 
HETATM   17  N6  UNL     1      27.545  19.717  62.875  1.00  0.00    -0.141 N 
HETATM   18  C8  UNL     1      28.853  20.046  62.811  1.00  0.00     0.341 C 
ATOM     19  H6  UNL     1      26.907  20.512  62.912  1.00  0.00     0.189 HD
HETATM   20  O1  UNL     1      29.192  21.211  63.131  1.00  0.00    -0.246 OA
HETATM   21  N7  UNL     1      29.855  19.230  62.432  1.00  0.00    -0.270 N 
HETATM   22  C9  UNL     1      29.875  17.869  62.405  1.00  0.00     0.318 C 
ATOM     23  H7  UNL     1      30.710  19.692  62.123  1.00  0.00     0.174 HD
HETATM   24  O2  UNL     1      30.896  17.330  61.944  1.00  0.00    -0.262 OA
HETATM   25  C10 UNL     1      28.875  17.033  62.840  1.00  0.00     0.328 C 
HETATM   26  O3  UNL     1      29.239  15.852  63.051  1.00  0.00    -0.261 OA
HETATM   27  N8  UNL     1      27.580  17.336  63.057  1.00  0.00    -0.151 N 
ATOM     28  H8  UNL     1      27.002  16.565  63.390  1.00  0.00     0.188 HD
ENDBRANCH  14  16
ENDBRANCH  13  14
ENDBRANCH  12  13
ENDBRANCH   8  12
TORSDOF 5
ENDMDL
MODEL 3
REMARK VINA RESULT: -7.551556753      2.794      5.048
REMARK  5 active torsions:
REMARK  status: ('A' for Active; 'I' for Inactive)
REMARK    1  A    between atoms: C2_2  and  N1_3 
REMARK       I    between atoms: C3_5  and  N2_6 
REMARK       I    between atoms: C3_5  and  N4_10 
REMARK    2  A    between atoms: N4_10  and  C5_12 
REMARK    3  A    between atoms: C5_12  and  C6_13 
REMARK    4  A    between atoms: C6_13  and  N5_14 
REMARK    5  A    between atoms: N5_14  and  C7_16 
ROOT
HETATM    1  N1  UNL     1      26.339  19.262  62.226  1.00  0.00    -0.226 N 
ATOM      2  H1  UNL     1      25.462  19.094  61.733  1.00  0.00     0.177 HD
HETATM    3  C3  UNL     1      27.392  19.580  61.557  1.00  0.00     0.682 C 
HETATM    4  N2  UNL     1      28.633  19.821  62.208  1.00  0.00    -0.126 N 
ATOM      5  H2  UNL     1      28.793  20.696  62.707  1.00  0.00     0.197 HD
HETATM    6  C4  UNL     1      29.634  18.840  62.157  1.00  0.00     0.196 C 
HETATM    7  N3  UNL     1      30.466  18.037  62.099  1.00  0.00    -0.171 NA
HETATM    8  N4  UNL     1      27.309  19.691  60.142  1.00  0.00    -0.224 N 
ATOM      9  H4  UNL     1      26.743  20.436  59.735  1.00  0.00     0.177 HD
ENDROOT
BRANCH   1  10
HETATM   10  C2  UNL     1      26.382  19.139  63.666  1.00  0.00     0.133 C 
HETATM   11  C1  UNL     1      26.321  17.731  64.150  1.00  0.00     0.027 C 
ENDBRANCH   1  10
BRANCH   8  12
HETATM   12  C5  UNL     1      28.008  18.773  59.264  1.00  0.00     0.158 C 
BRANCH  12  13
HETATM   13  C6  UNL     1      27.072  18.052  58.345  1.00  0.00     0.158 C 
BRANCH  13  14
HETATM   14  N5  UNL     1      26.845  16.688  58.730  1.00  0.00    -0.224 N 
ATOM     15  H5  UNL     1      27.025  15.960  58.039  1.00  0.00     0.177 HD
BRANCH  14  16
HETATM   16  C7  UNL     1      26.435  16.333  59.878  1.00  0.00     0.685 C 
HETATM   17  N6  UNL     1      27.280  15.530  60.569  1.00  0.00    -0.141 N 
HETATM   18  C8  UNL     1      27.093  14.830  61.708  1.00  0.00     0.341 C 
ATOM     19  H6  UNL     1      28.211  15.439  60.160  1.00  0.00     0.189 HD
HETATM   20  O1  UNL     1      28.104  14.425  62.333  1.00  0.00    -0.246 OA
HETATM   21  N7  UNL     1      25.904  14.516  62.256  1.00  0.00    -0.270 N 
HETATM   22  C9  UNL     1      24.695  15.109  62.054  1.00  0.00     0.318 C 
ATOM     23  H7  UNL     1      25.909  13.731  62.907  1.00  0.00     0.174 HD
HETATM   24  O2  UNL     1      23.715  14.596  62.620  1.00  0.00    -0.262 OA
HETATM   25  C10 UNL     1      24.455  16.222  61.284  1.00  0.00     0.328 C 
HETATM   26  O3  UNL     1      23.365  16.793  61.520  1.00  0.00    -0.261 OA
HETATM   27  N8  UNL     1      25.243  16.750  60.327  1.00  0.00    -0.151 N 
ATOM     28  H8  UNL     1      24.878  17.591  59.878  1.00  0.00     0.188 HD
ENDBRANCH  14  16
ENDBRANCH  13  14
ENDBRANCH  12  13
ENDBRANCH   8  12
TORSDOF 5
ENDMDL
MODEL 4
REMARK VINA RESULT: -7.488397440      1.514      2.830
REMARK  5 active torsions:
REMARK  status: ('A' for Active; 'I' for Inactive)
REMARK    1  A    between atoms: C2_2  and  N1_3 
REMARK       I    between atoms: C3_5  and  N2_6 
REMARK       I    between atoms: C3_5  and  N4_10 
REMARK    2  A    between atoms: N4_10  and  C5_12 
REMARK    3  A    between atoms: C5_12  and  C6_13 
REMARK    4  A    between atoms: C6_13  and  N5_14 
REMARK    5  A    between atoms: N5_14  and  C7_16 
ROOT
HETATM    1  N1  UNL     1      27.205  15.497  60.096  1.00  0.00    -0.226 N 
ATOM      2  H1  UNL     1      28.223  15.562  60.110  1.00  0.00     0.177 HD
HETATM    3  C3  UNL     1      26.500  16.574  60.101  1.00  0.00     0.682 C 
HETATM    4  N2  UNL     1      25.079  16.524  60.082  1.00  0.00    -0.126 N 
ATOM      5  H2  UNL     1      24.581  16.307  59.218  1.00  0.00     0.197 HD
HETATM    6  C4  UNL     1      24.370  16.775  61.265  1.00  0.00     0.196 C 
HETATM    7  N3  UNL     1      23.786  17.000  62.239  1.00  0.00    -0.171 NA
HETATM    8  N4  UNL     1      27.157  17.834  60.125  1.00  0.00    -0.224 N 
ATOM      9  H4  UNL     1      27.712  18.121  59.318  1.00  0.00     0.177 HD
ENDROOT
BRANCH   1  10
HETATM   10  C2  UNL     1      26.574  14.195  60.070  1.00  0.00     0.133 C 
HETATM   11  C1  UNL     1      26.453  13.561  61.414  1.00  0.00     0.027 C 
ENDBRANCH   1  10
BRANCH   8  12
HETATM   12  C5  UNL     1      27.058  18.722  61.268  1.00  0.00     0.158 C 
BRANCH  12  13
HETATM   13  C6  UNL     1      27.606  18.097  62.513  1.00  0.00     0.158 C 
BRANCH  13  14
HETATM   14  N5  UNL     1      26.620  17.940  63.544  1.00  0.00    -0.224 N 
ATOM     15  H5  UNL     1      26.279  16.999  63.740  1.00  0.00     0.177 HD
BRANCH  14  16
HETATM   16  C7  UNL     1      26.148  18.901  64.227  1.00  0.00     0.685 C 
HETATM   17  N6  UNL     1      27.065  19.623  64.915  1.00  0.00    -0.141 N 
HETATM   18  C8  UNL     1      26.905  20.570  65.865  1.00  0.00     0.341 C 
ATOM     19  H6  UNL     1      28.035  19.418  64.678  1.00  0.00     0.189 HD
HETATM   20  O1  UNL     1      27.872  21.328  66.121  1.00  0.00    -0.246 OA
HETATM   21  N7  UNL     1      25.785  20.790  66.580  1.00  0.00    -0.270 N 
HETATM   22  C9  UNL     1      24.507  20.426  66.286  1.00  0.00     0.318 C 
ATOM     23  H7  UNL     1      25.912  21.295  67.457  1.00  0.00     0.174 HD
HETATM   24  O2  UNL     1      23.639  20.677  67.140  1.00  0.00    -0.262 OA
HETATM   25  C10 UNL     1      24.083  19.807  65.135  1.00  0.00     0.328 C 
HETATM   26  O3  UNL     1      22.850  19.887  64.924  1.00  0.00    -0.261 OA
HETATM   27  N8  UNL     1      24.829  19.139  64.232  1.00  0.00    -0.151 N 
ATOM     28  H8  UNL     1      24.314  18.760  63.437  1.00  0.00     0.188 HD
ENDBRANCH  14  16
ENDBRANCH  13  14
ENDBRANCH  12  13
ENDBRANCH   8  12
TORSDOF 5
ENDMDL
MODEL 5
REMARK VINA RESULT: -7.458435093      1.250      1.250
REMARK  5 active torsions:
REMARK  status: ('A' for Active; 'I' for Inactive)
REMARK    1  A    between atoms: C2_2  and  N1_3 
REMARK       I    between atoms: C3_5  and  N2_6 
REMARK       I    between atoms: C3_5  and  N4_10 
REMARK    2  A    between atoms: N4_10  and  C5_12 
REMARK    3  A    between atoms: C5_12  and  C6_13 
REMARK    4  A    between atoms: C6_13  and  N5_14 
REMARK    5  A    between atoms: N5_14  and  C7_16 
ROOT
HETATM    1  N1  UNL     1      26.056  16.923  59.487  1.00  0.00    -0.226 N 
ATOM      2  H1  UNL     1      25.137  17.316  59.281  1.00  0.00     0.177 HD
HETATM    3  C3  UNL     1      26.140  15.820  60.145  1.00  0.00     0.682 C 
HETATM    4  N2  UNL     1      27.403  15.241  60.452  1.00  0.00    -0.126 N 
ATOM      5  H2  UNL     1      27.935  14.751  59.733  1.00  0.00     0.197 HD
HETATM    6  C4  UNL     1      27.908  15.353  61.755  1.00  0.00     0.196 C 
HETATM    7  N3  UNL     1      28.314  15.430  62.836  1.00  0.00    -0.171 NA
HETATM    8  N4  UNL     1      24.950  15.170  60.569  1.00  0.00    -0.224 N 
ATOM      9  H4  UNL     1      24.318  14.782  59.867  1.00  0.00     0.177 HD
ENDROOT
BRANCH   1  10
HETATM   10  C2  UNL     1      27.244  17.614  59.038  1.00  0.00     0.133 C 
HETATM   11  C1  UNL     1      27.704  18.685  59.967  1.00  0.00     0.027 C 
ENDBRANCH   1  10
BRANCH   8  12
HETATM   12  C5  UNL     1      24.610  15.045  61.973  1.00  0.00     0.158 C 
BRANCH  12  13
HETATM   13  C6  UNL     1      24.312  16.372  62.599  1.00  0.00     0.158 C 
BRANCH  13  14
HETATM   14  N5  UNL     1      25.313  16.788  63.539  1.00  0.00    -0.224 N 
ATOM     15  H5  UNL     1      26.212  16.308  63.525  1.00  0.00     0.177 HD
BRANCH  14  16
HETATM   16  C7  UNL     1      25.147  17.718  64.388  1.00  0.00     0.685 C 
HETATM   17  N6  UNL     1      26.078  17.773  65.371  1.00  0.00    -0.141 N 
HETATM   18  C8  UNL     1      26.109  18.492  66.514  1.00  0.00     0.341 C 
ATOM     19  H6  UNL     1      26.889  17.171  65.225  1.00  0.00     0.189 HD
HETATM   20  O1  UNL     1      27.208  18.630  67.103  1.00  0.00    -0.246 OA
HETATM   21  N7  UNL     1      25.054  19.092  67.097  1.00  0.00    -0.270 N 
HETATM   22  C9  UNL     1      23.866  19.449  66.538  1.00  0.00     0.318 C 
ATOM     23  H7  UNL     1      25.160  19.308  68.088  1.00  0.00     0.174 HD
HETATM   24  O2  UNL     1      23.007  19.930  67.297  1.00  0.00    -0.262 OA
HETATM   25  C10 UNL     1      23.523  19.328  65.212  1.00  0.00     0.328 C 
HETATM   26  O3  UNL     1      22.545  20.029  64.861  1.00  0.00    -0.261 OA
HETATM   27  N8  UNL     1      24.108  18.558  64.274  1.00  0.00    -0.151 N 
ATOM     28  H8  UNL     1      23.701  18.623  63.341  1.00  0.00     0.188 HD
ENDBRANCH  14  16
ENDBRANCH  13  14
ENDBRANCH  12  13
ENDBRANCH   8  12
TORSDOF 5
ENDMDL
