MODEL 1
REMARK VINA RESULT: -6.857022506      0.000      0.000
REMARK  8 active torsions:
REMARK  status: ('A' for Active; 'I' for Inactive)
REMARK    1  A    between atoms: C1_2  and  C2_3 
REMARK       I    between atoms: C1_2  and  N7_23 
REMARK    2  A    between atoms: C2_3  and  C3_4 
REMARK    3  A    between atoms: C3_4  and  N1_5 
REMARK    4  A    between atoms: N1_5  and  C4_7 
REMARK    5  A    between atoms: C8_19  and  N6_20 
REMARK    6  A    between atoms: N7_23  and  C11_25 
REMARK    7  A    between atoms: C11_25  and  C12_26 
REMARK    8  A    between atoms: C12_26  and  O2_27 
ROOT
HETATM    1  C4  UNL     1      26.688  15.326  60.942  1.00  0.00     0.145 A 
HETATM    2  N2  UNL     1      27.481  14.702  61.823  1.00  0.00    -0.283 N 
ATOM      3  H2  UNL     1      27.330  13.753  62.163  1.00  0.00     0.188 HD
HETATM    4  N3  UNL     1      28.484  15.478  62.193  1.00  0.00    -0.293 N 
ATOM      5  H3  UNL     1      29.222  15.233  62.853  1.00  0.00     0.187 HD
HETATM    6  C5  UNL     1      28.355  16.665  61.534  1.00  0.00     0.122 A 
HETATM    7  C6  UNL     1      27.230  16.583  60.743  1.00  0.00     0.107 A 
HETATM    8  N4  UNL     1      26.861  17.567  60.003  1.00  0.00    -0.369 N 
ATOM      9  H4  UNL     1      26.019  17.450  59.438  1.00  0.00     0.161 HD
HETATM   10  C7  UNL     1      27.563  18.829  59.921  1.00  0.00     0.245 A 
HETATM   11  N5  UNL     1      28.734  18.855  60.771  1.00  0.00    -0.358 N 
ATOM     12  H5  UNL     1      29.309  19.696  60.795  1.00  0.00     0.162 HD
HETATM   13  C8  UNL     1      29.100  17.760  61.562  1.00  0.00     0.131 A 
ENDROOT
BRANCH   1  14
HETATM   14  N1  UNL     1      25.627  14.845  60.388  1.00  0.00    -0.373 N 
ATOM     15  H1  UNL     1      25.729  14.214  59.594  1.00  0.00     0.161 HD
BRANCH  14  16
HETATM   16  C3  UNL     1      24.295  15.169  60.855  1.00  0.00     0.130 C 
BRANCH  16  17
HETATM   17  C2  UNL     1      24.206  15.189  62.350  1.00  0.00     0.122 C 
BRANCH  17  18
HETATM   18  C1  UNL     1      24.264  16.588  62.832  1.00  0.00     0.219 C 
HETATM   19  O1  UNL     1      23.443  17.429  62.384  1.00  0.00    -0.274 OA
HETATM   20  N7  UNL     1      25.229  17.012  63.796  1.00  0.00    -0.359 N 
ATOM     21  H7  UNL     1      25.904  16.346  64.172  1.00  0.00     0.162 HD
BRANCH  20  22
HETATM   22  C11 UNL     1      25.246  18.385  64.235  1.00  0.00     0.148 C 
BRANCH  22  23
HETATM   23  C12 UNL     1      26.260  19.215  63.514  1.00  0.00     0.183 C 
BRANCH  23  24
HETATM   24  O2  UNL     1      25.822  19.619  62.265  1.00  0.00    -0.399 OA
ATOM     25  H2  UNL     1      26.417  20.235  61.853  1.00  0.00     0.209 HD
ENDBRANCH  23  24
ENDBRANCH  22  23
ENDBRANCH  20  22
ENDBRANCH  17  18
ENDBRANCH  16  17
ENDBRANCH  14  16
ENDBRANCH   1  14
BRANCH  13  26
HETATM   26  N6  UNL     1      30.248  17.765  62.405  1.00  0.00    -0.362 N 
HETATM   27  C9  UNL     1      30.926  18.032  63.635  1.00  0.00     0.144 A 
HETATM   28  C10 UNL     1      31.677  17.435  62.521  1.00  0.00     0.144 A 
ENDBRANCH  13  26
TORSDOF 8
ENDMDL
MODEL 2
REMARK VINA RESULT: -6.818018276      1.438      1.680
REMARK  8 active torsions:
REMARK  status: ('A' for Active; 'I' for Inactive)
REMARK    1  A    between atoms: C1_2  and  C2_3 
REMARK       I    between atoms: C1_2  and  N7_23 
REMARK    2  A    between atoms: C2_3  and  C3_4 
REMARK    3  A    between atoms: C3_4  and  N1_5 
REMARK    4  A    between atoms: N1_5  and  C4_7 
REMARK    5  A    between atoms: C8_19  and  N6_20 
REMARK    6  A    between atoms: N7_23  and  C11_25 
REMARK    7  A    between atoms: C11_25  and  C12_26 
REMARK    8  A    between atoms: C12_26  and  O2_27 
ROOT
HETATM    1  C4  UNL     1      26.842  15.946  60.721  1.00  0.00     0.145 A 
HETATM    2  N2  UNL     1      27.794  15.059  61.033  1.00  0.00    -0.283 N 
ATOM      3  H2  UNL     1      27.703  14.049  60.915  1.00  0.00     0.188 HD
HETATM    4  N3  UNL     1      28.868  15.660  61.513  1.00  0.00    -0.293 N 
ATOM      5  H3  UNL     1      29.726  15.204  61.822  1.00  0.00     0.187 HD
HETATM    6  C5  UNL     1      28.621  17.001  61.523  1.00  0.00     0.122 A 
HETATM    7  C6  UNL     1      27.350  17.196  61.026  1.00  0.00     0.107 A 
HETATM    8  N4  UNL     1      26.848  18.374  60.919  1.00  0.00    -0.369 N 
ATOM      9  H4  UNL     1      25.903  18.458  60.546  1.00  0.00     0.161 HD
HETATM   10  C7  UNL     1      27.540  19.589  61.296  1.00  0.00     0.245 A 
HETATM   11  N5  UNL     1      28.866  19.321  61.808  1.00  0.00    -0.358 N 
ATOM     12  H5  UNL     1      29.449  20.104  62.105  1.00  0.00     0.162 HD
HETATM   13  C8  UNL     1      29.375  18.021  61.908  1.00  0.00     0.131 A 
ENDROOT
BRANCH   1  14
HETATM   14  N1  UNL     1      25.677  15.684  60.231  1.00  0.00    -0.373 N 
ATOM     15  H1  UNL     1      25.540  15.756  59.223  1.00  0.00     0.161 HD
BRANCH  14  16
HETATM   16  C3  UNL     1      24.558  15.292  61.062  1.00  0.00     0.130 C 
BRANCH  16  17
HETATM   17  C2  UNL     1      23.728  16.464  61.488  1.00  0.00     0.122 C 
BRANCH  17  18
HETATM   18  C1  UNL     1      24.125  16.884  62.850  1.00  0.00     0.219 C 
HETATM   19  O1  UNL     1      25.252  16.550  63.296  1.00  0.00    -0.274 OA
HETATM   20  N7  UNL     1      23.259  17.662  63.679  1.00  0.00    -0.359 N 
ATOM     21  H7  UNL     1      22.340  17.943  63.337  1.00  0.00     0.162 HD
BRANCH  20  22
HETATM   22  C11 UNL     1      23.689  18.048  65.000  1.00  0.00     0.148 C 
BRANCH  22  23
HETATM   23  C12 UNL     1      23.453  19.496  65.289  1.00  0.00     0.183 C 
BRANCH  23  24
HETATM   24  O2  UNL     1      22.255  19.952  64.768  1.00  0.00    -0.399 OA
ATOM     25  H2  UNL     1      22.210  20.901  64.733  1.00  0.00     0.209 HD
ENDBRANCH  23  24
ENDBRANCH  22  23
ENDBRANCH  20  22
ENDBRANCH  17  18
ENDBRANCH  16  17
ENDBRANCH  14  16
ENDBRANCH   1  14
BRANCH  13  26
HETATM   26  N6  UNL     1      30.677  17.737  62.408  1.00  0.00    -0.362 N 
HETATM   27  C9  UNL     1      32.039  17.326  62.261  1.00  0.00     0.144 A 
HETATM   28  C10 UNL     1      31.544  17.690  63.596  1.00  0.00     0.144 A 
ENDBRANCH  13  26
TORSDOF 8
ENDMDL
MODEL 3
REMARK VINA RESULT: -6.773221545      2.482      4.704
REMARK  8 active torsions:
REMARK  status: ('A' for Active; 'I' for Inactive)
REMARK    1  A    between atoms: C1_2  and  C2_3 
REMARK       I    between atoms: C1_2  and  N7_23 
REMARK    2  A    between atoms: C2_3  and  C3_4 
REMARK    3  A    between atoms: C3_4  and  N1_5 
REMARK    4  A    between atoms: N1_5  and  C4_7 
REMARK    5  A    between atoms: C8_19  and  N6_20 
REMARK    6  A    between atoms: N7_23  and  C11_25 
REMARK    7  A    between atoms: C11_25  and  C12_26 
REMARK    8  A    between atoms: C12_26  and  O2_27 
ROOT
HETATM    1  C4  UNL     1      27.108  19.534  61.626  1.00  0.00     0.145 A 
HETATM    2  N2  UNL     1      25.964  19.168  62.218  1.00  0.00    -0.283 N 
ATOM      3  H2  UNL     1      25.124  18.876  61.720  1.00  0.00     0.188 HD
HETATM    4  N3  UNL     1      26.067  19.235  63.534  1.00  0.00    -0.293 N 
ATOM      5  H3  UNL     1      25.335  19.008  64.207  1.00  0.00     0.187 HD
HETATM    6  C5  UNL     1      27.328  19.662  63.830  1.00  0.00     0.122 A 
HETATM    7  C6  UNL     1      27.994  19.853  62.638  1.00  0.00     0.107 A 
HETATM    8  N4  UNL     1      29.213  20.259  62.613  1.00  0.00    -0.369 N 
ATOM      9  H4  UNL     1      29.656  20.383  61.702  1.00  0.00     0.161 HD
HETATM   10  C7  UNL     1      29.997  20.549  63.794  1.00  0.00     0.245 A 
HETATM   11  N5  UNL     1      29.246  20.330  65.011  1.00  0.00    -0.358 N 
ATOM     12  H5  UNL     1      29.698  20.502  65.909  1.00  0.00     0.162 HD
HETATM   13  C8  UNL     1      27.919  19.887  64.994  1.00  0.00     0.131 A 
ENDROOT
BRANCH   1  14
HETATM   14  N1  UNL     1      27.336  19.578  60.356  1.00  0.00    -0.373 N 
ATOM     15  H1  UNL     1      27.024  20.393  59.829  1.00  0.00     0.161 HD
BRANCH  14  16
HETATM   16  C3  UNL     1      28.020  18.511  59.655  1.00  0.00     0.130 C 
BRANCH  16  17
HETATM   17  C2  UNL     1      27.074  17.633  58.896  1.00  0.00     0.122 C 
BRANCH  17  18
HETATM   18  C1  UNL     1      26.530  16.592  59.797  1.00  0.00     0.219 C 
HETATM   19  O1  UNL     1      27.300  15.710  60.255  1.00  0.00    -0.274 OA
HETATM   20  N7  UNL     1      25.149  16.560  60.162  1.00  0.00    -0.359 N 
ATOM     21  H7  UNL     1      24.508  17.266  59.800  1.00  0.00     0.162 HD
BRANCH  20  22
HETATM   22  C11 UNL     1      24.666  15.526  61.043  1.00  0.00     0.148 C 
BRANCH  22  23
HETATM   23  C12 UNL     1      24.083  16.067  62.309  1.00  0.00     0.183 C 
BRANCH  23  24
HETATM   24  O2  UNL     1      23.687  17.388  62.189  1.00  0.00    -0.399 OA
ATOM     25  H2  UNL     1      24.422  17.979  62.073  1.00  0.00     0.209 HD
ENDBRANCH  23  24
ENDBRANCH  22  23
ENDBRANCH  20  22
ENDBRANCH  17  18
ENDBRANCH  16  17
ENDBRANCH  14  16
ENDBRANCH   1  14
BRANCH  13  26
HETATM   26  N6  UNL     1      27.162  19.665  66.179  1.00  0.00    -0.362 N 
HETATM   27  C9  UNL     1      26.560  18.828  67.170  1.00  0.00     0.144 A 
HETATM   28  C10 UNL     1      26.418  20.287  67.286  1.00  0.00     0.144 A 
ENDBRANCH  13  26
TORSDOF 8
ENDMDL
MODEL 4
REMARK VINA RESULT: -6.738559119      2.642      4.980
REMARK  8 active torsions:
REMARK  status: ('A' for Active; 'I' for Inactive)
REMARK    1  A    between atoms: C1_2  and  C2_3 
REMARK       I    between atoms: C1_2  and  N7_23 
REMARK    2  A    between atoms: C2_3  and  C3_4 
REMARK    3  A    between atoms: C3_4  and  N1_5 
REMARK    4  A    between atoms: N1_5  and  C4_7 
REMARK    5  A    between atoms: C8_19  and  N6_20 
REMARK    6  A    between atoms: N7_23  and  C11_25 
REMARK    7  A    between atoms: C11_25  and  C12_26 
REMARK    8  A    between atoms: C12_26  and  O2_27 
ROOT
HETATM    1  C4  UNL     1      27.082  19.444  61.560  1.00  0.00     0.145 A 
HETATM    2  N2  UNL     1      25.918  19.104  62.127  1.00  0.00    -0.283 N 
ATOM      3  H2  UNL     1      25.098  18.783  61.612  1.00  0.00     0.188 HD
HETATM    4  N3  UNL     1      25.970  19.238  63.440  1.00  0.00    -0.293 N 
ATOM      5  H3  UNL     1      25.214  19.043  64.096  1.00  0.00     0.187 HD
HETATM    6  C5  UNL     1      27.217  19.685  63.761  1.00  0.00     0.122 A 
HETATM    7  C6  UNL     1      27.928  19.819  62.588  1.00  0.00     0.107 A 
HETATM    8  N4  UNL     1      29.147  20.228  62.588  1.00  0.00    -0.369 N 
ATOM      9  H4  UNL     1      29.624  20.308  61.690  1.00  0.00     0.161 HD
HETATM   10  C7  UNL     1      29.884  20.582  63.782  1.00  0.00     0.245 A 
HETATM   11  N5  UNL     1      29.088  20.421  64.979  1.00  0.00    -0.358 N 
ATOM     12  H5  UNL     1      29.505  20.641  65.883  1.00  0.00     0.162 HD
HETATM   13  C8  UNL     1      27.763  19.972  64.934  1.00  0.00     0.131 A 
ENDROOT
BRANCH   1  14
HETATM   14  N1  UNL     1      27.358  19.424  60.299  1.00  0.00    -0.373 N 
ATOM     15  H1  UNL     1      27.189  20.264  59.746  1.00  0.00     0.161 HD
BRANCH  14  16
HETATM   16  C3  UNL     1      27.900  18.253  59.643  1.00  0.00     0.130 C 
BRANCH  16  17
HETATM   17  C2  UNL     1      26.829  17.373  59.077  1.00  0.00     0.122 C 
BRANCH  17  18
HETATM   18  C1  UNL     1      26.643  16.192  59.948  1.00  0.00     0.219 C 
HETATM   19  O1  UNL     1      27.652  15.564  60.360  1.00  0.00    -0.274 OA
HETATM   20  N7  UNL     1      25.344  15.741  60.337  1.00  0.00    -0.359 N 
ATOM     21  H7  UNL     1      24.513  16.236  60.014  1.00  0.00     0.162 HD
BRANCH  20  22
HETATM   22  C11 UNL     1      25.213  14.585  61.189  1.00  0.00     0.148 C 
BRANCH  22  23
HETATM   23  C12 UNL     1      23.859  14.472  61.813  1.00  0.00     0.183 C 
BRANCH  23  24
HETATM   24  O2  UNL     1      23.510  13.161  62.089  1.00  0.00    -0.399 OA
ATOM     25  H2  UNL     1      22.799  13.099  62.716  1.00  0.00     0.209 HD
ENDBRANCH  23  24
ENDBRANCH  22  23
ENDBRANCH  20  22
ENDBRANCH  17  18
ENDBRANCH  16  17
ENDBRANCH  14  16
ENDBRANCH   1  14
BRANCH  13  26
HETATM   26  N6  UNL     1      26.963  19.807  66.100  1.00  0.00    -0.362 N 
HETATM   27  C9  UNL     1      26.351  19.022  67.127  1.00  0.00     0.144 A 
HETATM   28  C10 UNL     1      26.142  20.477  67.121  1.00  0.00     0.144 A 
ENDBRANCH  13  26
TORSDOF 8
ENDMDL
MODEL 5
REMARK VINA RESULT: -6.611766498      2.573      4.487
REMARK  8 active torsions:
REMARK  status: ('A' for Active; 'I' for Inactive)
REMARK    1  A    between atoms: C1_2  and  C2_3 
REMARK       I    between atoms: C1_2  and  N7_23 
REMARK    2  A    between atoms: C2_3  and  C3_4 
REMARK    3  A    between atoms: C3_4  and  N1_5 
REMARK    4  A    between atoms: N1_5  and  C4_7 
REMARK    5  A    between atoms: C8_19  and  N6_20 
REMARK    6  A    between atoms: N7_23  and  C11_25 
REMARK    7  A    between atoms: C11_25  and  C12_26 
REMARK    8  A    between atoms: C12_26  and  O2_27 
ROOT
HETATM    1  C4  UNL     1      24.046  17.511  63.584  1.00  0.00     0.145 A 
HETATM    2  N2  UNL     1      23.742  16.223  63.385  1.00  0.00    -0.283 N 
ATOM      3  H2  UNL     1      22.954  15.743  63.820  1.00  0.00     0.188 HD
HETATM    4  N3  UNL     1      24.596  15.654  62.553  1.00  0.00    -0.293 N 
ATOM      5  H3  UNL     1      24.578  14.682  62.244  1.00  0.00     0.187 HD
HETATM    6  C5  UNL     1      25.505  16.600  62.182  1.00  0.00     0.122 A 
HETATM    7  C6  UNL     1      25.171  17.774  62.823  1.00  0.00     0.107 A 
HETATM    8  N4  UNL     1      25.863  18.844  62.657  1.00  0.00    -0.369 N 
ATOM      9  H4  UNL     1      25.570  19.684  63.157  1.00  0.00     0.161 HD
HETATM   10  C7  UNL     1      27.030  18.934  61.807  1.00  0.00     0.245 A 
HETATM   11  N5  UNL     1      27.330  17.674  61.163  1.00  0.00    -0.358 N 
ATOM     12  H5  UNL     1      28.134  17.616  60.538  1.00  0.00     0.162 HD
HETATM   13  C8  UNL     1      26.550  16.530  61.371  1.00  0.00     0.131 A 
ENDROOT
BRANCH   1  14
HETATM   14  N1  UNL     1      23.412  18.344  64.338  1.00  0.00    -0.373 N 
ATOM     15  H1  UNL     1      22.776  19.014  63.905  1.00  0.00     0.161 HD
BRANCH  14  16
HETATM   16  C3  UNL     1      23.570  18.361  65.777  1.00  0.00     0.130 C 
BRANCH  16  17
HETATM   17  C2  UNL     1      23.778  19.746  66.309  1.00  0.00     0.122 C 
BRANCH  17  18
HETATM   18  C1  UNL     1      25.043  20.298  65.776  1.00  0.00     0.219 C 
HETATM   19  O1  UNL     1      25.018  21.004  64.735  1.00  0.00    -0.274 OA
HETATM   20  N7  UNL     1      26.299  20.050  66.411  1.00  0.00    -0.359 N 
ATOM     21  H7  UNL     1      26.342  19.480  67.255  1.00  0.00     0.162 HD
BRANCH  20  22
HETATM   22  C11 UNL     1      27.505  20.610  65.854  1.00  0.00     0.148 C 
BRANCH  22  23
HETATM   23  C12 UNL     1      28.016  21.782  66.631  1.00  0.00     0.183 C 
BRANCH  23  24
HETATM   24  O2  UNL     1      28.380  22.840  65.816  1.00  0.00    -0.399 OA
ATOM     25  H2  UNL     1      28.322  23.678  66.261  1.00  0.00     0.209 HD
ENDBRANCH  23  24
ENDBRANCH  22  23
ENDBRANCH  20  22
ENDBRANCH  17  18
ENDBRANCH  16  17
ENDBRANCH  14  16
ENDBRANCH   1  14
BRANCH  13  26
HETATM   26  N6  UNL     1      26.828  15.281  60.747  1.00  0.00    -0.362 N 
HETATM   27  C9  UNL     1      26.721  14.337  59.678  1.00  0.00     0.144 A 
HETATM   28  C10 UNL     1      27.518  13.987  60.862  1.00  0.00     0.144 A 
ENDBRANCH  13  26
TORSDOF 8
ENDMDL
