MODEL 1
REMARK VINA RESULT: -7.606750850      0.000      0.000
REMARK  5 active torsions:
REMARK  status: ('A' for Active; 'I' for Inactive)
REMARK    1  A    between atoms: C1_2  and  C2_4 
REMARK    2  A    between atoms: C2_4  and  N2_5 
REMARK       I    between atoms: N2_5  and  C3_7 
REMARK    3  A    between atoms: C3_7  and  C4_9 
REMARK    4  A    between atoms: C4_9  and  N3_10 
REMARK       I    between atoms: N3_10  and  C5_12 
REMARK    5  A    between atoms: C5_12  and  C6_14 
REMARK       I    between atoms: C6_14  and  N4_16 
ROOT
HETATM    1  N2  UNL     1      25.625  15.974  63.063  1.00  0.00    -0.320 N 
ATOM      2  H2  UNL     1      24.871  15.866  63.741  1.00  0.00     0.165 HD
HETATM    3  C3  UNL     1      26.614  16.894  63.373  1.00  0.00     0.237 C 
HETATM    4  O2  UNL     1      27.573  17.069  62.575  1.00  0.00    -0.272 OA
ENDROOT
BRANCH   3   5
HETATM    5  C4  UNL     1      26.656  17.713  64.589  1.00  0.00     0.225 C 
BRANCH   5   6
HETATM    6  N3  UNL     1      25.421  18.024  65.216  1.00  0.00    -0.344 N 
HETATM    7  C5  UNL     1      24.803  19.261  64.920  1.00  0.00     0.310 C 
HETATM    8  O3  UNL     1      25.337  20.059  64.123  1.00  0.00    -0.262 OA
ATOM      9  H3  UNL     1      24.988  17.369  65.867  1.00  0.00     0.163 HD
BRANCH   7  10
HETATM   10  C6  UNL     1      23.542  19.629  65.532  1.00  0.00     0.315 C 
HETATM   11  O4  UNL     1      22.510  19.845  64.837  1.00  0.00    -0.262 OA
HETATM   12  N4  UNL     1      23.409  19.763  66.941  1.00  0.00    -0.295 N 
HETATM   13  C7  UNL     1      24.028  20.630  67.635  1.00  0.00     0.203 C 
ATOM     14  H4  UNL     1      22.778  19.124  67.425  1.00  0.00     0.171 HD
HETATM   15  N5  UNL     1      24.934  21.579  67.099  1.00  0.00    -0.066 NA
HETATM   16  N6  UNL     1      23.792  20.643  69.045  1.00  0.00    -0.066 NA
ENDBRANCH   7  10
ENDBRANCH   5   6
ENDBRANCH   3   5
BRANCH   1  17
HETATM   17  C2  UNL     1      25.550  15.154  61.881  1.00  0.00     0.278 C 
HETATM   18  C8  UNL     1      26.486  14.028  61.804  1.00  0.00     0.073 C 
HETATM   19  C9  UNL     1      26.868  13.981  60.320  1.00  0.00     0.032 C 
HETATM   20  C10 UNL     1      26.806  15.411  59.934  1.00  0.00     0.236 C 
HETATM   21  N7  UNL     1      25.765  15.984  60.727  1.00  0.00    -0.040 N 
ATOM     22  H72 UNL     1      24.910  16.137  60.193  1.00  0.00     0.280 HD
ATOM     23  H71 UNL     1      25.954  16.955  60.975  1.00  0.00     0.280 HD
BRANCH  17  24
HETATM   24  C1  UNL     1      24.145  14.626  61.741  1.00  0.00     0.288 C 
HETATM   25  N1  UNL     1      23.580  13.712  62.666  1.00  0.00    -0.058 NA
HETATM   26  O1  UNL     1      23.431  14.992  60.782  1.00  0.00    -0.272 OA
ENDBRANCH  17  24
ENDBRANCH   1  17
TORSDOF 5
ENDMDL
MODEL 2
REMARK VINA RESULT: -7.581261761      2.209      3.279
REMARK  5 active torsions:
REMARK  status: ('A' for Active; 'I' for Inactive)
REMARK    1  A    between atoms: C1_2  and  C2_4 
REMARK    2  A    between atoms: C2_4  and  N2_5 
REMARK       I    between atoms: N2_5  and  C3_7 
REMARK    3  A    between atoms: C3_7  and  C4_9 
REMARK    4  A    between atoms: C4_9  and  N3_10 
REMARK       I    between atoms: N3_10  and  C5_12 
REMARK    5  A    between atoms: C5_12  and  C6_14 
REMARK       I    between atoms: C6_14  and  N4_16 
ROOT
HETATM    1  N2  UNL     1      25.104  15.911  63.038  1.00  0.00    -0.320 N 
ATOM      2  H2  UNL     1      25.664  15.674  63.857  1.00  0.00     0.165 HD
HETATM    3  C3  UNL     1      24.282  17.022  63.148  1.00  0.00     0.237 C 
HETATM    4  O2  UNL     1      23.568  17.366  62.169  1.00  0.00    -0.272 OA
ENDROOT
BRANCH   3   5
HETATM    5  C4  UNL     1      24.162  17.871  64.339  1.00  0.00     0.225 C 
BRANCH   5   6
HETATM    6  N3  UNL     1      25.360  18.348  64.931  1.00  0.00    -0.344 N 
HETATM    7  C5  UNL     1      25.679  19.721  64.806  1.00  0.00     0.310 C 
HETATM    8  O3  UNL     1      24.917  20.491  64.186  1.00  0.00    -0.262 OA
ATOM      9  H3  UNL     1      25.979  17.715  65.437  1.00  0.00     0.163 HD
BRANCH   7  10
HETATM   10  C6  UNL     1      26.889  20.261  65.390  1.00  0.00     0.315 C 
HETATM   11  O4  UNL     1      26.857  21.241  66.187  1.00  0.00    -0.262 OA
HETATM   12  N4  UNL     1      28.167  19.713  65.096  1.00  0.00    -0.295 N 
HETATM   13  C7  UNL     1      28.694  19.718  63.938  1.00  0.00     0.203 C 
ATOM     14  H4  UNL     1      28.694  19.290  65.860  1.00  0.00     0.171 HD
HETATM   15  N5  UNL     1      28.079  20.268  62.786  1.00  0.00    -0.066 NA
HETATM   16  N6  UNL     1      29.988  19.127  63.796  1.00  0.00    -0.066 NA
ENDBRANCH   7  10
ENDBRANCH   5   6
ENDBRANCH   3   5
BRANCH   1  17
HETATM   17  C2  UNL     1      25.247  15.055  61.889  1.00  0.00     0.278 C 
HETATM   18  C8  UNL     1      26.331  14.069  61.937  1.00  0.00     0.073 C 
HETATM   19  C9  UNL     1      26.846  14.033  60.494  1.00  0.00     0.032 C 
HETATM   20  C10 UNL     1      26.624  15.428  60.046  1.00  0.00     0.236 C 
HETATM   21  N7  UNL     1      25.448  15.873  60.724  1.00  0.00    -0.040 N 
ATOM     22  H72 UNL     1      24.631  15.890  60.115  1.00  0.00     0.280 HD
ATOM     23  H71 UNL     1      25.480  16.868  60.948  1.00  0.00     0.280 HD
BRANCH  17  24
HETATM   24  C1  UNL     1      23.945  14.332  61.653  1.00  0.00     0.288 C 
HETATM   25  N1  UNL     1      23.373  13.460  62.615  1.00  0.00    -0.058 NA
HETATM   26  O1  UNL     1      23.327  14.490  60.578  1.00  0.00    -0.272 OA
ENDBRANCH  17  24
ENDBRANCH   1  17
TORSDOF 5
ENDMDL
MODEL 3
REMARK VINA RESULT: -7.467071716      2.109      7.422
REMARK  5 active torsions:
REMARK  status: ('A' for Active; 'I' for Inactive)
REMARK    1  A    between atoms: C1_2  and  C2_4 
REMARK    2  A    between atoms: C2_4  and  N2_5 
REMARK       I    between atoms: N2_5  and  C3_7 
REMARK    3  A    between atoms: C3_7  and  C4_9 
REMARK    4  A    between atoms: C4_9  and  N3_10 
REMARK       I    between atoms: N3_10  and  C5_12 
REMARK    5  A    between atoms: C5_12  and  C6_14 
REMARK       I    between atoms: C6_14  and  N4_16 
ROOT
HETATM    1  N2  UNL     1      24.902  18.163  66.325  1.00  0.00    -0.320 N 
ATOM      2  H2  UNL     1      25.915  18.056  66.373  1.00  0.00     0.165 HD
HETATM    3  C3  UNL     1      24.323  18.046  65.070  1.00  0.00     0.237 C 
HETATM    4  O2  UNL     1      23.075  18.166  64.948  1.00  0.00    -0.272 OA
ENDROOT
BRANCH   3   5
HETATM    5  C4  UNL     1      25.052  17.784  63.824  1.00  0.00     0.225 C 
BRANCH   5   6
HETATM    6  N3  UNL     1      25.066  16.451  63.338  1.00  0.00    -0.344 N 
HETATM    7  C5  UNL     1      24.206  16.110  62.268  1.00  0.00     0.310 C 
HETATM    8  O3  UNL     1      23.453  16.969  61.765  1.00  0.00    -0.262 OA
ATOM      9  H3  UNL     1      25.683  15.753  63.751  1.00  0.00     0.163 HD
BRANCH   7  10
HETATM   10  C6  UNL     1      24.180  14.764  61.733  1.00  0.00     0.315 C 
HETATM   11  O4  UNL     1      23.478  13.857  62.263  1.00  0.00    -0.262 OA
HETATM   12  N4  UNL     1      24.940  14.402  60.588  1.00  0.00    -0.295 N 
HETATM   13  C7  UNL     1      26.211  14.422  60.542  1.00  0.00     0.203 C 
ATOM     14  H4  UNL     1      24.436  14.109  59.751  1.00  0.00     0.171 HD
HETATM   15  N5  UNL     1      27.040  14.809  61.625  1.00  0.00    -0.066 NA
HETATM   16  N6  UNL     1      26.837  14.031  59.318  1.00  0.00    -0.066 NA
ENDBRANCH   7  10
ENDBRANCH   5   6
ENDBRANCH   3   5
BRANCH   1  17
HETATM   17  C2  UNL     1      24.220  18.421  67.567  1.00  0.00     0.278 C 
HETATM   18  C8  UNL     1      25.058  18.511  68.768  1.00  0.00     0.073 C 
HETATM   19  C9  UNL     1      24.199  17.852  69.853  1.00  0.00     0.032 C 
HETATM   20  C10 UNL     1      23.454  16.826  69.085  1.00  0.00     0.236 C 
HETATM   21  N7  UNL     1      23.248  17.385  67.787  1.00  0.00    -0.040 N 
ATOM     22  H72 UNL     1      22.292  17.714  67.652  1.00  0.00     0.280 HD
ATOM     23  H71 UNL     1      23.260  16.678  67.051  1.00  0.00     0.280 HD
BRANCH  17  24
HETATM   24  C1  UNL     1      23.427  19.696  67.434  1.00  0.00     0.288 C 
HETATM   25  N1  UNL     1      24.038  20.948  67.170  1.00  0.00    -0.058 NA
HETATM   26  O1  UNL     1      22.183  19.675  67.557  1.00  0.00    -0.272 OA
ENDBRANCH  17  24
ENDBRANCH   1  17
TORSDOF 5
ENDMDL
MODEL 4
REMARK VINA RESULT: -7.427905300      1.948      6.549
REMARK  5 active torsions:
REMARK  status: ('A' for Active; 'I' for Inactive)
REMARK    1  A    between atoms: C1_2  and  C2_4 
REMARK    2  A    between atoms: C2_4  and  N2_5 
REMARK       I    between atoms: N2_5  and  C3_7 
REMARK    3  A    between atoms: C3_7  and  C4_9 
REMARK    4  A    between atoms: C4_9  and  N3_10 
REMARK       I    between atoms: N3_10  and  C5_12 
REMARK    5  A    between atoms: C5_12  and  C6_14 
REMARK       I    between atoms: C6_14  and  N4_16 
ROOT
HETATM    1  N2  UNL     1      25.737  18.144  64.249  1.00  0.00    -0.320 N 
ATOM      2  H2  UNL     1      25.967  17.161  64.395  1.00  0.00     0.165 HD
HETATM    3  C3  UNL     1      26.246  18.737  63.104  1.00  0.00     0.237 C 
HETATM    4  O2  UNL     1      25.993  19.949  62.868  1.00  0.00    -0.272 OA
ENDROOT
BRANCH   3   5
HETATM    5  C4  UNL     1      27.080  18.065  62.102  1.00  0.00     0.225 C 
BRANCH   5   6
HETATM    6  N3  UNL     1      26.550  16.908  61.473  1.00  0.00    -0.344 N 
HETATM    7  C5  UNL     1      26.997  15.638  61.903  1.00  0.00     0.310 C 
HETATM    8  O3  UNL     1      27.841  15.542  62.818  1.00  0.00    -0.262 OA
ATOM      9  H3  UNL     1      25.861  16.992  60.726  1.00  0.00     0.163 HD
BRANCH   7  10
HETATM   10  C6  UNL     1      26.490  14.424  61.295  1.00  0.00     0.315 C 
HETATM   11  O4  UNL     1      27.002  13.950  60.242  1.00  0.00    -0.262 OA
HETATM   12  N4  UNL     1      25.395  13.712  61.856  1.00  0.00    -0.295 N 
HETATM   13  C7  UNL     1      24.218  14.183  61.958  1.00  0.00     0.203 C 
ATOM     14  H4  UNL     1      25.563  12.766  62.196  1.00  0.00     0.171 HD
HETATM   15  N5  UNL     1      23.839  15.480  61.530  1.00  0.00    -0.066 NA
HETATM   16  N6  UNL     1      23.219  13.347  62.546  1.00  0.00    -0.066 NA
ENDBRANCH   7  10
ENDBRANCH   5   6
ENDBRANCH   3   5
BRANCH   1  17
HETATM   17  C2  UNL     1      24.918  18.770  65.253  1.00  0.00     0.278 C 
HETATM   18  C8  UNL     1      25.307  20.122  65.667  1.00  0.00     0.073 C 
HETATM   19  C9  UNL     1      25.008  20.136  67.171  1.00  0.00     0.032 C 
HETATM   20  C10 UNL     1      25.273  18.730  67.557  1.00  0.00     0.236 C 
HETATM   21  N7  UNL     1      24.904  17.939  66.426  1.00  0.00    -0.040 N 
ATOM     22  H72 UNL     1      24.010  17.467  66.557  1.00  0.00     0.280 HD
ATOM     23  H71 UNL     1      25.489  17.110  66.322  1.00  0.00     0.280 HD
BRANCH  17  24
HETATM   24  C1  UNL     1      23.490  18.805  64.767  1.00  0.00     0.288 C 
HETATM   25  N1  UNL     1      22.637  19.916  64.990  1.00  0.00    -0.058 NA
HETATM   26  O1  UNL     1      23.018  17.830  64.143  1.00  0.00    -0.272 OA
ENDBRANCH  17  24
ENDBRANCH   1  17
TORSDOF 5
ENDMDL
MODEL 5
REMARK VINA RESULT: -7.421340649      2.354      3.401
REMARK  5 active torsions:
REMARK  status: ('A' for Active; 'I' for Inactive)
REMARK    1  A    between atoms: C1_2  and  C2_4 
REMARK    2  A    between atoms: C2_4  and  N2_5 
REMARK       I    between atoms: N2_5  and  C3_7 
REMARK    3  A    between atoms: C3_7  and  C4_9 
REMARK    4  A    between atoms: C4_9  and  N3_10 
REMARK       I    between atoms: N3_10  and  C5_12 
REMARK    5  A    between atoms: C5_12  and  C6_14 
REMARK       I    between atoms: C6_14  and  N4_16 
ROOT
HETATM    1  N2  UNL     1      25.957  17.339  61.468  1.00  0.00    -0.320 N 
ATOM      2  H2  UNL     1      25.990  18.141  62.098  1.00  0.00     0.165 HD
HETATM    3  C3  UNL     1      24.930  16.430  61.673  1.00  0.00     0.237 C 
HETATM    4  O2  UNL     1      24.837  15.421  60.926  1.00  0.00    -0.272 OA
ENDROOT
BRANCH   3   5
HETATM    5  C4  UNL     1      23.903  16.535  62.715  1.00  0.00     0.225 C 
BRANCH   5   6
HETATM    6  N3  UNL     1      24.300  17.032  63.984  1.00  0.00    -0.344 N 
HETATM    7  C5  UNL     1      23.500  18.018  64.607  1.00  0.00     0.310 C 
HETATM    8  O3  UNL     1      22.467  18.438  64.048  1.00  0.00    -0.262 OA
ATOM      9  H3  UNL     1      25.145  16.685  64.437  1.00  0.00     0.163 HD
BRANCH   7  10
HETATM   10  C6  UNL     1      23.859  18.559  65.901  1.00  0.00     0.315 C 
HETATM   11  O4  UNL     1      23.103  18.425  66.905  1.00  0.00    -0.262 OA
HETATM   12  N4  UNL     1      25.077  19.265  66.102  1.00  0.00    -0.295 N 
HETATM   13  C7  UNL     1      25.363  20.366  65.534  1.00  0.00     0.203 C 
ATOM     14  H4  UNL     1      25.763  18.863  66.741  1.00  0.00     0.171 HD
HETATM   15  N5  UNL     1      24.509  21.038  64.624  1.00  0.00    -0.066 NA
HETATM   16  N6  UNL     1      26.629  20.958  65.835  1.00  0.00    -0.066 NA
ENDBRANCH   7  10
ENDBRANCH   5   6
ENDBRANCH   3   5
BRANCH   1  17
HETATM   17  C2  UNL     1      26.982  17.269  60.459  1.00  0.00     0.278 C 
HETATM   18  C8  UNL     1      27.651  18.528  60.115  1.00  0.00     0.073 C 
HETATM   19  C9  UNL     1      27.876  18.411  58.603  1.00  0.00     0.032 C 
HETATM   20  C10 UNL     1      26.702  17.615  58.172  1.00  0.00     0.236 C 
HETATM   21  N7  UNL     1      26.412  16.731  59.255  1.00  0.00    -0.040 N 
ATOM     22  H72 UNL     1      26.720  15.776  59.071  1.00  0.00     0.280 HD
ATOM     23  H71 UNL     1      25.413  16.542  59.348  1.00  0.00     0.280 HD
BRANCH  17  24
HETATM   24  C1  UNL     1      28.026  16.270  60.893  1.00  0.00     0.288 C 
HETATM   25  N1  UNL     1      29.015  16.574  61.862  1.00  0.00    -0.058 NA
HETATM   26  O1  UNL     1      28.040  15.124  60.393  1.00  0.00    -0.272 OA
ENDBRANCH  17  24
ENDBRANCH   1  17
TORSDOF 5
ENDMDL
