MODEL 1
REMARK VINA RESULT: -8.291370611      0.000      0.000
REMARK  4 active torsions:
REMARK  status: ('A' for Active; 'I' for Inactive)
REMARK       I    between atoms: C1_4  and  N3_6 
REMARK    1  A    between atoms: N3_6  and  C2_8 
REMARK    2  A    between atoms: C2_8  and  C3_9 
REMARK    3  A    between atoms: C3_9  and  N4_10 
REMARK       I    between atoms: N4_10  and  C4_12 
REMARK    4  A    between atoms: C4_12  and  C5_14 
ROOT
HETATM    1  C5  UNL     1      27.294  18.167  61.382  1.00  0.00     0.174 C 
HETATM    2  N5  UNL     1      27.133  18.173  60.104  1.00  0.00    -0.306 N 
ATOM      3  H5  UNL     1      27.269  18.987  59.504  1.00  0.00     0.170 HD
HETATM    4  C6  UNL     1      26.738  16.887  59.645  1.00  0.00     0.267 C 
HETATM    5  O2  UNL     1      26.763  16.545  58.443  1.00  0.00    -0.269 OA
HETATM    6  C7  UNL     1      26.337  16.149  60.826  1.00  0.00     0.235 C 
HETATM    7  N6  UNL     1      27.021  16.867  61.876  1.00  0.00    -0.342 N 
ATOM      8  H6  UNL     1      27.263  16.506  62.799  1.00  0.00     0.163 HD
HETATM    9  C8  UNL     1      24.914  15.976  61.038  1.00  0.00     0.045 C 
HETATM   10  N7  UNL     1      23.975  16.682  60.559  1.00  0.00    -0.401 N 
ATOM     11  H71 UNL     1      22.973  16.560  60.708  1.00  0.00     0.155 HD
ATOM     12  H72 UNL     1      24.093  17.487  59.943  1.00  0.00     0.155 HD
HETATM   13  C9  UNL     1      24.743  14.806  61.933  1.00  0.00     0.178 C 
HETATM   14  N8  UNL     1      26.007  14.074  61.802  1.00  0.00    -0.353 N 
ATOM     15  H8  UNL     1      26.249  13.218  62.299  1.00  0.00     0.162 HD
HETATM   16  C10 UNL     1      26.842  14.752  60.870  1.00  0.00     0.262 C 
HETATM   17  O3  UNL     1      27.790  14.282  60.228  1.00  0.00    -0.270 OA
ENDROOT
BRANCH   1  18
HETATM   18  C4  UNL     1      27.706  19.351  62.183  1.00  0.00     0.285 C 
HETATM   19  N4  UNL     1      29.067  19.666  62.354  1.00  0.00    -0.353 N 
ATOM     20  H4  UNL     1      29.771  19.071  61.916  1.00  0.00     0.162 HD
HETATM   21  O1  UNL     1      26.842  20.087  62.716  1.00  0.00    -0.264 OA
BRANCH  19  22
HETATM   22  C3  UNL     1      29.501  20.802  63.128  1.00  0.00     0.142 C 
BRANCH  22  23
HETATM   23  C2  UNL     1      29.745  20.471  64.557  1.00  0.00     0.142 C 
BRANCH  23  24
HETATM   24  N3  UNL     1      29.920  21.689  65.350  1.00  0.00    -0.363 N 
HETATM   25  C1  UNL     1      28.943  22.179  66.228  1.00  0.00     0.181 C 
HETATM   26  N1  UNL     1      29.252  22.988  67.174  1.00  0.00    -0.374 N 
HETATM   27  N2  UNL     1      27.591  21.780  66.077  1.00  0.00    -0.064 NA
ATOM     28  H12 UNL     1      28.541  23.344  67.813  1.00  0.00     0.158 HD
ATOM     29  H11 UNL     1      30.224  23.274  67.283  1.00  0.00     0.158 HD
ATOM     30  H3  UNL     1      30.793  22.207  65.258  1.00  0.00     0.162 HD
ENDBRANCH  23  24
ENDBRANCH  22  23
ENDBRANCH  19  22
ENDBRANCH   1  18
TORSDOF 4
ENDMDL
MODEL 2
REMARK VINA RESULT: -8.219143170      4.698      5.621
REMARK  4 active torsions:
REMARK  status: ('A' for Active; 'I' for Inactive)
REMARK       I    between atoms: C1_4  and  N3_6 
REMARK    1  A    between atoms: N3_6  and  C2_8 
REMARK    2  A    between atoms: C2_8  and  C3_9 
REMARK    3  A    between atoms: C3_9  and  N4_10 
REMARK       I    between atoms: N4_10  and  C4_12 
REMARK    4  A    between atoms: C4_12  and  C5_14 
ROOT
HETATM    1  C5  UNL     1      24.595  17.668  63.888  1.00  0.00     0.174 C 
HETATM    2  N5  UNL     1      25.429  18.237  63.087  1.00  0.00    -0.306 N 
ATOM      3  H5  UNL     1      25.686  19.224  63.121  1.00  0.00     0.170 HD
HETATM    4  C6  UNL     1      25.940  17.299  62.151  1.00  0.00     0.267 C 
HETATM    5  O2  UNL     1      26.942  17.512  61.435  1.00  0.00    -0.269 OA
HETATM    6  C7  UNL     1      25.074  16.140  62.236  1.00  0.00     0.235 C 
HETATM    7  N6  UNL     1      24.489  16.297  63.547  1.00  0.00    -0.342 N 
ATOM      8  H6  UNL     1      24.077  15.560  64.120  1.00  0.00     0.163 HD
HETATM    9  C8  UNL     1      24.116  15.957  61.164  1.00  0.00     0.045 C 
HETATM   10  N7  UNL     1      23.673  16.843  60.371  1.00  0.00    -0.401 N 
ATOM     11  H71 UNL     1      22.999  16.715  59.616  1.00  0.00     0.155 HD
ATOM     12  H72 UNL     1      23.934  17.829  60.379  1.00  0.00     0.155 HD
HETATM   13  C9  UNL     1      23.738  14.524  61.153  1.00  0.00     0.178 C 
HETATM   14  N8  UNL     1      24.831  13.864  61.875  1.00  0.00    -0.353 N 
ATOM     15  H8  UNL     1      24.890  12.867  62.077  1.00  0.00     0.162 HD
HETATM   16  C10 UNL     1      25.796  14.841  62.249  1.00  0.00     0.262 C 
HETATM   17  O3  UNL     1      26.988  14.654  62.526  1.00  0.00    -0.270 OA
ENDROOT
BRANCH   1  18
HETATM   18  C4  UNL     1      23.877  18.366  64.989  1.00  0.00     0.285 C 
HETATM   19  N4  UNL     1      24.157  18.065  66.336  1.00  0.00    -0.353 N 
ATOM     20  H4  UNL     1      24.865  17.361  66.547  1.00  0.00     0.162 HD
HETATM   21  O1  UNL     1      23.012  19.236  64.730  1.00  0.00    -0.264 OA
BRANCH  19  22
HETATM   22  C3  UNL     1      23.477  18.718  67.426  1.00  0.00     0.142 C 
BRANCH  22  23
HETATM   23  C2  UNL     1      23.386  17.870  68.643  1.00  0.00     0.142 C 
BRANCH  23  24
HETATM   24  N3  UNL     1      22.809  16.562  68.324  1.00  0.00    -0.363 N 
HETATM   25  C1  UNL     1      21.429  16.335  68.234  1.00  0.00     0.181 C 
HETATM   26  N1  UNL     1      20.966  15.328  67.588  1.00  0.00    -0.374 N 
HETATM   27  N2  UNL     1      20.522  17.226  68.862  1.00  0.00    -0.064 NA
ATOM     28  H12 UNL     1      19.962  15.163  67.523  1.00  0.00     0.158 HD
ATOM     29  H11 UNL     1      21.619  14.687  67.137  1.00  0.00     0.158 HD
ATOM     30  H3  UNL     1      23.442  15.780  68.160  1.00  0.00     0.162 HD
ENDBRANCH  23  24
ENDBRANCH  22  23
ENDBRANCH  19  22
ENDBRANCH   1  18
TORSDOF 4
ENDMDL
MODEL 3
REMARK VINA RESULT: -8.011185658      1.016      1.336
REMARK  4 active torsions:
REMARK  status: ('A' for Active; 'I' for Inactive)
REMARK       I    between atoms: C1_4  and  N3_6 
REMARK    1  A    between atoms: N3_6  and  C2_8 
REMARK    2  A    between atoms: C2_8  and  C3_9 
REMARK    3  A    between atoms: C3_9  and  N4_10 
REMARK       I    between atoms: N4_10  and  C4_12 
REMARK    4  A    between atoms: C4_12  and  C5_14 
ROOT
HETATM    1  C5  UNL     1      27.292  18.142  61.355  1.00  0.00     0.174 C 
HETATM    2  N5  UNL     1      27.130  18.185  60.077  1.00  0.00    -0.306 N 
ATOM      3  H5  UNL     1      27.288  19.009  59.498  1.00  0.00     0.170 HD
HETATM    4  C6  UNL     1      26.701  16.922  59.588  1.00  0.00     0.267 C 
HETATM    5  O2  UNL     1      26.715  16.609  58.377  1.00  0.00    -0.269 OA
HETATM    6  C7  UNL     1      26.281  16.166  60.750  1.00  0.00     0.235 C 
HETATM    7  N6  UNL     1      26.985  16.839  61.817  1.00  0.00    -0.342 N 
ATOM      8  H6  UNL     1      27.218  16.449  62.731  1.00  0.00     0.163 HD
HETATM    9  C8  UNL     1      24.854  16.026  60.961  1.00  0.00     0.045 C 
HETATM   10  N7  UNL     1      23.934  16.768  60.500  1.00  0.00    -0.401 N 
ATOM     11  H71 UNL     1      22.929  16.670  60.648  1.00  0.00     0.155 HD
ATOM     12  H72 UNL     1      24.073  17.585  59.904  1.00  0.00     0.155 HD
HETATM   13  C9  UNL     1      24.652  14.839  61.826  1.00  0.00     0.178 C 
HETATM   14  N8  UNL     1      25.896  14.077  61.676  1.00  0.00    -0.353 N 
ATOM     15  H8  UNL     1      26.116  13.202  62.151  1.00  0.00     0.162 HD
HETATM   16  C10 UNL     1      26.748  14.755  60.760  1.00  0.00     0.262 C 
HETATM   17  O3  UNL     1      27.683  14.275  60.105  1.00  0.00    -0.270 OA
ENDROOT
BRANCH   1  18
HETATM   18  C4  UNL     1      27.737  19.295  62.184  1.00  0.00     0.285 C 
HETATM   19  N4  UNL     1      29.105  19.592  62.330  1.00  0.00    -0.353 N 
ATOM     20  H4  UNL     1      29.791  19.005  61.854  1.00  0.00     0.162 HD
HETATM   21  O1  UNL     1      26.894  20.020  62.764  1.00  0.00    -0.264 OA
BRANCH  19  22
HETATM   22  C3  UNL     1      29.570  20.697  63.130  1.00  0.00     0.142 C 
BRANCH  22  23
HETATM   23  C2  UNL     1      29.918  20.300  64.520  1.00  0.00     0.142 C 
BRANCH  23  24
HETATM   24  N3  UNL     1      30.270  21.473  65.322  1.00  0.00    -0.363 N 
HETATM   25  C1  UNL     1      31.443  21.555  66.087  1.00  0.00     0.181 C 
HETATM   26  N1  UNL     1      31.916  22.691  66.450  1.00  0.00    -0.374 N 
HETATM   27  N2  UNL     1      32.122  20.371  66.470  1.00  0.00    -0.064 NA
ATOM     28  H12 UNL     1      32.768  22.750  67.006  1.00  0.00     0.158 HD
ATOM     29  H11 UNL     1      31.427  23.542  66.174  1.00  0.00     0.158 HD
ATOM     30  H3  UNL     1      29.632  22.268  65.325  1.00  0.00     0.162 HD
ENDBRANCH  23  24
ENDBRANCH  22  23
ENDBRANCH  19  22
ENDBRANCH   1  18
TORSDOF 4
ENDMDL
MODEL 4
REMARK VINA RESULT: -8.004891211      2.031      2.675
REMARK  4 active torsions:
REMARK  status: ('A' for Active; 'I' for Inactive)
REMARK       I    between atoms: C1_4  and  N3_6 
REMARK    1  A    between atoms: N3_6  and  C2_8 
REMARK    2  A    between atoms: C2_8  and  C3_9 
REMARK    3  A    between atoms: C3_9  and  N4_10 
REMARK       I    between atoms: N4_10  and  C4_12 
REMARK    4  A    between atoms: C4_12  and  C5_14 
ROOT
HETATM    1  C5  UNL     1      27.060  17.916  61.836  1.00  0.00     0.174 C 
HETATM    2  N5  UNL     1      27.014  18.149  60.570  1.00  0.00    -0.306 N 
ATOM      3  H5  UNL     1      27.249  19.041  60.134  1.00  0.00     0.170 HD
HETATM    4  C6  UNL     1      26.590  16.991  59.866  1.00  0.00     0.267 C 
HETATM    5  O2  UNL     1      26.701  16.855  58.628  1.00  0.00    -0.269 OA
HETATM    6  C7  UNL     1      26.045  16.094  60.865  1.00  0.00     0.235 C 
HETATM    7  N6  UNL     1      26.672  16.575  62.074  1.00  0.00    -0.342 N 
ATOM      8  H6  UNL     1      26.810  16.047  62.937  1.00  0.00     0.163 HD
HETATM    9  C8  UNL     1      24.601  15.989  60.933  1.00  0.00     0.045 C 
HETATM   10  N7  UNL     1      23.749  16.830  60.512  1.00  0.00    -0.401 N 
ATOM     11  H71 UNL     1      22.732  16.756  60.560  1.00  0.00     0.155 HD
ATOM     12  H72 UNL     1      23.967  17.717  60.057  1.00  0.00     0.155 HD
HETATM   13  C9  UNL     1      24.285  14.700  61.595  1.00  0.00     0.178 C 
HETATM   14  N8  UNL     1      25.513  13.913  61.438  1.00  0.00    -0.353 N 
ATOM     15  H8  UNL     1      25.661  12.970  61.795  1.00  0.00     0.162 HD
HETATM   16  C10 UNL     1      26.464  14.678  60.705  1.00  0.00     0.262 C 
HETATM   17  O3  UNL     1      27.437  14.256  60.067  1.00  0.00    -0.270 OA
ENDROOT
BRANCH   1  18
HETATM   18  C4  UNL     1      27.466  18.916  62.861  1.00  0.00     0.285 C 
HETATM   19  N4  UNL     1      27.615  18.545  64.211  1.00  0.00    -0.353 N 
ATOM     20  H4  UNL     1      27.444  17.575  64.477  1.00  0.00     0.162 HD
HETATM   21  O1  UNL     1      27.683  20.107  62.532  1.00  0.00    -0.264 OA
BRANCH  19  22
HETATM   22  C3  UNL     1      28.001  19.489  65.228  1.00  0.00     0.142 C 
BRANCH  22  23
HETATM   23  C2  UNL     1      26.838  20.142  65.885  1.00  0.00     0.142 C 
BRANCH  23  24
HETATM   24  N3  UNL     1      25.648  19.293  65.797  1.00  0.00    -0.363 N 
HETATM   25  C1  UNL     1      24.548  19.598  64.982  1.00  0.00     0.181 C 
HETATM   26  N1  UNL     1      23.721  18.687  64.622  1.00  0.00    -0.374 N 
HETATM   27  N2  UNL     1      24.338  20.930  64.545  1.00  0.00    -0.064 NA
ATOM     28  H12 UNL     1      22.921  18.909  64.030  1.00  0.00     0.158 HD
ATOM     29  H11 UNL     1      23.872  17.728  64.937  1.00  0.00     0.158 HD
ATOM     30  H3  UNL     1      25.618  18.440  66.354  1.00  0.00     0.162 HD
ENDBRANCH  23  24
ENDBRANCH  22  23
ENDBRANCH  19  22
ENDBRANCH   1  18
TORSDOF 4
ENDMDL
MODEL 5
REMARK VINA RESULT: -7.986167237      3.454      6.916
REMARK  4 active torsions:
REMARK  status: ('A' for Active; 'I' for Inactive)
REMARK       I    between atoms: C1_4  and  N3_6 
REMARK    1  A    between atoms: N3_6  and  C2_8 
REMARK    2  A    between atoms: C2_8  and  C3_9 
REMARK    3  A    between atoms: C3_9  and  N4_10 
REMARK       I    between atoms: N4_10  and  C4_12 
REMARK    4  A    between atoms: C4_12  and  C5_14 
ROOT
HETATM    1  C5  UNL     1      25.033  17.176  63.416  1.00  0.00     0.174 C 
HETATM    2  N5  UNL     1      25.847  18.161  63.251  1.00  0.00    -0.306 N 
ATOM      3  H5  UNL     1      26.592  18.190  62.555  1.00  0.00     0.170 HD
HETATM    4  C6  UNL     1      25.561  19.202  64.174  1.00  0.00     0.267 C 
HETATM    5  O2  UNL     1      26.018  20.362  64.071  1.00  0.00    -0.269 OA
HETATM    6  C7  UNL     1      24.687  18.621  65.173  1.00  0.00     0.235 C 
HETATM    7  N6  UNL     1      24.135  17.489  64.466  1.00  0.00    -0.342 N 
ATOM      8  H6  UNL     1      23.263  17.006  64.681  1.00  0.00     0.163 HD
HETATM    9  C8  UNL     1      25.278  18.303  66.457  1.00  0.00     0.045 C 
HETATM   10  N7  UNL     1      26.506  18.112  66.710  1.00  0.00    -0.401 N 
ATOM     11  H71 UNL     1      26.923  17.888  67.615  1.00  0.00     0.155 HD
ATOM     12  H72 UNL     1      27.266  18.155  66.030  1.00  0.00     0.155 HD
HETATM   13  C9  UNL     1      24.174  18.240  67.445  1.00  0.00     0.178 C 
HETATM   14  N8  UNL     1      23.086  18.990  66.807  1.00  0.00    -0.353 N 
ATOM     15  H8  UNL     1      22.157  19.134  67.200  1.00  0.00     0.162 HD
HETATM   16  C10 UNL     1      23.537  19.484  65.551  1.00  0.00     0.262 C 
HETATM   17  O3  UNL     1      23.074  20.434  64.906  1.00  0.00    -0.270 OA
ENDROOT
BRANCH   1  18
HETATM   18  C4  UNL     1      25.056  15.924  62.612  1.00  0.00     0.285 C 
HETATM   19  N4  UNL     1      26.206  15.112  62.575  1.00  0.00    -0.353 N 
ATOM     20  H4  UNL     1      27.026  15.394  63.113  1.00  0.00     0.162 HD
HETATM   21  O1  UNL     1      24.046  15.573  61.957  1.00  0.00    -0.264 OA
BRANCH  19  22
HETATM   22  C3  UNL     1      26.264  13.897  61.803  1.00  0.00     0.142 C 
BRANCH  22  23
HETATM   23  C2  UNL     1      27.009  14.056  60.527  1.00  0.00     0.142 C 
BRANCH  23  24
HETATM   24  N3  UNL     1      26.347  15.028  59.656  1.00  0.00    -0.363 N 
HETATM   25  C1  UNL     1      26.774  16.358  59.527  1.00  0.00     0.181 C 
HETATM   26  N1  UNL     1      26.447  17.059  58.504  1.00  0.00    -0.374 N 
HETATM   27  N2  UNL     1      27.578  16.944  60.536  1.00  0.00    -0.064 NA
ATOM     28  H12 UNL     1      26.757  18.026  58.410  1.00  0.00     0.158 HD
ATOM     29  H11 UNL     1      25.868  16.637  57.778  1.00  0.00     0.158 HD
ATOM     30  H3  UNL     1      25.536  14.724  59.118  1.00  0.00     0.162 HD
ENDBRANCH  23  24
ENDBRANCH  22  23
ENDBRANCH  19  22
ENDBRANCH   1  18
TORSDOF 4
ENDMDL
