MODEL 1
REMARK VINA RESULT: -0.904100527      0.000      0.000
REMARK  5 active torsions:
REMARK  status: ('A' for Active; 'I' for Inactive)
REMARK    1  A    between atoms: C2_2  and  C3_3 
REMARK    2  A    between atoms: C3_3  and  C4_4 
REMARK    3  A    between atoms: C4_4  and  C6_6 
REMARK    4  A    between atoms: C18_26  and  C19_27 
REMARK    5  A    between atoms: C20_28  and  C21_29 
ROOT
HETATM    1  C6  UNL     1      35.891  16.200  87.284  1.00  0.00     0.000 A 
HETATM    2  C7  UNL     1      35.681  15.227  88.221  1.00  0.00     0.014 A 
HETATM    3  C8  UNL     1      36.575  14.203  88.251  1.00  0.00     0.002 A 
HETATM    4  C9  UNL     1      37.675  14.109  87.382  1.00  0.00     0.011 A 
HETATM    5  C10 UNL     1      37.857  15.111  86.445  1.00  0.00    -0.010 A 
HETATM    6  C11 UNL     1      36.971  16.151  86.380  1.00  0.00     0.095 A 
HETATM    7  O1  UNL     1      36.982  17.212  85.440  1.00  0.00    -0.295 OA
HETATM    8  C12 UNL     1      37.986  17.150  84.483  1.00  0.00     0.137 C 
HETATM    9  N1  UNL     1      38.362  18.123  83.759  1.00  0.00    -0.382 N 
ATOM     10  H11 UNL     1      39.100  18.078  83.055  1.00  0.00     0.158 HD
ATOM     11  H12 UNL     1      37.900  19.023  83.892  1.00  0.00     0.158 HD
HETATM   12  C13 UNL     1      38.668  15.826  84.287  1.00  0.00     0.182 C 
HETATM   13  C14 UNL     1      37.620  14.955  83.667  1.00  0.00     0.073 C 
HETATM   14  N2  UNL     1      36.824  14.252  83.206  1.00  0.00    -0.196 NA
HETATM   15  C15 UNL     1      39.069  15.204  85.619  1.00  0.00     0.047 C 
HETATM   16  C16 UNL     1      40.181  16.044  86.211  1.00  0.00     0.198 C 
HETATM   17  C17 UNL     1      39.929  17.349  86.749  1.00  0.00     0.041 C 
HETATM   18  N3  UNL     1      40.984  16.126  84.957  1.00  0.00    -0.055 N 
ATOM     19  H31 UNL     1      41.835  16.686  85.008  1.00  0.00     0.279 HD
ATOM     20  H32 UNL     1      40.574  16.673  84.200  1.00  0.00     0.279 HD
HETATM   21  C18 UNL     1      41.170  14.702  84.691  1.00  0.00     0.269 C 
HETATM   22  C25 UNL     1      39.889  14.008  85.287  1.00  0.00     0.041 C 
HETATM   23  C26 UNL     1      40.466  13.175  86.392  1.00  0.00     0.014 C 
ENDROOT
BRANCH  21  24
HETATM   24  C19 UNL     1      41.433  14.325  83.366  1.00  0.00    -0.072 C 
HETATM   25  C20 UNL     1      41.687  13.991  82.213  1.00  0.00    -0.096 C 
BRANCH  25  26
HETATM   26  C21 UNL     1      42.032  13.599  80.838  1.00  0.00     0.013 C 
HETATM   27  C22 UNL     1      42.314  12.114  80.846  1.00  0.00     0.028 C 
HETATM   28  C23 UNL     1      40.933  14.014  79.918  1.00  0.00     0.028 C 
HETATM   29  C24 UNL     1      43.308  14.289  80.390  1.00  0.00     0.028 C 
ENDBRANCH  25  26
ENDBRANCH  21  24
BRANCH   1  30
HETATM   30  C4  UNL     1      35.166  17.488  87.383  1.00  0.00    -0.071 C 
HETATM   31  C5  UNL     1      33.852  17.511  88.063  1.00  0.00     0.044 C 
BRANCH  30  32
HETATM   32  C3  UNL     1      36.001  18.708  87.637  1.00  0.00     0.034 C 
BRANCH  32  33
HETATM   33  C2  UNL     1      35.136  19.943  87.717  1.00  0.00    -0.000 C 
HETATM   34  C1  UNL     1      35.402  20.704  89.005  1.00  0.00     0.005 C 
ENDBRANCH  32  33
ENDBRANCH  30  32
ENDBRANCH   1  30
TORSDOF 5
ENDMDL
MODEL 2
REMARK VINA RESULT: 1.402657360      2.057      3.811
REMARK  5 active torsions:
REMARK  status: ('A' for Active; 'I' for Inactive)
REMARK    1  A    between atoms: C2_2  and  C3_3 
REMARK    2  A    between atoms: C3_3  and  C4_4 
REMARK    3  A    between atoms: C4_4  and  C6_6 
REMARK    4  A    between atoms: C18_26  and  C19_27 
REMARK    5  A    between atoms: C20_28  and  C21_29 
ROOT
HETATM    1  C6  UNL     1      37.763  15.740  85.770  1.00  0.00     0.000 A 
HETATM    2  C7  UNL     1      36.760  15.164  85.043  1.00  0.00     0.014 A 
HETATM    3  C8  UNL     1      37.131  14.445  83.949  1.00  0.00     0.002 A 
HETATM    4  C9  UNL     1      38.468  14.276  83.551  1.00  0.00     0.011 A 
HETATM    5  C10 UNL     1      39.458  14.874  84.311  1.00  0.00    -0.010 A 
HETATM    6  C11 UNL     1      39.120  15.612  85.411  1.00  0.00     0.095 A 
HETATM    7  O1  UNL     1      40.006  16.337  86.248  1.00  0.00    -0.295 OA
HETATM    8  C12 UNL     1      41.343  16.299  85.874  1.00  0.00     0.137 C 
HETATM    9  N1  UNL     1      42.317  16.608  86.627  1.00  0.00    -0.382 N 
ATOM     10  H11 UNL     1      43.300  16.581  86.353  1.00  0.00     0.158 HD
ATOM     11  H12 UNL     1      42.109  16.899  87.582  1.00  0.00     0.158 HD
HETATM   12  C13 UNL     1      41.651  15.870  84.467  1.00  0.00     0.182 C 
HETATM   13  C14 UNL     1      41.141  16.990  83.616  1.00  0.00     0.073 C 
HETATM   14  N2  UNL     1      40.738  17.832  82.930  1.00  0.00    -0.196 NA
HETATM   15  C15 UNL     1      40.887  14.607  84.091  1.00  0.00     0.047 C 
HETATM   16  C16 UNL     1      41.453  13.459  84.899  1.00  0.00     0.198 C 
HETATM   17  C17 UNL     1      41.209  13.342  86.307  1.00  0.00     0.041 C 
HETATM   18  N3  UNL     1      42.883  13.783  84.628  1.00  0.00    -0.055 N 
ATOM     19  H31 UNL     1      43.571  13.183  85.084  1.00  0.00     0.279 HD
ATOM     20  H32 UNL     1      43.234  14.642  85.051  1.00  0.00     0.279 HD
HETATM   21  C18 UNL     1      42.870  13.747  83.168  1.00  0.00     0.269 C 
HETATM   22  C25 UNL     1      41.414  14.185  82.765  1.00  0.00     0.041 C 
HETATM   23  C26 UNL     1      40.878  12.944  82.116  1.00  0.00     0.014 C 
ENDROOT
BRANCH  21  24
HETATM   24  C19 UNL     1      43.867  14.472  82.499  1.00  0.00    -0.072 C 
HETATM   25  C20 UNL     1      44.725  15.128  81.916  1.00  0.00    -0.096 C 
BRANCH  25  26
HETATM   26  C21 UNL     1      45.725  15.943  81.209  1.00  0.00     0.013 C 
HETATM   27  C22 UNL     1      47.017  15.856  81.989  1.00  0.00     0.028 C 
HETATM   28  C23 UNL     1      45.824  15.479  79.794  1.00  0.00     0.028 C 
HETATM   29  C24 UNL     1      45.312  17.404  81.198  1.00  0.00     0.028 C 
ENDBRANCH  25  26
ENDBRANCH  21  24
BRANCH   1  30
HETATM   30  C4  UNL     1      37.482  16.266  87.126  1.00  0.00    -0.071 C 
HETATM   31  C5  UNL     1      37.051  17.674  87.265  1.00  0.00     0.044 C 
BRANCH  30  32
HETATM   32  C3  UNL     1      36.800  15.327  88.079  1.00  0.00     0.034 C 
BRANCH  32  33
HETATM   33  C2  UNL     1      35.673  16.024  88.803  1.00  0.00    -0.000 C 
HETATM   34  C1  UNL     1      34.328  15.467  88.367  1.00  0.00     0.005 C 
ENDBRANCH  32  33
ENDBRANCH  30  32
ENDBRANCH   1  30
TORSDOF 5
ENDMDL
MODEL 3
REMARK VINA RESULT: 1.468316166      2.707      8.309
REMARK  5 active torsions:
REMARK  status: ('A' for Active; 'I' for Inactive)
REMARK    1  A    between atoms: C2_2  and  C3_3 
REMARK    2  A    between atoms: C3_3  and  C4_4 
REMARK    3  A    between atoms: C4_4  and  C6_6 
REMARK    4  A    between atoms: C18_26  and  C19_27 
REMARK    5  A    between atoms: C20_28  and  C21_29 
ROOT
HETATM    1  C6  UNL     1      45.462  15.252  82.667  1.00  0.00     0.000 A 
HETATM    2  C7  UNL     1      46.189  14.168  83.069  1.00  0.00     0.014 A 
HETATM    3  C8  UNL     1      45.533  13.223  83.794  1.00  0.00     0.002 A 
HETATM    4  C9  UNL     1      44.173  13.316  84.135  1.00  0.00     0.011 A 
HETATM    5  C10 UNL     1      43.466  14.429  83.712  1.00  0.00    -0.010 A 
HETATM    6  C11 UNL     1      44.098  15.403  82.990  1.00  0.00     0.095 A 
HETATM    7  O1  UNL     1      43.534  16.625  82.545  1.00  0.00    -0.295 OA
HETATM    8  C12 UNL     1      42.213  16.842  82.916  1.00  0.00     0.137 C 
HETATM    9  N1  UNL     1      41.438  17.695  82.384  1.00  0.00    -0.382 N 
ATOM     10  H11 UNL     1      40.468  17.855  82.656  1.00  0.00     0.158 HD
ATOM     11  H12 UNL     1      41.806  18.261  81.619  1.00  0.00     0.158 HD
HETATM   12  C13 UNL     1      41.671  16.008  84.042  1.00  0.00     0.182 C 
HETATM   13  C14 UNL     1      42.400  16.498  85.254  1.00  0.00     0.073 C 
HETATM   14  N2  UNL     1      42.962  16.842  86.206  1.00  0.00    -0.196 NA
HETATM   15  C15 UNL     1      42.007  14.533  83.855  1.00  0.00     0.047 C 
HETATM   16  C16 UNL     1      41.212  14.019  82.674  1.00  0.00     0.198 C 
HETATM   17  C17 UNL     1      41.539  14.397  81.329  1.00  0.00     0.041 C 
HETATM   18  N3  UNL     1      39.915  14.618  83.099  1.00  0.00    -0.055 N 
ATOM     19  H31 UNL     1      39.129  14.479  82.465  1.00  0.00     0.279 HD
ATOM     20  H32 UNL     1      39.862  15.636  83.069  1.00  0.00     0.279 HD
HETATM   21  C18 UNL     1      39.786  14.010  84.421  1.00  0.00     0.269 C 
HETATM   22  C25 UNL     1      41.265  13.802  84.917  1.00  0.00     0.041 C 
HETATM   23  C26 UNL     1      41.365  12.308  84.995  1.00  0.00     0.014 C 
ENDROOT
BRANCH  21  24
HETATM   24  C19 UNL     1      38.981  14.674  85.358  1.00  0.00    -0.072 C 
HETATM   25  C20 UNL     1      38.257  15.255  86.161  1.00  0.00    -0.096 C 
BRANCH  25  26
HETATM   26  C21 UNL     1      37.366  15.965  87.091  1.00  0.00     0.013 C 
HETATM   27  C22 UNL     1      37.365  15.198  88.394  1.00  0.00     0.028 C 
HETATM   28  C23 UNL     1      37.810  17.385  87.210  1.00  0.00     0.028 C 
HETATM   29  C24 UNL     1      35.939  15.959  86.573  1.00  0.00     0.028 C 
ENDBRANCH  25  26
ENDBRANCH  21  24
BRANCH   1  30
HETATM   30  C4  UNL     1      46.001  16.159  81.627  1.00  0.00    -0.071 C 
HETATM   31  C5  UNL     1      47.186  16.984  81.952  1.00  0.00     0.044 C 
BRANCH  30  32
HETATM   32  C3  UNL     1      45.992  15.641  80.219  1.00  0.00     0.034 C 
BRANCH  32  33
HETATM   33  C2  UNL     1      44.671  14.985  79.898  1.00  0.00    -0.000 C 
HETATM   34  C1  UNL     1      44.853  13.495  79.661  1.00  0.00     0.005 C 
ENDBRANCH  32  33
ENDBRANCH  30  32
ENDBRANCH   1  30
TORSDOF 5
ENDMDL
MODEL 4
REMARK VINA RESULT: 2.354301580      1.440      2.073
REMARK  5 active torsions:
REMARK  status: ('A' for Active; 'I' for Inactive)
REMARK    1  A    between atoms: C2_2  and  C3_3 
REMARK    2  A    between atoms: C3_3  and  C4_4 
REMARK    3  A    between atoms: C4_4  and  C6_6 
REMARK    4  A    between atoms: C18_26  and  C19_27 
REMARK    5  A    between atoms: C20_28  and  C21_29 
ROOT
HETATM    1  C6  UNL     1      36.054  15.487  87.779  1.00  0.00     0.000 A 
HETATM    2  C7  UNL     1      36.558  15.737  89.024  1.00  0.00     0.014 A 
HETATM    3  C8  UNL     1      37.904  15.907  89.117  1.00  0.00     0.002 A 
HETATM    4  C9  UNL     1      38.771  15.838  88.013  1.00  0.00     0.011 A 
HETATM    5  C10 UNL     1      38.226  15.582  86.767  1.00  0.00    -0.010 A 
HETATM    6  C11 UNL     1      36.877  15.397  86.639  1.00  0.00     0.095 A 
HETATM    7  O1  UNL     1      36.179  15.063  85.451  1.00  0.00    -0.295 OA
HETATM    8  C12 UNL     1      36.972  14.886  84.324  1.00  0.00     0.137 C 
HETATM    9  N1  UNL     1      36.546  14.888  83.128  1.00  0.00    -0.382 N 
ATOM     10  H11 UNL     1      37.128  14.758  82.300  1.00  0.00     0.158 HD
ATOM     11  H12 UNL     1      35.549  15.041  82.977  1.00  0.00     0.158 HD
HETATM   12  C13 UNL     1      38.441  14.662  84.546  1.00  0.00     0.182 C 
HETATM   13  C14 UNL     1      38.521  13.307  85.176  1.00  0.00     0.073 C 
HETATM   14  N2  UNL     1      38.613  12.270  85.683  1.00  0.00    -0.196 NA
HETATM   15  C15 UNL     1      39.015  15.674  85.530  1.00  0.00     0.047 C 
HETATM   16  C16 UNL     1      39.002  17.033  84.865  1.00  0.00     0.198 C 
HETATM   17  C17 UNL     1      37.779  17.748  84.645  1.00  0.00     0.041 C 
HETATM   18  N3  UNL     1      39.591  16.570  83.576  1.00  0.00    -0.055 N 
ATOM     19  H31 UNL     1      39.692  17.279  82.850  1.00  0.00     0.279 HD
ATOM     20  H32 UNL     1      39.002  15.959  83.010  1.00  0.00     0.279 HD
HETATM   21  C18 UNL     1      40.833  15.981  84.072  1.00  0.00     0.269 C 
HETATM   22  C25 UNL     1      40.489  15.470  85.520  1.00  0.00     0.041 C 
HETATM   23  C26 UNL     1      41.363  16.337  86.377  1.00  0.00     0.014 C 
ENDROOT
BRANCH  21  24
HETATM   24  C19 UNL     1      41.442  15.002  83.274  1.00  0.00    -0.072 C 
HETATM   25  C20 UNL     1      41.988  14.163  82.563  1.00  0.00    -0.096 C 
BRANCH  25  26
HETATM   26  C21 UNL     1      42.648  13.188  81.682  1.00  0.00     0.013 C 
HETATM   27  C22 UNL     1      42.594  11.843  82.371  1.00  0.00     0.028 C 
HETATM   28  C23 UNL     1      41.998  13.221  80.339  1.00  0.00     0.028 C 
HETATM   29  C24 UNL     1      44.116  13.534  81.505  1.00  0.00     0.028 C 
ENDBRANCH  25  26
ENDBRANCH  21  24
BRANCH   1  30
HETATM   30  C4  UNL     1      34.596  15.600  87.538  1.00  0.00    -0.071 C 
HETATM   31  C5  UNL     1      33.670  14.882  88.441  1.00  0.00     0.044 C 
BRANCH  30  32
HETATM   32  C3  UNL     1      34.093  16.945  87.099  1.00  0.00     0.034 C 
BRANCH  32  33
HETATM   33  C2  UNL     1      34.228  17.956  88.212  1.00  0.00    -0.000 C 
HETATM   34  C1  UNL     1      35.164  19.082  87.805  1.00  0.00     0.005 C 
ENDBRANCH  32  33
ENDBRANCH  30  32
ENDBRANCH   1  30
TORSDOF 5
ENDMDL
MODEL 5
REMARK VINA RESULT: 2.729611320      2.005      3.654
REMARK  5 active torsions:
REMARK  status: ('A' for Active; 'I' for Inactive)
REMARK    1  A    between atoms: C2_2  and  C3_3 
REMARK    2  A    between atoms: C3_3  and  C4_4 
REMARK    3  A    between atoms: C4_4  and  C6_6 
REMARK    4  A    between atoms: C18_26  and  C19_27 
REMARK    5  A    between atoms: C20_28  and  C21_29 
ROOT
HETATM    1  C6  UNL     1      37.513  15.652  85.641  1.00  0.00     0.000 A 
HETATM    2  C7  UNL     1      36.567  15.056  84.857  1.00  0.00     0.014 A 
HETATM    3  C8  UNL     1      37.014  14.362  83.776  1.00  0.00     0.002 A 
HETATM    4  C9  UNL     1      38.374  14.236  83.446  1.00  0.00     0.011 A 
HETATM    5  C10 UNL     1      39.306  14.854  84.262  1.00  0.00    -0.010 A 
HETATM    6  C11 UNL     1      38.890  15.568  85.351  1.00  0.00     0.095 A 
HETATM    7  O1  UNL     1      39.710  16.309  86.239  1.00  0.00    -0.295 OA
HETATM    8  C12 UNL     1      41.065  16.314  85.934  1.00  0.00     0.137 C 
HETATM    9  N1  UNL     1      41.991  16.642  86.739  1.00  0.00    -0.382 N 
ATOM     10  H11 UNL     1      42.986  16.647  86.516  1.00  0.00     0.158 HD
ATOM     11  H12 UNL     1      41.725  16.915  87.686  1.00  0.00     0.158 HD
HETATM   12  C13 UNL     1      41.457  15.912  84.541  1.00  0.00     0.182 C 
HETATM   13  C14 UNL     1      40.959  17.027  83.676  1.00  0.00     0.073 C 
HETATM   14  N2  UNL     1      40.566  17.865  82.980  1.00  0.00    -0.196 NA
HETATM   15  C15 UNL     1      40.751  14.631  84.112  1.00  0.00     0.047 C 
HETATM   16  C16 UNL     1      41.309  13.491  84.936  1.00  0.00     0.198 C 
HETATM   17  C17 UNL     1      40.997  13.349  86.328  1.00  0.00     0.041 C 
HETATM   18  N3  UNL     1      42.741  13.859  84.742  1.00  0.00    -0.055 N 
ATOM     19  H31 UNL     1      43.422  13.274  85.226  1.00  0.00     0.279 HD
ATOM     20  H32 UNL     1      43.045  14.723  85.191  1.00  0.00     0.279 HD
HETATM   21  C18 UNL     1      42.804  13.840  83.283  1.00  0.00     0.269 C 
HETATM   22  C25 UNL     1      41.357  14.241  82.811  1.00  0.00     0.041 C 
HETATM   23  C26 UNL     1      40.893  12.993  82.122  1.00  0.00     0.014 C 
ENDROOT
BRANCH  21  24
HETATM   24  C19 UNL     1      43.811  14.602  82.674  1.00  0.00    -0.072 C 
HETATM   25  C20 UNL     1      44.675  15.285  82.130  1.00  0.00    -0.096 C 
BRANCH  25  26
HETATM   26  C21 UNL     1      45.681  16.115  81.451  1.00  0.00     0.013 C 
HETATM   27  C22 UNL     1      45.174  17.540  81.457  1.00  0.00     0.028 C 
HETATM   28  C23 UNL     1      47.004  15.927  82.117  1.00  0.00     0.028 C 
HETATM   29  C24 UNL     1      45.823  15.702  79.997  1.00  0.00     0.028 C 
ENDBRANCH  25  26
ENDBRANCH  21  24
BRANCH   1  30
HETATM   30  C4  UNL     1      37.148  16.153  86.986  1.00  0.00    -0.071 C 
HETATM   31  C5  UNL     1      37.365  15.271  88.154  1.00  0.00     0.044 C 
BRANCH  30  32
HETATM   32  C3  UNL     1      37.431  17.601  87.260  1.00  0.00     0.034 C 
BRANCH  32  33
HETATM   33  C2  UNL     1      36.229  18.453  86.930  1.00  0.00    -0.000 C 
HETATM   34  C1  UNL     1      35.165  18.324  88.007  1.00  0.00     0.005 C 
ENDBRANCH  32  33
ENDBRANCH  30  32
ENDBRANCH   1  30
TORSDOF 5
ENDMDL
