MODEL 1
REMARK VINA RESULT: -7.117316618      0.000      0.000
REMARK  15 active torsions:
REMARK  status: ('A' for Active; 'I' for Inactive)
REMARK    1  A    between atoms: O1_1  and  C1_3 
REMARK    2  A    between atoms: C1_3  and  C2_4 
REMARK    3  A    between atoms: C5_7  and  C6_8 
REMARK    4  A    between atoms: C6_8  and  C7_9 
REMARK    5  A    between atoms: C7_9  and  C8_10 
REMARK    6  A    between atoms: C8_10  and  C9_11 
REMARK    7  A    between atoms: C9_11  and  C10_12 
REMARK    8  A    between atoms: C10_12  and  C11_13 
REMARK    9  A    between atoms: C11_13  and  C12_14 
REMARK   10  A    between atoms: C12_14  and  C13_15 
REMARK   11  A    between atoms: C13_15  and  C14_16 
REMARK   12  A    between atoms: C14_16  and  C15_17 
REMARK   13  A    between atoms: C15_17  and  C16_18 
REMARK   14  A    between atoms: C16_18  and  C17_19 
REMARK   15  A    between atoms: C17_19  and  C18_20 
ROOT
HETATM    1  C9  UNL     1       1.872   8.628   0.217  1.00  0.00     0.000 C 
ENDROOT
BRANCH   1   2
HETATM    2  C8  UNL     1       1.212   7.330   0.371  1.00  0.00     0.000 C 
BRANCH   2   3
HETATM    3  C7  UNL     1       1.969   6.099   0.436  1.00  0.00     0.006 C 
BRANCH   3   4
HETATM    4  C6  UNL     1       2.495   5.446  -0.784  1.00  0.00     0.057 C 
BRANCH   4   5
HETATM    5  C5  UNL     1       3.956   5.875  -0.868  1.00  0.00     0.009 A 
HETATM    6  C4  UNL     1       4.530   6.520  -1.908  1.00  0.00     0.027 A 
HETATM    7  C3  UNL     1       5.876   6.721  -1.572  1.00  0.00     0.029 A 
HETATM    8  C2  UNL     1       6.063   6.178  -0.316  1.00  0.00     0.033 A 
HETATM    9  N1  UNL     1       4.854   5.667   0.083  1.00  0.00    -0.361 N 
ATOM     10  H1  UNL     1       4.676   5.200   0.972  1.00  0.00     0.165 HD
BRANCH   8  11
HETATM   11  C1  UNL     1       7.285   6.111   0.519  1.00  0.00     0.220 C 
BRANCH  11  12
HETATM   12  O1  UNL     1       7.907   4.894   0.264  1.00  0.00    -0.395 OA
ATOM     13  H1  UNL     1       8.843   5.053   0.207  1.00  0.00     0.209 HD
ENDBRANCH  11  12
ENDBRANCH   8  11
ENDBRANCH   4   5
ENDBRANCH   3   4
ENDBRANCH   2   3
ENDBRANCH   1   2
BRANCH   1  14
HETATM   14  C10 UNL     1       3.091   8.845   1.022  1.00  0.00     0.000 C 
BRANCH  14  15
HETATM   15  C11 UNL     1       3.630  10.272   0.726  1.00  0.00     0.000 C 
BRANCH  15  16
HETATM   16  C12 UNL     1       2.533  11.109   0.193  1.00  0.00     0.000 C 
BRANCH  16  17
HETATM   17  C13 UNL     1       2.503  12.502   0.901  1.00  0.00     0.000 C 
BRANCH  17  18
HETATM   18  C14 UNL     1       3.436  12.472   2.032  1.00  0.00     0.000 C 
BRANCH  18  19
HETATM   19  C15 UNL     1       2.969  12.659   3.414  1.00  0.00     0.000 C 
BRANCH  19  20
HETATM   20  C16 UNL     1       3.010  11.569   4.394  1.00  0.00     0.000 C 
BRANCH  20  21
HETATM   21  C17 UNL     1       2.048  10.463   4.179  1.00  0.00     0.004 C 
BRANCH  21  22
HETATM   22  C18 UNL     1       0.651  11.013   3.989  1.00  0.00    -0.014 C 
HETATM   23  C19 UNL     1      -0.195  10.485   5.150  1.00  0.00     0.004 C 
HETATM   24  C20 UNL     1      -0.325   9.020   4.789  1.00  0.00     0.000 C 
HETATM   25  C21 UNL     1      -0.228   8.942   3.290  1.00  0.00     0.000 C 
HETATM   26  C22 UNL     1       0.029  10.346   2.777  1.00  0.00     0.004 C 
ENDBRANCH  21  22
ENDBRANCH  20  21
ENDBRANCH  19  20
ENDBRANCH  18  19
ENDBRANCH  17  18
ENDBRANCH  16  17
ENDBRANCH  15  16
ENDBRANCH  14  15
ENDBRANCH   1  14
TORSDOF 15
ENDMDL
MODEL 2
REMARK VINA RESULT: -6.907723234      0.961      3.034
REMARK  15 active torsions:
REMARK  status: ('A' for Active; 'I' for Inactive)
REMARK    1  A    between atoms: O1_1  and  C1_3 
REMARK    2  A    between atoms: C1_3  and  C2_4 
REMARK    3  A    between atoms: C5_7  and  C6_8 
REMARK    4  A    between atoms: C6_8  and  C7_9 
REMARK    5  A    between atoms: C7_9  and  C8_10 
REMARK    6  A    between atoms: C8_10  and  C9_11 
REMARK    7  A    between atoms: C9_11  and  C10_12 
REMARK    8  A    between atoms: C10_12  and  C11_13 
REMARK    9  A    between atoms: C11_13  and  C12_14 
REMARK   10  A    between atoms: C12_14  and  C13_15 
REMARK   11  A    between atoms: C13_15  and  C14_16 
REMARK   12  A    between atoms: C14_16  and  C15_17 
REMARK   13  A    between atoms: C15_17  and  C16_18 
REMARK   14  A    between atoms: C16_18  and  C17_19 
REMARK   15  A    between atoms: C17_19  and  C18_20 
ROOT
HETATM    1  C9  UNL     1       2.190   7.890   1.160  1.00  0.00     0.000 C 
ENDROOT
BRANCH   1   2
HETATM    2  C8  UNL     1       2.090   6.455   0.883  1.00  0.00     0.000 C 
BRANCH   2   3
HETATM    3  C7  UNL     1       1.880   5.957  -0.459  1.00  0.00     0.006 C 
BRANCH   3   4
HETATM    4  C6  UNL     1       2.849   5.050  -1.111  1.00  0.00     0.057 C 
BRANCH   4   5
HETATM    5  C5  UNL     1       4.190   5.772  -1.030  1.00  0.00     0.009 A 
HETATM    6  C4  UNL     1       4.592   6.780  -1.836  1.00  0.00     0.027 A 
HETATM    7  C3  UNL     1       5.878   7.150  -1.417  1.00  0.00     0.029 A 
HETATM    8  C2  UNL     1       6.205   6.332  -0.352  1.00  0.00     0.033 A 
HETATM    9  N1  UNL     1       5.137   5.498  -0.146  1.00  0.00    -0.361 N 
ATOM     10  H1  UNL     1       5.081   4.779   0.576  1.00  0.00     0.165 HD
BRANCH   8  11
HETATM   11  C1  UNL     1       7.437   6.289   0.469  1.00  0.00     0.220 C 
BRANCH  11  12
HETATM   12  O1  UNL     1       7.920   4.985   0.442  1.00  0.00    -0.395 OA
ATOM     13  H1  UNL     1       8.868   5.026   0.480  1.00  0.00     0.209 HD
ENDBRANCH  11  12
ENDBRANCH   8  11
ENDBRANCH   4   5
ENDBRANCH   3   4
ENDBRANCH   2   3
ENDBRANCH   1   2
BRANCH   1  14
HETATM   14  C10 UNL     1       0.931   8.660   1.099  1.00  0.00     0.000 C 
BRANCH  14  15
HETATM   15  C11 UNL     1       0.390   8.835   2.546  1.00  0.00     0.000 C 
BRANCH  15  16
HETATM   16  C12 UNL     1      -0.137  10.208   2.708  1.00  0.00     0.000 C 
BRANCH  16  17
HETATM   17  C13 UNL     1       0.308  10.815   4.078  1.00  0.00     0.000 C 
BRANCH  17  18
HETATM   18  C14 UNL     1       1.559  10.171   4.490  1.00  0.00     0.000 C 
BRANCH  18  19
HETATM   19  C15 UNL     1       2.763  10.960   4.790  1.00  0.00     0.000 C 
BRANCH  19  20
HETATM   20  C16 UNL     1       3.932  10.948   3.904  1.00  0.00     0.000 C 
BRANCH  20  21
HETATM   21  C17 UNL     1       3.646  10.979   2.451  1.00  0.00     0.004 C 
BRANCH  21  22
HETATM   22  C18 UNL     1       3.717  12.399   1.932  1.00  0.00    -0.014 C 
HETATM   23  C19 UNL     1       2.287  12.812   1.576  1.00  0.00     0.004 C 
HETATM   24  C20 UNL     1       2.030  11.981   0.336  1.00  0.00     0.000 C 
HETATM   25  C21 UNL     1       3.371  11.754  -0.307  1.00  0.00     0.000 C 
HETATM   26  C22 UNL     1       4.419  12.388   0.587  1.00  0.00     0.004 C 
ENDBRANCH  21  22
ENDBRANCH  20  21
ENDBRANCH  19  20
ENDBRANCH  18  19
ENDBRANCH  17  18
ENDBRANCH  16  17
ENDBRANCH  15  16
ENDBRANCH  14  15
ENDBRANCH   1  14
TORSDOF 15
ENDMDL
MODEL 3
REMARK VINA RESULT: -6.789992525      1.714      3.550
REMARK  15 active torsions:
REMARK  status: ('A' for Active; 'I' for Inactive)
REMARK    1  A    between atoms: O1_1  and  C1_3 
REMARK    2  A    between atoms: C1_3  and  C2_4 
REMARK    3  A    between atoms: C5_7  and  C6_8 
REMARK    4  A    between atoms: C6_8  and  C7_9 
REMARK    5  A    between atoms: C7_9  and  C8_10 
REMARK    6  A    between atoms: C8_10  and  C9_11 
REMARK    7  A    between atoms: C9_11  and  C10_12 
REMARK    8  A    between atoms: C10_12  and  C11_13 
REMARK    9  A    between atoms: C11_13  and  C12_14 
REMARK   10  A    between atoms: C12_14  and  C13_15 
REMARK   11  A    between atoms: C13_15  and  C14_16 
REMARK   12  A    between atoms: C14_16  and  C15_17 
REMARK   13  A    between atoms: C15_17  and  C16_18 
REMARK   14  A    between atoms: C16_18  and  C17_19 
REMARK   15  A    between atoms: C17_19  and  C18_20 
ROOT
HETATM    1  C9  UNL     1       3.357   5.317  -1.287  1.00  0.00     0.000 C 
ENDROOT
BRANCH   1   2
HETATM    2  C8  UNL     1       4.115   6.406  -1.907  1.00  0.00     0.000 C 
BRANCH   2   3
HETATM    3  C7  UNL     1       5.511   6.625  -1.601  1.00  0.00     0.006 C 
BRANCH   3   4
HETATM    4  C6  UNL     1       6.258   5.726  -0.693  1.00  0.00     0.057 C 
BRANCH   4   5
HETATM    5  C5  UNL     1       7.156   6.644   0.128  1.00  0.00     0.009 A 
HETATM    6  C4  UNL     1       7.224   7.990   0.013  1.00  0.00     0.027 A 
HETATM    7  C3  UNL     1       8.168   8.433   0.951  1.00  0.00     0.029 A 
HETATM    8  C2  UNL     1       8.640   7.312   1.607  1.00  0.00     0.033 A 
HETATM    9  N1  UNL     1       7.989   6.231   1.070  1.00  0.00    -0.361 N 
ATOM     10  H1  UNL     1       8.127   5.260   1.353  1.00  0.00     0.165 HD
BRANCH   8  11
HETATM   11  C1  UNL     1       9.644   7.197   2.689  1.00  0.00     0.220 C 
BRANCH  11  12
HETATM   12  O1  UNL     1      10.905   7.239   2.105  1.00  0.00    -0.395 OA
ATOM     13  H1  UNL     1      10.953   6.537   1.466  1.00  0.00     0.209 HD
ENDBRANCH  11  12
ENDBRANCH   8  11
ENDBRANCH   4   5
ENDBRANCH   3   4
ENDBRANCH   2   3
ENDBRANCH   1   2
BRANCH   1  14
HETATM   14  C10 UNL     1       2.135   5.702  -0.553  1.00  0.00     0.000 C 
BRANCH  14  15
HETATM   15  C11 UNL     1       2.551   6.275   0.831  1.00  0.00     0.000 C 
BRANCH  15  16
HETATM   16  C12 UNL     1       1.714   7.454   1.144  1.00  0.00     0.000 C 
BRANCH  16  17
HETATM   17  C13 UNL     1       2.256   8.728   0.419  1.00  0.00     0.000 C 
BRANCH  17  18
HETATM   18  C14 UNL     1       3.663   8.912   0.788  1.00  0.00     0.000 C 
BRANCH  18  19
HETATM   19  C15 UNL     1       4.365  10.177   0.523  1.00  0.00     0.000 C 
BRANCH  19  20
HETATM   20  C16 UNL     1       4.701  11.111   1.602  1.00  0.00     0.000 C 
BRANCH  20  21
HETATM   21  C17 UNL     1       4.230  10.738   2.956  1.00  0.00     0.004 C 
BRANCH  21  22
HETATM   22  C18 UNL     1       3.502  11.900   3.597  1.00  0.00    -0.014 C 
HETATM   23  C19 UNL     1       2.910  11.382   4.910  1.00  0.00     0.004 C 
HETATM   24  C20 UNL     1       1.799  10.483   4.410  1.00  0.00     0.000 C 
HETATM   25  C21 UNL     1       1.371  11.039   3.078  1.00  0.00     0.000 C 
HETATM   26  C22 UNL     1       2.273  12.217   2.765  1.00  0.00     0.004 C 
ENDBRANCH  21  22
ENDBRANCH  20  21
ENDBRANCH  19  20
ENDBRANCH  18  19
ENDBRANCH  17  18
ENDBRANCH  16  17
ENDBRANCH  15  16
ENDBRANCH  14  15
ENDBRANCH   1  14
TORSDOF 15
ENDMDL
MODEL 4
REMARK VINA RESULT: -6.767165221      1.160      3.541
REMARK  15 active torsions:
REMARK  status: ('A' for Active; 'I' for Inactive)
REMARK    1  A    between atoms: O1_1  and  C1_3 
REMARK    2  A    between atoms: C1_3  and  C2_4 
REMARK    3  A    between atoms: C5_7  and  C6_8 
REMARK    4  A    between atoms: C6_8  and  C7_9 
REMARK    5  A    between atoms: C7_9  and  C8_10 
REMARK    6  A    between atoms: C8_10  and  C9_11 
REMARK    7  A    between atoms: C9_11  and  C10_12 
REMARK    8  A    between atoms: C10_12  and  C11_13 
REMARK    9  A    between atoms: C11_13  and  C12_14 
REMARK   10  A    between atoms: C12_14  and  C13_15 
REMARK   11  A    between atoms: C13_15  and  C14_16 
REMARK   12  A    between atoms: C14_16  and  C15_17 
REMARK   13  A    between atoms: C15_17  and  C16_18 
REMARK   14  A    between atoms: C16_18  and  C17_19 
REMARK   15  A    between atoms: C17_19  and  C18_20 
ROOT
HETATM    1  C9  UNL     1       0.735   8.404   2.128  1.00  0.00     0.000 C 
ENDROOT
BRANCH   1   2
HETATM    2  C8  UNL     1       0.790   8.249   0.673  1.00  0.00     0.000 C 
BRANCH   2   3
HETATM    3  C7  UNL     1       1.586   7.213   0.053  1.00  0.00     0.006 C 
BRANCH   3   4
HETATM    4  C6  UNL     1       2.302   6.198   0.856  1.00  0.00     0.057 C 
BRANCH   4   5
HETATM    5  C5  UNL     1       3.733   6.209   0.330  1.00  0.00     0.009 A 
HETATM    6  C4  UNL     1       4.095   6.330  -0.968  1.00  0.00     0.027 A 
HETATM    7  C3  UNL     1       5.495   6.293  -1.007  1.00  0.00     0.029 A 
HETATM    8  C2  UNL     1       5.931   6.148   0.297  1.00  0.00     0.033 A 
HETATM    9  N1  UNL     1       4.812   6.101   1.088  1.00  0.00    -0.361 N 
ATOM     10  H1  UNL     1       4.813   5.998   2.104  1.00  0.00     0.165 HD
BRANCH   8  11
HETATM   11  C1  UNL     1       7.308   6.054   0.834  1.00  0.00     0.220 C 
BRANCH  11  12
HETATM   12  O1  UNL     1       7.913   4.943   0.259  1.00  0.00    -0.395 OA
ATOM     13  H1  UNL     1       8.640   5.249  -0.271  1.00  0.00     0.209 HD
ENDBRANCH  11  12
ENDBRANCH   8  11
ENDBRANCH   4   5
ENDBRANCH   3   4
ENDBRANCH   2   3
ENDBRANCH   1   2
BRANCH   1  14
HETATM   14  C10 UNL     1       0.042   9.605   2.636  1.00  0.00     0.000 C 
BRANCH  14  15
HETATM   15  C11 UNL     1       0.558   9.903   4.071  1.00  0.00     0.000 C 
BRANCH  15  16
HETATM   16  C12 UNL     1       0.924  11.332   4.174  1.00  0.00     0.000 C 
BRANCH  16  17
HETATM   17  C13 UNL     1       2.466  11.498   4.370  1.00  0.00     0.000 C 
BRANCH  17  18
HETATM   18  C14 UNL     1       2.957  12.481   3.398  1.00  0.00     0.000 C 
BRANCH  18  19
HETATM   19  C15 UNL     1       2.182  12.821   2.196  1.00  0.00     0.000 C 
BRANCH  19  20
HETATM   20  C16 UNL     1       2.412  12.144   0.915  1.00  0.00     0.000 C 
BRANCH  20  21
HETATM   21  C17 UNL     1       3.804  11.713   0.648  1.00  0.00     0.004 C 
BRANCH  21  22
HETATM   22  C18 UNL     1       3.845  10.230   0.349  1.00  0.00    -0.014 C 
HETATM   23  C19 UNL     1       4.131   9.518   1.673  1.00  0.00     0.004 C 
HETATM   24  C20 UNL     1       5.582   9.885   1.908  1.00  0.00     0.000 C 
HETATM   25  C21 UNL     1       6.189  10.106   0.549  1.00  0.00     0.000 C 
HETATM   26  C22 UNL     1       5.085   9.938  -0.476  1.00  0.00     0.004 C 
ENDBRANCH  21  22
ENDBRANCH  20  21
ENDBRANCH  19  20
ENDBRANCH  18  19
ENDBRANCH  17  18
ENDBRANCH  16  17
ENDBRANCH  15  16
ENDBRANCH  14  15
ENDBRANCH   1  14
TORSDOF 15
ENDMDL
MODEL 5
REMARK VINA RESULT: -6.719462602      1.758      4.078
REMARK  15 active torsions:
REMARK  status: ('A' for Active; 'I' for Inactive)
REMARK    1  A    between atoms: O1_1  and  C1_3 
REMARK    2  A    between atoms: C1_3  and  C2_4 
REMARK    3  A    between atoms: C5_7  and  C6_8 
REMARK    4  A    between atoms: C6_8  and  C7_9 
REMARK    5  A    between atoms: C7_9  and  C8_10 
REMARK    6  A    between atoms: C8_10  and  C9_11 
REMARK    7  A    between atoms: C9_11  and  C10_12 
REMARK    8  A    between atoms: C10_12  and  C11_13 
REMARK    9  A    between atoms: C11_13  and  C12_14 
REMARK   10  A    between atoms: C12_14  and  C13_15 
REMARK   11  A    between atoms: C13_15  and  C14_16 
REMARK   12  A    between atoms: C14_16  and  C15_17 
REMARK   13  A    between atoms: C15_17  and  C16_18 
REMARK   14  A    between atoms: C16_18  and  C17_19 
REMARK   15  A    between atoms: C17_19  and  C18_20 
ROOT
HETATM    1  C9  UNL     1       3.409   5.990  -2.168  1.00  0.00     0.000 C 
ENDROOT
BRANCH   1   2
HETATM    2  C8  UNL     1       4.772   6.518  -2.256  1.00  0.00     0.000 C 
BRANCH   2   3
HETATM    3  C7  UNL     1       5.566   6.762  -1.072  1.00  0.00     0.006 C 
BRANCH   3   4
HETATM    4  C6  UNL     1       6.641   5.836  -0.653  1.00  0.00     0.057 C 
BRANCH   4   5
HETATM    5  C5  UNL     1       7.102   6.348   0.707  1.00  0.00     0.009 A 
HETATM    6  C4  UNL     1       6.304   6.878   1.662  1.00  0.00     0.027 A 
HETATM    7  C3  UNL     1       7.129   7.213   2.744  1.00  0.00     0.029 A 
HETATM    8  C2  UNL     1       8.419   6.865   2.391  1.00  0.00     0.033 A 
HETATM    9  N1  UNL     1       8.357   6.334   1.128  1.00  0.00    -0.361 N 
ATOM     10  H1  UNL     1       9.154   5.984   0.595  1.00  0.00     0.165 HD
BRANCH   8  11
HETATM   11  C1  UNL     1       9.682   6.996   3.153  1.00  0.00     0.220 C 
BRANCH  11  12
HETATM   12  O1  UNL     1      10.723   7.095   2.237  1.00  0.00    -0.395 OA
ATOM     13  H1  UNL     1      11.466   7.484   2.683  1.00  0.00     0.209 HD
ENDBRANCH  11  12
ENDBRANCH   8  11
ENDBRANCH   4   5
ENDBRANCH   3   4
ENDBRANCH   2   3
ENDBRANCH   1   2
BRANCH   1  14
HETATM   14  C10 UNL     1       3.088   5.197  -0.964  1.00  0.00     0.000 C 
BRANCH  14  15
HETATM   15  C11 UNL     1       1.839   5.822  -0.281  1.00  0.00     0.000 C 
BRANCH  15  16
HETATM   16  C12 UNL     1       2.241   6.436   1.003  1.00  0.00     0.000 C 
BRANCH  16  17
HETATM   17  C13 UNL     1       2.597   7.946   0.810  1.00  0.00     0.000 C 
BRANCH  17  18
HETATM   18  C14 UNL     1       1.349   8.711   0.711  1.00  0.00     0.000 C 
BRANCH  18  19
HETATM   19  C15 UNL     1       0.343   8.675   1.783  1.00  0.00     0.000 C 
BRANCH  19  20
HETATM   20  C16 UNL     1       0.133   9.817   2.679  1.00  0.00     0.000 C 
BRANCH  20  21
HETATM   21  C17 UNL     1       0.878  11.053   2.344  1.00  0.00     0.004 C 
BRANCH  21  22
HETATM   22  C18 UNL     1       1.551  11.611   3.580  1.00  0.00    -0.014 C 
HETATM   23  C19 UNL     1       2.377  12.817   3.128  1.00  0.00     0.004 C 
HETATM   24  C20 UNL     1       3.503  12.147   2.367  1.00  0.00     0.000 C 
HETATM   25  C21 UNL     1       3.672  10.782   2.977  1.00  0.00     0.000 C 
HETATM   26  C22 UNL     1       2.606  10.623   4.043  1.00  0.00     0.004 C 
ENDBRANCH  21  22
ENDBRANCH  20  21
ENDBRANCH  19  20
ENDBRANCH  18  19
ENDBRANCH  17  18
ENDBRANCH  16  17
ENDBRANCH  15  16
ENDBRANCH  14  15
ENDBRANCH   1  14
TORSDOF 15
ENDMDL
