MODEL 1
REMARK VINA RESULT: -6.746432526      0.000      0.000
REMARK  12 active torsions:
REMARK  status: ('A' for Active; 'I' for Inactive)
REMARK    1  A    between atoms: C2_2  and  N1_3 
REMARK    2  A    between atoms: C2_2  and  C3_7 
REMARK    3  A    between atoms: C6_12  and  N3_13 
REMARK    4  A    between atoms: C11_27  and  N7_28 
REMARK    5  A    between atoms: N9_37  and  C15_39 
REMARK    6  A    between atoms: C15_39  and  C16_40 
REMARK       I    between atoms: C16_40  and  N10_42 
REMARK    7  A    between atoms: N10_42  and  C17_44 
REMARK    8  A    between atoms: C17_44  and  C18_45 
REMARK    9  A    between atoms: C17_44  and  C19_47 
REMARK   10  A    between atoms: C19_47  and  C20_48 
REMARK   11  A    between atoms: C20_48  and  C21_49 
REMARK   12  A    between atoms: C21_49  and  N11_50 
ROOT
HETATM    1  C3  UNL     1      55.956  -1.035  16.896  1.00  0.00     0.114 A 
HETATM    2  N2  UNL     1      55.678  -1.225  15.603  1.00  0.00    -0.341 N 
ATOM      3  H2  UNL     1      55.336  -2.119  15.252  1.00  0.00     0.167 HD
HETATM    4  C4  UNL     1      55.879  -0.152  14.775  1.00  0.00     0.081 A 
HETATM    5  C5  UNL     1      56.334   1.054  15.225  1.00  0.00     0.080 A 
HETATM    6  C6  UNL     1      56.538   2.142  14.386  1.00  0.00     0.115 A 
HETATM    7  N4  UNL     1      56.253   1.951  13.041  1.00  0.00    -0.339 N 
ATOM      8  H4  UNL     1      56.389   2.727  12.393  1.00  0.00     0.167 HD
HETATM    9  C7  UNL     1      55.814   0.805  12.576  1.00  0.00     0.081 A 
HETATM   10  C8  UNL     1      55.607  -0.295  13.421  1.00  0.00     0.091 A 
HETATM   11  N5  UNL     1      55.162  -1.477  12.980  1.00  0.00    -0.318 N 
ATOM     12  H5  UNL     1      55.025  -2.251  13.630  1.00  0.00     0.169 HD
HETATM   13  C9  UNL     1      54.898  -1.631  11.681  1.00  0.00     0.274 A 
HETATM   14  O1  UNL     1      54.472  -2.744  11.229  1.00  0.00    -0.266 OA
HETATM   15  C10 UNL     1      55.075  -0.600  10.787  1.00  0.00     0.135 A 
HETATM   16  N6  UNL     1      54.811  -0.755   9.483  1.00  0.00    -0.185 N 
ATOM     17  H6  UNL     1      54.471  -1.654   9.140  1.00  0.00     0.184 HD
HETATM   18  C11 UNL     1      54.988   0.257   8.622  1.00  0.00     0.679 A 
HETATM   19  N8  UNL     1      55.434   1.458   9.030  1.00  0.00    -0.156 N 
ATOM     20  H8  UNL     1      55.560   2.210   8.353  1.00  0.00     0.187 HD
HETATM   21  C12 UNL     1      55.720   1.674  10.350  1.00  0.00     0.274 A 
HETATM   22  O2  UNL     1      56.120   2.800  10.626  1.00  0.00    -0.267 OA
HETATM   23  C13 UNL     1      55.540   0.646  11.224  1.00  0.00     0.094 A 
HETATM   24  C14 UNL     1      56.614   1.216  16.596  1.00  0.00     0.119 A 
HETATM   25  N9  UNL     1      57.028   2.357  17.008  1.00  0.00    -0.367 N 
ATOM     26  H9  UNL     1      57.124   3.078  16.291  1.00  0.00     0.161 HD
HETATM   27  N12 UNL     1      56.409   0.154  17.369  1.00  0.00    -0.330 N 
ATOM     28  H12 UNL     1      56.601   0.238  18.368  1.00  0.00     0.168 HD
ENDROOT
BRANCH  25  29
HETATM   29  C15 UNL     1      57.374   2.755  18.331  1.00  0.00     0.224 C 
BRANCH  29  30
HETATM   30  C16 UNL     1      56.321   3.525  19.030  1.00  0.00     0.235 C 
HETATM   31  O3  UNL     1      56.591   3.792  20.255  1.00  0.00    -0.272 OA
HETATM   32  N10 UNL     1      55.128   3.938  18.427  1.00  0.00    -0.349 N 
ATOM     33  H10 UNL     1      54.962   3.693  17.451  1.00  0.00     0.163 HD
BRANCH  32  34
HETATM   34  C17 UNL     1      54.097   4.718  19.155  1.00  0.00     0.146 C 
BRANCH  34  35
HETATM   35  C18 UNL     1      54.118   6.063  18.633  1.00  0.00     0.256 C 
HETATM   36  O4  UNL     1      54.794   6.308  17.613  1.00  0.00    -0.305 OA
ENDBRANCH  34  35
BRANCH  34  37
HETATM   37  C19 UNL     1      52.882   3.916  19.304  1.00  0.00     0.034 C 
BRANCH  37  38
HETATM   38  C20 UNL     1      52.819   2.597  18.668  1.00  0.00     0.029 C 
BRANCH  38  39
HETATM   39  C21 UNL     1      51.795   2.417  17.630  1.00  0.00     0.230 C 
BRANCH  39  40
HETATM   40  N11 UNL     1      51.808   1.034  17.111  1.00  0.00    -0.079 N 
ATOM     41 3H11 UNL     1      52.522   0.467  17.568  1.00  0.00     0.274 HD
ATOM     42 2H11 UNL     1      50.983   0.512  17.406  1.00  0.00     0.274 HD
ATOM     43 1H11 UNL     1      51.914   1.027  16.096  1.00  0.00     0.274 HD
ENDBRANCH  39  40
ENDBRANCH  38  39
ENDBRANCH  37  38
ENDBRANCH  34  37
ENDBRANCH  32  34
ENDBRANCH  29  30
ENDBRANCH  25  29
BRANCH   6  44
HETATM   44  N3  UNL     1      56.957   3.192  14.793  1.00  0.00    -0.385 N 
ATOM     45  H32 UNL     1      56.326   3.945  15.068  1.00  0.00     0.157 HD
ATOM     46  H31 UNL     1      57.956   3.384  14.867  1.00  0.00     0.157 HD
ENDBRANCH   6  44
BRANCH   1  47
HETATM   47  C2  UNL     1      55.783  -2.131  17.905  1.00  0.00     0.246 C 
HETATM   48  C1  UNL     1      56.657  -3.308  17.613  1.00  0.00     0.048 C 
BRANCH  47  49
HETATM   49  N1  UNL     1      54.383  -2.487  18.027  1.00  0.00    -0.069 N 
ATOM     50  H13 UNL     1      54.156  -2.753  18.985  1.00  0.00     0.275 HD
ATOM     51  H12 UNL     1      53.787  -1.664  17.938  1.00  0.00     0.275 HD
ATOM     52  H11 UNL     1      54.102  -3.215  17.370  1.00  0.00     0.275 HD
ENDBRANCH  47  49
ENDBRANCH   1  47
BRANCH  18  53
HETATM   53  N7  UNL     1      54.738   0.117   7.362  1.00  0.00    -0.234 N 
ATOM     54  H72 UNL     1      53.770  -0.060   7.096  1.00  0.00     0.174 HD
ATOM     55  H71 UNL     1      55.480   0.182   6.665  1.00  0.00     0.174 HD
ENDBRANCH  18  53
TORSDOF 12
ENDMDL
MODEL 2
REMARK VINA RESULT: -6.563478853      3.170      5.675
REMARK  12 active torsions:
REMARK  status: ('A' for Active; 'I' for Inactive)
REMARK    1  A    between atoms: C2_2  and  N1_3 
REMARK    2  A    between atoms: C2_2  and  C3_7 
REMARK    3  A    between atoms: C6_12  and  N3_13 
REMARK    4  A    between atoms: C11_27  and  N7_28 
REMARK    5  A    between atoms: N9_37  and  C15_39 
REMARK    6  A    between atoms: C15_39  and  C16_40 
REMARK       I    between atoms: C16_40  and  N10_42 
REMARK    7  A    between atoms: N10_42  and  C17_44 
REMARK    8  A    between atoms: C17_44  and  C18_45 
REMARK    9  A    between atoms: C17_44  and  C19_47 
REMARK   10  A    between atoms: C19_47  and  C20_48 
REMARK   11  A    between atoms: C20_48  and  C21_49 
REMARK   12  A    between atoms: C21_49  and  N11_50 
ROOT
HETATM    1  C3  UNL     1      54.579   3.759  18.002  1.00  0.00     0.114 A 
HETATM    2  N2  UNL     1      53.824   3.968  16.920  1.00  0.00    -0.341 N 
ATOM      3  H2  UNL     1      53.088   4.674  16.906  1.00  0.00     0.167 HD
HETATM    4  C4  UNL     1      54.093   3.181  15.831  1.00  0.00     0.081 A 
HETATM    5  C5  UNL     1      55.074   2.233  15.828  1.00  0.00     0.080 A 
HETATM    6  C6  UNL     1      55.347   1.435  14.724  1.00  0.00     0.115 A 
HETATM    7  N4  UNL     1      54.565   1.646  13.597  1.00  0.00    -0.339 N 
ATOM      8  H4  UNL     1      54.735   1.080  12.766  1.00  0.00     0.167 HD
HETATM    9  C7  UNL     1      53.614   2.550  13.566  1.00  0.00     0.081 A 
HETATM   10  C8  UNL     1      53.337   3.356  14.680  1.00  0.00     0.091 A 
HETATM   11  N5  UNL     1      52.374   4.286  14.683  1.00  0.00    -0.318 N 
ATOM     12  H5  UNL     1      52.205   4.851  15.515  1.00  0.00     0.169 HD
HETATM   13  C9  UNL     1      51.636   4.465  13.585  1.00  0.00     0.274 A 
HETATM   14  O1  UNL     1      50.712   5.342  13.555  1.00  0.00    -0.266 OA
HETATM   15  C10 UNL     1      51.846   3.713  12.451  1.00  0.00     0.135 A 
HETATM   16  N6  UNL     1      51.105   3.892  11.349  1.00  0.00    -0.185 N 
ATOM     17  H6  UNL     1      50.370   4.599  11.345  1.00  0.00     0.184 HD
HETATM   18  C11 UNL     1      51.319   3.152  10.252  1.00  0.00     0.679 A 
HETATM   19  N8  UNL     1      52.277   2.210  10.214  1.00  0.00    -0.156 N 
ATOM     20  H8  UNL     1      52.418   1.662   9.364  1.00  0.00     0.187 HD
HETATM   21  C12 UNL     1      53.064   1.984  11.309  1.00  0.00     0.274 A 
HETATM   22  O2  UNL     1      53.910   1.105  11.179  1.00  0.00    -0.267 OA
HETATM   23  C13 UNL     1      52.847   2.734  12.424  1.00  0.00     0.094 A 
HETATM   24  C14 UNL     1      55.852   2.043  16.988  1.00  0.00     0.119 A 
HETATM   25  N9  UNL     1      56.779   1.158  16.968  1.00  0.00    -0.367 N 
ATOM     26  H9  UNL     1      56.885   0.648  16.090  1.00  0.00     0.161 HD
HETATM   27  N12 UNL     1      55.563   2.822  18.025  1.00  0.00    -0.330 N 
ATOM     28  H12 UNL     1      56.107   2.712  18.881  1.00  0.00     0.168 HD
ENDROOT
BRANCH  25  29
HETATM   29  C15 UNL     1      57.681   0.790  18.006  1.00  0.00     0.224 C 
BRANCH  29  30
HETATM   30  C16 UNL     1      57.677  -0.653  18.335  1.00  0.00     0.235 C 
HETATM   31  O3  UNL     1      58.607  -1.012  19.141  1.00  0.00    -0.272 OA
HETATM   32  N10 UNL     1      56.748  -1.565  17.823  1.00  0.00    -0.349 N 
ATOM     33  H10 UNL     1      56.032  -1.227  17.180  1.00  0.00     0.163 HD
BRANCH  32  34
HETATM   34  C17 UNL     1      56.765  -3.005  18.180  1.00  0.00     0.146 C 
BRANCH  34  35
HETATM   35  C18 UNL     1      55.998  -3.163  19.392  1.00  0.00     0.256 C 
HETATM   36  O4  UNL     1      54.956  -2.492  19.544  1.00  0.00    -0.305 OA
ENDBRANCH  34  35
BRANCH  34  37
HETATM   37  C19 UNL     1      56.575  -3.817  16.978  1.00  0.00     0.034 C 
BRANCH  37  38
HETATM   38  C20 UNL     1      55.527  -3.440  16.025  1.00  0.00     0.029 C 
BRANCH  38  39
HETATM   39  C21 UNL     1      54.173  -3.932  16.311  1.00  0.00     0.230 C 
BRANCH  39  40
HETATM   40  N11 UNL     1      53.353  -2.880  16.947  1.00  0.00    -0.079 N 
ATOM     41 3H11 UNL     1      53.337  -2.026  16.388  1.00  0.00     0.274 HD
ATOM     42 2H11 UNL     1      52.358  -3.105  16.913  1.00  0.00     0.274 HD
ATOM     43 1H11 UNL     1      53.665  -2.701  17.901  1.00  0.00     0.274 HD
ENDBRANCH  39  40
ENDBRANCH  38  39
ENDBRANCH  37  38
ENDBRANCH  34  37
ENDBRANCH  32  34
ENDBRANCH  29  30
ENDBRANCH  25  29
BRANCH   6  44
HETATM   44  N3  UNL     1      56.202   0.591  14.743  1.00  0.00    -0.385 N 
ATOM     45  H32 UNL     1      56.768   0.427  15.576  1.00  0.00     0.157 HD
ATOM     46  H31 UNL     1      56.411   0.014  13.928  1.00  0.00     0.157 HD
ENDBRANCH   6  44
BRANCH   1  47
HETATM   47  C2  UNL     1      54.384   4.550  19.261  1.00  0.00     0.246 C 
HETATM   48  C1  UNL     1      54.081   5.988  18.981  1.00  0.00     0.048 C 
BRANCH  47  49
HETATM   49  N1  UNL     1      55.518   4.377  20.146  1.00  0.00    -0.069 N 
ATOM     50  H13 UNL     1      56.338   4.868  19.789  1.00  0.00     0.275 HD
ATOM     51  H12 UNL     1      55.384   4.891  21.017  1.00  0.00     0.275 HD
ATOM     52  H11 UNL     1      55.730   3.396  20.329  1.00  0.00     0.275 HD
ENDBRANCH  47  49
ENDBRANCH   1  47
BRANCH  18  53
HETATM   53  N7  UNL     1      50.609   3.316   9.185  1.00  0.00    -0.234 N 
ATOM     54  H72 UNL     1      50.573   4.255   8.788  1.00  0.00     0.174 HD
ATOM     55  H71 UNL     1      50.107   2.537   8.759  1.00  0.00     0.174 HD
ENDBRANCH  18  53
TORSDOF 12
ENDMDL
MODEL 3
REMARK VINA RESULT: -6.361759075      3.506      5.504
REMARK  12 active torsions:
REMARK  status: ('A' for Active; 'I' for Inactive)
REMARK    1  A    between atoms: C2_2  and  N1_3 
REMARK    2  A    between atoms: C2_2  and  C3_7 
REMARK    3  A    between atoms: C6_12  and  N3_13 
REMARK    4  A    between atoms: C11_27  and  N7_28 
REMARK    5  A    between atoms: N9_37  and  C15_39 
REMARK    6  A    between atoms: C15_39  and  C16_40 
REMARK       I    between atoms: C16_40  and  N10_42 
REMARK    7  A    between atoms: N10_42  and  C17_44 
REMARK    8  A    between atoms: C17_44  and  C18_45 
REMARK    9  A    between atoms: C17_44  and  C19_47 
REMARK   10  A    between atoms: C19_47  and  C20_48 
REMARK   11  A    between atoms: C20_48  and  C21_49 
REMARK   12  A    between atoms: C21_49  and  N11_50 
ROOT
HETATM    1  C3  UNL     1      53.729   3.555  17.161  1.00  0.00     0.114 A 
HETATM    2  N2  UNL     1      52.906   3.706  16.119  1.00  0.00    -0.341 N 
ATOM      3  H2  UNL     1      52.000   4.165  16.211  1.00  0.00     0.167 HD
HETATM    4  C4  UNL     1      53.348   3.211  14.920  1.00  0.00     0.081 A 
HETATM    5  C5  UNL     1      54.557   2.596  14.775  1.00  0.00     0.080 A 
HETATM    6  C6  UNL     1      55.005   2.094  13.559  1.00  0.00     0.115 A 
HETATM    7  N4  UNL     1      54.155   2.247  12.473  1.00  0.00    -0.339 N 
ATOM      8  H4  UNL     1      54.448   1.891  11.563  1.00  0.00     0.167 HD
HETATM    9  C7  UNL     1      52.986   2.833  12.579  1.00  0.00     0.081 A 
HETATM   10  C8  UNL     1      52.532   3.341  13.805  1.00  0.00     0.091 A 
HETATM   11  N5  UNL     1      51.345   3.944  13.947  1.00  0.00    -0.318 N 
ATOM     12  H5  UNL     1      51.054   4.299  14.858  1.00  0.00     0.169 HD
HETATM   13  C9  UNL     1      50.548   4.075  12.885  1.00  0.00     0.274 A 
HETATM   14  O1  UNL     1      49.412   4.644  12.988  1.00  0.00    -0.266 OA
HETATM   15  C10 UNL     1      50.921   3.603  11.648  1.00  0.00     0.135 A 
HETATM   16  N6  UNL     1      50.121   3.733  10.581  1.00  0.00    -0.185 N 
ATOM     17  H6  UNL     1      49.215   4.192  10.683  1.00  0.00     0.184 HD
HETATM   18  C11 UNL     1      50.495   3.268   9.381  1.00  0.00     0.679 A 
HETATM   19  N8  UNL     1      51.679   2.658   9.201  1.00  0.00    -0.156 N 
ATOM     20  H8  UNL     1      51.939   2.314   8.276  1.00  0.00     0.187 HD
HETATM   21  C12 UNL     1      52.538   2.497  10.254  1.00  0.00     0.274 A 
HETATM   22  O2  UNL     1      53.593   1.928   9.993  1.00  0.00    -0.267 OA
HETATM   23  C13 UNL     1      52.157   2.969  11.473  1.00  0.00     0.094 A 
HETATM   24  C14 UNL     1      55.398   2.456  15.896  1.00  0.00     0.119 A 
HETATM   25  N9  UNL     1      56.537   1.888  15.744  1.00  0.00    -0.367 N 
ATOM     26  H9  UNL     1      56.751   1.575  14.797  1.00  0.00     0.161 HD
HETATM   27  N12 UNL     1      54.938   2.947  17.043  1.00  0.00    -0.330 N 
ATOM     28  H12 UNL     1      55.522   2.863  17.875  1.00  0.00     0.168 HD
ENDROOT
BRANCH  25  29
HETATM   29  C15 UNL     1      57.544   1.635  16.718  1.00  0.00     0.224 C 
BRANCH  29  30
HETATM   30  C16 UNL     1      57.712   0.206  17.064  1.00  0.00     0.235 C 
HETATM   31  O3  UNL     1      58.915  -0.125  17.363  1.00  0.00    -0.272 OA
HETATM   32  N10 UNL     1      56.665  -0.721  17.073  1.00  0.00    -0.349 N 
ATOM     33  H10 UNL     1      55.728  -0.405  16.821  1.00  0.00     0.163 HD
BRANCH  32  34
HETATM   34  C17 UNL     1      56.865  -2.146  17.435  1.00  0.00     0.146 C 
BRANCH  34  35
HETATM   35  C18 UNL     1      56.567  -2.286  18.840  1.00  0.00     0.256 C 
HETATM   36  O4  UNL     1      55.375  -2.293  19.210  1.00  0.00    -0.305 OA
ENDBRANCH  34  35
BRANCH  34  37
HETATM   37  C19 UNL     1      56.309  -3.006  16.390  1.00  0.00     0.034 C 
BRANCH  37  38
HETATM   38  C20 UNL     1      55.291  -2.461  15.488  1.00  0.00     0.029 C 
BRANCH  38  39
HETATM   39  C21 UNL     1      53.933  -3.005  15.625  1.00  0.00     0.230 C 
BRANCH  39  40
HETATM   40  N11 UNL     1      53.364  -2.676  16.949  1.00  0.00    -0.079 N 
ATOM     41 3H11 UNL     1      53.432  -1.679  17.150  1.00  0.00     0.274 HD
ATOM     42 2H11 UNL     1      52.348  -2.767  16.955  1.00  0.00     0.274 HD
ATOM     43 1H11 UNL     1      53.797  -3.239  17.682  1.00  0.00     0.274 HD
ENDBRANCH  39  40
ENDBRANCH  38  39
ENDBRANCH  37  38
ENDBRANCH  34  37
ENDBRANCH  32  34
ENDBRANCH  29  30
ENDBRANCH  25  29
BRANCH   6  44
HETATM   44  N3  UNL     1      56.065   1.537  13.450  1.00  0.00    -0.385 N 
ATOM     45  H32 UNL     1      56.292   0.986  12.623  1.00  0.00     0.157 HD
ATOM     46  H31 UNL     1      56.774   1.576  14.182  1.00  0.00     0.157 HD
ENDBRANCH   6  44
BRANCH   1  47
HETATM   47  C2  UNL     1      53.363   4.049  18.529  1.00  0.00     0.246 C 
HETATM   48  C1  UNL     1      54.565   4.448  19.323  1.00  0.00     0.048 C 
BRANCH  47  49
HETATM   49  N1  UNL     1      52.536   3.074  19.212  1.00  0.00    -0.069 N 
ATOM     50  H13 UNL     1      53.055   2.213  19.386  1.00  0.00     0.275 HD
ATOM     51  H12 UNL     1      52.358   3.357  20.176  1.00  0.00     0.275 HD
ATOM     52  H11 UNL     1      51.663   2.882  18.720  1.00  0.00     0.275 HD
ENDBRANCH  47  49
ENDBRANCH   1  47
BRANCH  18  53
HETATM   53  N7  UNL     1      49.730   3.388   8.347  1.00  0.00    -0.234 N 
ATOM     54  H72 UNL     1      49.634   2.572   7.741  1.00  0.00     0.174 HD
ATOM     55  H71 UNL     1      49.242   4.261   8.148  1.00  0.00     0.174 HD
ENDBRANCH  18  53
TORSDOF 12
ENDMDL
MODEL 4
REMARK VINA RESULT: -6.165663439      3.934      6.044
REMARK  12 active torsions:
REMARK  status: ('A' for Active; 'I' for Inactive)
REMARK    1  A    between atoms: C2_2  and  N1_3 
REMARK    2  A    between atoms: C2_2  and  C3_7 
REMARK    3  A    between atoms: C6_12  and  N3_13 
REMARK    4  A    between atoms: C11_27  and  N7_28 
REMARK    5  A    between atoms: N9_37  and  C15_39 
REMARK    6  A    between atoms: C15_39  and  C16_40 
REMARK       I    between atoms: C16_40  and  N10_42 
REMARK    7  A    between atoms: N10_42  and  C17_44 
REMARK    8  A    between atoms: C17_44  and  C18_45 
REMARK    9  A    between atoms: C17_44  and  C19_47 
REMARK   10  A    between atoms: C19_47  and  C20_48 
REMARK   11  A    between atoms: C20_48  and  C21_49 
REMARK   12  A    between atoms: C21_49  and  N11_50 
ROOT
HETATM    1  C3  UNL     1      55.863   0.190  16.248  1.00  0.00     0.114 A 
HETATM    2  N2  UNL     1      55.107  -0.912  16.285  1.00  0.00    -0.341 N 
ATOM      3  H2  UNL     1      55.514  -1.840  16.396  1.00  0.00     0.167 HD
HETATM    4  C4  UNL     1      53.755  -0.724  16.166  1.00  0.00     0.081 A 
HETATM    5  C5  UNL     1      53.190   0.509  16.018  1.00  0.00     0.080 A 
HETATM    6  C6  UNL     1      51.819   0.700  15.897  1.00  0.00     0.115 A 
HETATM    7  N4  UNL     1      51.028  -0.441  15.933  1.00  0.00    -0.339 N 
ATOM      8  H4  UNL     1      50.017  -0.342  15.848  1.00  0.00     0.167 HD
HETATM    9  C7  UNL     1      51.540  -1.641  16.074  1.00  0.00     0.081 A 
HETATM   10  C8  UNL     1      52.923  -1.835  16.197  1.00  0.00     0.091 A 
HETATM   11  N5  UNL     1      53.478  -3.045  16.341  1.00  0.00    -0.318 N 
ATOM     12  H5  UNL     1      54.489  -3.141  16.427  1.00  0.00     0.169 HD
HETATM   13  C9  UNL     1      52.691  -4.123  16.370  1.00  0.00     0.274 A 
HETATM   14  O1  UNL     1      53.188  -5.289  16.507  1.00  0.00    -0.266 OA
HETATM   15  C10 UNL     1      51.325  -4.016  16.256  1.00  0.00     0.135 A 
HETATM   16  N6  UNL     1      50.536  -5.099  16.285  1.00  0.00    -0.185 N 
ATOM     17  H6  UNL     1      50.952  -6.023  16.394  1.00  0.00     0.184 HD
HETATM   18  C11 UNL     1      49.206  -4.981  16.171  1.00  0.00     0.679 A 
HETATM   19  N8  UNL     1      48.615  -3.783  16.025  1.00  0.00    -0.156 N 
ATOM     20  H8  UNL     1      47.599  -3.723  15.942  1.00  0.00     0.187 HD
HETATM   21  C12 UNL     1      49.370  -2.643  15.989  1.00  0.00     0.274 A 
HETATM   22  O2  UNL     1      48.743  -1.598  15.853  1.00  0.00    -0.267 OA
HETATM   23  C13 UNL     1      50.721  -2.762  16.104  1.00  0.00     0.094 A 
HETATM   24  C14 UNL     1      54.019   1.647  15.985  1.00  0.00     0.119 A 
HETATM   25  N9  UNL     1      53.475   2.801  15.859  1.00  0.00    -0.367 N 
ATOM     26  H9  UNL     1      52.457   2.805  15.793  1.00  0.00     0.161 HD
HETATM   27  N12 UNL     1      55.325   1.429  16.103  1.00  0.00    -0.330 N 
ATOM     28  H12 UNL     1      55.955   2.231  16.084  1.00  0.00     0.168 HD
ENDROOT
BRANCH  25  29
HETATM   29  C15 UNL     1      54.100   4.079  15.800  1.00  0.00     0.224 C 
BRANCH  29  30
HETATM   30  C16 UNL     1      54.536   4.607  17.112  1.00  0.00     0.235 C 
HETATM   31  O3  UNL     1      54.724   5.875  17.133  1.00  0.00    -0.272 OA
HETATM   32  N10 UNL     1      54.732   3.810  18.245  1.00  0.00    -0.349 N 
ATOM     33  H10 UNL     1      54.574   2.805  18.171  1.00  0.00     0.163 HD
BRANCH  32  34
HETATM   34  C17 UNL     1      55.160   4.372  19.549  1.00  0.00     0.146 C 
BRANCH  34  35
HETATM   35  C18 UNL     1      53.984   4.504  20.375  1.00  0.00     0.256 C 
HETATM   36  O4  UNL     1      52.892   4.074  19.950  1.00  0.00    -0.305 OA
ENDBRANCH  34  35
BRANCH  34  37
HETATM   37  C19 UNL     1      56.399   3.726  19.985  1.00  0.00     0.034 C 
BRANCH  37  38
HETATM   38  C20 UNL     1      56.918   4.016  21.325  1.00  0.00     0.029 C 
BRANCH  38  39
HETATM   39  C21 UNL     1      57.013   2.880  22.251  1.00  0.00     0.230 C 
BRANCH  39  40
HETATM   40  N11 UNL     1      56.942   3.337  23.655  1.00  0.00    -0.079 N 
ATOM     41 3H11 UNL     1      57.867   3.386  24.082  1.00  0.00     0.274 HD
ATOM     42 2H11 UNL     1      56.690   4.323  23.718  1.00  0.00     0.274 HD
ATOM     43 1H11 UNL     1      56.307   2.751  24.197  1.00  0.00     0.274 HD
ENDBRANCH  39  40
ENDBRANCH  38  39
ENDBRANCH  37  38
ENDBRANCH  34  37
ENDBRANCH  32  34
ENDBRANCH  29  30
ENDBRANCH  25  29
BRANCH   6  44
HETATM   44  N3  UNL     1      51.337   1.791  15.748  1.00  0.00    -0.385 N 
ATOM     45  H32 UNL     1      51.854   2.541  15.290  1.00  0.00     0.157 HD
ATOM     46  H31 UNL     1      50.402   2.020  16.086  1.00  0.00     0.157 HD
ENDBRANCH   6  44
BRANCH   1  47
HETATM   47  C2  UNL     1      57.356   0.121  16.364  1.00  0.00     0.246 C 
HETATM   48  C1  UNL     1      57.792  -0.545  17.630  1.00  0.00     0.048 C 
BRANCH  47  49
HETATM   49  N1  UNL     1      57.936   1.439  16.194  1.00  0.00    -0.069 N 
ATOM     50  H13 UNL     1      57.273   2.166  16.462  1.00  0.00     0.275 HD
ATOM     51  H12 UNL     1      58.662   1.612  16.890  1.00  0.00     0.275 HD
ATOM     52  H11 UNL     1      58.289   1.596  15.250  1.00  0.00     0.275 HD
ENDBRANCH  47  49
ENDBRANCH   1  47
BRANCH  18  53
HETATM   53  N7  UNL     1      48.436  -6.019  16.196  1.00  0.00    -0.234 N 
ATOM     54  H72 UNL     1      47.625  -6.013  15.577  1.00  0.00     0.174 HD
ATOM     55  H71 UNL     1      48.634  -6.810  16.809  1.00  0.00     0.174 HD
ENDBRANCH  18  53
TORSDOF 12
ENDMDL
MODEL 5
REMARK VINA RESULT: -6.161801360      4.830      8.378
REMARK  12 active torsions:
REMARK  status: ('A' for Active; 'I' for Inactive)
REMARK    1  A    between atoms: C2_2  and  N1_3 
REMARK    2  A    between atoms: C2_2  and  C3_7 
REMARK    3  A    between atoms: C6_12  and  N3_13 
REMARK    4  A    between atoms: C11_27  and  N7_28 
REMARK    5  A    between atoms: N9_37  and  C15_39 
REMARK    6  A    between atoms: C15_39  and  C16_40 
REMARK       I    between atoms: C16_40  and  N10_42 
REMARK    7  A    between atoms: N10_42  and  C17_44 
REMARK    8  A    between atoms: C17_44  and  C18_45 
REMARK    9  A    between atoms: C17_44  and  C19_47 
REMARK   10  A    between atoms: C19_47  and  C20_48 
REMARK   11  A    between atoms: C20_48  and  C21_49 
REMARK   12  A    between atoms: C21_49  and  N11_50 
ROOT
HETATM    1  C3  UNL     1      54.835   1.526  12.488  1.00  0.00     0.114 A 
HETATM    2  N2  UNL     1      55.429   1.644  13.679  1.00  0.00    -0.341 N 
ATOM      3  H2  UNL     1      56.310   1.174  13.890  1.00  0.00     0.167 HD
HETATM    4  C4  UNL     1      54.791   2.431  14.601  1.00  0.00     0.081 A 
HETATM    5  C5  UNL     1      53.614   3.070  14.339  1.00  0.00     0.080 A 
HETATM    6  C6  UNL     1      52.966   3.868  15.274  1.00  0.00     0.115 A 
HETATM    7  N4  UNL     1      53.578   3.993  16.513  1.00  0.00    -0.339 N 
ATOM      8  H4  UNL     1      53.133   4.571  17.226  1.00  0.00     0.167 HD
HETATM    9  C7  UNL     1      54.709   3.392  16.798  1.00  0.00     0.081 A 
HETATM   10  C8  UNL     1      55.365   2.586  15.855  1.00  0.00     0.091 A 
HETATM   11  N5  UNL     1      56.518   1.959  16.113  1.00  0.00    -0.318 N 
ATOM     12  H5  UNL     1      56.962   1.382  15.398  1.00  0.00     0.169 HD
HETATM   13  C9  UNL     1      57.082   2.097  17.315  1.00  0.00     0.274 A 
HETATM   14  O1  UNL     1      58.181   1.513  17.591  1.00  0.00    -0.266 OA
HETATM   15  C10 UNL     1      56.501   2.870  18.293  1.00  0.00     0.135 A 
HETATM   16  N6  UNL     1      57.066   3.008  19.500  1.00  0.00    -0.185 N 
ATOM     17  H6  UNL     1      57.946   2.532  19.703  1.00  0.00     0.184 HD
HETATM   18  C11 UNL     1      56.490   3.763  20.445  1.00  0.00     0.679 A 
HETATM   19  N8  UNL     1      55.331   4.407  20.222  1.00  0.00    -0.156 N 
ATOM     20  H8  UNL     1      54.915   4.976  20.960  1.00  0.00     0.187 HD
HETATM   21  C12 UNL     1      54.709   4.304  19.008  1.00  0.00     0.274 A 
HETATM   22  O2  UNL     1      53.658   4.926  18.899  1.00  0.00    -0.267 OA
HETATM   23  C13 UNL     1      55.294   3.536  18.048  1.00  0.00     0.094 A 
HETATM   24  C14 UNL     1      53.018   2.923  13.071  1.00  0.00     0.119 A 
HETATM   25  N9  UNL     1      51.920   3.540  12.833  1.00  0.00    -0.367 N 
ATOM     26  H9  UNL     1      51.554   4.104  13.600  1.00  0.00     0.161 HD
HETATM   27  N12 UNL     1      53.664   2.152  12.201  1.00  0.00    -0.330 N 
ATOM     28  H12 UNL     1      53.261   2.025  11.273  1.00  0.00     0.168 HD
ENDROOT
BRANCH  25  29
HETATM   29  C15 UNL     1      51.140   3.542  11.641  1.00  0.00     0.224 C 
BRANCH  29  30
HETATM   30  C16 UNL     1      51.085   4.851  10.951  1.00  0.00     0.235 C 
HETATM   31  O3  UNL     1      51.553   4.836   9.757  1.00  0.00    -0.272 OA
HETATM   32  N10 UNL     1      50.571   6.015  11.531  1.00  0.00    -0.349 N 
ATOM     33  H10 UNL     1      50.217   5.972  12.487  1.00  0.00     0.163 HD
BRANCH  32  34
HETATM   34  C17 UNL     1      50.522   7.309  10.808  1.00  0.00     0.146 C 
BRANCH  34  35
HETATM   35  C18 UNL     1      49.213   7.426  10.210  1.00  0.00     0.256 C 
HETATM   36  O4  UNL     1      48.265   7.851  10.901  1.00  0.00    -0.305 OA
ENDBRANCH  34  35
BRANCH  34  37
HETATM   37  C19 UNL     1      51.147   8.355  11.618  1.00  0.00     0.034 C 
BRANCH  37  38
HETATM   38  C20 UNL     1      51.228   9.716  11.083  1.00  0.00     0.029 C 
BRANCH  38  39
HETATM   39  C21 UNL     1      50.562  10.769  11.862  1.00  0.00     0.230 C 
BRANCH  39  40
HETATM   40  N11 UNL     1      49.100  10.740  11.645  1.00  0.00    -0.079 N 
ATOM     41 3H11 UNL     1      48.782  11.554  11.119  1.00  0.00     0.274 HD
ATOM     42 2H11 UNL     1      48.831  10.013  10.983  1.00  0.00     0.274 HD
ATOM     43 1H11 UNL     1      48.603  10.645  12.531  1.00  0.00     0.274 HD
ENDBRANCH  39  40
ENDBRANCH  38  39
ENDBRANCH  37  38
ENDBRANCH  34  37
ENDBRANCH  32  34
ENDBRANCH  29  30
ENDBRANCH  25  29
BRANCH   6  44
HETATM   44  N3  UNL     1      51.920   4.409  15.035  1.00  0.00    -0.385 N 
ATOM     45  H32 UNL     1      51.073   3.871  14.855  1.00  0.00     0.157 HD
ATOM     46  H31 UNL     1      51.835   5.424  14.985  1.00  0.00     0.157 HD
ENDBRANCH   6  44
BRANCH   1  47
HETATM   47  C2  UNL     1      55.429   0.691  11.393  1.00  0.00     0.246 C 
HETATM   48  C1  UNL     1      55.703  -0.710  11.840  1.00  0.00     0.048 C 
BRANCH  47  49
HETATM   49  N1  UNL     1      56.598   1.344  10.839  1.00  0.00    -0.069 N 
ATOM     50  H13 UNL     1      57.454   0.967  11.247  1.00  0.00     0.275 HD
ATOM     51  H12 UNL     1      56.743   1.070   9.867  1.00  0.00     0.275 HD
ATOM     52  H11 UNL     1      56.565   2.359  10.932  1.00  0.00     0.275 HD
ENDBRANCH  47  49
ENDBRANCH   1  47
BRANCH  18  53
HETATM   53  N7  UNL     1      57.026   3.901  21.613  1.00  0.00    -0.234 N 
ATOM     54  H72 UNL     1      58.027   4.094  21.647  1.00  0.00     0.174 HD
ATOM     55  H71 UNL     1      56.469   3.819  22.464  1.00  0.00     0.174 HD
ENDBRANCH  18  53
TORSDOF 12
ENDMDL
