MODEL 1
REMARK VINA RESULT: -7.665777564      0.000      0.000
REMARK  13 active torsions:
REMARK  status: ('A' for Active; 'I' for Inactive)
REMARK       I    between atoms: N1_2  and  C2_4 
REMARK       I    between atoms: C2_4  and  N2_5 
REMARK    1  A    between atoms: C3_7  and  C4_8 
REMARK    2  A    between atoms: C3_7  and  N6_24 
REMARK    3  A    between atoms: C4_8  and  O1_9 
REMARK    4  A    between atoms: O1_9  and  C5_10 
REMARK    5  A    between atoms: C5_10  and  C6_12 
REMARK    6  A    between atoms: C6_12  and  C7_13 
REMARK    7  A    between atoms: C7_13  and  N3_14 
REMARK    8  A    between atoms: C8_16  and  N4_17 
REMARK    9  A    between atoms: C8_16  and  O5_22 
REMARK   10  A    between atoms: N4_17  and  N5_19 
REMARK   11  A    between atoms: N6_24  and  C10_26 
REMARK   12  A    between atoms: C12_28  and  C13_29 
REMARK   13  A    between atoms: C13_29  and  N7_31 
REMARK       I    between atoms: N7_31  and  C15_33 
ROOT
HETATM    1  C1  UNL     1      10.735   9.715  25.655  1.00  0.00     0.165 C 
HETATM    2  N1  UNL     1       9.614  10.204  24.854  1.00  0.00    -0.230 N 
ATOM      3  H1  UNL     1       9.403  11.202  24.840  1.00  0.00     0.177 HD
HETATM    4  C2  UNL     1       8.820   9.310  24.099  1.00  0.00     0.689 C 
HETATM    5  N2  UNL     1       8.884   9.321  22.701  1.00  0.00    -0.178 N 
ATOM      6  H2  UNL     1       9.812   9.228  22.288  1.00  0.00     0.185 HD
HETATM    7  C3  UNL     1       7.915   9.434  21.893  1.00  0.00     0.122 C 
HETATM    8  N8  UNL     1       8.038   8.483  24.689  1.00  0.00    -0.131 N 
ATOM      9  H8  UNL     1       7.485   7.857  24.103  1.00  0.00     0.199 HD
HETATM   10 CL2  UNL     1       7.851   8.349  26.391  1.00  0.00     0.026 Cl
ENDROOT
BRANCH   7  11
HETATM   11  C4  UNL     1       8.189   9.424  20.433  1.00  0.00     0.255 C 
BRANCH  11  12
HETATM   12  O1  UNL     1       7.668  10.580  19.801  1.00  0.00    -0.314 OA
BRANCH  12  13
HETATM   13  C5  UNL     1       6.754  10.539  18.778  1.00  0.00     0.260 C 
HETATM   14  O2  UNL     1       7.155  10.563  17.598  1.00  0.00    -0.265 OA
BRANCH  13  15
HETATM   15  C6  UNL     1       5.323  10.469  19.104  1.00  0.00     0.131 C 
BRANCH  15  16
HETATM   16  C7  UNL     1       4.670  11.855  19.045  1.00  0.00     0.133 C 
BRANCH  16  17
HETATM   17  N3  UNL     1       5.652  12.840  19.242  1.00  0.00    -0.355 N 
HETATM   18  C8  UNL     1       5.665  14.036  19.557  1.00  0.00     0.238 C 
ATOM     19  H3  UNL     1       6.592  12.477  19.085  1.00  0.00     0.163 HD
BRANCH  18  20
HETATM   20  N4  UNL     1       6.936  14.706  19.650  1.00  0.00    -0.205 N 
ATOM     21  H4  UNL     1       7.012  15.676  19.344  1.00  0.00     0.197 HD
BRANCH  20  22
HETATM   22  N5  UNL     1       8.066  14.058  20.150  1.00  0.00    -0.036 N 
HETATM   23  O3  UNL     1       8.788  13.439  19.343  1.00  0.00    -0.516 OA
HETATM   24  O4  UNL     1       8.363  14.107  21.476  1.00  0.00    -0.516 OA
ENDBRANCH  20  22
ENDBRANCH  18  20
BRANCH  18  25
HETATM   25  O5  UNL     1       4.558  14.783  19.828  1.00  0.00    -0.326 OA
HETATM   26  C9  UNL     1       4.190  15.856  18.999  1.00  0.00     0.213 C 
ENDBRANCH  18  25
ENDBRANCH  16  17
ENDBRANCH  15  16
ENDBRANCH  13  15
ENDBRANCH  12  13
ENDBRANCH  11  12
ENDBRANCH   7  11
BRANCH   7  27
HETATM   27  N6  UNL     1       6.567   9.573  22.326  1.00  0.00    -0.342 N 
ATOM     28  H6  UNL     1       6.218  10.494  22.591  1.00  0.00     0.167 HD
BRANCH  27  29
HETATM   29  C10 UNL     1       5.700   8.450  22.395  1.00  0.00     0.056 A 
HETATM   30  C11 UNL     1       5.732   7.437  21.450  1.00  0.00     0.040 A 
HETATM   31  C12 UNL     1       4.899   6.355  21.514  1.00  0.00    -0.034 A 
HETATM   32  C17 UNL     1       3.984   6.242  22.542  1.00  0.00     0.011 A 
HETATM   33  C18 UNL     1       3.924   7.228  23.495  1.00  0.00     0.027 A 
HETATM   34  C19 UNL     1       4.780   8.315  23.408  1.00  0.00     0.060 A 
HETATM   35 CL1  UNL     1       4.641   9.533  24.667  1.00  0.00    -0.082 Cl
BRANCH  31  36
HETATM   36  C13 UNL     1       4.996   5.312  20.465  1.00  0.00     0.113 C 
HETATM   37  C14 UNL     1       3.957   4.230  20.671  1.00  0.00     0.037 C 
BRANCH  36  38
HETATM   38  N7  UNL     1       6.288   4.663  20.467  1.00  0.00    -0.353 N 
HETATM   39  C15 UNL     1       6.931   4.417  19.225  1.00  0.00     0.214 C 
HETATM   40  C16 UNL     1       8.246   3.758  19.171  1.00  0.00     0.117 C 
HETATM   41  O6  UNL     1       6.388   4.759  18.126  1.00  0.00    -0.274 OA
ATOM     42  H7  UNL     1       6.729   4.386  21.344  1.00  0.00     0.163 HD
ENDBRANCH  36  38
ENDBRANCH  31  36
ENDBRANCH  27  29
ENDBRANCH   7  27
TORSDOF 13
ENDMDL
MODEL 2
REMARK VINA RESULT: -7.418922046      2.952      6.979
REMARK  13 active torsions:
REMARK  status: ('A' for Active; 'I' for Inactive)
REMARK       I    between atoms: N1_2  and  C2_4 
REMARK       I    between atoms: C2_4  and  N2_5 
REMARK    1  A    between atoms: C3_7  and  C4_8 
REMARK    2  A    between atoms: C3_7  and  N6_24 
REMARK    3  A    between atoms: C4_8  and  O1_9 
REMARK    4  A    between atoms: O1_9  and  C5_10 
REMARK    5  A    between atoms: C5_10  and  C6_12 
REMARK    6  A    between atoms: C6_12  and  C7_13 
REMARK    7  A    between atoms: C7_13  and  N3_14 
REMARK    8  A    between atoms: C8_16  and  N4_17 
REMARK    9  A    between atoms: C8_16  and  O5_22 
REMARK   10  A    between atoms: N4_17  and  N5_19 
REMARK   11  A    between atoms: N6_24  and  C10_26 
REMARK   12  A    between atoms: C12_28  and  C13_29 
REMARK   13  A    between atoms: C13_29  and  N7_31 
REMARK       I    between atoms: N7_31  and  C15_33 
ROOT
HETATM    1  C1  UNL     1       5.322  12.970  19.320  1.00  0.00     0.165 C 
HETATM    2  N1  UNL     1       5.781  12.045  20.354  1.00  0.00    -0.230 N 
ATOM      3  H1  UNL     1       5.119  11.700  21.051  1.00  0.00     0.177 HD
HETATM    4  C2  UNL     1       7.129  11.624  20.402  1.00  0.00     0.689 C 
HETATM    5  N2  UNL     1       7.465  10.301  20.089  1.00  0.00    -0.178 N 
ATOM      6  H2  UNL     1       7.132   9.948  19.191  1.00  0.00     0.185 HD
HETATM    7  C3  UNL     1       8.135   9.495  20.800  1.00  0.00     0.122 C 
HETATM    8  N8  UNL     1       8.054  12.449  20.729  1.00  0.00    -0.131 N 
ATOM      9  H8  UNL     1       9.012  12.100  20.749  1.00  0.00     0.199 HD
HETATM   10 CL2  UNL     1       7.802  14.098  21.137  1.00  0.00     0.026 Cl
ENDROOT
BRANCH   7  11
HETATM   11  C4  UNL     1       8.387   8.123  20.290  1.00  0.00     0.255 C 
BRANCH  11  12
HETATM   12  O1  UNL     1       7.224   7.569  19.699  1.00  0.00    -0.314 OA
BRANCH  12  13
HETATM   13  C5  UNL     1       6.199   7.012  20.420  1.00  0.00     0.260 C 
HETATM   14  O2  UNL     1       5.023   7.187  20.048  1.00  0.00    -0.265 OA
BRANCH  13  15
HETATM   15  C6  UNL     1       6.517   6.220  21.617  1.00  0.00     0.131 C 
BRANCH  15  16
HETATM   16  C7  UNL     1       7.066   4.838  21.240  1.00  0.00     0.133 C 
BRANCH  16  17
HETATM   17  N3  UNL     1       6.762   4.569  19.895  1.00  0.00    -0.355 N 
HETATM   18  C8  UNL     1       7.297   3.951  18.967  1.00  0.00     0.238 C 
ATOM     19  H3  UNL     1       5.876   4.988  19.613  1.00  0.00     0.163 HD
BRANCH  18  20
HETATM   20  N4  UNL     1       6.629   3.917  17.691  1.00  0.00    -0.205 N 
ATOM     21  H4  UNL     1       7.001   3.325  16.949  1.00  0.00     0.197 HD
BRANCH  20  22
HETATM   22  N5  UNL     1       5.483   4.675  17.449  1.00  0.00    -0.036 N 
HETATM   23  O3  UNL     1       4.376   4.146  17.670  1.00  0.00    -0.516 OA
HETATM   24  O4  UNL     1       5.581   5.951  16.989  1.00  0.00    -0.516 OA
ENDBRANCH  20  22
ENDBRANCH  18  20
BRANCH  18  25
HETATM   25  O5  UNL     1       8.485   3.290  19.052  1.00  0.00    -0.326 OA
HETATM   26  C9  UNL     1       8.534   1.886  19.043  1.00  0.00     0.213 C 
ENDBRANCH  18  25
ENDBRANCH  16  17
ENDBRANCH  15  16
ENDBRANCH  13  15
ENDBRANCH  12  13
ENDBRANCH  11  12
ENDBRANCH   7  11
BRANCH   7  27
HETATM   27  N6  UNL     1       8.660   9.849  22.073  1.00  0.00    -0.342 N 
ATOM     28  H6  UNL     1       9.527  10.384  22.128  1.00  0.00     0.167 HD
BRANCH  27  29
HETATM   29  C10 UNL     1       7.998   9.468  23.272  1.00  0.00     0.056 A 
HETATM   30  C11 UNL     1       6.629   9.266  23.322  1.00  0.00     0.040 A 
HETATM   31  C12 UNL     1       5.989   8.900  24.473  1.00  0.00    -0.034 A 
HETATM   32  C17 UNL     1       6.705   8.719  25.640  1.00  0.00     0.011 A 
HETATM   33  C18 UNL     1       8.064   8.912  25.626  1.00  0.00     0.027 A 
HETATM   34  C19 UNL     1       8.690   9.283  24.446  1.00  0.00     0.060 A 
HETATM   35 CL1  UNL     1      10.431   9.508  24.511  1.00  0.00    -0.082 Cl
BRANCH  31  36
HETATM   36  C13 UNL     1       4.520   8.702  24.445  1.00  0.00     0.113 C 
HETATM   37  C14 UNL     1       3.860   9.330  25.654  1.00  0.00     0.037 C 
BRANCH  36  38
HETATM   38  N7  UNL     1       4.163   7.300  24.451  1.00  0.00    -0.353 N 
HETATM   39  C15 UNL     1       3.313   6.808  23.427  1.00  0.00     0.214 C 
HETATM   40  C16 UNL     1       2.918   5.389  23.388  1.00  0.00     0.117 C 
HETATM   41  O6  UNL     1       2.867   7.577  22.516  1.00  0.00    -0.274 OA
ATOM     42  H7  UNL     1       4.517   6.677  25.177  1.00  0.00     0.163 HD
ENDBRANCH  36  38
ENDBRANCH  31  36
ENDBRANCH  27  29
ENDBRANCH   7  27
TORSDOF 13
ENDMDL
MODEL 3
REMARK VINA RESULT: -7.407736456      2.834      5.912
REMARK  13 active torsions:
REMARK  status: ('A' for Active; 'I' for Inactive)
REMARK       I    between atoms: N1_2  and  C2_4 
REMARK       I    between atoms: C2_4  and  N2_5 
REMARK    1  A    between atoms: C3_7  and  C4_8 
REMARK    2  A    between atoms: C3_7  and  N6_24 
REMARK    3  A    between atoms: C4_8  and  O1_9 
REMARK    4  A    between atoms: O1_9  and  C5_10 
REMARK    5  A    between atoms: C5_10  and  C6_12 
REMARK    6  A    between atoms: C6_12  and  C7_13 
REMARK    7  A    between atoms: C7_13  and  N3_14 
REMARK    8  A    between atoms: C8_16  and  N4_17 
REMARK    9  A    between atoms: C8_16  and  O5_22 
REMARK   10  A    between atoms: N4_17  and  N5_19 
REMARK   11  A    between atoms: N6_24  and  C10_26 
REMARK   12  A    between atoms: C12_28  and  C13_29 
REMARK   13  A    between atoms: C13_29  and  N7_31 
REMARK       I    between atoms: N7_31  and  C15_33 
ROOT
HETATM    1  C1  UNL     1       5.161  12.824  19.143  1.00  0.00     0.165 C 
HETATM    2  N1  UNL     1       5.634  11.952  20.217  1.00  0.00    -0.230 N 
ATOM      3  H1  UNL     1       4.962  11.550  20.872  1.00  0.00     0.177 HD
HETATM    4  C2  UNL     1       7.009  11.658  20.358  1.00  0.00     0.689 C 
HETATM    5  N2  UNL     1       7.486  10.371  20.084  1.00  0.00    -0.178 N 
ATOM      6  H2  UNL     1       7.248   9.983  19.171  1.00  0.00     0.185 HD
HETATM    7  C3  UNL     1       8.180   9.635  20.847  1.00  0.00     0.122 C 
HETATM    8  N8  UNL     1       7.830  12.568  20.735  1.00  0.00    -0.131 N 
ATOM      9  H8  UNL     1       8.813  12.310  20.822  1.00  0.00     0.199 HD
HETATM   10 CL2  UNL     1       7.399  14.188  21.106  1.00  0.00     0.026 Cl
ENDROOT
BRANCH   7  11
HETATM   11  C4  UNL     1       8.591   8.289  20.371  1.00  0.00     0.255 C 
BRANCH  11  12
HETATM   12  O1  UNL     1       7.492   7.572  19.837  1.00  0.00    -0.314 OA
BRANCH  12  13
HETATM   13  C5  UNL     1       7.041   6.382  20.350  1.00  0.00     0.260 C 
HETATM   14  O2  UNL     1       6.425   6.377  21.433  1.00  0.00    -0.265 OA
BRANCH  13  15
HETATM   15  C6  UNL     1       7.298   5.142  19.605  1.00  0.00     0.131 C 
BRANCH  15  16
HETATM   16  C7  UNL     1       6.273   4.945  18.482  1.00  0.00     0.133 C 
BRANCH  16  17
HETATM   17  N3  UNL     1       5.544   6.132  18.304  1.00  0.00    -0.355 N 
HETATM   18  C8  UNL     1       4.815   6.608  17.425  1.00  0.00     0.238 C 
ATOM     19  H3  UNL     1       5.640   6.761  19.101  1.00  0.00     0.163 HD
BRANCH  18  20
HETATM   20  N4  UNL     1       4.241   7.911  17.643  1.00  0.00    -0.205 N 
ATOM     21  H4  UNL     1       3.311   8.114  17.276  1.00  0.00     0.197 HD
BRANCH  20  22
HETATM   22  N5  UNL     1       4.927   8.901  18.345  1.00  0.00    -0.036 N 
HETATM   23  O3  UNL     1       4.665   9.047  19.556  1.00  0.00    -0.516 OA
HETATM   24  O4  UNL     1       5.853   9.679  17.721  1.00  0.00    -0.516 OA
ENDBRANCH  20  22
ENDBRANCH  18  20
BRANCH  18  25
HETATM   25  O5  UNL     1       4.506   5.992  16.250  1.00  0.00    -0.326 OA
HETATM   26  C9  UNL     1       5.210   6.290  15.071  1.00  0.00     0.213 C 
ENDBRANCH  18  25
ENDBRANCH  16  17
ENDBRANCH  15  16
ENDBRANCH  13  15
ENDBRANCH  12  13
ENDBRANCH  11  12
ENDBRANCH   7  11
BRANCH   7  27
HETATM   27  N6  UNL     1       8.584  10.044  22.148  1.00  0.00    -0.342 N 
ATOM     28  H6  UNL     1       9.366  10.691  22.250  1.00  0.00     0.167 HD
BRANCH  27  29
HETATM   29  C10 UNL     1       7.917   9.565  23.307  1.00  0.00     0.056 A 
HETATM   30  C11 UNL     1       6.547   9.361  23.336  1.00  0.00     0.040 A 
HETATM   31  C12 UNL     1       5.902   8.900  24.450  1.00  0.00    -0.034 A 
HETATM   32  C17 UNL     1       6.614   8.621  25.600  1.00  0.00     0.011 A 
HETATM   33  C18 UNL     1       7.973   8.813  25.607  1.00  0.00     0.027 A 
HETATM   34  C19 UNL     1       8.604   9.281  24.464  1.00  0.00     0.060 A 
HETATM   35 CL1  UNL     1      10.346   9.498  24.555  1.00  0.00    -0.082 Cl
BRANCH  31  36
HETATM   36  C13 UNL     1       4.433   8.707  24.401  1.00  0.00     0.113 C 
HETATM   37  C14 UNL     1       3.750   9.406  25.556  1.00  0.00     0.037 C 
BRANCH  36  38
HETATM   38  N7  UNL     1       4.069   7.309  24.478  1.00  0.00    -0.353 N 
HETATM   39  C15 UNL     1       3.547   6.674  23.321  1.00  0.00     0.214 C 
HETATM   40  C16 UNL     1       3.160   5.254  23.348  1.00  0.00     0.117 C 
HETATM   41  O6  UNL     1       3.399   7.314  22.231  1.00  0.00    -0.274 OA
ATOM     42  H7  UNL     1       4.186   6.790  25.349  1.00  0.00     0.163 HD
ENDBRANCH  36  38
ENDBRANCH  31  36
ENDBRANCH  27  29
ENDBRANCH   7  27
TORSDOF 13
ENDMDL
MODEL 4
REMARK VINA RESULT: -7.368352308      3.863      6.556
REMARK  13 active torsions:
REMARK  status: ('A' for Active; 'I' for Inactive)
REMARK       I    between atoms: N1_2  and  C2_4 
REMARK       I    between atoms: C2_4  and  N2_5 
REMARK    1  A    between atoms: C3_7  and  C4_8 
REMARK    2  A    between atoms: C3_7  and  N6_24 
REMARK    3  A    between atoms: C4_8  and  O1_9 
REMARK    4  A    between atoms: O1_9  and  C5_10 
REMARK    5  A    between atoms: C5_10  and  C6_12 
REMARK    6  A    between atoms: C6_12  and  C7_13 
REMARK    7  A    between atoms: C7_13  and  N3_14 
REMARK    8  A    between atoms: C8_16  and  N4_17 
REMARK    9  A    between atoms: C8_16  and  O5_22 
REMARK   10  A    between atoms: N4_17  and  N5_19 
REMARK   11  A    between atoms: N6_24  and  C10_26 
REMARK   12  A    between atoms: C12_28  and  C13_29 
REMARK   13  A    between atoms: C13_29  and  N7_31 
REMARK       I    between atoms: N7_31  and  C15_33 
ROOT
HETATM    1  C1  UNL     1       2.348   5.049  22.416  1.00  0.00     0.165 C 
HETATM    2  N1  UNL     1       3.304   4.717  21.362  1.00  0.00    -0.230 N 
ATOM      3  H1  UNL     1       2.979   4.612  20.400  1.00  0.00     0.177 HD
HETATM    4  C2  UNL     1       4.675   4.539  21.658  1.00  0.00     0.689 C 
HETATM    5  N2  UNL     1       5.618   5.476  21.219  1.00  0.00    -0.178 N 
ATOM      6  H2  UNL     1       5.441   6.449  21.467  1.00  0.00     0.185 HD
HETATM    7  C3  UNL     1       6.666   5.246  20.545  1.00  0.00     0.122 C 
HETATM    8  N8  UNL     1       5.065   3.521  22.333  1.00  0.00    -0.131 N 
ATOM      9  H8  UNL     1       6.063   3.435  22.524  1.00  0.00     0.199 HD
HETATM   10 CL2  UNL     1       4.032   2.291  22.941  1.00  0.00     0.026 Cl
ENDROOT
BRANCH   7  11
HETATM   11  C4  UNL     1       7.546   6.383  20.172  1.00  0.00     0.255 C 
BRANCH  11  12
HETATM   12  O1  UNL     1       7.432   7.450  21.097  1.00  0.00    -0.314 OA
BRANCH  12  13
HETATM   13  C5  UNL     1       7.588   8.770  20.757  1.00  0.00     0.260 C 
HETATM   14  O2  UNL     1       8.568   9.112  20.067  1.00  0.00    -0.265 OA
BRANCH  13  15
HETATM   15  C6  UNL     1       6.592   9.747  21.217  1.00  0.00     0.131 C 
BRANCH  15  16
HETATM   16  C7  UNL     1       7.201  10.733  22.221  1.00  0.00     0.133 C 
BRANCH  16  17
HETATM   17  N3  UNL     1       7.972  10.025  23.158  1.00  0.00    -0.355 N 
HETATM   18  C8  UNL     1       7.793   9.558  24.289  1.00  0.00     0.238 C 
ATOM     19  H3  UNL     1       8.919   9.853  22.820  1.00  0.00     0.163 HD
BRANCH  18  20
HETATM   20  N4  UNL     1       8.889   8.877  24.930  1.00  0.00    -0.205 N 
ATOM     21  H4  UNL     1       8.781   7.897  25.192  1.00  0.00     0.197 HD
BRANCH  20  22
HETATM   22  N5  UNL     1      10.093   9.527  25.199  1.00  0.00    -0.036 N 
HETATM   23  O3  UNL     1      10.770   9.926  24.230  1.00  0.00    -0.516 OA
HETATM   24  O4  UNL     1      10.507   9.717  26.480  1.00  0.00    -0.516 OA
ENDBRANCH  20  22
ENDBRANCH  18  20
BRANCH  18  25
HETATM   25  O5  UNL     1       6.627   9.635  24.989  1.00  0.00    -0.326 OA
HETATM   26  C9  UNL     1       5.608   8.686  24.803  1.00  0.00     0.213 C 
ENDBRANCH  18  25
ENDBRANCH  16  17
ENDBRANCH  15  16
ENDBRANCH  13  15
ENDBRANCH  12  13
ENDBRANCH  11  12
ENDBRANCH   7  11
BRANCH   7  27
HETATM   27  N6  UNL     1       7.039   3.939  20.128  1.00  0.00    -0.342 N 
ATOM     28  H6  UNL     1       7.412   3.280  20.812  1.00  0.00     0.167 HD
BRANCH  27  29
HETATM   29  C10 UNL     1       6.900   3.534  18.773  1.00  0.00     0.056 A 
HETATM   30  C11 UNL     1       6.086   4.214  17.882  1.00  0.00     0.040 A 
HETATM   31  C12 UNL     1       5.951   3.827  16.578  1.00  0.00    -0.034 A 
HETATM   32  C17 UNL     1       6.635   2.725  16.105  1.00  0.00     0.011 A 
HETATM   33  C18 UNL     1       7.451   2.028  16.960  1.00  0.00     0.027 A 
HETATM   34  C19 UNL     1       7.572   2.440  18.279  1.00  0.00     0.060 A 
HETATM   35 CL1  UNL     1       8.636   1.495  19.309  1.00  0.00    -0.082 Cl
BRANCH  31  36
HETATM   36  C13 UNL     1       5.059   4.608  15.687  1.00  0.00     0.113 C 
HETATM   37  C14 UNL     1       3.895   3.769  15.205  1.00  0.00     0.037 C 
BRANCH  36  38
HETATM   38  N7  UNL     1       5.753   5.082  14.510  1.00  0.00    -0.353 N 
HETATM   39  C15 UNL     1       5.959   6.477  14.354  1.00  0.00     0.214 C 
HETATM   40  C16 UNL     1       6.658   7.012  13.173  1.00  0.00     0.117 C 
HETATM   41  O6  UNL     1       5.544   7.304  15.228  1.00  0.00    -0.274 OA
ATOM     42  H7  UNL     1       6.089   4.425  13.805  1.00  0.00     0.163 HD
ENDBRANCH  36  38
ENDBRANCH  31  36
ENDBRANCH  27  29
ENDBRANCH   7  27
TORSDOF 13
ENDMDL
MODEL 5
REMARK VINA RESULT: -7.299975548      3.642      6.568
REMARK  13 active torsions:
REMARK  status: ('A' for Active; 'I' for Inactive)
REMARK       I    between atoms: N1_2  and  C2_4 
REMARK       I    between atoms: C2_4  and  N2_5 
REMARK    1  A    between atoms: C3_7  and  C4_8 
REMARK    2  A    between atoms: C3_7  and  N6_24 
REMARK    3  A    between atoms: C4_8  and  O1_9 
REMARK    4  A    between atoms: O1_9  and  C5_10 
REMARK    5  A    between atoms: C5_10  and  C6_12 
REMARK    6  A    between atoms: C6_12  and  C7_13 
REMARK    7  A    between atoms: C7_13  and  N3_14 
REMARK    8  A    between atoms: C8_16  and  N4_17 
REMARK    9  A    between atoms: C8_16  and  O5_22 
REMARK   10  A    between atoms: N4_17  and  N5_19 
REMARK   11  A    between atoms: N6_24  and  C10_26 
REMARK   12  A    between atoms: C12_28  and  C13_29 
REMARK   13  A    between atoms: C13_29  and  N7_31 
REMARK       I    between atoms: N7_31  and  C15_33 
ROOT
HETATM    1  C1  UNL     1       4.758   6.233  14.553  1.00  0.00     0.165 C 
HETATM    2  N1  UNL     1       5.531   6.568  15.748  1.00  0.00    -0.230 N 
ATOM      3  H1  UNL     1       6.343   7.182  15.667  1.00  0.00     0.177 HD
HETATM    4  C2  UNL     1       5.167   6.054  17.013  1.00  0.00     0.689 C 
HETATM    5  N2  UNL     1       4.645   6.904  17.995  1.00  0.00    -0.178 N 
ATOM      6  H2  UNL     1       3.841   7.470  17.724  1.00  0.00     0.185 HD
HETATM    7  C3  UNL     1       5.062   7.046  19.183  1.00  0.00     0.122 C 
HETATM    8  N8  UNL     1       5.311   4.806  17.270  1.00  0.00    -0.131 N 
ATOM      9  H8  UNL     1       5.034   4.480  18.196  1.00  0.00     0.199 HD
HETATM   10 CL2  UNL     1       5.935   3.642  16.173  1.00  0.00     0.026 Cl
ENDROOT
BRANCH   7  11
HETATM   11  C4  UNL     1       4.369   8.005  20.080  1.00  0.00     0.255 C 
BRANCH  11  12
HETATM   12  O1  UNL     1       5.232   8.477  21.099  1.00  0.00    -0.314 OA
BRANCH  12  13
HETATM   13  C5  UNL     1       5.010   9.630  21.810  1.00  0.00     0.260 C 
HETATM   14  O2  UNL     1       5.127  10.732  21.241  1.00  0.00    -0.265 OA
BRANCH  13  15
HETATM   15  C6  UNL     1       4.637   9.531  23.228  1.00  0.00     0.131 C 
BRANCH  15  16
HETATM   16  C7  UNL     1       5.875   9.366  24.118  1.00  0.00     0.133 C 
BRANCH  16  17
HETATM   17  N3  UNL     1       7.028   9.369  23.316  1.00  0.00    -0.355 N 
HETATM   18  C8  UNL     1       8.228   9.115  23.478  1.00  0.00     0.238 C 
ATOM     19  H3  UNL     1       6.825   9.654  22.358  1.00  0.00     0.163 HD
BRANCH  18  20
HETATM   20  N4  UNL     1       9.115   9.251  22.351  1.00  0.00    -0.205 N 
ATOM     21  H4  UNL     1      10.122   9.201  22.501  1.00  0.00     0.197 HD
BRANCH  20  22
HETATM   22  N5  UNL     1       8.627   9.449  21.060  1.00  0.00    -0.036 N 
HETATM   23  O3  UNL     1       8.388   8.441  20.365  1.00  0.00    -0.516 OA
HETATM   24  O4  UNL     1       8.419  10.706  20.582  1.00  0.00    -0.516 OA
ENDBRANCH  20  22
ENDBRANCH  18  20
BRANCH  18  25
HETATM   25  O5  UNL     1       8.787   8.709  24.652  1.00  0.00    -0.326 OA
HETATM   26  C9  UNL     1       9.837   9.434  25.241  1.00  0.00     0.213 C 
ENDBRANCH  18  25
ENDBRANCH  16  17
ENDBRANCH  15  16
ENDBRANCH  13  15
ENDBRANCH  12  13
ENDBRANCH  11  12
ENDBRANCH   7  11
BRANCH   7  27
HETATM   27  N6  UNL     1       6.173   6.323  19.697  1.00  0.00    -0.342 N 
ATOM     28  H6  UNL     1       7.119   6.657  19.512  1.00  0.00     0.167 HD
BRANCH  27  29
HETATM   29  C10 UNL     1       5.988   5.142  20.466  1.00  0.00     0.056 A 
HETATM   30  C11 UNL     1       4.973   5.026  21.402  1.00  0.00     0.040 A 
HETATM   31  C12 UNL     1       4.792   3.891  22.142  1.00  0.00    -0.034 A 
HETATM   32  C17 UNL     1       5.633   2.809  21.974  1.00  0.00     0.011 A 
HETATM   33  C18 UNL     1       6.650   2.890  21.055  1.00  0.00     0.027 A 
HETATM   34  C19 UNL     1       6.813   4.052  20.316  1.00  0.00     0.060 A 
HETATM   35 CL1  UNL     1       8.137   4.076  19.161  1.00  0.00    -0.082 Cl
BRANCH  31  36
HETATM   36  C13 UNL     1       3.682   3.844  23.123  1.00  0.00     0.113 C 
HETATM   37  C14 UNL     1       3.077   2.459  23.201  1.00  0.00     0.037 C 
BRANCH  36  38
HETATM   38  N7  UNL     1       2.612   4.753  22.773  1.00  0.00    -0.353 N 
HETATM   39  C15 UNL     1       2.536   6.006  23.435  1.00  0.00     0.214 C 
HETATM   40  C16 UNL     1       1.466   6.966  23.116  1.00  0.00     0.117 C 
HETATM   41  O6  UNL     1       3.388   6.334  24.321  1.00  0.00    -0.274 OA
ATOM     42  H7  UNL     1       1.926   4.497  22.063  1.00  0.00     0.163 HD
ENDBRANCH  36  38
ENDBRANCH  31  36
ENDBRANCH  27  29
ENDBRANCH   7  27
TORSDOF 13
ENDMDL
