MODEL 1
REMARK VINA RESULT: -6.983671208      0.000      0.000
REMARK  11 active torsions:
REMARK  status: ('A' for Active; 'I' for Inactive)
REMARK    1  A    between atoms: O1_2  and  C2_3 
REMARK    2  A    between atoms: N2_12  and  C9_13 
REMARK    3  A    between atoms: C9_13  and  C10_14 
REMARK    4  A    between atoms: C10_14  and  C11_15 
REMARK    5  A    between atoms: C11_15  and  C12_16 
REMARK    6  A    between atoms: C15_19  and  C16_20 
REMARK    7  A    between atoms: C17_21  and  C18_22 
REMARK    8  A    between atoms: C18_22  and  N3_23 
REMARK    9  A    between atoms: N3_23  and  C20_25 
REMARK   10  A    between atoms: C20_25  and  C21_26 
REMARK   11  A    between atoms: C21_26  and  C22_27 
ROOT
HETATM    1  C12 UNL     1     -27.952  26.711  41.160  1.00  0.00    -0.058 A 
HETATM    2  C13 UNL     1     -28.230  26.844  42.517  1.00  0.00     0.008 A 
HETATM    3  C14 UNL     1     -28.878  27.936  43.036  1.00  0.00     0.021 A 
HETATM    4  C15 UNL     1     -29.270  28.945  42.175  1.00  0.00     0.017 A 
HETATM    5  C29 UNL     1     -29.009  28.841  40.834  1.00  0.00     0.021 A 
HETATM    6  C30 UNL     1     -28.353  27.722  40.349  1.00  0.00     0.008 A 
ENDROOT
BRANCH   1   7
HETATM    7  C11 UNL     1     -27.256  25.476  40.675  1.00  0.00     0.040 C 
BRANCH   7   8
HETATM    8  C10 UNL     1     -25.860  25.349  41.140  1.00  0.00     0.025 C 
BRANCH   8   9
HETATM    9  C9  UNL     1     -24.915  26.468  41.003  1.00  0.00     0.130 C 
BRANCH   9  10
HETATM   10  N2  UNL     1     -24.709  27.310  42.132  1.00  0.00    -0.341 N 
HETATM   11  C5  UNL     1     -24.969  28.661  42.126  1.00  0.00     0.062 A 
HETATM   12  C4  UNL     1     -25.464  29.432  41.096  1.00  0.00     0.035 A 
HETATM   13  C6  UNL     1     -24.653  29.209  43.356  1.00  0.00     0.062 A 
HETATM   14  C3  UNL     1     -25.647  30.787  41.310  1.00  0.00     0.039 A 
HETATM   15  C2  UNL     1     -25.324  31.331  42.558  1.00  0.00     0.070 A 
HETATM   16  C7  UNL     1     -24.834  30.562  43.577  1.00  0.00     0.068 A 
HETATM   17  N1  UNL     1     -24.203  28.190  44.109  1.00  0.00    -0.350 N 
HETATM   18  C8  UNL     1     -24.246  27.072  43.353  1.00  0.00     0.183 A 
ATOM     19  H1  UNL     1     -23.885  28.250  45.076  1.00  0.00     0.166 HD
BRANCH  15  20
HETATM   20  O1  UNL     1     -25.512  32.692  42.760  1.00  0.00    -0.356 OA
HETATM   21  C1  UNL     1     -26.739  33.144  43.277  1.00  0.00     0.210 C 
ENDBRANCH  15  20
ENDBRANCH   9  10
ENDBRANCH   8   9
ENDBRANCH   7   8
ENDBRANCH   1   7
BRANCH   4  22
HETATM   22  C16 UNL     1     -29.956  30.100  42.732  1.00  0.00    -0.065 C 
HETATM   23  C17 UNL     1     -30.544  31.046  43.204  1.00  0.00    -0.071 C 
BRANCH  23  24
HETATM   24  C18 UNL     1     -31.279  32.185  43.799  1.00  0.00     0.365 C 
BRANCH  24  25
HETATM   25  N3  UNL     1     -32.617  31.772  44.188  1.00  0.00     0.095 N 
HETATM   26  C19 UNL     1     -33.420  32.956  44.436  1.00  0.00     0.310 C 
BRANCH  25  27
HETATM   27  C20 UNL     1     -32.601  30.899  45.314  1.00  0.00     0.277 C 
BRANCH  27  28
HETATM   28  C21 UNL     1     -33.237  29.574  45.035  1.00  0.00     0.068 C 
BRANCH  28  29
HETATM   29  C22 UNL     1     -32.250  28.495  45.325  1.00  0.00    -0.057 A 
HETATM   30  C23 UNL     1     -31.219  28.776  46.232  1.00  0.00     0.007 A 
HETATM   31  C24 UNL     1     -30.270  27.829  46.530  1.00  0.00     0.007 A 
HETATM   32  C25 UNL     1     -30.278  26.569  45.961  1.00  0.00    -0.062 A 
HETATM   33  C26 UNL     1     -29.221  25.577  46.318  1.00  0.00     0.048 C 
HETATM   34  C27 UNL     1     -31.293  26.304  45.073  1.00  0.00     0.007 A 
HETATM   35  C28 UNL     1     -32.270  27.247  44.753  1.00  0.00     0.007 A 
ENDBRANCH  28  29
ENDBRANCH  27  28
ENDBRANCH  25  27
ENDBRANCH  24  25
ENDBRANCH  23  24
ENDBRANCH   4  22
TORSDOF 11
ENDMDL
MODEL 2
REMARK VINA RESULT: -6.925946951      4.714      6.791
REMARK  11 active torsions:
REMARK  status: ('A' for Active; 'I' for Inactive)
REMARK    1  A    between atoms: O1_2  and  C2_3 
REMARK    2  A    between atoms: N2_12  and  C9_13 
REMARK    3  A    between atoms: C9_13  and  C10_14 
REMARK    4  A    between atoms: C10_14  and  C11_15 
REMARK    5  A    between atoms: C11_15  and  C12_16 
REMARK    6  A    between atoms: C15_19  and  C16_20 
REMARK    7  A    between atoms: C17_21  and  C18_22 
REMARK    8  A    between atoms: C18_22  and  N3_23 
REMARK    9  A    between atoms: N3_23  and  C20_25 
REMARK   10  A    between atoms: C20_25  and  C21_26 
REMARK   11  A    between atoms: C21_26  and  C22_27 
ROOT
HETATM    1  C12 UNL     1     -24.220  29.699  44.056  1.00  0.00    -0.058 A 
HETATM    2  C13 UNL     1     -25.234  29.961  44.973  1.00  0.00     0.008 A 
HETATM    3  C14 UNL     1     -26.560  29.763  44.686  1.00  0.00     0.021 A 
HETATM    4  C15 UNL     1     -26.903  29.284  43.435  1.00  0.00     0.017 A 
HETATM    5  C29 UNL     1     -25.927  29.017  42.512  1.00  0.00     0.021 A 
HETATM    6  C30 UNL     1     -24.599  29.230  42.841  1.00  0.00     0.008 A 
ENDROOT
BRANCH   1   7
HETATM    7  C11 UNL     1     -22.795  29.925  44.459  1.00  0.00     0.040 C 
BRANCH   7   8
HETATM    8  C10 UNL     1     -22.392  29.201  45.682  1.00  0.00     0.025 C 
BRANCH   8   9
HETATM    9  C9  UNL     1     -21.517  29.836  46.680  1.00  0.00     0.130 C 
BRANCH   9  10
HETATM   10  N2  UNL     1     -20.704  28.992  47.488  1.00  0.00    -0.341 N 
HETATM   11  C5  UNL     1     -19.458  28.552  47.106  1.00  0.00     0.062 A 
HETATM   12  C4  UNL     1     -18.772  28.828  45.943  1.00  0.00     0.035 A 
HETATM   13  C6  UNL     1     -18.924  27.735  48.087  1.00  0.00     0.062 A 
HETATM   14  C3  UNL     1     -17.518  28.270  45.762  1.00  0.00     0.039 A 
HETATM   15  C2  UNL     1     -16.988  27.446  46.761  1.00  0.00     0.070 A 
HETATM   16  C7  UNL     1     -17.672  27.175  47.914  1.00  0.00     0.068 A 
HETATM   17  N1  UNL     1     -19.847  27.681  49.064  1.00  0.00    -0.350 N 
HETATM   18  C8  UNL     1     -20.896  28.438  48.678  1.00  0.00     0.183 A 
ATOM     19  H1  UNL     1     -19.768  27.162  49.938  1.00  0.00     0.166 HD
BRANCH  15  20
HETATM   20  O1  UNL     1     -15.729  26.892  46.568  1.00  0.00    -0.356 OA
HETATM   21  C1  UNL     1     -14.948  27.329  45.484  1.00  0.00     0.210 C 
ENDBRANCH  15  20
ENDBRANCH   9  10
ENDBRANCH   8   9
ENDBRANCH   7   8
ENDBRANCH   1   7
BRANCH   4  22
HETATM   22  C16 UNL     1     -28.312  29.078  43.138  1.00  0.00    -0.065 C 
HETATM   23  C17 UNL     1     -29.480  28.882  42.890  1.00  0.00    -0.071 C 
BRANCH  23  24
HETATM   24  C18 UNL     1     -30.906  28.614  42.596  1.00  0.00     0.365 C 
BRANCH  24  25
HETATM   25  N3  UNL     1     -31.332  27.386  43.247  1.00  0.00     0.095 N 
HETATM   26  C19 UNL     1     -32.225  27.720  44.342  1.00  0.00     0.310 C 
BRANCH  25  27
HETATM   27  C20 UNL     1     -30.226  26.602  43.687  1.00  0.00     0.277 C 
BRANCH  27  28
HETATM   28  C21 UNL     1     -29.925  25.454  42.776  1.00  0.00     0.068 C 
BRANCH  28  29
HETATM   29  C22 UNL     1     -28.477  25.490  42.418  1.00  0.00    -0.057 A 
HETATM   30  C23 UNL     1     -27.543  25.462  43.463  1.00  0.00     0.007 A 
HETATM   31  C24 UNL     1     -26.196  25.508  43.199  1.00  0.00     0.007 A 
HETATM   32  C25 UNL     1     -25.696  25.583  41.912  1.00  0.00    -0.062 A 
HETATM   33  C26 UNL     1     -24.222  25.632  41.682  1.00  0.00     0.048 C 
HETATM   34  C27 UNL     1     -26.621  25.611  40.896  1.00  0.00     0.007 A 
HETATM   35  C28 UNL     1     -27.995  25.565  41.135  1.00  0.00     0.007 A 
ENDBRANCH  28  29
ENDBRANCH  27  28
ENDBRANCH  25  27
ENDBRANCH  24  25
ENDBRANCH  23  24
ENDBRANCH   4  22
TORSDOF 11
ENDMDL
MODEL 3
REMARK VINA RESULT: -6.867946547      2.949      6.321
REMARK  11 active torsions:
REMARK  status: ('A' for Active; 'I' for Inactive)
REMARK    1  A    between atoms: O1_2  and  C2_3 
REMARK    2  A    between atoms: N2_12  and  C9_13 
REMARK    3  A    between atoms: C9_13  and  C10_14 
REMARK    4  A    between atoms: C10_14  and  C11_15 
REMARK    5  A    between atoms: C11_15  and  C12_16 
REMARK    6  A    between atoms: C15_19  and  C16_20 
REMARK    7  A    between atoms: C17_21  and  C18_22 
REMARK    8  A    between atoms: C18_22  and  N3_23 
REMARK    9  A    between atoms: N3_23  and  C20_25 
REMARK   10  A    between atoms: C20_25  and  C21_26 
REMARK   11  A    between atoms: C21_26  and  C22_27 
ROOT
HETATM    1  C12 UNL     1     -25.203  27.059  41.384  1.00  0.00    -0.058 A 
HETATM    2  C13 UNL     1     -25.215  28.437  41.183  1.00  0.00     0.008 A 
HETATM    3  C14 UNL     1     -24.692  29.321  42.092  1.00  0.00     0.021 A 
HETATM    4  C15 UNL     1     -24.132  28.823  43.254  1.00  0.00     0.017 A 
HETATM    5  C29 UNL     1     -24.107  27.472  43.478  1.00  0.00     0.021 A 
HETATM    6  C30 UNL     1     -24.644  26.612  42.535  1.00  0.00     0.008 A 
ENDROOT
BRANCH   1   7
HETATM    7  C11 UNL     1     -25.778  26.164  40.329  1.00  0.00     0.040 C 
BRANCH   7   8
HETATM    8  C10 UNL     1     -26.998  25.444  40.748  1.00  0.00     0.025 C 
BRANCH   8   9
HETATM    9  C9  UNL     1     -28.136  26.169  41.334  1.00  0.00     0.130 C 
BRANCH   9  10
HETATM   10  N2  UNL     1     -28.423  25.958  42.712  1.00  0.00    -0.341 N 
HETATM   11  C5  UNL     1     -29.560  26.429  43.328  1.00  0.00     0.062 A 
HETATM   12  C4  UNL     1     -30.599  27.145  42.775  1.00  0.00     0.035 A 
HETATM   13  C6  UNL     1     -29.548  26.085  44.669  1.00  0.00     0.062 A 
HETATM   14  C3  UNL     1     -31.653  27.524  43.589  1.00  0.00     0.039 A 
HETATM   15  C2  UNL     1     -31.632  27.171  44.942  1.00  0.00     0.070 A 
HETATM   16  C7  UNL     1     -30.598  26.459  45.487  1.00  0.00     0.068 A 
HETATM   17  N1  UNL     1     -28.405  25.405  44.864  1.00  0.00    -0.350 N 
HETATM   18  C8  UNL     1     -27.755  25.346  43.682  1.00  0.00     0.183 A 
ATOM     19  H1  UNL     1     -28.086  25.006  45.747  1.00  0.00     0.166 HD
BRANCH  15  20
HETATM   20  O1  UNL     1     -32.694  27.556  45.748  1.00  0.00    -0.356 OA
HETATM   21  C1  UNL     1     -33.994  27.560  45.211  1.00  0.00     0.210 C 
ENDBRANCH  15  20
ENDBRANCH   9  10
ENDBRANCH   8   9
ENDBRANCH   7   8
ENDBRANCH   1   7
BRANCH   4  22
HETATM   22  C16 UNL     1     -23.582  29.767  44.214  1.00  0.00    -0.065 C 
HETATM   23  C17 UNL     1     -23.145  30.563  45.015  1.00  0.00    -0.071 C 
BRANCH  23  24
HETATM   24  C18 UNL     1     -22.640  31.541  46.003  1.00  0.00     0.365 C 
BRANCH  24  25
HETATM   25  N3  UNL     1     -23.746  32.136  46.734  1.00  0.00     0.095 N 
HETATM   26  C19 UNL     1     -24.163  31.220  47.781  1.00  0.00     0.310 C 
BRANCH  25  27
HETATM   27  C20 UNL     1     -24.828  32.486  45.876  1.00  0.00     0.277 C 
BRANCH  27  28
HETATM   28  C21 UNL     1     -26.122  31.854  46.280  1.00  0.00     0.068 C 
BRANCH  28  29
HETATM   29  C22 UNL     1     -26.772  31.271  45.070  1.00  0.00    -0.057 A 
HETATM   30  C23 UNL     1     -26.880  32.080  43.930  1.00  0.00     0.007 A 
HETATM   31  C24 UNL     1     -27.481  31.606  42.790  1.00  0.00     0.007 A 
HETATM   32  C25 UNL     1     -28.003  30.329  42.704  1.00  0.00    -0.062 A 
HETATM   33  C26 UNL     1     -28.648  29.865  41.441  1.00  0.00     0.048 C 
HETATM   34  C27 UNL     1     -27.892  29.545  43.828  1.00  0.00     0.007 A 
HETATM   35  C28 UNL     1     -27.286  30.001  44.999  1.00  0.00     0.007 A 
ENDBRANCH  28  29
ENDBRANCH  27  28
ENDBRANCH  25  27
ENDBRANCH  24  25
ENDBRANCH  23  24
ENDBRANCH   4  22
TORSDOF 11
ENDMDL
MODEL 4
REMARK VINA RESULT: -6.864276308      2.717      6.176
REMARK  11 active torsions:
REMARK  status: ('A' for Active; 'I' for Inactive)
REMARK    1  A    between atoms: O1_2  and  C2_3 
REMARK    2  A    between atoms: N2_12  and  C9_13 
REMARK    3  A    between atoms: C9_13  and  C10_14 
REMARK    4  A    between atoms: C10_14  and  C11_15 
REMARK    5  A    between atoms: C11_15  and  C12_16 
REMARK    6  A    between atoms: C15_19  and  C16_20 
REMARK    7  A    between atoms: C17_21  and  C18_22 
REMARK    8  A    between atoms: C18_22  and  N3_23 
REMARK    9  A    between atoms: N3_23  and  C20_25 
REMARK   10  A    between atoms: C20_25  and  C21_26 
REMARK   11  A    between atoms: C21_26  and  C22_27 
ROOT
HETATM    1  C12 UNL     1     -25.519  27.018  41.301  1.00  0.00    -0.058 A 
HETATM    2  C13 UNL     1     -24.890  26.525  42.441  1.00  0.00     0.008 A 
HETATM    3  C14 UNL     1     -24.256  27.337  43.345  1.00  0.00     0.021 A 
HETATM    4  C15 UNL     1     -24.240  28.700  43.115  1.00  0.00     0.017 A 
HETATM    5  C29 UNL     1     -24.851  29.214  42.001  1.00  0.00     0.021 A 
HETATM    6  C30 UNL     1     -25.482  28.361  41.112  1.00  0.00     0.008 A 
ENDROOT
BRANCH   1   7
HETATM    7  C11 UNL     1     -26.206  26.061  40.375  1.00  0.00     0.040 C 
BRANCH   7   8
HETATM    8  C10 UNL     1     -27.083  25.087  41.057  1.00  0.00     0.025 C 
BRANCH   8   9
HETATM    9  C9  UNL     1     -28.400  25.491  41.573  1.00  0.00     0.130 C 
BRANCH   9  10
HETATM   10  N2  UNL     1     -28.559  25.602  42.983  1.00  0.00    -0.341 N 
HETATM   11  C5  UNL     1     -29.537  26.366  43.576  1.00  0.00     0.062 A 
HETATM   12  C4  UNL     1     -30.515  27.125  42.970  1.00  0.00     0.035 A 
HETATM   13  C6  UNL     1     -29.426  26.291  44.953  1.00  0.00     0.062 A 
HETATM   14  C3  UNL     1     -31.404  27.824  43.768  1.00  0.00     0.039 A 
HETATM   15  C2  UNL     1     -31.283  27.741  45.160  1.00  0.00     0.070 A 
HETATM   16  C7  UNL     1     -30.311  26.987  45.757  1.00  0.00     0.068 A 
HETATM   17  N1  UNL     1     -28.381  25.481  45.194  1.00  0.00    -0.350 N 
HETATM   18  C8  UNL     1     -27.884  25.087  44.003  1.00  0.00     0.183 A 
ATOM     19  H1  UNL     1     -28.027  25.213  46.112  1.00  0.00     0.166 HD
BRANCH  15  20
HETATM   20  O1  UNL     1     -32.180  28.447  45.949  1.00  0.00    -0.356 OA
HETATM   21  C1  UNL     1     -32.131  29.853  45.952  1.00  0.00     0.210 C 
ENDBRANCH  15  20
ENDBRANCH   9  10
ENDBRANCH   8   9
ENDBRANCH   7   8
ENDBRANCH   1   7
BRANCH   4  22
HETATM   22  C16 UNL     1     -23.564  29.555  44.078  1.00  0.00    -0.065 C 
HETATM   23  C17 UNL     1     -23.008  30.286  44.866  1.00  0.00    -0.071 C 
BRANCH  23  24
HETATM   24  C18 UNL     1     -22.346  31.203  45.821  1.00  0.00     0.365 C 
BRANCH  24  25
HETATM   25  N3  UNL     1     -23.336  31.857  46.660  1.00  0.00     0.095 N 
HETATM   26  C19 UNL     1     -23.722  30.949  47.725  1.00  0.00     0.310 C 
BRANCH  25  27
HETATM   27  C20 UNL     1     -24.463  32.303  45.910  1.00  0.00     0.277 C 
BRANCH  27  28
HETATM   28  C21 UNL     1     -25.755  31.738  46.407  1.00  0.00     0.068 C 
BRANCH  28  29
HETATM   29  C22 UNL     1     -26.531  31.216  45.245  1.00  0.00    -0.057 A 
HETATM   30  C23 UNL     1     -26.672  32.046  44.124  1.00  0.00     0.007 A 
HETATM   31  C24 UNL     1     -27.387  31.628  43.029  1.00  0.00     0.007 A 
HETATM   32  C25 UNL     1     -27.996  30.388  42.971  1.00  0.00    -0.062 A 
HETATM   33  C26 UNL     1     -28.763  29.985  41.756  1.00  0.00     0.048 C 
HETATM   34  C27 UNL     1     -27.851  29.582  44.076  1.00  0.00     0.007 A 
HETATM   35  C28 UNL     1     -27.130  29.982  45.201  1.00  0.00     0.007 A 
ENDBRANCH  28  29
ENDBRANCH  27  28
ENDBRANCH  25  27
ENDBRANCH  24  25
ENDBRANCH  23  24
ENDBRANCH   4  22
TORSDOF 11
ENDMDL
MODEL 5
REMARK VINA RESULT: -6.855115907      1.838      2.542
REMARK  11 active torsions:
REMARK  status: ('A' for Active; 'I' for Inactive)
REMARK    1  A    between atoms: O1_2  and  C2_3 
REMARK    2  A    between atoms: N2_12  and  C9_13 
REMARK    3  A    between atoms: C9_13  and  C10_14 
REMARK    4  A    between atoms: C10_14  and  C11_15 
REMARK    5  A    between atoms: C11_15  and  C12_16 
REMARK    6  A    between atoms: C15_19  and  C16_20 
REMARK    7  A    between atoms: C17_21  and  C18_22 
REMARK    8  A    between atoms: C18_22  and  N3_23 
REMARK    9  A    between atoms: N3_23  and  C20_25 
REMARK   10  A    between atoms: C20_25  and  C21_26 
REMARK   11  A    between atoms: C21_26  and  C22_27 
ROOT
HETATM    1  C12 UNL     1     -27.521  26.299  41.375  1.00  0.00    -0.058 A 
HETATM    2  C13 UNL     1     -27.798  27.429  40.610  1.00  0.00     0.008 A 
HETATM    3  C14 UNL     1     -28.907  28.209  40.819  1.00  0.00     0.021 A 
HETATM    4  C15 UNL     1     -29.783  27.858  41.830  1.00  0.00     0.017 A 
HETATM    5  C29 UNL     1     -29.535  26.751  42.598  1.00  0.00     0.021 A 
HETATM    6  C30 UNL     1     -28.404  25.990  42.356  1.00  0.00     0.008 A 
ENDROOT
BRANCH   1   7
HETATM    7  C11 UNL     1     -26.276  25.514  41.091  1.00  0.00     0.040 C 
BRANCH   7   8
HETATM    8  C10 UNL     1     -25.025  26.234  41.404  1.00  0.00     0.025 C 
BRANCH   8   9
HETATM    9  C9  UNL     1     -24.950  27.151  42.552  1.00  0.00     0.130 C 
BRANCH   9  10
HETATM   10  N2  UNL     1     -25.212  28.531  42.322  1.00  0.00    -0.341 N 
HETATM   11  C5  UNL     1     -26.126  29.258  43.050  1.00  0.00     0.062 A 
HETATM   12  C4  UNL     1     -26.918  28.835  44.095  1.00  0.00     0.035 A 
HETATM   13  C6  UNL     1     -26.173  30.560  42.583  1.00  0.00     0.062 A 
HETATM   14  C3  UNL     1     -27.779  29.744  44.687  1.00  0.00     0.039 A 
HETATM   15  C2  UNL     1     -27.819  31.058  44.208  1.00  0.00     0.070 A 
HETATM   16  C7  UNL     1     -27.030  31.473  43.170  1.00  0.00     0.068 A 
HETATM   17  N1  UNL     1     -25.288  30.621  41.574  1.00  0.00    -0.350 N 
HETATM   18  C8  UNL     1     -24.732  29.398  41.441  1.00  0.00     0.183 A 
ATOM     19  H1  UNL     1     -25.075  31.444  41.010  1.00  0.00     0.166 HD
BRANCH  15  20
HETATM   20  O1  UNL     1     -28.686  31.960  44.809  1.00  0.00    -0.356 OA
HETATM   21  C1  UNL     1     -30.072  31.750  44.704  1.00  0.00     0.210 C 
ENDBRANCH  15  20
ENDBRANCH   9  10
ENDBRANCH   8   9
ENDBRANCH   7   8
ENDBRANCH   1   7
BRANCH   4  22
HETATM   22  C16 UNL     1     -30.957  28.689  42.044  1.00  0.00    -0.065 C 
HETATM   23  C17 UNL     1     -31.929  29.393  42.202  1.00  0.00    -0.071 C 
BRANCH  23  24
HETATM   24  C18 UNL     1     -33.117  30.260  42.367  1.00  0.00     0.365 C 
BRANCH  24  25
HETATM   25  N3  UNL     1     -34.277  29.462  42.725  1.00  0.00     0.095 N 
HETATM   26  C19 UNL     1     -35.448  30.015  42.069  1.00  0.00     0.310 C 
BRANCH  25  27
HETATM   27  C20 UNL     1     -34.453  29.377  44.137  1.00  0.00     0.277 C 
BRANCH  27  28
HETATM   28  C21 UNL     1     -34.340  27.979  44.656  1.00  0.00     0.068 C 
BRANCH  28  29
HETATM   29  C22 UNL     1     -32.974  27.783  45.221  1.00  0.00    -0.057 A 
HETATM   30  C23 UNL     1     -32.439  26.487  45.208  1.00  0.00     0.007 A 
HETATM   31  C24 UNL     1     -31.191  26.240  45.727  1.00  0.00     0.007 A 
HETATM   32  C25 UNL     1     -30.409  27.236  46.280  1.00  0.00    -0.062 A 
HETATM   33  C26 UNL     1     -29.060  26.912  46.831  1.00  0.00     0.048 C 
HETATM   34  C27 UNL     1     -30.943  28.502  46.287  1.00  0.00     0.007 A 
HETATM   35  C28 UNL     1     -32.207  28.782  45.767  1.00  0.00     0.007 A 
ENDBRANCH  28  29
ENDBRANCH  27  28
ENDBRANCH  25  27
ENDBRANCH  24  25
ENDBRANCH  23  24
ENDBRANCH   4  22
TORSDOF 11
ENDMDL
