MODEL 1
REMARK VINA RESULT: -7.176255427      0.000      0.000
REMARK  10 active torsions:
REMARK  status: ('A' for Active; 'I' for Inactive)
REMARK    1  A    between atoms: N1_2  and  C2_3 
REMARK    2  A    between atoms: N1_2  and  C8_9 
REMARK    3  A    between atoms: N2_12  and  C11_13 
REMARK    4  A    between atoms: C11_13  and  C12_14 
REMARK    5  A    between atoms: C12_14  and  C13_15 
REMARK    6  A    between atoms: C13_15  and  C14_16 
REMARK    7  A    between atoms: C14_16  and  N3_17 
REMARK    8  A    between atoms: C17_20  and  O1_21 
REMARK    9  A    between atoms: O1_21  and  C18_22 
REMARK   10  A    between atoms: N4_33  and  O2_34 
ROOT
HETATM    1  C8  UNL     1     -27.381  30.017  42.498  1.00  0.00     0.067 A 
HETATM    2  C9  UNL     1     -28.552  29.559  43.127  1.00  0.00     0.049 A 
HETATM    3  C10 UNL     1     -29.779  30.079  42.812  1.00  0.00     0.093 A 
HETATM    4  N2  UNL     1     -29.942  31.053  41.888  1.00  0.00    -0.355 N 
HETATM    5  C25 UNL     1     -28.836  31.504  41.279  1.00  0.00     0.066 A 
HETATM    6  C26 UNL     1     -28.960  32.510  40.343  1.00  0.00     0.033 A 
HETATM    7  C27 UNL     1     -27.865  33.045  39.680  1.00  0.00     0.022 A 
HETATM    8  C28 UNL     1     -26.637  32.516  40.006  1.00  0.00     0.123 A 
HETATM    9  N4  UNL     1     -26.492  31.528  40.921  1.00  0.00    -0.232 N 
HETATM   10  C29 UNL     1     -27.552  31.006  41.565  1.00  0.00     0.115 A 
ENDROOT
BRANCH   4  11
HETATM   11  C11 UNL     1     -31.272  31.562  41.578  1.00  0.00     0.129 C 
BRANCH  11  12
HETATM   12  C12 UNL     1     -32.013  32.068  42.773  1.00  0.00     0.022 C 
BRANCH  12  13
HETATM   13  C13 UNL     1     -33.312  31.298  42.850  1.00  0.00     0.022 C 
BRANCH  13  14
HETATM   14  C14 UNL     1     -33.751  30.967  44.235  1.00  0.00     0.128 C 
BRANCH  14  15
HETATM   15  N3  UNL     1     -32.945  29.916  44.772  1.00  0.00    -0.364 N 
HETATM   16  C15 UNL     1     -32.130  29.969  45.827  1.00  0.00     0.093 A 
HETATM   17  C16 UNL     1     -31.545  28.731  45.997  1.00  0.00     0.056 A 
HETATM   18  C17 UNL     1     -32.039  27.918  44.996  1.00  0.00     0.092 A 
HETATM   19  C24 UNL     1     -32.906  28.660  44.241  1.00  0.00     0.127 A 
BRANCH  18  20
HETATM   20  O1  UNL     1     -31.659  26.588  44.862  1.00  0.00    -0.309 OA
BRANCH  20  21
HETATM   21  C18 UNL     1     -30.437  26.212  44.316  1.00  0.00     0.076 A 
HETATM   22  C19 UNL     1     -30.255  26.208  42.952  1.00  0.00     0.037 A 
HETATM   23  C20 UNL     1     -29.052  25.838  42.408  1.00  0.00     0.003 A 
HETATM   24  C21 UNL     1     -27.995  25.462  43.200  1.00  0.00     0.000 A 
HETATM   25  C22 UNL     1     -28.164  25.460  44.591  1.00  0.00     0.003 A 
HETATM   26  C23 UNL     1     -29.385  25.837  45.119  1.00  0.00     0.037 A 
ENDBRANCH  20  21
ENDBRANCH  18  20
ENDBRANCH  14  15
ENDBRANCH  13  14
ENDBRANCH  12  13
ENDBRANCH  11  12
ENDBRANCH   4  11
BRANCH   1  27
HETATM   27  N1  UNL     1     -26.136  29.412  42.812  1.00  0.00    -0.349 N 
HETATM   28  C1  UNL     1     -25.288  30.062  43.794  1.00  0.00     0.156 C 
BRANCH  27  29
HETATM   29  C2  UNL     1     -25.700  28.210  42.193  1.00  0.00     0.034 A 
HETATM   30  C3  UNL     1     -26.176  27.802  40.961  1.00  0.00     0.029 A 
HETATM   31  C4  UNL     1     -25.755  26.639  40.356  1.00  0.00     0.002 A 
HETATM   32  C5  UNL     1     -24.827  25.837  40.985  1.00  0.00     0.000 A 
HETATM   33  C6  UNL     1     -24.354  26.239  42.202  1.00  0.00     0.002 A 
HETATM   34  C7  UNL     1     -24.780  27.405  42.804  1.00  0.00     0.029 A 
ENDBRANCH  27  29
ENDBRANCH   1  27
BRANCH   9  35
HETATM   35  O2  UNL     1     -25.206  31.118  41.168  1.00  0.00    -0.283 OA
ATOM     36  H2  UNL     1     -24.641  31.748  41.601  1.00  0.00     0.245 HD
ENDBRANCH   9  35
TORSDOF 10
ENDMDL
MODEL 2
REMARK VINA RESULT: -7.105956363      1.660      2.338
REMARK  10 active torsions:
REMARK  status: ('A' for Active; 'I' for Inactive)
REMARK    1  A    between atoms: N1_2  and  C2_3 
REMARK    2  A    between atoms: N1_2  and  C8_9 
REMARK    3  A    between atoms: N2_12  and  C11_13 
REMARK    4  A    between atoms: C11_13  and  C12_14 
REMARK    5  A    between atoms: C12_14  and  C13_15 
REMARK    6  A    between atoms: C13_15  and  C14_16 
REMARK    7  A    between atoms: C14_16  and  N3_17 
REMARK    8  A    between atoms: C17_20  and  O1_21 
REMARK    9  A    between atoms: O1_21  and  C18_22 
REMARK   10  A    between atoms: N4_33  and  O2_34 
ROOT
HETATM    1  C8  UNL     1     -26.738  29.642  43.429  1.00  0.00     0.067 A 
HETATM    2  C9  UNL     1     -27.660  29.298  44.433  1.00  0.00     0.049 A 
HETATM    3  C10 UNL     1     -28.565  30.209  44.910  1.00  0.00     0.093 A 
HETATM    4  N2  UNL     1     -28.629  31.481  44.453  1.00  0.00    -0.355 N 
HETATM    5  C25 UNL     1     -27.755  31.826  43.495  1.00  0.00     0.066 A 
HETATM    6  C26 UNL     1     -27.777  33.120  43.017  1.00  0.00     0.033 A 
HETATM    7  C27 UNL     1     -26.898  33.565  42.040  1.00  0.00     0.022 A 
HETATM    8  C28 UNL     1     -25.992  32.641  41.570  1.00  0.00     0.123 A 
HETATM    9  N4  UNL     1     -25.952  31.366  42.026  1.00  0.00    -0.232 N 
HETATM   10  C29 UNL     1     -26.805  30.931  42.971  1.00  0.00     0.115 A 
ENDROOT
BRANCH   4  11
HETATM   11  C11 UNL     1     -29.620  32.408  44.983  1.00  0.00     0.129 C 
BRANCH  11  12
HETATM   12  C12 UNL     1     -30.996  31.830  45.065  1.00  0.00     0.022 C 
BRANCH  12  13
HETATM   13  C13 UNL     1     -31.824  32.498  43.990  1.00  0.00     0.022 C 
BRANCH  13  14
HETATM   14  C14 UNL     1     -32.639  31.560  43.168  1.00  0.00     0.128 C 
BRANCH  14  15
HETATM   15  N3  UNL     1     -31.819  30.501  42.668  1.00  0.00    -0.364 N 
HETATM   16  C15 UNL     1     -30.847  30.580  41.758  1.00  0.00     0.093 A 
HETATM   17  C16 UNL     1     -30.314  29.322  41.568  1.00  0.00     0.056 A 
HETATM   18  C17 UNL     1     -31.006  28.468  42.403  1.00  0.00     0.092 A 
HETATM   19  C24 UNL     1     -31.937  29.206  43.082  1.00  0.00     0.127 A 
BRANCH  18  20
HETATM   20  O1  UNL     1     -30.730  27.108  42.472  1.00  0.00    -0.309 OA
BRANCH  20  21
HETATM   21  C18 UNL     1     -30.082  26.532  43.559  1.00  0.00     0.076 A 
HETATM   22  C19 UNL     1     -30.521  26.777  44.841  1.00  0.00     0.037 A 
HETATM   23  C20 UNL     1     -29.887  26.212  45.917  1.00  0.00     0.003 A 
HETATM   24  C21 UNL     1     -28.800  25.388  45.754  1.00  0.00     0.000 A 
HETATM   25  C22 UNL     1     -28.340  25.129  44.456  1.00  0.00     0.003 A 
HETATM   26  C23 UNL     1     -28.995  25.708  43.385  1.00  0.00     0.037 A 
ENDBRANCH  20  21
ENDBRANCH  18  20
ENDBRANCH  14  15
ENDBRANCH  13  14
ENDBRANCH  12  13
ENDBRANCH  11  12
ENDBRANCH   4  11
BRANCH   1  27
HETATM   27  N1  UNL     1     -25.856  28.652  42.922  1.00  0.00    -0.349 N 
HETATM   28  C1  UNL     1     -24.494  28.629  43.422  1.00  0.00     0.156 C 
BRANCH  27  29
HETATM   29  C2  UNL     1     -26.262  27.703  41.946  1.00  0.00     0.034 A 
HETATM   30  C3  UNL     1     -27.219  27.993  40.990  1.00  0.00     0.029 A 
HETATM   31  C4  UNL     1     -27.614  27.077  40.041  1.00  0.00     0.002 A 
HETATM   32  C5  UNL     1     -27.050  25.819  40.026  1.00  0.00     0.000 A 
HETATM   33  C6  UNL     1     -26.104  25.531  40.968  1.00  0.00     0.002 A 
HETATM   34  C7  UNL     1     -25.711  26.452  41.918  1.00  0.00     0.029 A 
ENDBRANCH  27  29
ENDBRANCH   1  27
BRANCH   9  35
HETATM   35  O2  UNL     1     -24.978  30.563  41.488  1.00  0.00    -0.283 OA
ATOM     36  H2  UNL     1     -25.091  29.627  41.613  1.00  0.00     0.245 HD
ENDBRANCH   9  35
TORSDOF 10
ENDMDL
MODEL 3
REMARK VINA RESULT: -6.892879561      1.288      1.874
REMARK  10 active torsions:
REMARK  status: ('A' for Active; 'I' for Inactive)
REMARK    1  A    between atoms: N1_2  and  C2_3 
REMARK    2  A    between atoms: N1_2  and  C8_9 
REMARK    3  A    between atoms: N2_12  and  C11_13 
REMARK    4  A    between atoms: C11_13  and  C12_14 
REMARK    5  A    between atoms: C12_14  and  C13_15 
REMARK    6  A    between atoms: C13_15  and  C14_16 
REMARK    7  A    between atoms: C14_16  and  N3_17 
REMARK    8  A    between atoms: C17_20  and  O1_21 
REMARK    9  A    between atoms: O1_21  and  C18_22 
REMARK   10  A    between atoms: N4_33  and  O2_34 
ROOT
HETATM    1  C8  UNL     1     -29.038  29.527  41.901  1.00  0.00     0.067 A 
HETATM    2  C9  UNL     1     -30.234  28.854  42.204  1.00  0.00     0.049 A 
HETATM    3  C10 UNL     1     -31.440  29.300  41.733  1.00  0.00     0.093 A 
HETATM    4  N2  UNL     1     -31.557  30.402  40.957  1.00  0.00    -0.355 N 
HETATM    5  C25 UNL     1     -30.426  31.058  40.659  1.00  0.00     0.066 A 
HETATM    6  C26 UNL     1     -30.507  32.197  39.885  1.00  0.00     0.033 A 
HETATM    7  C27 UNL     1     -29.387  32.944  39.546  1.00  0.00     0.022 A 
HETATM    8  C28 UNL     1     -28.181  32.487  40.026  1.00  0.00     0.123 A 
HETATM    9  N4  UNL     1     -28.079  31.372  40.788  1.00  0.00    -0.232 N 
HETATM   10  C29 UNL     1     -29.162  30.644  41.117  1.00  0.00     0.115 A 
ENDROOT
BRANCH   4  11
HETATM   11  C11 UNL     1     -32.862  30.827  40.469  1.00  0.00     0.129 C 
BRANCH  11  12
HETATM   12  C12 UNL     1     -34.006  30.161  41.162  1.00  0.00     0.022 C 
BRANCH  12  13
HETATM   13  C13 UNL     1     -34.352  31.009  42.366  1.00  0.00     0.022 C 
BRANCH  13  14
HETATM   14  C14 UNL     1     -34.928  30.248  43.510  1.00  0.00     0.128 C 
BRANCH  14  15
HETATM   15  N3  UNL     1     -33.890  29.585  44.235  1.00  0.00    -0.364 N 
HETATM   16  C15 UNL     1     -32.920  30.139  44.964  1.00  0.00     0.093 A 
HETATM   17  C16 UNL     1     -32.133  29.135  45.491  1.00  0.00     0.056 A 
HETATM   18  C17 UNL     1     -32.666  27.941  45.049  1.00  0.00     0.092 A 
HETATM   19  C24 UNL     1     -33.754  28.228  44.271  1.00  0.00     0.127 A 
BRANCH  18  20
HETATM   20  O1  UNL     1     -32.119  26.710  45.390  1.00  0.00    -0.309 OA
BRANCH  20  21
HETATM   21  C18 UNL     1     -30.914  26.257  44.863  1.00  0.00     0.076 A 
HETATM   22  C19 UNL     1     -29.790  26.187  45.655  1.00  0.00     0.037 A 
HETATM   23  C20 UNL     1     -28.600  25.741  45.141  1.00  0.00     0.003 A 
HETATM   24  C21 UNL     1     -28.489  25.352  43.829  1.00  0.00     0.000 A 
HETATM   25  C22 UNL     1     -29.623  25.418  43.009  1.00  0.00     0.003 A 
HETATM   26  C23 UNL     1     -30.814  25.869  43.547  1.00  0.00     0.037 A 
ENDBRANCH  20  21
ENDBRANCH  18  20
ENDBRANCH  14  15
ENDBRANCH  13  14
ENDBRANCH  12  13
ENDBRANCH  11  12
ENDBRANCH   4  11
BRANCH   1  27
HETATM   27  N1  UNL     1     -27.803  28.999  42.361  1.00  0.00    -0.349 N 
HETATM   28  C1  UNL     1     -27.263  29.510  43.608  1.00  0.00     0.156 C 
BRANCH  27  29
HETATM   29  C2  UNL     1     -27.087  28.006  41.640  1.00  0.00     0.034 A 
HETATM   30  C3  UNL     1     -25.818  27.599  42.009  1.00  0.00     0.029 A 
HETATM   31  C4  UNL     1     -25.121  26.636  41.315  1.00  0.00     0.002 A 
HETATM   32  C5  UNL     1     -25.690  26.044  40.208  1.00  0.00     0.000 A 
HETATM   33  C6  UNL     1     -26.944  26.443  39.842  1.00  0.00     0.002 A 
HETATM   34  C7  UNL     1     -27.638  27.409  40.540  1.00  0.00     0.029 A 
ENDBRANCH  27  29
ENDBRANCH   1  27
BRANCH   9  35
HETATM   35  O2  UNL     1     -26.817  31.050  41.221  1.00  0.00    -0.283 OA
ATOM     36  H2  UNL     1     -26.356  30.390  40.716  1.00  0.00     0.245 HD
ENDBRANCH   9  35
TORSDOF 10
ENDMDL
MODEL 4
REMARK VINA RESULT: -6.884318129      2.003      4.594
REMARK  10 active torsions:
REMARK  status: ('A' for Active; 'I' for Inactive)
REMARK    1  A    between atoms: N1_2  and  C2_3 
REMARK    2  A    between atoms: N1_2  and  C8_9 
REMARK    3  A    between atoms: N2_12  and  C11_13 
REMARK    4  A    between atoms: C11_13  and  C12_14 
REMARK    5  A    between atoms: C12_14  and  C13_15 
REMARK    6  A    between atoms: C13_15  and  C14_16 
REMARK    7  A    between atoms: C14_16  and  N3_17 
REMARK    8  A    between atoms: C17_20  and  O1_21 
REMARK    9  A    between atoms: O1_21  and  C18_22 
REMARK   10  A    between atoms: N4_33  and  O2_34 
ROOT
HETATM    1  C8  UNL     1     -30.282  30.501  42.062  1.00  0.00     0.067 A 
HETATM    2  C9  UNL     1     -30.780  29.196  41.905  1.00  0.00     0.049 A 
HETATM    3  C10 UNL     1     -31.648  28.651  42.815  1.00  0.00     0.093 A 
HETATM    4  N2  UNL     1     -32.075  29.325  43.907  1.00  0.00    -0.355 N 
HETATM    5  C25 UNL     1     -31.608  30.571  44.074  1.00  0.00     0.066 A 
HETATM    6  C26 UNL     1     -32.007  31.283  45.186  1.00  0.00     0.033 A 
HETATM    7  C27 UNL     1     -31.558  32.570  45.443  1.00  0.00     0.022 A 
HETATM    8  C28 UNL     1     -30.686  33.106  44.524  1.00  0.00     0.123 A 
HETATM    9  N4  UNL     1     -30.281  32.425  43.425  1.00  0.00    -0.232 N 
HETATM   10  C29 UNL     1     -30.716  31.177  43.171  1.00  0.00     0.115 A 
ENDROOT
BRANCH   4  11
HETATM   11  C11 UNL     1     -33.011  28.706  44.837  1.00  0.00     0.129 C 
BRANCH  11  12
HETATM   12  C12 UNL     1     -32.431  27.554  45.592  1.00  0.00     0.022 C 
BRANCH  12  13
HETATM   13  C13 UNL     1     -31.439  28.125  46.582  1.00  0.00     0.022 C 
BRANCH  13  14
HETATM   14  C14 UNL     1     -30.264  27.249  46.850  1.00  0.00     0.128 C 
BRANCH  14  15
HETATM   15  N3  UNL     1     -29.486  27.088  45.662  1.00  0.00    -0.364 N 
HETATM   16  C15 UNL     1     -28.860  28.034  44.961  1.00  0.00     0.093 A 
HETATM   17  C16 UNL     1     -28.227  27.444  43.886  1.00  0.00     0.056 A 
HETATM   18  C17 UNL     1     -28.496  26.092  43.962  1.00  0.00     0.092 A 
HETATM   19  C24 UNL     1     -29.277  25.879  45.065  1.00  0.00     0.127 A 
BRANCH  18  20
HETATM   20  O1  UNL     1     -28.012  25.183  43.029  1.00  0.00    -0.309 OA
BRANCH  20  21
HETATM   21  C18 UNL     1     -27.140  25.552  42.010  1.00  0.00     0.076 A 
HETATM   22  C19 UNL     1     -25.781  25.574  42.231  1.00  0.00     0.037 A 
HETATM   23  C20 UNL     1     -24.916  25.937  41.231  1.00  0.00     0.003 A 
HETATM   24  C21 UNL     1     -25.373  26.288  39.984  1.00  0.00     0.000 A 
HETATM   25  C22 UNL     1     -26.753  26.272  39.743  1.00  0.00     0.003 A 
HETATM   26  C23 UNL     1     -27.607  25.902  40.765  1.00  0.00     0.037 A 
ENDBRANCH  20  21
ENDBRANCH  18  20
ENDBRANCH  14  15
ENDBRANCH  13  14
ENDBRANCH  12  13
ENDBRANCH  11  12
ENDBRANCH   4  11
BRANCH   1  27
HETATM   27  N1  UNL     1     -29.430  31.048  41.067  1.00  0.00    -0.349 N 
HETATM   28  C1  UNL     1     -30.036  31.822  39.999  1.00  0.00     0.156 C 
BRANCH  27  29
HETATM   29  C2  UNL     1     -28.023  30.855  41.083  1.00  0.00     0.034 A 
HETATM   30  C3  UNL     1     -27.449  29.661  41.480  1.00  0.00     0.029 A 
HETATM   31  C4  UNL     1     -26.086  29.468  41.495  1.00  0.00     0.002 A 
HETATM   32  C5  UNL     1     -25.245  30.488  41.105  1.00  0.00     0.000 A 
HETATM   33  C6  UNL     1     -25.810  31.667  40.712  1.00  0.00     0.002 A 
HETATM   34  C7  UNL     1     -27.177  31.857  40.698  1.00  0.00     0.029 A 
ENDBRANCH  27  29
ENDBRANCH   1  27
BRANCH   9  35
HETATM   35  O2  UNL     1     -29.386  33.072  42.610  1.00  0.00    -0.283 OA
ATOM     36  H2  UNL     1     -28.906  32.525  41.998  1.00  0.00     0.245 HD
ENDBRANCH   9  35
TORSDOF 10
ENDMDL
MODEL 5
REMARK VINA RESULT: -6.805421810      1.669      2.919
REMARK  10 active torsions:
REMARK  status: ('A' for Active; 'I' for Inactive)
REMARK    1  A    between atoms: N1_2  and  C2_3 
REMARK    2  A    between atoms: N1_2  and  C8_9 
REMARK    3  A    between atoms: N2_12  and  C11_13 
REMARK    4  A    between atoms: C11_13  and  C12_14 
REMARK    5  A    between atoms: C12_14  and  C13_15 
REMARK    6  A    between atoms: C13_15  and  C14_16 
REMARK    7  A    between atoms: C14_16  and  N3_17 
REMARK    8  A    between atoms: C17_20  and  O1_21 
REMARK    9  A    between atoms: O1_21  and  C18_22 
REMARK   10  A    between atoms: N4_33  and  O2_34 
ROOT
HETATM    1  C8  UNL     1     -26.718  30.027  42.146  1.00  0.00     0.067 A 
HETATM    2  C9  UNL     1     -26.600  30.867  41.026  1.00  0.00     0.049 A 
HETATM    3  C10 UNL     1     -27.407  31.963  40.871  1.00  0.00     0.093 A 
HETATM    4  N2  UNL     1     -28.356  32.303  41.773  1.00  0.00    -0.355 N 
HETATM    5  C25 UNL     1     -28.483  31.511  42.848  1.00  0.00     0.066 A 
HETATM    6  C26 UNL     1     -29.452  31.815  43.781  1.00  0.00     0.033 A 
HETATM    7  C27 UNL     1     -29.662  31.039  44.912  1.00  0.00     0.022 A 
HETATM    8  C28 UNL     1     -28.847  29.939  45.057  1.00  0.00     0.123 A 
HETATM    9  N4  UNL     1     -27.889  29.622  44.153  1.00  0.00    -0.232 N 
HETATM   10  C29 UNL     1     -27.681  30.374  43.056  1.00  0.00     0.115 A 
ENDROOT
BRANCH   4  11
HETATM   11  C11 UNL     1     -29.178  33.488  41.569  1.00  0.00     0.129 C 
BRANCH  11  12
HETATM   12  C12 UNL     1     -30.034  33.419  40.346  1.00  0.00     0.022 C 
BRANCH  12  13
HETATM   13  C13 UNL     1     -31.303  32.691  40.731  1.00  0.00     0.022 C 
BRANCH  13  14
HETATM   14  C14 UNL     1     -31.268  31.221  40.488  1.00  0.00     0.128 C 
BRANCH  14  15
HETATM   15  N3  UNL     1     -31.814  30.522  41.609  1.00  0.00    -0.364 N 
HETATM   16  C15 UNL     1     -32.660  30.988  42.530  1.00  0.00     0.093 A 
HETATM   17  C16 UNL     1     -32.930  29.981  43.433  1.00  0.00     0.056 A 
HETATM   18  C17 UNL     1     -32.211  28.877  43.023  1.00  0.00     0.092 A 
HETATM   19  C24 UNL     1     -31.522  29.220  41.892  1.00  0.00     0.127 A 
BRANCH  18  20
HETATM   20  O1  UNL     1     -32.246  27.668  43.709  1.00  0.00    -0.309 OA
BRANCH  20  21
HETATM   21  C18 UNL     1     -31.095  26.948  44.011  1.00  0.00     0.076 A 
HETATM   22  C19 UNL     1     -30.645  26.868  45.309  1.00  0.00     0.037 A 
HETATM   23  C20 UNL     1     -29.511  26.159  45.613  1.00  0.00     0.003 A 
HETATM   24  C21 UNL     1     -28.792  25.510  44.640  1.00  0.00     0.000 A 
HETATM   25  C22 UNL     1     -29.236  25.583  43.314  1.00  0.00     0.003 A 
HETATM   26  C23 UNL     1     -30.382  26.302  43.028  1.00  0.00     0.037 A 
ENDBRANCH  20  21
ENDBRANCH  18  20
ENDBRANCH  14  15
ENDBRANCH  13  14
ENDBRANCH  12  13
ENDBRANCH  11  12
ENDBRANCH   4  11
BRANCH   1  27
HETATM   27  N1  UNL     1     -25.824  28.934  42.298  1.00  0.00    -0.349 N 
HETATM   28  C1  UNL     1     -24.572  29.166  42.996  1.00  0.00     0.156 C 
BRANCH  27  29
HETATM   29  C2  UNL     1     -26.112  27.642  41.785  1.00  0.00     0.034 A 
HETATM   30  C3  UNL     1     -27.022  27.441  40.762  1.00  0.00     0.029 A 
HETATM   31  C4  UNL     1     -27.304  26.191  40.260  1.00  0.00     0.002 A 
HETATM   32  C5  UNL     1     -26.668  25.084  40.782  1.00  0.00     0.000 A 
HETATM   33  C6  UNL     1     -25.769  25.279  41.792  1.00  0.00     0.002 A 
HETATM   34  C7  UNL     1     -25.490  26.535  42.292  1.00  0.00     0.029 A 
ENDBRANCH  27  29
ENDBRANCH   1  27
BRANCH   9  35
HETATM   35  O2  UNL     1     -27.170  28.481  44.409  1.00  0.00    -0.283 OA
ATOM     36  H2  UNL     1     -26.235  28.595  44.529  1.00  0.00     0.245 HD
ENDBRANCH   9  35
TORSDOF 10
ENDMDL
