MODEL 1
REMARK VINA RESULT: -6.975261932      0.000      0.000
REMARK  9 active torsions:
REMARK  status: ('A' for Active; 'I' for Inactive)
REMARK    1  A    between atoms: O1_2  and  C2_3 
REMARK    2  A    between atoms: C2_3  and  C3_4 
REMARK    3  A    between atoms: C3_4  and  S1_5 
REMARK    4  A    between atoms: S1_5  and  C4_7 
REMARK    5  A    between atoms: C7_10  and  C8_11 
REMARK    6  A    between atoms: C9_12  and  C10_13 
REMARK    7  A    between atoms: C13_16  and  O3_17 
REMARK    8  A    between atoms: O3_17  and  C14_18 
REMARK    9  A    between atoms: C23_28  and  O5_29 
ROOT
HETATM    1  C10 UNL     1     -24.521  28.977  43.724  1.00  0.00    -0.033 A 
HETATM    2  C11 UNL     1     -25.617  29.764  43.974  1.00  0.00     0.014 A 
HETATM    3  C12 UNL     1     -26.877  29.482  43.452  1.00  0.00     0.041 A 
HETATM    4  C13 UNL     1     -27.031  28.353  42.640  1.00  0.00     0.109 A 
HETATM    5  C23 UNL     1     -25.933  27.564  42.390  1.00  0.00     0.102 A 
HETATM    6  C25 UNL     1     -24.702  27.871  42.921  1.00  0.00     0.051 A 
ENDROOT
BRANCH   1   7
HETATM    7  C9  UNL     1     -23.212  29.259  44.259  1.00  0.00     0.012 C 
HETATM    8  C8  UNL     1     -22.863  29.005  45.494  1.00  0.00     0.012 C 
BRANCH   8   9
HETATM    9  C7  UNL     1     -21.536  29.294  46.024  1.00  0.00    -0.036 A 
HETATM   10  C6  UNL     1     -21.136  29.013  47.310  1.00  0.00     0.013 A 
HETATM   11  C5  UNL     1     -19.848  29.312  47.773  1.00  0.00     0.022 A 
HETATM   12  C4  UNL     1     -18.914  29.906  46.954  1.00  0.00     0.031 A 
HETATM   13  C27 UNL     1     -19.304  30.192  45.663  1.00  0.00     0.022 A 
HETATM   14  C26 UNL     1     -20.572  29.898  45.210  1.00  0.00     0.013 A 
BRANCH  12  15
HETATM   15  S1  UNL     1     -17.302  30.277  47.537  1.00  0.00     0.051 S 
HETATM   16  O2  UNL     1     -17.153  30.089  49.175  1.00  0.00    -0.253 OA
BRANCH  15  17
HETATM   17  C3  UNL     1     -16.080  29.246  46.744  1.00  0.00     0.140 C 
BRANCH  17  18
HETATM   18  C2  UNL     1     -16.576  27.834  46.849  1.00  0.00     0.180 C 
BRANCH  18  19
HETATM   19  O1  UNL     1     -16.971  27.346  45.642  1.00  0.00    -0.395 OA
HETATM   20  C1  UNL     1     -16.187  27.792  44.599  1.00  0.00     0.201 C 
ENDBRANCH  18  19
ENDBRANCH  17  18
ENDBRANCH  15  17
ENDBRANCH  12  15
ENDBRANCH   8   9
ENDBRANCH   1   7
BRANCH   5  21
HETATM   21  O5  UNL     1     -26.048  26.416  41.577  1.00  0.00    -0.353 OA
HETATM   22  C24 UNL     1     -25.561  26.427  40.247  1.00  0.00     0.210 C 
ENDBRANCH   5  21
BRANCH   4  23
HETATM   23  O3  UNL     1     -28.264  28.043  42.108  1.00  0.00    -0.308 OA
BRANCH  23  24
HETATM   24  C14 UNL     1     -29.294  27.613  42.925  1.00  0.00     0.077 A 
HETATM   25  C15 UNL     1     -29.199  26.572  43.817  1.00  0.00     0.038 A 
HETATM   26  C16 UNL     1     -30.287  26.199  44.610  1.00  0.00     0.011 A 
HETATM   27  C17 UNL     1     -31.481  26.853  44.528  1.00  0.00    -0.044 A 
HETATM   28  C18 UNL     1     -31.574  27.898  43.633  1.00  0.00     0.019 A 
HETATM   29  C22 UNL     1     -32.753  26.647  45.252  1.00  0.00     0.047 C 
HETATM   30  C19 UNL     1     -30.523  28.283  42.844  1.00  0.00     0.053 A 
HETATM   31  C20 UNL     1     -32.942  28.419  43.741  1.00  0.00     0.160 C 
HETATM   32  O4  UNL     1     -33.511  29.150  42.916  1.00  0.00    -0.292 OA
HETATM   33  C21 UNL     1     -33.519  27.919  45.011  1.00  0.00     0.088 C 
ENDBRANCH  23  24
ENDBRANCH   4  23
TORSDOF 9
ENDMDL
MODEL 2
REMARK VINA RESULT: -6.847533762      0.617      1.158
REMARK  9 active torsions:
REMARK  status: ('A' for Active; 'I' for Inactive)
REMARK    1  A    between atoms: O1_2  and  C2_3 
REMARK    2  A    between atoms: C2_3  and  C3_4 
REMARK    3  A    between atoms: C3_4  and  S1_5 
REMARK    4  A    between atoms: S1_5  and  C4_7 
REMARK    5  A    between atoms: C7_10  and  C8_11 
REMARK    6  A    between atoms: C9_12  and  C10_13 
REMARK    7  A    between atoms: C13_16  and  O3_17 
REMARK    8  A    between atoms: O3_17  and  C14_18 
REMARK    9  A    between atoms: C23_28  and  O5_29 
ROOT
HETATM    1  C10 UNL     1     -24.571  29.005  43.670  1.00  0.00    -0.033 A 
HETATM    2  C11 UNL     1     -25.660  29.807  43.903  1.00  0.00     0.014 A 
HETATM    3  C12 UNL     1     -26.923  29.521  43.392  1.00  0.00     0.041 A 
HETATM    4  C13 UNL     1     -27.088  28.373  42.609  1.00  0.00     0.109 A 
HETATM    5  C23 UNL     1     -25.997  27.570  42.376  1.00  0.00     0.102 A 
HETATM    6  C25 UNL     1     -24.763  27.880  42.896  1.00  0.00     0.051 A 
ENDROOT
BRANCH   1   7
HETATM    7  C9  UNL     1     -23.257  29.291  44.194  1.00  0.00     0.012 C 
HETATM    8  C8  UNL     1     -22.889  29.011  45.417  1.00  0.00     0.012 C 
BRANCH   8   9
HETATM    9  C7  UNL     1     -21.558  29.304  45.937  1.00  0.00    -0.036 A 
HETATM   10  C6  UNL     1     -20.572  29.947  45.225  1.00  0.00     0.013 A 
HETATM   11  C5  UNL     1     -19.307  30.205  45.769  1.00  0.00     0.022 A 
HETATM   12  C4  UNL     1     -18.989  29.824  47.053  1.00  0.00     0.031 A 
HETATM   13  C27 UNL     1     -19.970  29.178  47.776  1.00  0.00     0.022 A 
HETATM   14  C26 UNL     1     -21.214  28.925  47.239  1.00  0.00     0.013 A 
BRANCH  12  15
HETATM   15  S1  UNL     1     -17.405  30.149  47.731  1.00  0.00     0.051 S 
HETATM   16  O2  UNL     1     -17.481  30.913  49.198  1.00  0.00    -0.253 OA
BRANCH  15  17
HETATM   17  C3  UNL     1     -16.473  28.641  47.937  1.00  0.00     0.140 C 
BRANCH  17  18
HETATM   18  C2  UNL     1     -16.413  27.986  46.588  1.00  0.00     0.180 C 
BRANCH  18  19
HETATM   19  O1  UNL     1     -17.260  26.924  46.503  1.00  0.00    -0.395 OA
HETATM   20  C1  UNL     1     -17.461  26.299  47.716  1.00  0.00     0.201 C 
ENDBRANCH  18  19
ENDBRANCH  17  18
ENDBRANCH  15  17
ENDBRANCH  12  15
ENDBRANCH   8   9
ENDBRANCH   1   7
BRANCH   5  21
HETATM   21  O5  UNL     1     -26.123  26.402  41.593  1.00  0.00    -0.353 OA
HETATM   22  C24 UNL     1     -25.508  25.194  42.003  1.00  0.00     0.210 C 
ENDBRANCH   5  21
BRANCH   4  23
HETATM   23  O3  UNL     1     -28.326  28.059  42.089  1.00  0.00    -0.308 OA
BRANCH  23  24
HETATM   24  C14 UNL     1     -29.349  27.635  42.917  1.00  0.00     0.077 A 
HETATM   25  C15 UNL     1     -29.244  26.610  43.826  1.00  0.00     0.038 A 
HETATM   26  C16 UNL     1     -30.325  26.243  44.630  1.00  0.00     0.011 A 
HETATM   27  C17 UNL     1     -31.525  26.887  44.541  1.00  0.00    -0.044 A 
HETATM   28  C18 UNL     1     -31.629  27.916  43.628  1.00  0.00     0.019 A 
HETATM   29  C22 UNL     1     -32.793  26.684  45.273  1.00  0.00     0.047 C 
HETATM   30  C19 UNL     1     -30.583  28.295  42.829  1.00  0.00     0.053 A 
HETATM   31  C20 UNL     1     -33.000  28.429  43.733  1.00  0.00     0.160 C 
HETATM   32  O4  UNL     1     -33.577  29.142  42.898  1.00  0.00    -0.292 OA
HETATM   33  C21 UNL     1     -33.569  27.947  45.013  1.00  0.00     0.088 C 
ENDBRANCH  23  24
ENDBRANCH   4  23
TORSDOF 9
ENDMDL
MODEL 3
REMARK VINA RESULT: -6.825441098      1.188      1.604
REMARK  9 active torsions:
REMARK  status: ('A' for Active; 'I' for Inactive)
REMARK    1  A    between atoms: O1_2  and  C2_3 
REMARK    2  A    between atoms: C2_3  and  C3_4 
REMARK    3  A    between atoms: C3_4  and  S1_5 
REMARK    4  A    between atoms: S1_5  and  C4_7 
REMARK    5  A    between atoms: C7_10  and  C8_11 
REMARK    6  A    between atoms: C9_12  and  C10_13 
REMARK    7  A    between atoms: C13_16  and  O3_17 
REMARK    8  A    between atoms: O3_17  and  C14_18 
REMARK    9  A    between atoms: C23_28  and  O5_29 
ROOT
HETATM    1  C10 UNL     1     -24.616  29.049  43.427  1.00  0.00    -0.033 A 
HETATM    2  C11 UNL     1     -25.633  29.965  43.337  1.00  0.00     0.014 A 
HETATM    3  C12 UNL     1     -26.842  29.683  42.705  1.00  0.00     0.041 A 
HETATM    4  C13 UNL     1     -27.024  28.417  42.137  1.00  0.00     0.109 A 
HETATM    5  C23 UNL     1     -26.003  27.499  42.228  1.00  0.00     0.102 A 
HETATM    6  C25 UNL     1     -24.823  27.809  42.859  1.00  0.00     0.051 A 
ENDROOT
BRANCH   1   7
HETATM    7  C9  UNL     1     -23.360  29.330  44.079  1.00  0.00     0.012 C 
HETATM    8  C8  UNL     1     -23.088  28.977  45.309  1.00  0.00     0.012 C 
BRANCH   8   9
HETATM    9  C7  UNL     1     -21.815  29.266  45.959  1.00  0.00    -0.036 A 
HETATM   10  C6  UNL     1     -21.557  29.049  47.293  1.00  0.00     0.013 A 
HETATM   11  C5  UNL     1     -20.317  29.344  47.872  1.00  0.00     0.022 A 
HETATM   12  C4  UNL     1     -19.287  29.870  47.124  1.00  0.00     0.031 A 
HETATM   13  C27 UNL     1     -19.533  30.092  45.786  1.00  0.00     0.022 A 
HETATM   14  C26 UNL     1     -20.755  29.801  45.219  1.00  0.00     0.013 A 
BRANCH  12  15
HETATM   15  S1  UNL     1     -17.733  30.238  47.851  1.00  0.00     0.051 S 
HETATM   16  O2  UNL     1     -17.742  30.074  49.498  1.00  0.00    -0.253 OA
BRANCH  15  17
HETATM   17  C3  UNL     1     -16.452  29.185  47.194  1.00  0.00     0.140 C 
BRANCH  17  18
HETATM   18  C2  UNL     1     -16.968  27.778  47.276  1.00  0.00     0.180 C 
BRANCH  18  19
HETATM   19  O1  UNL     1     -17.163  27.237  46.043  1.00  0.00    -0.395 OA
HETATM   20  C1  UNL     1     -16.470  27.898  45.051  1.00  0.00     0.201 C 
ENDBRANCH  18  19
ENDBRANCH  17  18
ENDBRANCH  15  17
ENDBRANCH  12  15
ENDBRANCH   8   9
ENDBRANCH   1   7
BRANCH   5  21
HETATM   21  O5  UNL     1     -26.150  26.210  41.670  1.00  0.00    -0.353 OA
HETATM   22  C24 UNL     1     -25.381  25.126  42.159  1.00  0.00     0.210 C 
ENDBRANCH   5  21
BRANCH   4  23
HETATM   23  O3  UNL     1     -28.208  28.102  41.505  1.00  0.00    -0.308 OA
BRANCH  23  24
HETATM   24  C14 UNL     1     -29.404  28.125  42.200  1.00  0.00     0.077 A 
HETATM   25  C15 UNL     1     -30.491  28.891  41.857  1.00  0.00     0.038 A 
HETATM   26  C16 UNL     1     -31.666  28.857  42.612  1.00  0.00     0.011 A 
HETATM   27  C17 UNL     1     -31.775  28.063  43.716  1.00  0.00    -0.044 A 
HETATM   28  C18 UNL     1     -30.683  27.295  44.059  1.00  0.00     0.019 A 
HETATM   29  C22 UNL     1     -32.897  27.859  44.658  1.00  0.00     0.047 C 
HETATM   30  C19 UNL     1     -29.520  27.310  43.336  1.00  0.00     0.053 A 
HETATM   31  C20 UNL     1     -31.061  26.547  45.265  1.00  0.00     0.160 C 
HETATM   32  O4  UNL     1     -30.280  25.981  46.045  1.00  0.00    -0.292 OA
HETATM   33  C21 UNL     1     -32.537  26.590  45.382  1.00  0.00     0.088 C 
ENDBRANCH  23  24
ENDBRANCH   4  23
TORSDOF 9
ENDMDL
MODEL 4
REMARK VINA RESULT: -6.734947323      1.328      1.871
REMARK  9 active torsions:
REMARK  status: ('A' for Active; 'I' for Inactive)
REMARK    1  A    between atoms: O1_2  and  C2_3 
REMARK    2  A    between atoms: C2_3  and  C3_4 
REMARK    3  A    between atoms: C3_4  and  S1_5 
REMARK    4  A    between atoms: S1_5  and  C4_7 
REMARK    5  A    between atoms: C7_10  and  C8_11 
REMARK    6  A    between atoms: C9_12  and  C10_13 
REMARK    7  A    between atoms: C13_16  and  O3_17 
REMARK    8  A    between atoms: O3_17  and  C14_18 
REMARK    9  A    between atoms: C23_28  and  O5_29 
ROOT
HETATM    1  C10 UNL     1     -25.275  28.802  43.064  1.00  0.00    -0.033 A 
HETATM    2  C11 UNL     1     -26.231  29.785  43.117  1.00  0.00     0.014 A 
HETATM    3  C12 UNL     1     -27.491  29.637  42.542  1.00  0.00     0.041 A 
HETATM    4  C13 UNL     1     -27.793  28.440  41.883  1.00  0.00     0.109 A 
HETATM    5  C23 UNL     1     -26.835  27.454  41.831  1.00  0.00     0.102 A 
HETATM    6  C25 UNL     1     -25.601  27.632  42.409  1.00  0.00     0.051 A 
ENDROOT
BRANCH   1   7
HETATM    7  C9  UNL     1     -23.967  28.944  43.656  1.00  0.00     0.012 C 
HETATM    8  C8  UNL     1     -23.758  29.482  44.830  1.00  0.00     0.012 C 
BRANCH   8   9
HETATM    9  C7  UNL     1     -22.431  29.621  45.418  1.00  0.00    -0.036 A 
HETATM   10  C6  UNL     1     -22.068  29.109  46.643  1.00  0.00     0.013 A 
HETATM   11  C5  UNL     1     -20.779  29.270  47.166  1.00  0.00     0.022 A 
HETATM   12  C4  UNL     1     -19.806  29.954  46.473  1.00  0.00     0.031 A 
HETATM   13  C27 UNL     1     -20.158  30.472  45.244  1.00  0.00     0.022 A 
HETATM   14  C26 UNL     1     -21.427  30.312  44.732  1.00  0.00     0.013 A 
BRANCH  12  15
HETATM   15  S1  UNL     1     -18.192  30.153  47.130  1.00  0.00     0.051 S 
HETATM   16  O2  UNL     1     -18.080  29.670  48.710  1.00  0.00    -0.253 OA
BRANCH  15  17
HETATM   17  C3  UNL     1     -16.994  29.234  46.180  1.00  0.00     0.140 C 
BRANCH  17  18
HETATM   18  C2  UNL     1     -17.633  27.919  45.840  1.00  0.00     0.180 C 
BRANCH  18  19
HETATM   19  O1  UNL     1     -17.118  26.899  46.579  1.00  0.00    -0.395 OA
HETATM   20  C1  UNL     1     -18.025  26.375  47.477  1.00  0.00     0.201 C 
ENDBRANCH  18  19
ENDBRANCH  17  18
ENDBRANCH  15  17
ENDBRANCH  12  15
ENDBRANCH   8   9
ENDBRANCH   1   7
BRANCH   5  21
HETATM   21  O5  UNL     1     -27.102  26.231  41.178  1.00  0.00    -0.353 OA
HETATM   22  C24 UNL     1     -26.792  26.069  39.805  1.00  0.00     0.210 C 
ENDBRANCH   5  21
BRANCH   4  23
HETATM   23  O3  UNL     1     -29.031  28.258  41.304  1.00  0.00    -0.308 OA
BRANCH  23  24
HETATM   24  C14 UNL     1     -30.181  28.323  42.070  1.00  0.00     0.077 A 
HETATM   25  C15 UNL     1     -31.250  29.144  41.804  1.00  0.00     0.038 A 
HETATM   26  C16 UNL     1     -32.378  29.150  42.626  1.00  0.00     0.011 A 
HETATM   27  C17 UNL     1     -32.460  28.342  43.723  1.00  0.00    -0.044 A 
HETATM   28  C18 UNL     1     -31.386  27.519  43.988  1.00  0.00     0.019 A 
HETATM   29  C22 UNL     1     -33.532  28.173  44.727  1.00  0.00     0.047 C 
HETATM   30  C19 UNL     1     -30.269  27.494  43.197  1.00  0.00     0.053 A 
HETATM   31  C20 UNL     1     -31.727  26.768  45.203  1.00  0.00     0.160 C 
HETATM   32  O4  UNL     1     -30.929  26.153  45.927  1.00  0.00    -0.292 OA
HETATM   33  C21 UNL     1     -33.190  26.876  45.408  1.00  0.00     0.088 C 
ENDBRANCH  23  24
ENDBRANCH   4  23
TORSDOF 9
ENDMDL
MODEL 5
REMARK VINA RESULT: -6.717641337      3.409      5.306
REMARK  9 active torsions:
REMARK  status: ('A' for Active; 'I' for Inactive)
REMARK    1  A    between atoms: O1_2  and  C2_3 
REMARK    2  A    between atoms: C2_3  and  C3_4 
REMARK    3  A    between atoms: C3_4  and  S1_5 
REMARK    4  A    between atoms: S1_5  and  C4_7 
REMARK    5  A    between atoms: C7_10  and  C8_11 
REMARK    6  A    between atoms: C9_12  and  C10_13 
REMARK    7  A    between atoms: C13_16  and  O3_17 
REMARK    8  A    between atoms: O3_17  and  C14_18 
REMARK    9  A    between atoms: C23_28  and  O5_29 
ROOT
HETATM    1  C10 UNL     1     -22.884  29.946  46.397  1.00  0.00    -0.033 A 
HETATM    2  C11 UNL     1     -22.765  29.004  45.406  1.00  0.00     0.014 A 
HETATM    3  C12 UNL     1     -23.492  29.069  44.220  1.00  0.00     0.041 A 
HETATM    4  C13 UNL     1     -24.379  30.134  44.032  1.00  0.00     0.109 A 
HETATM    5  C23 UNL     1     -24.497  31.079  45.025  1.00  0.00     0.102 A 
HETATM    6  C25 UNL     1     -23.765  30.986  46.184  1.00  0.00     0.051 A 
ENDROOT
BRANCH   1   7
HETATM    7  C9  UNL     1     -22.137  29.890  47.629  1.00  0.00     0.012 C 
HETATM    8  C8  UNL     1     -21.331  28.908  47.944  1.00  0.00     0.012 C 
BRANCH   8   9
HETATM    9  C7  UNL     1     -20.580  28.861  49.193  1.00  0.00    -0.036 A 
HETATM   10  C6  UNL     1     -19.219  29.035  49.288  1.00  0.00     0.013 A 
HETATM   11  C5  UNL     1     -18.543  28.979  50.513  1.00  0.00     0.022 A 
HETATM   12  C4  UNL     1     -19.216  28.747  51.691  1.00  0.00     0.031 A 
HETATM   13  C27 UNL     1     -20.581  28.571  51.609  1.00  0.00     0.022 A 
HETATM   14  C26 UNL     1     -21.244  28.625  50.402  1.00  0.00     0.013 A 
BRANCH  12  15
HETATM   15  S1  UNL     1     -18.367  28.678  53.224  1.00  0.00     0.051 S 
HETATM   16  O2  UNL     1     -18.705  29.971  54.201  1.00  0.00    -0.253 OA
BRANCH  15  17
HETATM   17  C3  UNL     1     -18.771  27.186  54.116  1.00  0.00     0.140 C 
BRANCH  17  18
HETATM   18  C2  UNL     1     -17.955  26.086  53.503  1.00  0.00     0.180 C 
BRANCH  18  19
HETATM   19  O1  UNL     1     -18.619  25.467  52.490  1.00  0.00    -0.395 OA
HETATM   20  C1  UNL     1     -17.864  25.357  51.341  1.00  0.00     0.201 C 
ENDBRANCH  18  19
ENDBRANCH  17  18
ENDBRANCH  15  17
ENDBRANCH  12  15
ENDBRANCH   8   9
ENDBRANCH   1   7
BRANCH   5  21
HETATM   21  O5  UNL     1     -25.380  32.170  44.871  1.00  0.00    -0.353 OA
HETATM   22  C24 UNL     1     -24.878  33.462  44.577  1.00  0.00     0.210 C 
ENDBRANCH   5  21
BRANCH   4  23
HETATM   23  O3  UNL     1     -25.113  30.231  42.869  1.00  0.00    -0.308 OA
BRANCH  23  24
HETATM   24  C14 UNL     1     -25.646  29.099  42.278  1.00  0.00     0.077 A 
HETATM   25  C15 UNL     1     -25.160  28.514  41.134  1.00  0.00     0.038 A 
HETATM   26  C16 UNL     1     -25.754  27.368  40.600  1.00  0.00     0.011 A 
HETATM   27  C17 UNL     1     -26.837  26.790  41.194  1.00  0.00    -0.044 A 
HETATM   28  C18 UNL     1     -27.324  27.378  42.342  1.00  0.00     0.019 A 
HETATM   29  C22 UNL     1     -27.625  25.594  40.824  1.00  0.00     0.047 C 
HETATM   30  C19 UNL     1     -26.759  28.501  42.886  1.00  0.00     0.053 A 
HETATM   31  C20 UNL     1     -28.473  26.571  42.770  1.00  0.00     0.160 C 
HETATM   32  O4  UNL     1     -29.351  26.922  43.573  1.00  0.00    -0.292 OA
HETATM   33  C21 UNL     1     -28.395  25.266  42.075  1.00  0.00     0.088 C 
ENDBRANCH  23  24
ENDBRANCH   4  23
TORSDOF 9
ENDMDL
