MODEL 1
REMARK VINA RESULT: -9.345196800      0.000      0.000
REMARK  0 active torsions:
REMARK  status: ('A' for Active; 'I' for Inactive)
ROOT
HETATM    1  C1  UNL     1       7.192 -42.456   0.489  1.00  0.00     0.181 C 
HETATM    2  N1  UNL     1       5.993 -41.643   0.600  1.00  0.00    -0.261 N 
HETATM    3  C2  UNL     1       5.073 -41.694  -0.481  1.00  0.00     0.272 C 
HETATM    4  O1  UNL     1       5.214 -42.536  -1.416  1.00  0.00    -0.266 OA
HETATM    5  C3  UNL     1       3.975 -40.740  -0.453  1.00  0.00     0.045 A 
HETATM    6  C4  UNL     1       3.062 -40.739  -1.481  1.00  0.00     0.030 A 
HETATM    7  C5  UNL     1       2.032 -39.824  -1.453  1.00  0.00    -0.025 A 
HETATM    8  C6  UNL     1       1.075 -39.762  -2.454  1.00  0.00     0.012 A 
HETATM    9  C7  UNL     1       0.056 -38.836  -2.400  1.00  0.00     0.001 A 
HETATM   10  C8  UNL     1      -0.048 -37.944  -1.359  1.00  0.00     0.001 A 
HETATM   11  C9  UNL     1       0.913 -38.009  -0.359  1.00  0.00     0.012 A 
HETATM   12  C10 UNL     1       1.943 -38.937  -0.403  1.00  0.00    -0.025 A 
HETATM   13  C11 UNL     1       2.878 -38.960   0.622  1.00  0.00     0.025 A 
HETATM   14  C12 UNL     1       3.930 -39.883   0.609  1.00  0.00     0.014 A 
HETATM   15  C13 UNL     1       4.887 -39.841   1.746  1.00  0.00     0.190 C 
HETATM   16  C14 UNL     1       4.076 -39.835   2.988  1.00  0.00     0.051 A 
HETATM   17  C15 UNL     1       3.000 -40.711   2.870  1.00  0.00     0.018 A 
HETATM   18  C16 UNL     1       2.104 -40.882   3.892  1.00  0.00     0.018 A 
HETATM   19  C17 UNL     1       2.271 -40.172   5.062  1.00  0.00     0.090 A 
HETATM   20  N2  UNL     1       3.308 -39.331   5.170  1.00  0.00    -0.344 N 
ATOM     21  H2  UNL     1       3.426 -38.811   6.039  1.00  0.00     0.167 HD
HETATM   22  C18 UNL     1       4.217 -39.142   4.167  1.00  0.00     0.181 A 
HETATM   23  O2  UNL     1       5.189 -38.209   4.560  1.00  0.00    -0.217 OA
HETATM   24  N3  UNL     1       5.868 -37.429   3.652  1.00  0.00    -0.242 N 
ATOM     25  H3  UNL     1       6.279 -36.584   4.049  1.00  0.00     0.196 HD
HETATM   26  C19 UNL     1       6.076 -37.576   2.399  1.00  0.00     0.143 A 
HETATM   27  C20 UNL     1       6.710 -36.971   1.241  1.00  0.00     0.037 A 
HETATM   28  C21 UNL     1       7.455 -35.955   0.643  1.00  0.00     0.017 A 
HETATM   29  C22 UNL     1       7.780 -35.942  -0.696  1.00  0.00     0.001 A 
HETATM   30  C23 UNL     1       7.349 -36.986  -1.499  1.00  0.00     0.002 A 
HETATM   31  C24 UNL     1       6.606 -38.008  -0.927  1.00  0.00     0.031 A 
HETATM   32  C25 UNL     1       6.291 -38.003   0.417  1.00  0.00     0.053 A 
HETATM   33  N4  UNL     1       5.658 -38.612   1.564  1.00  0.00    -0.293 N 
HETATM   34  N5  UNL     1       5.836 -40.893   1.720  1.00  0.00    -0.289 N 
HETATM   35  C26 UNL     1       6.026 -41.605   2.934  1.00  0.00     0.175 C 
ENDROOT
TORSDOF 0
ENDMDL
MODEL 2
REMARK VINA RESULT: -9.215304644      1.696      2.173
REMARK  0 active torsions:
REMARK  status: ('A' for Active; 'I' for Inactive)
ROOT
HETATM    1  C1  UNL     1       5.685 -41.754   2.144  1.00  0.00     0.181 C 
HETATM    2  N1  UNL     1       4.859 -40.561   2.066  1.00  0.00    -0.261 N 
HETATM    3  C2  UNL     1       3.817 -40.557   1.101  1.00  0.00     0.272 C 
HETATM    4  O1  UNL     1       3.522 -41.607   0.457  1.00  0.00    -0.266 OA
HETATM    5  C3  UNL     1       3.119 -39.298   0.896  1.00  0.00     0.045 A 
HETATM    6  C4  UNL     1       2.109 -39.235  -0.036  1.00  0.00     0.030 A 
HETATM    7  C5  UNL     1       1.460 -38.035  -0.231  1.00  0.00    -0.025 A 
HETATM    8  C6  UNL     1       0.434 -37.895  -1.153  1.00  0.00     0.012 A 
HETATM    9  C7  UNL     1      -0.197 -36.682  -1.329  1.00  0.00     0.001 A 
HETATM   10  C8  UNL     1       0.167 -35.573  -0.602  1.00  0.00     0.001 A 
HETATM   11  C9  UNL     1       1.196 -35.718   0.320  1.00  0.00     0.012 A 
HETATM   12  C10 UNL     1       1.836 -36.934   0.505  1.00  0.00    -0.025 A 
HETATM   13  C11 UNL     1       2.858 -37.025   1.438  1.00  0.00     0.025 A 
HETATM   14  C12 UNL     1       3.528 -38.236   1.651  1.00  0.00     0.014 A 
HETATM   15  C13 UNL     1       4.609 -38.247   2.671  1.00  0.00     0.190 C 
HETATM   16  C14 UNL     1       4.051 -37.620   3.893  1.00  0.00     0.051 A 
HETATM   17  C15 UNL     1       2.740 -38.041   4.101  1.00  0.00     0.018 A 
HETATM   18  C16 UNL     1       2.010 -37.598   5.172  1.00  0.00     0.018 A 
HETATM   19  C17 UNL     1       2.585 -36.716   6.062  1.00  0.00     0.090 A 
HETATM   20  N2  UNL     1       3.846 -36.315   5.858  1.00  0.00    -0.344 N 
ATOM     21  H2  UNL     1       4.264 -35.664   6.522  1.00  0.00     0.167 HD
HETATM   22  C18 UNL     1       4.597 -36.740   4.799  1.00  0.00     0.181 A 
HETATM   23  O2  UNL     1       5.874 -36.158   4.841  1.00  0.00    -0.217 OA
HETATM   24  N3  UNL     1       6.623 -35.948   3.705  1.00  0.00    -0.242 N 
ATOM     25  H3  UNL     1       7.348 -35.238   3.807  1.00  0.00     0.196 HD
HETATM   26  C19 UNL     1       6.571 -36.485   2.546  1.00  0.00     0.143 A 
HETATM   27  C20 UNL     1       7.181 -36.480   1.229  1.00  0.00     0.037 A 
HETATM   28  C21 UNL     1       8.119 -36.001   0.314  1.00  0.00     0.017 A 
HETATM   29  C22 UNL     1       8.216 -36.461  -0.981  1.00  0.00     0.001 A 
HETATM   30  C23 UNL     1       7.342 -37.448  -1.408  1.00  0.00     0.002 A 
HETATM   31  C24 UNL     1       6.400 -37.941  -0.517  1.00  0.00     0.031 A 
HETATM   32  C25 UNL     1       6.319 -37.467   0.778  1.00  0.00     0.053 A 
HETATM   33  N4  UNL     1       5.707 -37.478   2.086  1.00  0.00    -0.293 N 
HETATM   34  N5  UNL     1       5.137 -39.539   2.914  1.00  0.00    -0.289 N 
HETATM   35  C26 UNL     1       5.267 -39.924   4.275  1.00  0.00     0.175 C 
ENDROOT
TORSDOF 0
ENDMDL
MODEL 3
REMARK VINA RESULT: -9.131303921      2.117      4.873
REMARK  0 active torsions:
REMARK  status: ('A' for Active; 'I' for Inactive)
ROOT
HETATM    1  C1  UNL     1       3.107 -42.047  -2.162  1.00  0.00     0.181 C 
HETATM    2  N1  UNL     1       3.591 -41.016  -1.259  1.00  0.00    -0.261 N 
HETATM    3  C2  UNL     1       4.502 -40.066  -1.791  1.00  0.00     0.272 C 
HETATM    4  O1  UNL     1       4.749 -40.023  -3.032  1.00  0.00    -0.266 OA
HETATM    5  C3  UNL     1       5.128 -39.156  -0.843  1.00  0.00     0.045 A 
HETATM    6  C4  UNL     1       6.028 -38.223  -1.303  1.00  0.00     0.030 A 
HETATM    7  C5  UNL     1       6.624 -37.374  -0.396  1.00  0.00    -0.025 A 
HETATM    8  C6  UNL     1       7.541 -36.410  -0.785  1.00  0.00     0.012 A 
HETATM    9  C7  UNL     1       8.123 -35.573   0.143  1.00  0.00     0.001 A 
HETATM   10  C8  UNL     1       7.818 -35.665   1.482  1.00  0.00     0.001 A 
HETATM   11  C9  UNL     1       6.899 -36.633   1.867  1.00  0.00     0.012 A 
HETATM   12  C10 UNL     1       6.308 -37.479   0.940  1.00  0.00    -0.025 A 
HETATM   13  C11 UNL     1       5.396 -38.429   1.377  1.00  0.00     0.025 A 
HETATM   14  C12 UNL     1       4.781 -39.300   0.470  1.00  0.00     0.014 A 
HETATM   15  C13 UNL     1       3.815 -40.287   1.022  1.00  0.00     0.190 C 
HETATM   16  C14 UNL     1       2.883 -39.533   1.894  1.00  0.00     0.051 A 
HETATM   17  C15 UNL     1       2.547 -38.315   1.308  1.00  0.00     0.018 A 
HETATM   18  C16 UNL     1       1.695 -37.438   1.925  1.00  0.00     0.018 A 
HETATM   19  C17 UNL     1       1.158 -37.768   3.151  1.00  0.00     0.090 A 
HETATM   20  N2  UNL     1       1.483 -38.941   3.710  1.00  0.00    -0.344 N 
ATOM     21  H2  UNL     1       1.081 -39.178   4.616  1.00  0.00     0.167 HD
HETATM   22  C18 UNL     1       2.331 -39.834   3.117  1.00  0.00     0.181 A 
HETATM   23  O2  UNL     1       2.487 -40.970   3.928  1.00  0.00    -0.217 OA
HETATM   24  N3  UNL     1       3.624 -41.745   3.894  1.00  0.00    -0.242 N 
ATOM     25  H3  UNL     1       3.769 -42.313   4.729  1.00  0.00     0.196 HD
HETATM   26  C19 UNL     1       4.530 -41.880   3.002  1.00  0.00     0.143 A 
HETATM   27  C20 UNL     1       5.767 -42.572   2.689  1.00  0.00     0.037 A 
HETATM   28  C21 UNL     1       6.789 -43.465   3.015  1.00  0.00     0.017 A 
HETATM   29  C22 UNL     1       7.848 -43.741   2.179  1.00  0.00     0.001 A 
HETATM   30  C23 UNL     1       7.914 -43.105   0.950  1.00  0.00     0.002 A 
HETATM   31  C24 UNL     1       6.910 -42.213   0.603  1.00  0.00     0.031 A 
HETATM   32  C25 UNL     1       5.856 -41.949   1.455  1.00  0.00     0.053 A 
HETATM   33  N4  UNL     1       4.625 -41.257   1.757  1.00  0.00    -0.293 N 
HETATM   34  N5  UNL     1       3.143 -41.033   0.022  1.00  0.00    -0.289 N 
HETATM   35  C26 UNL     1       1.733 -41.135   0.149  1.00  0.00     0.175 C 
ENDROOT
TORSDOF 0
ENDMDL
MODEL 4
REMARK VINA RESULT: -9.091571113      1.884      5.938
REMARK  0 active torsions:
REMARK  status: ('A' for Active; 'I' for Inactive)
ROOT
HETATM    1  C1  UNL     1       2.168 -41.258   3.369  1.00  0.00     0.181 C 
HETATM    2  N1  UNL     1       3.410 -40.920   2.693  1.00  0.00    -0.261 N 
HETATM    3  C2  UNL     1       3.780 -39.550   2.668  1.00  0.00     0.272 C 
HETATM    4  O1  UNL     1       3.143 -38.690   3.345  1.00  0.00    -0.266 OA
HETATM    5  C3  UNL     1       4.917 -39.193   1.832  1.00  0.00     0.045 A 
HETATM    6  C4  UNL     1       5.311 -37.877   1.762  1.00  0.00     0.030 A 
HETATM    7  C5  UNL     1       6.382 -37.548   0.959  1.00  0.00    -0.025 A 
HETATM    8  C6  UNL     1       6.835 -36.243   0.837  1.00  0.00     0.012 A 
HETATM    9  C7  UNL     1       7.908 -35.942   0.026  1.00  0.00     0.001 A 
HETATM   10  C8  UNL     1       8.563 -36.917  -0.689  1.00  0.00     0.001 A 
HETATM   11  C9  UNL     1       8.104 -38.223  -0.564  1.00  0.00     0.012 A 
HETATM   12  C10 UNL     1       7.026 -38.536   0.250  1.00  0.00    -0.025 A 
HETATM   13  C11 UNL     1       6.608 -39.856   0.339  1.00  0.00     0.025 A 
HETATM   14  C12 UNL     1       5.523 -40.209   1.150  1.00  0.00     0.014 A 
HETATM   15  C13 UNL     1       5.141 -41.646   1.190  1.00  0.00     0.190 C 
HETATM   16  C14 UNL     1       6.385 -42.412   1.443  1.00  0.00     0.051 A 
HETATM   17  C15 UNL     1       7.175 -41.760   2.386  1.00  0.00     0.018 A 
HETATM   18  C16 UNL     1       8.379 -42.276   2.788  1.00  0.00     0.018 A 
HETATM   19  C17 UNL     1       8.817 -43.466   2.247  1.00  0.00     0.090 A 
HETATM   20  N2  UNL     1       8.053 -44.090   1.341  1.00  0.00    -0.344 N 
ATOM     21  H2  UNL     1       8.384 -44.970   0.947  1.00  0.00     0.167 HD
HETATM   22  C18 UNL     1       6.849 -43.598   0.922  1.00  0.00     0.181 A 
HETATM   23  O2  UNL     1       6.274 -44.458  -0.027  1.00  0.00    -0.217 OA
HETATM   24  N3  UNL     1       5.401 -44.009  -0.991  1.00  0.00    -0.242 N 
ATOM     25  H3  UNL     1       5.320 -44.623  -1.802  1.00  0.00     0.196 HD
HETATM   26  C19 UNL     1       4.674 -42.959  -1.052  1.00  0.00     0.143 A 
HETATM   27  C20 UNL     1       3.713 -42.250  -1.877  1.00  0.00     0.037 A 
HETATM   28  C21 UNL     1       2.943 -42.130  -3.035  1.00  0.00     0.017 A 
HETATM   29  C22 UNL     1       2.098 -41.069  -3.276  1.00  0.00     0.001 A 
HETATM   30  C23 UNL     1       2.000 -40.064  -2.328  1.00  0.00     0.002 A 
HETATM   31  C24 UNL     1       2.755 -40.160  -1.168  1.00  0.00     0.031 A 
HETATM   32  C25 UNL     1       3.596 -41.231  -0.945  1.00  0.00     0.053 A 
HETATM   33  N4  UNL     1       4.552 -41.930  -0.118  1.00  0.00    -0.293 N 
HETATM   34  N5  UNL     1       4.124 -41.930   2.136  1.00  0.00    -0.289 N 
HETATM   35  C26 UNL     1       4.353 -43.033   2.999  1.00  0.00     0.175 C 
ENDROOT
TORSDOF 0
ENDMDL
MODEL 5
REMARK VINA RESULT: -8.929129272      1.956      6.106
REMARK  0 active torsions:
REMARK  status: ('A' for Active; 'I' for Inactive)
ROOT
HETATM    1  C1  UNL     1       2.240 -38.406   0.143  1.00  0.00     0.181 C 
HETATM    2  N1  UNL     1       3.553 -38.797   0.627  1.00  0.00    -0.261 N 
HETATM    3  C2  UNL     1       3.952 -40.142   0.403  1.00  0.00     0.272 C 
HETATM    4  O1  UNL     1       3.262 -40.913  -0.328  1.00  0.00    -0.266 OA
HETATM    5  C3  UNL     1       5.179 -40.578   1.052  1.00  0.00     0.045 A 
HETATM    6  C4  UNL     1       5.605 -41.874   0.878  1.00  0.00     0.030 A 
HETATM    7  C5  UNL     1       6.762 -42.282   1.506  1.00  0.00    -0.025 A 
HETATM    8  C6  UNL     1       7.252 -43.572   1.379  1.00  0.00     0.012 A 
HETATM    9  C7  UNL     1       8.412 -43.953   2.019  1.00  0.00     0.001 A 
HETATM   10  C8  UNL     1       9.121 -43.073   2.802  1.00  0.00     0.001 A 
HETATM   11  C9  UNL     1       8.626 -41.781   2.927  1.00  0.00     0.012 A 
HETATM   12  C10 UNL     1       7.460 -41.388   2.287  1.00  0.00    -0.025 A 
HETATM   13  C11 UNL     1       7.008 -40.086   2.445  1.00  0.00     0.025 A 
HETATM   14  C12 UNL     1       5.835 -39.655   1.815  1.00  0.00     0.014 A 
HETATM   15  C13 UNL     1       5.422 -38.243   2.035  1.00  0.00     0.190 C 
HETATM   16  C14 UNL     1       6.616 -37.403   1.775  1.00  0.00     0.051 A 
HETATM   17  C15 UNL     1       7.312 -37.878   0.666  1.00  0.00     0.018 A 
HETATM   18  C16 UNL     1       8.455 -37.264   0.225  1.00  0.00     0.018 A 
HETATM   19  C17 UNL     1       8.926 -36.153   0.894  1.00  0.00     0.090 A 
HETATM   20  N2  UNL     1       8.252 -35.700   1.959  1.00  0.00    -0.344 N 
ATOM     21  H2  UNL     1       8.605 -34.878   2.446  1.00  0.00     0.167 HD
HETATM   22  C18 UNL     1       7.110 -36.293   2.420  1.00  0.00     0.181 A 
HETATM   23  O2  UNL     1       6.624 -35.606   3.544  1.00  0.00    -0.217 OA
HETATM   24  N3  UNL     1       5.870 -36.227   4.514  1.00  0.00    -0.242 N 
ATOM     25  H3  UNL     1       5.864 -35.745   5.413  1.00  0.00     0.196 HD
HETATM   26  C19 UNL     1       5.174 -37.299   4.488  1.00  0.00     0.143 A 
HETATM   27  C20 UNL     1       4.322 -38.158   5.290  1.00  0.00     0.037 A 
HETATM   28  C21 UNL     1       3.685 -38.478   6.489  1.00  0.00     0.017 A 
HETATM   29  C22 UNL     1       2.893 -39.593   6.652  1.00  0.00     0.001 A 
HETATM   30  C23 UNL     1       2.713 -40.448   5.576  1.00  0.00     0.002 A 
HETATM   31  C24 UNL     1       3.336 -40.152   4.373  1.00  0.00     0.031 A 
HETATM   32  C25 UNL     1       4.126 -39.029   4.230  1.00  0.00     0.053 A 
HETATM   33  N4  UNL     1       4.973 -38.180   3.425  1.00  0.00    -0.293 N 
HETATM   34  N5  UNL     1       4.304 -37.858   1.255  1.00  0.00    -0.289 N 
HETATM   35  C26 UNL     1       4.416 -36.629   0.551  1.00  0.00     0.175 C 
ENDROOT
TORSDOF 0
ENDMDL
