MODEL 1
REMARK VINA RESULT: -6.302439220      0.000      0.000
REMARK  4 active torsions:
REMARK  status: ('A' for Active; 'I' for Inactive)
REMARK    1  A    between atoms: C2_2  and  C3_3 
REMARK    2  A    between atoms: C14_15  and  C16_17 
REMARK    3  A    between atoms: C16_17  and  O1_18 
REMARK    4  A    between atoms: C17_20  and  O2_21 
ROOT
HETATM    1  C3  UNL     1      25.122  25.736  43.119  1.00  0.00     0.137 C 
HETATM    2  C4  UNL     1      24.709  24.432  42.584  1.00  0.00     0.060 C 
HETATM    3  N1  UNL     1      24.376  23.385  42.178  1.00  0.00    -0.197 NA
ENDROOT
BRANCH   1   4
HETATM    4  C2  UNL     1      25.047  26.767  41.969  1.00  0.00    -0.008 C 
HETATM    5  C1  UNL     1      25.974  26.265  40.933  1.00  0.00     0.021 C 
HETATM    6  C5  UNL     1      23.601  26.685  41.525  1.00  0.00     0.014 C 
HETATM    7  C6  UNL     1      23.282  27.804  40.615  1.00  0.00     0.002 C 
HETATM    8  C7  UNL     1      23.581  29.182  41.135  1.00  0.00     0.014 C 
HETATM    9  C8  UNL     1      25.040  29.309  41.599  1.00  0.00    -0.012 C 
HETATM   10  C9  UNL     1      25.876  29.197  40.325  1.00  0.00     0.021 C 
HETATM   11  C10 UNL     1      25.259  28.136  42.475  1.00  0.00    -0.065 C 
HETATM   12  C20 UNL     1      25.287  30.646  42.198  1.00  0.00    -0.028 C 
HETATM   13  C11 UNL     1      25.627  28.289  43.719  1.00  0.00    -0.022 C 
HETATM   14  C12 UNL     1      25.877  29.613  44.374  1.00  0.00     0.033 C 
HETATM   15  C13 UNL     1      25.057  30.693  43.684  1.00  0.00     0.011 C 
HETATM   16  C14 UNL     1      25.342  31.971  44.367  1.00  0.00     0.008 C 
HETATM   17  C15 UNL     1      25.834  31.678  45.809  1.00  0.00     0.020 C 
HETATM   18  C17 UNL     1      26.430  32.786  43.748  1.00  0.00     0.128 C 
HETATM   19  C18 UNL     1      27.320  32.048  42.804  1.00  0.00     0.033 C 
HETATM   20  C19 UNL     1      26.631  31.185  41.802  1.00  0.00     0.013 C 
HETATM   21  C21 UNL     1      24.279  31.601  41.527  1.00  0.00     0.016 C 
BRANCH  16  22
HETATM   22  C16 UNL     1      24.151  32.874  44.604  1.00  0.00     0.176 C 
BRANCH  22  23
HETATM   23  O1  UNL     1      23.459  32.511  45.766  1.00  0.00    -0.400 OA
ATOM     24  H1  UNL     1      23.810  32.951  46.531  1.00  0.00     0.209 HD
ENDBRANCH  22  23
ENDBRANCH  16  22
BRANCH  18  25
HETATM   25  O2  UNL     1      27.273  33.345  44.735  1.00  0.00    -0.395 OA
ATOM     26  H2  UNL     1      28.102  33.621  44.361  1.00  0.00     0.210 HD
ENDBRANCH  18  25
ENDBRANCH   1   4
TORSDOF 4
ENDMDL
MODEL 2
REMARK VINA RESULT: -6.215384228      3.625      5.858
REMARK  4 active torsions:
REMARK  status: ('A' for Active; 'I' for Inactive)
REMARK    1  A    between atoms: C2_2  and  C3_3 
REMARK    2  A    between atoms: C14_15  and  C16_17 
REMARK    3  A    between atoms: C16_17  and  O1_18 
REMARK    4  A    between atoms: C17_20  and  O2_21 
ROOT
HETATM    1  C3  UNL     1      24.323  29.147  41.534  1.00  0.00     0.137 C 
HETATM    2  C4  UNL     1      25.388  29.644  40.655  1.00  0.00     0.060 C 
HETATM    3  N1  UNL     1      26.237  30.059  39.963  1.00  0.00    -0.197 NA
ENDROOT
BRANCH   1   4
HETATM    4  C2  UNL     1      24.410  27.603  41.563  1.00  0.00    -0.008 C 
HETATM    5  C1  UNL     1      23.064  27.129  41.175  1.00  0.00     0.021 C 
HETATM    6  C5  UNL     1      25.448  27.296  40.504  1.00  0.00     0.014 C 
HETATM    7  C6  UNL     1      25.860  25.880  40.588  1.00  0.00     0.002 C 
HETATM    8  C7  UNL     1      26.345  25.413  41.932  1.00  0.00     0.014 C 
HETATM    9  C8  UNL     1      25.321  25.708  43.038  1.00  0.00    -0.012 C 
HETATM   10  C9  UNL     1      24.129  24.801  42.733  1.00  0.00     0.021 C 
HETATM   11  C10 UNL     1      24.960  27.131  42.848  1.00  0.00    -0.065 C 
HETATM   12  C20 UNL     1      25.860  25.328  44.371  1.00  0.00    -0.028 C 
HETATM   13  C11 UNL     1      25.138  28.001  43.805  1.00  0.00    -0.022 C 
HETATM   14  C12 UNL     1      25.690  27.673  45.159  1.00  0.00     0.033 C 
HETATM   15  C13 UNL     1      26.585  26.446  45.068  1.00  0.00     0.011 C 
HETATM   16  C14 UNL     1      27.097  26.169  46.426  1.00  0.00     0.008 C 
HETATM   17  C15 UNL     1      27.058  27.477  47.260  1.00  0.00     0.020 C 
HETATM   18  C17 UNL     1      26.295  25.186  47.212  1.00  0.00     0.128 C 
HETATM   19  C18 UNL     1      24.916  24.932  46.698  1.00  0.00     0.033 C 
HETATM   20  C19 UNL     1      24.805  24.695  45.230  1.00  0.00     0.013 C 
HETATM   21  C21 UNL     1      26.871  24.193  44.107  1.00  0.00     0.016 C 
BRANCH  16  22
HETATM   22  C16 UNL     1      28.554  25.770  46.513  1.00  0.00     0.176 C 
BRANCH  22  23
HETATM   23  O1  UNL     1      28.707  24.529  47.145  1.00  0.00    -0.400 OA
ATOM     24  H1  UNL     1      29.048  24.628  48.026  1.00  0.00     0.209 HD
ENDBRANCH  22  23
ENDBRANCH  16  22
BRANCH  18  25
HETATM   25  O2  UNL     1      26.147  25.606  48.554  1.00  0.00    -0.395 OA
ATOM     26  H2  UNL     1      26.414  26.511  48.661  1.00  0.00     0.210 HD
ENDBRANCH  18  25
ENDBRANCH   1   4
TORSDOF 4
ENDMDL
MODEL 3
REMARK VINA RESULT: -6.184188907      3.748      6.243
REMARK  4 active torsions:
REMARK  status: ('A' for Active; 'I' for Inactive)
REMARK    1  A    between atoms: C2_2  and  C3_3 
REMARK    2  A    between atoms: C14_15  and  C16_17 
REMARK    3  A    between atoms: C16_17  and  O1_18 
REMARK    4  A    between atoms: C17_20  and  O2_21 
ROOT
HETATM    1  C3  UNL     1      25.335  31.164  42.751  1.00  0.00     0.137 C 
HETATM    2  C4  UNL     1      25.429  32.406  41.974  1.00  0.00     0.060 C 
HETATM    3  N1  UNL     1      25.516  33.405  41.369  1.00  0.00    -0.197 NA
ENDROOT
BRANCH   1   4
HETATM    4  C2  UNL     1      24.873  30.038  41.796  1.00  0.00    -0.008 C 
HETATM    5  C1  UNL     1      23.499  30.407  41.395  1.00  0.00     0.021 C 
HETATM    6  C5  UNL     1      25.850  30.143  40.643  1.00  0.00     0.014 C 
HETATM    7  C6  UNL     1      25.728  28.962  39.764  1.00  0.00     0.002 C 
HETATM    8  C7  UNL     1      25.867  27.624  40.434  1.00  0.00     0.014 C 
HETATM    9  C8  UNL     1      24.895  27.477  41.614  1.00  0.00    -0.012 C 
HETATM   10  C9  UNL     1      23.503  27.439  40.984  1.00  0.00     0.021 C 
HETATM   11  C10 UNL     1      25.078  28.712  42.408  1.00  0.00    -0.065 C 
HETATM   12  C20 UNL     1      25.116  26.188  42.322  1.00  0.00    -0.028 C 
HETATM   13  C11 UNL     1      25.441  28.655  43.661  1.00  0.00    -0.022 C 
HETATM   14  C12 UNL     1      25.689  27.385  44.417  1.00  0.00     0.033 C 
HETATM   15  C13 UNL     1      26.104  26.284  43.452  1.00  0.00     0.011 C 
HETATM   16  C14 UNL     1      26.333  25.060  44.247  1.00  0.00     0.008 C 
HETATM   17  C15 UNL     1      26.660  25.459  45.710  1.00  0.00     0.020 C 
HETATM   18  C17 UNL     1      25.155  24.149  44.352  1.00  0.00     0.128 C 
HETATM   19  C18 UNL     1      23.841  24.761  43.996  1.00  0.00     0.033 C 
HETATM   20  C19 UNL     1      23.818  25.560  42.737  1.00  0.00     0.013 C 
HETATM   21  C21 UNL     1      25.689  25.221  41.265  1.00  0.00     0.016 C 
BRANCH  16  22
HETATM   22  C16 UNL     1      27.538  24.234  43.856  1.00  0.00     0.176 C 
BRANCH  22  23
HETATM   23  O1  UNL     1      27.184  22.904  43.598  1.00  0.00    -0.400 OA
ATOM     24  H1  UNL     1      26.565  22.579  44.240  1.00  0.00     0.209 HD
ENDBRANCH  22  23
ENDBRANCH  16  22
BRANCH  18  25
HETATM   25  O2  UNL     1      25.015  23.644  45.665  1.00  0.00    -0.395 OA
ATOM     26  H2  UNL     1      25.721  23.946  46.225  1.00  0.00     0.210 HD
ENDBRANCH  18  25
ENDBRANCH   1   4
TORSDOF 4
ENDMDL
MODEL 4
REMARK VINA RESULT: -5.631063379      3.764      6.186
REMARK  4 active torsions:
REMARK  status: ('A' for Active; 'I' for Inactive)
REMARK    1  A    between atoms: C2_2  and  C3_3 
REMARK    2  A    between atoms: C14_15  and  C16_17 
REMARK    3  A    between atoms: C16_17  and  O1_18 
REMARK    4  A    between atoms: C17_20  and  O2_21 
ROOT
HETATM    1  C3  UNL     1      23.916  21.729  38.254  1.00  0.00     0.137 C 
HETATM    2  C4  UNL     1      23.117  20.498  38.280  1.00  0.00     0.060 C 
HETATM    3  N1  UNL     1      22.484  19.513  38.280  1.00  0.00    -0.197 NA
ENDROOT
BRANCH   1   4
HETATM    4  C2  UNL     1      24.299  22.080  39.711  1.00  0.00    -0.008 C 
HETATM    5  C1  UNL     1      23.339  21.338  40.555  1.00  0.00     0.021 C 
HETATM    6  C5  UNL     1      25.707  21.535  39.837  1.00  0.00     0.014 C 
HETATM    7  C6  UNL     1      26.333  22.027  41.081  1.00  0.00     0.002 C 
HETATM    8  C7  UNL     1      26.342  23.517  41.271  1.00  0.00     0.014 C 
HETATM    9  C8  UNL     1      24.931  24.112  41.147  1.00  0.00    -0.012 C 
HETATM   10  C9  UNL     1      24.165  23.583  42.359  1.00  0.00     0.021 C 
HETATM   11  C10 UNL     1      24.390  23.540  39.894  1.00  0.00    -0.065 C 
HETATM   12  C20 UNL     1      24.975  25.596  41.241  1.00  0.00    -0.028 C 
HETATM   13  C11 UNL     1      23.999  24.315  38.918  1.00  0.00    -0.022 C 
HETATM   14  C12 UNL     1      24.034  25.813  38.957  1.00  0.00     0.033 C 
HETATM   15  C13 UNL     1      25.125  26.279  39.909  1.00  0.00     0.011 C 
HETATM   16  C14 UNL     1      25.114  27.756  39.908  1.00  0.00     0.008 C 
HETATM   17  C15 UNL     1      24.485  28.258  38.582  1.00  0.00     0.020 C 
HETATM   18  C17 UNL     1      24.288  28.379  40.985  1.00  0.00     0.128 C 
HETATM   19  C18 UNL     1      23.302  27.468  41.640  1.00  0.00     0.033 C 
HETATM   20  C19 UNL     1      23.822  26.130  42.040  1.00  0.00     0.013 C 
HETATM   21  C21 UNL     1      26.218  25.927  42.092  1.00  0.00     0.016 C 
BRANCH  16  22
HETATM   22  C16 UNL     1      26.469  28.427  39.903  1.00  0.00     0.176 C 
BRANCH  22  23
HETATM   23  O1  UNL     1      26.349  29.821  39.849  1.00  0.00    -0.400 OA
ATOM     24  H1  UNL     1      26.053  30.112  38.995  1.00  0.00     0.209 HD
ENDBRANCH  22  23
ENDBRANCH  16  22
BRANCH  18  25
HETATM   25  O2  UNL     1      23.547  29.476  40.490  1.00  0.00    -0.395 OA
ATOM     26  H2  UNL     1      23.559  29.496  39.540  1.00  0.00     0.210 HD
ENDBRANCH  18  25
ENDBRANCH   1   4
TORSDOF 4
ENDMDL
MODEL 5
REMARK VINA RESULT: -5.615879738      2.114      3.265
REMARK  4 active torsions:
REMARK  status: ('A' for Active; 'I' for Inactive)
REMARK    1  A    between atoms: C2_2  and  C3_3 
REMARK    2  A    between atoms: C14_15  and  C16_17 
REMARK    3  A    between atoms: C16_17  and  O1_18 
REMARK    4  A    between atoms: C17_20  and  O2_21 
ROOT
HETATM    1  C3  UNL     1      26.256  25.803  45.602  1.00  0.00     0.137 C 
HETATM    2  C4  UNL     1      25.538  24.816  46.417  1.00  0.00     0.060 C 
HETATM    3  N1  UNL     1      24.969  24.040  47.084  1.00  0.00    -0.197 NA
ENDROOT
BRANCH   1   4
HETATM    4  C2  UNL     1      25.895  25.551  44.119  1.00  0.00    -0.008 C 
HETATM    5  C1  UNL     1      26.982  24.698  43.593  1.00  0.00     0.021 C 
HETATM    6  C5  UNL     1      24.580  24.805  44.207  1.00  0.00     0.014 C 
HETATM    7  C6  UNL     1      23.949  24.724  42.874  1.00  0.00     0.002 C 
HETATM    8  C7  UNL     1      23.750  26.031  42.159  1.00  0.00     0.014 C 
HETATM    9  C8  UNL     1      25.062  26.822  42.049  1.00  0.00    -0.012 C 
HETATM   10  C9  UNL     1      25.945  26.007  41.105  1.00  0.00     0.021 C 
HETATM   11  C10 UNL     1      25.618  26.820  43.421  1.00  0.00    -0.065 C 
HETATM   12  C20 UNL     1      24.825  28.152  41.427  1.00  0.00    -0.028 C 
HETATM   13  C11 UNL     1      25.859  27.939  44.048  1.00  0.00    -0.022 C 
HETATM   14  C12 UNL     1      25.626  29.303  43.472  1.00  0.00     0.033 C 
HETATM   15  C13 UNL     1      24.526  29.238  42.422  1.00  0.00     0.011 C 
HETATM   16  C14 UNL     1      24.341  30.604  41.890  1.00  0.00     0.008 C 
HETATM   17  C15 UNL     1      24.837  31.631  42.941  1.00  0.00     0.020 C 
HETATM   18  C17 UNL     1      25.123  30.908  40.655  1.00  0.00     0.128 C 
HETATM   19  C18 UNL     1      26.249  29.971  40.367  1.00  0.00     0.033 C 
HETATM   20  C19 UNL     1      25.931  28.519  40.481  1.00  0.00     0.013 C 
HETATM   21  C21 UNL     1      23.588  27.977  40.521  1.00  0.00     0.016 C 
BRANCH  16  22
HETATM   22  C16 UNL     1      22.909  31.035  41.661  1.00  0.00     0.176 C 
BRANCH  22  23
HETATM   23  O1  UNL     1      22.814  32.421  41.486  1.00  0.00    -0.400 OA
ATOM     24  H1  UNL     1      21.911  32.696  41.382  1.00  0.00     0.209 HD
ENDBRANCH  22  23
ENDBRANCH  16  22
BRANCH  18  25
HETATM   25  O2  UNL     1      25.689  32.202  40.715  1.00  0.00    -0.395 OA
ATOM     26  H2  UNL     1      25.840  32.551  39.845  1.00  0.00     0.210 HD
ENDBRANCH  18  25
ENDBRANCH   1   4
TORSDOF 4
ENDMDL
