MODEL 1
REMARK VINA RESULT: -4.164409252      0.000      0.000
REMARK  4 active torsions:
REMARK  status: ('A' for Active; 'I' for Inactive)
REMARK    1  A    between atoms: C2_2  and  C3_3 
REMARK    2  A    between atoms: C3_3  and  O1_4 
REMARK    3  A    between atoms: C12_14  and  O2_16 
REMARK    4  A    between atoms: C19_23  and  O3_24 
ROOT
HETATM    1  C3  UNL     1      34.618  17.308  42.110  1.00  0.00     0.114 C 
HETATM    2  C4  UNL     1      34.486  18.661  41.372  1.00  0.00    -0.011 C 
HETATM    3  C5  UNL     1      33.371  19.352  41.967  1.00  0.00    -0.013 C 
HETATM    4  C6  UNL     1      32.518  20.325  41.275  1.00  0.00     0.061 C 
HETATM    5  C7  UNL     1      31.504  19.588  40.451  1.00  0.00    -0.084 C 
HETATM    6  C8  UNL     1      30.189  20.270  40.303  1.00  0.00     0.043 C 
HETATM    7  C9  UNL     1      31.501  18.433  39.797  1.00  0.00    -0.019 C 
HETATM    8  C10 UNL     1      32.569  17.358  39.621  1.00  0.00     0.022 C 
HETATM    9  C11 UNL     1      32.614  16.476  40.737  1.00  0.00     0.050 C 
HETATM   10  C12 UNL     1      33.681  16.277  41.736  1.00  0.00     0.090 C 
HETATM   11  C13 UNL     1      32.971  15.631  42.953  1.00  0.00     0.049 C 
HETATM   12  C14 UNL     1      33.720  18.051  39.011  1.00  0.00    -0.002 C 
HETATM   13  C15 UNL     1      33.151  19.057  38.011  1.00  0.00     0.019 C 
HETATM   14  C16 UNL     1      34.471  17.077  38.076  1.00  0.00     0.013 C 
HETATM   15  C17 UNL     1      35.762  17.917  37.952  1.00  0.00     0.004 C 
HETATM   16  C18 UNL     1      36.001  17.944  39.488  1.00  0.00     0.044 C 
HETATM   17  C19 UNL     1      34.742  18.640  39.931  1.00  0.00     0.094 C 
ENDROOT
BRANCH   1  18
HETATM   18  C2  UNL     1      34.673  17.724  43.586  1.00  0.00     0.041 C 
HETATM   19  C1  UNL     1      36.000  17.377  44.235  1.00  0.00     0.009 C 
ENDBRANCH   1  18
BRANCH   1  20
HETATM   20  O1  UNL     1      36.001  16.978  41.991  1.00  0.00    -0.382 OA
ATOM     21  H1  UNL     1      36.229  17.697  41.415  1.00  0.00     0.211 HD
ENDBRANCH   1  20
BRANCH  10  22
HETATM   22  O2  UNL     1      34.462  15.165  41.291  1.00  0.00    -0.387 OA
ATOM     23  H2  UNL     1      34.547  15.258  40.349  1.00  0.00     0.210 HD
ENDBRANCH  10  22
BRANCH  17  24
HETATM   24  O3  UNL     1      34.921  19.948  39.498  1.00  0.00    -0.380 OA
HETATM   25  C20 UNL     1      35.942  20.682  39.937  1.00  0.00     0.203 C 
ENDBRANCH  17  24
TORSDOF 4
ENDMDL
MODEL 2
REMARK VINA RESULT: -4.150831999      5.202      7.464
REMARK  4 active torsions:
REMARK  status: ('A' for Active; 'I' for Inactive)
REMARK    1  A    between atoms: C2_2  and  C3_3 
REMARK    2  A    between atoms: C3_3  and  O1_4 
REMARK    3  A    between atoms: C12_14  and  O2_16 
REMARK    4  A    between atoms: C19_23  and  O3_24 
ROOT
HETATM    1  C3  UNL     1      30.504  23.566  44.308  1.00  0.00     0.114 C 
HETATM    2  C4  UNL     1      31.931  23.987  44.734  1.00  0.00    -0.011 C 
HETATM    3  C5  UNL     1      32.125  25.333  44.260  1.00  0.00    -0.013 C 
HETATM    4  C6  UNL     1      33.421  25.918  43.897  1.00  0.00     0.061 C 
HETATM    5  C7  UNL     1      33.788  25.475  42.512  1.00  0.00    -0.084 C 
HETATM    6  C8  UNL     1      34.580  26.455  41.719  1.00  0.00     0.043 C 
HETATM    7  C9  UNL     1      33.567  24.377  41.799  1.00  0.00    -0.019 C 
HETATM    8  C10 UNL     1      32.825  23.083  42.122  1.00  0.00     0.022 C 
HETATM    9  C11 UNL     1      31.422  23.223  41.934  1.00  0.00     0.050 C 
HETATM   10  C12 UNL     1      30.331  23.186  42.926  1.00  0.00     0.090 C 
HETATM   11  C13 UNL     1      29.144  23.912  42.242  1.00  0.00     0.049 C 
HETATM   12  C14 UNL     1      33.494  22.541  43.320  1.00  0.00    -0.002 C 
HETATM   13  C15 UNL     1      34.989  22.811  43.152  1.00  0.00     0.019 C 
HETATM   14  C16 UNL     1      33.452  20.997  43.278  1.00  0.00     0.013 C 
HETATM   15  C17 UNL     1      33.817  20.774  44.764  1.00  0.00     0.004 C 
HETATM   16  C18 UNL     1      32.621  21.624  45.279  1.00  0.00     0.044 C 
HETATM   17  C19 UNL     1      32.961  22.951  44.657  1.00  0.00     0.094 C 
ENDROOT
BRANCH   1  18
HETATM   18  C2  UNL     1      29.631  24.704  44.852  1.00  0.00     0.041 C 
HETATM   19  C1  UNL     1      29.322  24.539  46.329  1.00  0.00     0.009 C 
ENDBRANCH   1  18
BRANCH   1  20
HETATM   20  O1  UNL     1      30.120  22.597  45.282  1.00  0.00    -0.382 OA
ATOM     21  H1  UNL     1      30.646  22.949  45.990  1.00  0.00     0.211 HD
ENDBRANCH   1  20
BRANCH  10  22
HETATM   22  O2  UNL     1      29.827  21.850  42.937  1.00  0.00    -0.387 OA
ATOM     23  H2  UNL     1      29.322  21.748  42.137  1.00  0.00     0.210 HD
ENDBRANCH  10  22
BRANCH  17  24
HETATM   24  O3  UNL     1      34.068  23.379  45.381  1.00  0.00    -0.380 OA
HETATM   25  C20 UNL     1      33.993  23.570  46.697  1.00  0.00     0.203 C 
ENDBRANCH  17  24
TORSDOF 4
ENDMDL
MODEL 3
REMARK VINA RESULT: -3.906858622      5.449      7.550
REMARK  4 active torsions:
REMARK  status: ('A' for Active; 'I' for Inactive)
REMARK    1  A    between atoms: C2_2  and  C3_3 
REMARK    2  A    between atoms: C3_3  and  O1_4 
REMARK    3  A    between atoms: C12_14  and  O2_16 
REMARK    4  A    between atoms: C19_23  and  O3_24 
ROOT
HETATM    1  C3  UNL     1      31.453  23.496  44.178  1.00  0.00     0.114 C 
HETATM    2  C4  UNL     1      32.665  24.319  44.675  1.00  0.00    -0.011 C 
HETATM    3  C5  UNL     1      32.464  25.671  44.220  1.00  0.00    -0.013 C 
HETATM    4  C6  UNL     1      33.537  26.627  43.923  1.00  0.00     0.061 C 
HETATM    5  C7  UNL     1      34.080  26.345  42.554  1.00  0.00    -0.084 C 
HETATM    6  C8  UNL     1      34.571  27.535  41.807  1.00  0.00     0.043 C 
HETATM    7  C9  UNL     1      34.233  25.247  41.824  1.00  0.00    -0.019 C 
HETATM    8  C10 UNL     1      33.903  23.783  42.102  1.00  0.00     0.022 C 
HETATM    9  C11 UNL     1      32.533  23.497  41.848  1.00  0.00     0.050 C 
HETATM   10  C12 UNL     1      31.463  23.111  42.787  1.00  0.00     0.090 C 
HETATM   11  C13 UNL     1      30.143  23.459  42.052  1.00  0.00     0.049 C 
HETATM   12  C14 UNL     1      34.653  23.443  43.326  1.00  0.00    -0.002 C 
HETATM   13  C15 UNL     1      36.001  24.155  43.232  1.00  0.00     0.019 C 
HETATM   14  C16 UNL     1      35.082  21.959  43.272  1.00  0.00     0.013 C 
HETATM   15  C17 UNL     1      35.432  21.825  44.771  1.00  0.00     0.004 C 
HETATM   16  C18 UNL     1      34.013  22.263  45.235  1.00  0.00     0.044 C 
HETATM   17  C19 UNL     1      33.963  23.644  44.639  1.00  0.00     0.094 C 
ENDROOT
BRANCH   1  18
HETATM   18  C2  UNL     1      30.254  24.306  44.688  1.00  0.00     0.041 C 
HETATM   19  C1  UNL     1      29.880  23.948  46.115  1.00  0.00     0.009 C 
ENDBRANCH   1  18
BRANCH   1  20
HETATM   20  O1  UNL     1      31.338  22.436  45.126  1.00  0.00    -0.382 OA
ATOM     21  H1  UNL     1      30.414  22.269  44.981  1.00  0.00     0.211 HD
ENDBRANCH   1  20
BRANCH  10  22
HETATM   22  O2  UNL     1      31.386  21.685  42.764  1.00  0.00    -0.387 OA
ATOM     23  H2  UNL     1      32.241  21.366  43.032  1.00  0.00     0.210 HD
ENDBRANCH  10  22
BRANCH  17  24
HETATM   24  O3  UNL     1      34.856  24.371  45.418  1.00  0.00    -0.380 OA
HETATM   25  C20 UNL     1      34.669  24.504  46.731  1.00  0.00     0.203 C 
ENDBRANCH  17  24
TORSDOF 4
ENDMDL
MODEL 4
REMARK VINA RESULT: -3.815675649      4.939      7.653
REMARK  4 active torsions:
REMARK  status: ('A' for Active; 'I' for Inactive)
REMARK    1  A    between atoms: C2_2  and  C3_3 
REMARK    2  A    between atoms: C3_3  and  O1_4 
REMARK    3  A    between atoms: C12_14  and  O2_16 
REMARK    4  A    between atoms: C19_23  and  O3_24 
ROOT
HETATM    1  C3  UNL     1      34.382  24.535  42.479  1.00  0.00     0.114 C 
HETATM    2  C4  UNL     1      33.491  23.280  42.633  1.00  0.00    -0.011 C 
HETATM    3  C5  UNL     1      32.247  23.570  41.968  1.00  0.00    -0.013 C 
HETATM    4  C6  UNL     1      30.946  22.992  42.326  1.00  0.00     0.061 C 
HETATM    5  C7  UNL     1      30.386  23.737  43.501  1.00  0.00    -0.084 C 
HETATM    6  C8  UNL     1      28.901  23.838  43.542  1.00  0.00     0.043 C 
HETATM    7  C9  UNL     1      30.918  24.349  44.552  1.00  0.00    -0.019 C 
HETATM    8  C10 UNL     1      32.366  24.544  44.994  1.00  0.00     0.022 C 
HETATM    9  C11 UNL     1      32.977  25.638  44.323  1.00  0.00     0.050 C 
HETATM   10  C12 UNL     1      34.086  25.645  43.351  1.00  0.00     0.090 C 
HETATM   11  C13 UNL     1      33.945  26.991  42.594  1.00  0.00     0.049 C 
HETATM   12  C14 UNL     1      32.917  23.181  45.122  1.00  0.00    -0.002 C 
HETATM   13  C15 UNL     1      31.810  22.308  45.710  1.00  0.00     0.019 C 
HETATM   14  C16 UNL     1      33.966  23.156  46.257  1.00  0.00     0.013 C 
HETATM   15  C17 UNL     1      34.611  21.806  45.867  1.00  0.00     0.004 C 
HETATM   16  C18 UNL     1      34.956  22.283  44.427  1.00  0.00     0.044 C 
HETATM   17  C19 UNL     1      33.572  22.583  43.917  1.00  0.00     0.094 C 
ENDROOT
BRANCH   1  18
HETATM   18  C2  UNL     1      34.363  24.788  40.966  1.00  0.00     0.041 C 
HETATM   19  C1  UNL     1      35.702  24.498  40.315  1.00  0.00     0.009 C 
ENDBRANCH   1  18
BRANCH   1  20
HETATM   20  O1  UNL     1      35.715  24.026  42.533  1.00  0.00    -0.382 OA
ATOM     21  H1  UNL     1      35.625  23.428  41.801  1.00  0.00     0.211 HD
ENDBRANCH   1  20
BRANCH  10  22
HETATM   22  O2  UNL     1      35.281  25.906  44.090  1.00  0.00    -0.387 OA
ATOM     23  H2  UNL     1      35.806  25.115  44.038  1.00  0.00     0.210 HD
ENDBRANCH  10  22
BRANCH  17  24
HETATM   24  O3  UNL     1      32.997  21.326  43.770  1.00  0.00    -0.380 OA
HETATM   25  C20 UNL     1      33.526  20.423  42.945  1.00  0.00     0.203 C 
ENDBRANCH  17  24
TORSDOF 4
ENDMDL
MODEL 5
REMARK VINA RESULT: -3.719382414      4.848      6.731
REMARK  4 active torsions:
REMARK  status: ('A' for Active; 'I' for Inactive)
REMARK    1  A    between atoms: C2_2  and  C3_3 
REMARK    2  A    between atoms: C3_3  and  O1_4 
REMARK    3  A    between atoms: C12_14  and  O2_16 
REMARK    4  A    between atoms: C19_23  and  O3_24 
ROOT
HETATM    1  C3  UNL     1      32.109  23.119  45.184  1.00  0.00     0.114 C 
HETATM    2  C4  UNL     1      33.601  23.089  44.773  1.00  0.00    -0.011 C 
HETATM    3  C5  UNL     1      34.052  24.457  44.751  1.00  0.00    -0.013 C 
HETATM    4  C6  UNL     1      35.128  24.974  43.898  1.00  0.00     0.061 C 
HETATM    5  C7  UNL     1      34.583  25.228  42.523  1.00  0.00    -0.084 C 
HETATM    6  C8  UNL     1      35.211  26.361  41.790  1.00  0.00     0.043 C 
HETATM    7  C9  UNL     1      33.642  24.662  41.778  1.00  0.00    -0.019 C 
HETATM    8  C10 UNL     1      32.707  23.484  42.038  1.00  0.00     0.022 C 
HETATM    9  C11 UNL     1      31.567  23.876  42.792  1.00  0.00     0.050 C 
HETATM   10  C12 UNL     1      31.166  23.495  44.159  1.00  0.00     0.090 C 
HETATM   11  C13 UNL     1      30.187  24.608  44.613  1.00  0.00     0.049 C 
HETATM   12  C14 UNL     1      33.595  22.342  42.329  1.00  0.00    -0.002 C 
HETATM   13  C15 UNL     1      34.797  22.466  41.395  1.00  0.00     0.019 C 
HETATM   14  C16 UNL     1      32.940  21.038  41.819  1.00  0.00     0.013 C 
HETATM   15  C17 UNL     1      33.848  20.068  42.607  1.00  0.00     0.004 C 
HETATM   16  C18 UNL     1      33.483  20.699  43.982  1.00  0.00     0.044 C 
HETATM   17  C19 UNL     1      33.972  22.104  43.757  1.00  0.00     0.094 C 
ENDROOT
BRANCH   1  18
HETATM   18  C2  UNL     1      32.125  23.942  46.479  1.00  0.00     0.041 C 
HETATM   19  C1  UNL     1      31.753  23.113  47.695  1.00  0.00     0.009 C 
ENDBRANCH   1  18
BRANCH   1  20
HETATM   20  O1  UNL     1      31.894  21.854  45.809  1.00  0.00    -0.382 OA
ATOM     21  H1  UNL     1      31.623  21.396  45.022  1.00  0.00     0.211 HD
ENDBRANCH   1  20
BRANCH  10  22
HETATM   22  O2  UNL     1      30.253  22.403  44.033  1.00  0.00    -0.387 OA
ATOM     23  H2  UNL     1      30.758  21.667  43.707  1.00  0.00     0.210 HD
ENDBRANCH  10  22
BRANCH  17  24
HETATM   24  O3  UNL     1      35.356  21.974  43.758  1.00  0.00    -0.380 OA
HETATM   25  C20 UNL     1      35.998  21.494  44.821  1.00  0.00     0.203 C 
ENDBRANCH  17  24
TORSDOF 4
ENDMDL
