MODEL 1
REMARK VINA RESULT: -7.630165339      0.000      0.000
REMARK  7 active torsions:
REMARK  status: ('A' for Active; 'I' for Inactive)
REMARK    1  A    between atoms: C2_2  and  O1_3 
REMARK    2  A    between atoms: C2_2  and  C3_5 
REMARK    3  A    between atoms: C3_5  and  C4_6 
REMARK    4  A    between atoms: C4_6  and  O3_8 
REMARK    5  A    between atoms: O3_8  and  C5_9 
REMARK    6  A    between atoms: C5_9  and  C8_12 
REMARK    7  A    between atoms: C12_19  and  C13_20 
ROOT
HETATM    1  C8  UNL     1      77.966  -5.339  26.214  1.00  0.00     0.035 C 
HETATM    2  C9  UNL     1      77.398  -6.262  27.283  1.00  0.00     0.044 C 
HETATM    3  C10 UNL     1      75.988  -6.569  26.849  1.00  0.00     0.171 C 
HETATM    4  O4  UNL     1      75.902  -7.883  26.321  1.00  0.00    -0.205 OA
HETATM    5  O5  UNL     1      74.749  -8.026  25.716  1.00  0.00    -0.066 OA
HETATM    6  O6  UNL     1      74.760  -7.366  24.578  1.00  0.00    -0.204 OA
HETATM    7  C11 UNL     1      75.879  -6.521  24.493  1.00  0.00     0.184 C 
HETATM    8  C12 UNL     1      75.813  -5.871  23.171  1.00  0.00     0.129 C 
HETATM    9  C14 UNL     1      76.986  -5.020  22.796  1.00  0.00     0.043 C 
HETATM   10  C15 UNL     1      76.870  -3.724  23.452  1.00  0.00    -0.023 C 
HETATM   11  C16 UNL     1      76.570  -3.571  24.881  1.00  0.00    -0.078 C 
HETATM   12  C17 UNL     1      76.825  -2.099  25.230  1.00  0.00     0.044 C 
HETATM   13  C18 UNL     1      76.804  -4.565  25.897  1.00  0.00    -0.006 C 
HETATM   14  C19 UNL     1      76.290  -3.923  27.220  1.00  0.00     0.021 C 
HETATM   15  C20 UNL     1      75.763  -5.655  25.689  1.00  0.00     0.063 C 
ENDROOT
BRANCH   1  16
HETATM   16  C5  UNL     1      79.297  -4.955  26.576  1.00  0.00     0.068 C 
HETATM   17  C6  UNL     1      79.658  -3.644  27.171  1.00  0.00     0.047 C 
HETATM   18  C7  UNL     1      80.071  -4.816  25.155  1.00  0.00     0.047 C 
BRANCH  16  19
HETATM   19  O3  UNL     1      80.016  -6.051  27.042  1.00  0.00    -0.310 OA
BRANCH  19  20
HETATM   20  C4  UNL     1      80.719  -6.188  28.173  1.00  0.00     0.262 C 
HETATM   21  O2  UNL     1      80.100  -6.163  29.248  1.00  0.00    -0.265 OA
BRANCH  20  22
HETATM   22  C3  UNL     1      82.203  -6.371  28.246  1.00  0.00     0.142 C 
BRANCH  22  23
HETATM   23  C2  UNL     1      82.568  -7.627  29.018  1.00  0.00     0.123 C 
HETATM   24  C1  UNL     1      83.885  -8.171  28.577  1.00  0.00     0.040 C 
BRANCH  23  25
HETATM   25  O1  UNL     1      82.625  -7.271  30.360  1.00  0.00    -0.395 OA
ATOM     26  H1  UNL     1      81.790  -6.917  30.640  1.00  0.00     0.210 HD
ENDBRANCH  23  25
ENDBRANCH  22  23
ENDBRANCH  20  22
ENDBRANCH  19  20
ENDBRANCH  16  19
ENDBRANCH   1  16
BRANCH   8  27
HETATM   27  C13 UNL     1      75.541  -6.915  22.108  1.00  0.00     0.394 C 
HETATM   28  F1  UNL     1      75.767  -6.369  20.847  1.00  0.00    -0.171 F 
HETATM   29  F2  UNL     1      76.235  -8.072  22.283  1.00  0.00    -0.171 F 
HETATM   30  F3  UNL     1      74.156  -7.150  22.116  1.00  0.00    -0.171 F 
ENDBRANCH   8  27
TORSDOF 7
ENDMDL
MODEL 2
REMARK VINA RESULT: -7.401219941      4.222      7.051
REMARK  7 active torsions:
REMARK  status: ('A' for Active; 'I' for Inactive)
REMARK    1  A    between atoms: C2_2  and  O1_3 
REMARK    2  A    between atoms: C2_2  and  C3_5 
REMARK    3  A    between atoms: C3_5  and  C4_6 
REMARK    4  A    between atoms: C4_6  and  O3_8 
REMARK    5  A    between atoms: O3_8  and  C5_9 
REMARK    6  A    between atoms: C5_9  and  C8_12 
REMARK    7  A    between atoms: C12_19  and  C13_20 
ROOT
HETATM    1  C8  UNL     1      75.522  -8.259  22.726  1.00  0.00     0.035 C 
HETATM    2  C9  UNL     1      76.091  -7.199  21.792  1.00  0.00     0.044 C 
HETATM    3  C10 UNL     1      75.908  -5.886  22.508  1.00  0.00     0.171 C 
HETATM    4  O4  UNL     1      77.143  -5.427  23.033  1.00  0.00    -0.205 OA
HETATM    5  O5  UNL     1      76.914  -4.440  23.864  1.00  0.00    -0.066 OA
HETATM    6  O6  UNL     1      76.396  -4.908  24.979  1.00  0.00    -0.204 OA
HETATM    7  C11 UNL     1      76.016  -6.253  24.835  1.00  0.00     0.184 C 
HETATM    8  C12 UNL     1      75.496  -6.684  26.145  1.00  0.00     0.129 C 
HETATM    9  C14 UNL     1      75.153  -8.135  26.274  1.00  0.00     0.043 C 
HETATM   10  C15 UNL     1      73.852  -8.379  25.664  1.00  0.00    -0.023 C 
HETATM   11  C16 UNL     1      73.486  -7.890  24.329  1.00  0.00    -0.078 C 
HETATM   12  C17 UNL     1      72.180  -8.594  23.944  1.00  0.00     0.044 C 
HETATM   13  C18 UNL     1      74.412  -7.544  23.281  1.00  0.00    -0.006 C 
HETATM   14  C19 UNL     1      73.524  -7.059  22.097  1.00  0.00     0.021 C 
HETATM   15  C20 UNL     1      75.072  -6.237  23.694  1.00  0.00     0.063 C 
ENDROOT
BRANCH   1  16
HETATM   16  C5  UNL     1      75.610  -9.543  22.097  1.00  0.00     0.068 C 
HETATM   17  C6  UNL     1      76.879 -10.181  21.669  1.00  0.00     0.047 C 
HETATM   18  C7  UNL     1      74.929  -9.318  20.639  1.00  0.00     0.047 C 
BRANCH  16  19
HETATM   19  O3  UNL     1      74.636 -10.402  22.596  1.00  0.00    -0.310 OA
BRANCH  19  20
HETATM   20  C4  UNL     1      74.633 -11.739  22.657  1.00  0.00     0.262 C 
HETATM   21  O2  UNL     1      73.936 -12.355  21.835  1.00  0.00    -0.265 OA
BRANCH  20  22
HETATM   22  C3  UNL     1      75.406 -12.558  23.643  1.00  0.00     0.142 C 
BRANCH  22  23
HETATM   23  C2  UNL     1      75.071 -12.164  25.072  1.00  0.00     0.123 C 
HETATM   24  C1  UNL     1      73.604 -12.243  25.326  1.00  0.00     0.040 C 
BRANCH  23  25
HETATM   25  O1  UNL     1      75.747 -13.052  25.901  1.00  0.00    -0.395 OA
ATOM     26  H1  UNL     1      76.630 -12.742  26.060  1.00  0.00     0.210 HD
ENDBRANCH  23  25
ENDBRANCH  22  23
ENDBRANCH  20  22
ENDBRANCH  19  20
ENDBRANCH  16  19
ENDBRANCH   1  16
BRANCH   8  27
HETATM   27  C13 UNL     1      76.456  -6.257  27.235  1.00  0.00     0.394 C 
HETATM   28  F1  UNL     1      77.707  -6.825  27.006  1.00  0.00    -0.171 F 
HETATM   29  F2  UNL     1      76.542  -4.909  27.397  1.00  0.00    -0.171 F 
HETATM   30  F3  UNL     1      76.030  -6.882  28.419  1.00  0.00    -0.171 F 
ENDBRANCH   8  27
TORSDOF 7
ENDMDL
MODEL 3
REMARK VINA RESULT: -7.200133957      4.148      7.076
REMARK  7 active torsions:
REMARK  status: ('A' for Active; 'I' for Inactive)
REMARK    1  A    between atoms: C2_2  and  O1_3 
REMARK    2  A    between atoms: C2_2  and  C3_5 
REMARK    3  A    between atoms: C3_5  and  C4_6 
REMARK    4  A    between atoms: C4_6  and  O3_8 
REMARK    5  A    between atoms: O3_8  and  C5_9 
REMARK    6  A    between atoms: C5_9  and  C8_12 
REMARK    7  A    between atoms: C12_19  and  C13_20 
ROOT
HETATM    1  C8  UNL     1      75.450  -8.303  22.753  1.00  0.00     0.035 C 
HETATM    2  C9  UNL     1      76.033  -7.355  21.714  1.00  0.00     0.044 C 
HETATM    3  C10 UNL     1      75.949  -5.980  22.325  1.00  0.00     0.171 C 
HETATM    4  O4  UNL     1      77.227  -5.548  22.764  1.00  0.00    -0.205 OA
HETATM    5  O5  UNL     1      77.083  -4.486  23.518  1.00  0.00    -0.066 OA
HETATM    6  O6  UNL     1      76.589  -4.834  24.686  1.00  0.00    -0.204 OA
HETATM    7  C11 UNL     1      76.134  -6.163  24.669  1.00  0.00     0.184 C 
HETATM    8  C12 UNL     1      75.648  -6.457  26.029  1.00  0.00     0.129 C 
HETATM    9  C14 UNL     1      75.236  -7.872  26.291  1.00  0.00     0.043 C 
HETATM   10  C15 UNL     1      73.900  -8.093  25.752  1.00  0.00    -0.023 C 
HETATM   11  C16 UNL     1      73.504  -7.694  24.396  1.00  0.00    -0.078 C 
HETATM   12  C17 UNL     1      72.148  -8.355  24.119  1.00  0.00     0.044 C 
HETATM   13  C18 UNL     1      74.402  -7.486  23.289  1.00  0.00    -0.006 C 
HETATM   14  C19 UNL     1      73.492  -7.050  22.102  1.00  0.00     0.021 C 
HETATM   15  C20 UNL     1      75.146  -6.188  23.567  1.00  0.00     0.063 C 
ENDROOT
BRANCH   1  16
HETATM   16  C5  UNL     1      75.445  -9.637  22.231  1.00  0.00     0.068 C 
HETATM   17  C6  UNL     1      76.666 -10.408  21.891  1.00  0.00     0.047 C 
HETATM   18  C7  UNL     1      74.817  -9.477  20.741  1.00  0.00     0.047 C 
BRANCH  16  19
HETATM   19  O3  UNL     1      74.393 -10.371  22.769  1.00  0.00    -0.310 OA
BRANCH  19  20
HETATM   20  C4  UNL     1      74.405 -11.276  23.755  1.00  0.00     0.262 C 
HETATM   21  O2  UNL     1      75.114 -11.043  24.747  1.00  0.00    -0.265 OA
BRANCH  20  22
HETATM   22  C3  UNL     1      73.628 -12.555  23.759  1.00  0.00     0.142 C 
BRANCH  22  23
HETATM   23  C2  UNL     1      74.546 -13.760  23.872  1.00  0.00     0.123 C 
HETATM   24  C1  UNL     1      75.614 -13.727  22.831  1.00  0.00     0.040 C 
BRANCH  23  25
HETATM   25  O1  UNL     1      75.114 -13.715  25.139  1.00  0.00    -0.395 OA
ATOM     26  H1  UNL     1      74.792 -14.436  25.667  1.00  0.00     0.210 HD
ENDBRANCH  23  25
ENDBRANCH  22  23
ENDBRANCH  20  22
ENDBRANCH  19  20
ENDBRANCH  16  19
ENDBRANCH   1  16
BRANCH   8  27
HETATM   27  C13 UNL     1      76.673  -5.997  27.043  1.00  0.00     0.394 C 
HETATM   28  F1  UNL     1      76.357  -6.514  28.297  1.00  0.00    -0.171 F 
HETATM   29  F2  UNL     1      77.957  -6.281  26.695  1.00  0.00    -0.171 F 
HETATM   30  F3  UNL     1      76.488  -4.614  27.208  1.00  0.00    -0.171 F 
ENDBRANCH   8  27
TORSDOF 7
ENDMDL
MODEL 4
REMARK VINA RESULT: -7.144862779      4.214      7.399
REMARK  7 active torsions:
REMARK  status: ('A' for Active; 'I' for Inactive)
REMARK    1  A    between atoms: C2_2  and  O1_3 
REMARK    2  A    between atoms: C2_2  and  C3_5 
REMARK    3  A    between atoms: C3_5  and  C4_6 
REMARK    4  A    between atoms: C4_6  and  O3_8 
REMARK    5  A    between atoms: O3_8  and  C5_9 
REMARK    6  A    between atoms: C5_9  and  C8_12 
REMARK    7  A    between atoms: C12_19  and  C13_20 
ROOT
HETATM    1  C8  UNL     1      75.181  -8.561  22.894  1.00  0.00     0.035 C 
HETATM    2  C9  UNL     1      75.858  -7.746  21.800  1.00  0.00     0.044 C 
HETATM    3  C10 UNL     1      75.871  -6.325  22.300  1.00  0.00     0.171 C 
HETATM    4  O4  UNL     1      77.170  -5.960  22.738  1.00  0.00    -0.205 OA
HETATM    5  O5  UNL     1      77.097  -4.834  23.403  1.00  0.00    -0.066 OA
HETATM    6  O6  UNL     1      76.554  -5.049  24.582  1.00  0.00    -0.204 OA
HETATM    7  C11 UNL     1      75.995  -6.336  24.656  1.00  0.00     0.184 C 
HETATM    8  C12 UNL     1      75.460  -6.482  26.021  1.00  0.00     0.129 C 
HETATM    9  C14 UNL     1      74.931  -7.836  26.380  1.00  0.00     0.043 C 
HETATM   10  C15 UNL     1      73.593  -7.994  25.826  1.00  0.00    -0.023 C 
HETATM   11  C16 UNL     1      73.258  -7.674  24.433  1.00  0.00    -0.078 C 
HETATM   12  C17 UNL     1      71.859  -8.247  24.173  1.00  0.00     0.044 C 
HETATM   13  C18 UNL     1      74.191  -7.625  23.337  1.00  0.00    -0.006 C 
HETATM   14  C19 UNL     1      73.342  -7.215  22.097  1.00  0.00     0.021 C 
HETATM   15  C20 UNL     1      75.030  -6.370  23.533  1.00  0.00     0.063 C 
ENDROOT
BRANCH   1  16
HETATM   16  C5  UNL     1      75.080  -9.927  22.476  1.00  0.00     0.068 C 
HETATM   17  C6  UNL     1      73.899 -10.509  21.793  1.00  0.00     0.047 C 
HETATM   18  C7  UNL     1      75.012 -10.763  23.868  1.00  0.00     0.047 C 
BRANCH  16  19
HETATM   19  O3  UNL     1      76.319 -10.407  22.063  1.00  0.00    -0.310 OA
BRANCH  19  20
HETATM   20  C4  UNL     1      76.606 -11.362  21.170  1.00  0.00     0.262 C 
HETATM   21  O2  UNL     1      76.847 -12.502  21.597  1.00  0.00    -0.265 OA
BRANCH  20  22
HETATM   22  C3  UNL     1      76.660 -11.165  19.688  1.00  0.00     0.142 C 
BRANCH  22  23
HETATM   23  C2  UNL     1      77.746 -12.018  19.055  1.00  0.00     0.123 C 
HETATM   24  C1  UNL     1      77.758 -11.869  17.571  1.00  0.00     0.040 C 
BRANCH  23  25
HETATM   25  O1  UNL     1      78.956 -11.586  19.587  1.00  0.00    -0.395 OA
ATOM     26  H1  UNL     1      79.554 -12.319  19.674  1.00  0.00     0.210 HD
ENDBRANCH  23  25
ENDBRANCH  22  23
ENDBRANCH  20  22
ENDBRANCH  19  20
ENDBRANCH  16  19
ENDBRANCH   1  16
BRANCH   8  27
HETATM   27  C13 UNL     1      76.498  -6.025  27.023  1.00  0.00     0.394 C 
HETATM   28  F1  UNL     1      77.733  -6.588  26.709  1.00  0.00    -0.171 F 
HETATM   29  F2  UNL     1      76.584  -4.673  27.149  1.00  0.00    -0.171 F 
HETATM   30  F3  UNL     1      76.172  -6.627  28.249  1.00  0.00    -0.171 F 
ENDBRANCH   8  27
TORSDOF 7
ENDMDL
MODEL 5
REMARK VINA RESULT: -7.084473062      3.595      5.592
REMARK  7 active torsions:
REMARK  status: ('A' for Active; 'I' for Inactive)
REMARK    1  A    between atoms: C2_2  and  O1_3 
REMARK    2  A    between atoms: C2_2  and  C3_5 
REMARK    3  A    between atoms: C3_5  and  C4_6 
REMARK    4  A    between atoms: C4_6  and  O3_8 
REMARK    5  A    between atoms: O3_8  and  C5_9 
REMARK    6  A    between atoms: C5_9  and  C8_12 
REMARK    7  A    between atoms: C12_19  and  C13_20 
ROOT
HETATM    1  C8  UNL     1      74.607  -9.205  24.694  1.00  0.00     0.035 C 
HETATM    2  C9  UNL     1      74.728 -10.369  25.669  1.00  0.00     0.044 C 
HETATM    3  C10 UNL     1      74.492 -11.611  24.850  1.00  0.00     0.171 C 
HETATM    4  O4  UNL     1      75.714 -12.289  24.605  1.00  0.00    -0.205 OA
HETATM    5  O5  UNL     1      75.520 -13.201  23.684  1.00  0.00    -0.066 OA
HETATM    6  O6  UNL     1      75.384 -12.624  22.509  1.00  0.00    -0.204 OA
HETATM    7  C11 UNL     1      75.231 -11.233  22.642  1.00  0.00     0.184 C 
HETATM    8  C12 UNL     1      75.133 -10.691  21.275  1.00  0.00     0.129 C 
HETATM    9  C14 UNL     1      75.101  -9.199  21.159  1.00  0.00     0.043 C 
HETATM   10  C15 UNL     1      73.756  -8.721  21.457  1.00  0.00    -0.023 C 
HETATM   11  C16 UNL     1      72.993  -9.153  22.633  1.00  0.00    -0.078 C 
HETATM   12  C17 UNL     1      71.782  -8.219  22.741  1.00  0.00     0.044 C 
HETATM   13  C18 UNL     1      73.556  -9.686  23.848  1.00  0.00    -0.006 C 
HETATM   14  C19 UNL     1      72.332 -10.012  24.755  1.00  0.00     0.021 C 
HETATM   15  C20 UNL     1      74.049 -11.088  23.523  1.00  0.00     0.063 C 
ENDROOT
BRANCH   1  16
HETATM   16  C5  UNL     1      74.769  -7.972  25.404  1.00  0.00     0.068 C 
HETATM   17  C6  UNL     1      73.648  -7.130  25.888  1.00  0.00     0.047 C 
HETATM   18  C7  UNL     1      75.396  -6.958  24.299  1.00  0.00     0.047 C 
BRANCH  16  19
HETATM   19  O3  UNL     1      75.890  -8.022  26.227  1.00  0.00    -0.310 OA
BRANCH  19  20
HETATM   20  C4  UNL     1      76.402  -7.076  27.025  1.00  0.00     0.262 C 
HETATM   21  O2  UNL     1      75.814  -6.838  28.092  1.00  0.00    -0.265 OA
BRANCH  20  22
HETATM   22  C3  UNL     1      77.633  -6.278  26.732  1.00  0.00     0.142 C 
BRANCH  22  23
HETATM   23  C2  UNL     1      78.444  -6.030  27.993  1.00  0.00     0.123 C 
HETATM   24  C1  UNL     1      79.891  -5.850  27.680  1.00  0.00     0.040 C 
BRANCH  23  25
HETATM   25  O1  UNL     1      77.935  -4.876  28.576  1.00  0.00    -0.395 OA
ATOM     26  H1  UNL     1      78.610  -4.209  28.623  1.00  0.00     0.210 HD
ENDBRANCH  23  25
ENDBRANCH  22  23
ENDBRANCH  20  22
ENDBRANCH  19  20
ENDBRANCH  16  19
ENDBRANCH   1  16
BRANCH   8  27
HETATM   27  C13 UNL     1      76.238 -11.275  20.420  1.00  0.00     0.394 C 
HETATM   28  F1  UNL     1      77.476 -10.951  20.968  1.00  0.00    -0.171 F 
HETATM   29  F2  UNL     1      76.120 -12.614  20.208  1.00  0.00    -0.171 F 
HETATM   30  F3  UNL     1      76.227 -10.568  19.206  1.00  0.00    -0.171 F 
ENDBRANCH   8  27
TORSDOF 7
ENDMDL
