MODEL 1
REMARK VINA RESULT: -5.570408043      0.000      0.000
REMARK  5 active torsions:
REMARK  status: ('A' for Active; 'I' for Inactive)
REMARK    1  A    between atoms: N1_2  and  C4_5 
REMARK    2  A    between atoms: C4_5  and  C5_6 
REMARK    3  A    between atoms: C7_8  and  O1_9 
REMARK    4  A    between atoms: C8_11  and  O2_12 
REMARK    5  A    between atoms: C9_14  and  N2_15 
ROOT
HETATM    1  C5  UNL     1      77.279  26.936  40.421  1.00  0.00     0.047 C 
HETATM    2  C6  UNL     1      78.465  26.176  39.808  1.00  0.00     0.043 C 
HETATM    3  C7  UNL     1      78.536  26.620  38.369  1.00  0.00     0.149 C 
HETATM    4  C8  UNL     1      77.632  27.791  38.191  1.00  0.00     0.177 C 
HETATM    5  C9  UNL     1      77.140  28.175  39.576  1.00  0.00     0.220 C 
ENDROOT
BRANCH   1   6
HETATM    6  C4  UNL     1      77.571  27.178  41.859  1.00  0.00     0.243 C 
BRANCH   6   7
HETATM    7  N1  UNL     1      77.233  26.158  42.783  1.00  0.00    -0.078 N 
HETATM    8  C1  UNL     1      78.278  25.694  43.643  1.00  0.00     0.271 C 
HETATM    9  C2  UNL     1      76.140  26.622  43.660  1.00  0.00     0.271 C 
HETATM   10  C3  UNL     1      76.692  24.957  42.124  1.00  0.00     0.271 C 
ENDBRANCH   6   7
ENDBRANCH   1   6
BRANCH   5  11
HETATM   11  N2  UNL     1      77.947  29.274  40.002  1.00  0.00    -0.072 N 
ATOM     12  H23 UNL     1      77.433  30.151  39.909  1.00  0.00     0.274 HD
ATOM     13  H22 UNL     1      78.073  29.252  41.014  1.00  0.00     0.274 HD
ATOM     14  H21 UNL     1      78.850  29.341  39.533  1.00  0.00     0.274 HD
ENDBRANCH   5  11
BRANCH   3  15
HETATM   15  O1  UNL     1      79.859  26.891  37.976  1.00  0.00    -0.393 OA
ATOM     16  H1  UNL     1      80.073  26.468  37.153  1.00  0.00     0.210 HD
ENDBRANCH   3  15
BRANCH   4  17
HETATM   17  O2  UNL     1      78.344  28.833  37.600  1.00  0.00    -0.391 OA
ATOM     18  H2  UNL     1      78.517  28.617  36.692  1.00  0.00     0.210 HD
ENDBRANCH   4  17
TORSDOF 5
ENDMDL
MODEL 2
REMARK VINA RESULT: -5.504396455      2.946      4.826
REMARK  5 active torsions:
REMARK  status: ('A' for Active; 'I' for Inactive)
REMARK    1  A    between atoms: N1_2  and  C4_5 
REMARK    2  A    between atoms: C4_5  and  C5_6 
REMARK    3  A    between atoms: C7_8  and  O1_9 
REMARK    4  A    between atoms: C8_11  and  O2_12 
REMARK    5  A    between atoms: C9_14  and  N2_15 
ROOT
HETATM    1  C5  UNL     1      77.271  27.455  41.919  1.00  0.00     0.047 C 
HETATM    2  C6  UNL     1      77.600  26.087  41.302  1.00  0.00     0.043 C 
HETATM    3  C7  UNL     1      77.929  25.183  42.462  1.00  0.00     0.149 C 
HETATM    4  C8  UNL     1      77.546  25.876  43.725  1.00  0.00     0.177 C 
HETATM    5  C9  UNL     1      76.812  27.143  43.319  1.00  0.00     0.220 C 
ENDROOT
BRANCH   1   6
HETATM    6  C4  UNL     1      76.262  28.127  41.056  1.00  0.00     0.243 C 
BRANCH   6   7
HETATM    7  N1  UNL     1      76.735  28.992  40.037  1.00  0.00    -0.078 N 
HETATM    8  C1  UNL     1      78.150  29.188  39.963  1.00  0.00     0.271 C 
HETATM    9  C2  UNL     1      76.309  28.488  38.717  1.00  0.00     0.271 C 
HETATM   10  C3  UNL     1      76.147  30.339  40.125  1.00  0.00     0.271 C 
ENDBRANCH   6   7
ENDBRANCH   1   6
BRANCH   5  11
HETATM   11  N2  UNL     1      75.416  26.857  43.434  1.00  0.00    -0.072 N 
ATOM     12  H23 UNL     1      75.013  27.362  44.224  1.00  0.00     0.274 HD
ATOM     13  H22 UNL     1      74.901  27.289  42.668  1.00  0.00     0.274 HD
ATOM     14  H21 UNL     1      75.194  25.864  43.497  1.00  0.00     0.274 HD
ENDBRANCH   5  11
BRANCH   3  15
HETATM   15  O1  UNL     1      77.318  23.924  42.328  1.00  0.00    -0.393 OA
ATOM     16  H1  UNL     1      76.687  23.916  41.618  1.00  0.00     0.210 HD
ENDBRANCH   3  15
BRANCH   4  17
HETATM   17  O2  UNL     1      76.728  25.036  44.478  1.00  0.00    -0.391 OA
ATOM     18  H2  UNL     1      76.904  24.134  44.239  1.00  0.00     0.210 HD
ENDBRANCH   4  17
TORSDOF 5
ENDMDL
MODEL 3
REMARK VINA RESULT: -5.492827486      2.964      4.840
REMARK  5 active torsions:
REMARK  status: ('A' for Active; 'I' for Inactive)
REMARK    1  A    between atoms: N1_2  and  C4_5 
REMARK    2  A    between atoms: C4_5  and  C5_6 
REMARK    3  A    between atoms: C7_8  and  O1_9 
REMARK    4  A    between atoms: C8_11  and  O2_12 
REMARK    5  A    between atoms: C9_14  and  N2_15 
ROOT
HETATM    1  C5  UNL     1      77.235  27.475  42.002  1.00  0.00     0.047 C 
HETATM    2  C6  UNL     1      77.584  26.114  41.381  1.00  0.00     0.043 C 
HETATM    3  C7  UNL     1      77.884  25.200  42.542  1.00  0.00     0.149 C 
HETATM    4  C8  UNL     1      77.465  25.880  43.800  1.00  0.00     0.177 C 
HETATM    5  C9  UNL     1      76.740  27.149  43.386  1.00  0.00     0.220 C 
ENDROOT
BRANCH   1   6
HETATM    6  C4  UNL     1      76.249  28.153  41.118  1.00  0.00     0.243 C 
BRANCH   6   7
HETATM    7  N1  UNL     1      76.748  28.900  40.022  1.00  0.00    -0.078 N 
HETATM    8  C1  UNL     1      76.423  28.419  38.713  1.00  0.00     0.271 C 
HETATM    9  C2  UNL     1      76.252  30.288  40.096  1.00  0.00     0.271 C 
HETATM   10  C3  UNL     1      78.214  29.029  40.049  1.00  0.00     0.271 C 
ENDBRANCH   6   7
ENDBRANCH   1   6
BRANCH   5  11
HETATM   11  N2  UNL     1      75.342  26.859  43.461  1.00  0.00    -0.072 N 
ATOM     12  H23 UNL     1      75.128  26.358  44.323  1.00  0.00     0.274 HD
ATOM     13  H22 UNL     1      74.810  27.714  43.619  1.00  0.00     0.274 HD
ATOM     14  H21 UNL     1      74.973  26.354  42.656  1.00  0.00     0.274 HD
ENDBRANCH   5  11
BRANCH   3  15
HETATM   15  O1  UNL     1      77.279  23.940  42.380  1.00  0.00    -0.393 OA
ATOM     16  H1  UNL     1      76.333  24.010  42.338  1.00  0.00     0.210 HD
ENDBRANCH   3  15
BRANCH   4  17
HETATM   17  O2  UNL     1      76.629  25.032  44.523  1.00  0.00    -0.391 OA
ATOM     18  H2  UNL     1      75.801  24.947  44.067  1.00  0.00     0.210 HD
ENDBRANCH   4  17
TORSDOF 5
ENDMDL
MODEL 4
REMARK VINA RESULT: -5.333235244      0.270      1.152
REMARK  5 active torsions:
REMARK  status: ('A' for Active; 'I' for Inactive)
REMARK    1  A    between atoms: N1_2  and  C4_5 
REMARK    2  A    between atoms: C4_5  and  C5_6 
REMARK    3  A    between atoms: C7_8  and  O1_9 
REMARK    4  A    between atoms: C8_11  and  O2_12 
REMARK    5  A    between atoms: C9_14  and  N2_15 
ROOT
HETATM    1  C5  UNL     1      77.079  26.942  40.507  1.00  0.00     0.047 C 
HETATM    2  C6  UNL     1      78.105  25.982  39.886  1.00  0.00     0.043 C 
HETATM    3  C7  UNL     1      78.240  26.405  38.445  1.00  0.00     0.149 C 
HETATM    4  C8  UNL     1      77.557  27.718  38.272  1.00  0.00     0.177 C 
HETATM    5  C9  UNL     1      77.155  28.185  39.660  1.00  0.00     0.220 C 
ENDROOT
BRANCH   1   6
HETATM    6  C4  UNL     1      77.425  27.131  41.942  1.00  0.00     0.243 C 
BRANCH   6   7
HETATM    7  N1  UNL     1      77.119  26.078  42.840  1.00  0.00    -0.078 N 
HETATM    8  C1  UNL     1      76.641  24.858  42.264  1.00  0.00     0.271 C 
HETATM    9  C2  UNL     1      78.317  25.731  43.629  1.00  0.00     0.271 C 
HETATM   10  C3  UNL     1      76.115  26.468  43.845  1.00  0.00     0.271 C 
ENDBRANCH   6   7
ENDBRANCH   1   6
BRANCH   5  11
HETATM   11  N2  UNL     1      78.149  29.124  40.075  1.00  0.00    -0.072 N 
ATOM     12  H23 UNL     1      77.710  29.983  40.407  1.00  0.00     0.274 HD
ATOM     13  H22 UNL     1      78.596  28.811  40.936  1.00  0.00     0.274 HD
ATOM     14  H21 UNL     1      78.851  29.335  39.366  1.00  0.00     0.274 HD
ENDBRANCH   5  11
BRANCH   3  15
HETATM   15  O1  UNL     1      79.586  26.435  38.038  1.00  0.00    -0.393 OA
ATOM     16  H1  UNL     1      79.891  25.576  37.773  1.00  0.00     0.210 HD
ENDBRANCH   3  15
BRANCH   4  17
HETATM   17  O2  UNL     1      78.437  28.615  37.670  1.00  0.00    -0.391 OA
ATOM     18  H2  UNL     1      78.263  28.645  36.737  1.00  0.00     0.210 HD
ENDBRANCH   4  17
TORSDOF 5
ENDMDL
MODEL 5
REMARK VINA RESULT: -4.569975754      3.246      5.160
REMARK  5 active torsions:
REMARK  status: ('A' for Active; 'I' for Inactive)
REMARK    1  A    between atoms: N1_2  and  C4_5 
REMARK    2  A    between atoms: C4_5  and  C5_6 
REMARK    3  A    between atoms: C7_8  and  O1_9 
REMARK    4  A    between atoms: C8_11  and  O2_12 
REMARK    5  A    between atoms: C9_14  and  N2_15 
ROOT
HETATM    1  C5  UNL     1      76.949  26.477  41.575  1.00  0.00     0.047 C 
HETATM    2  C6  UNL     1      76.169  27.508  42.405  1.00  0.00     0.043 C 
HETATM    3  C7  UNL     1      75.668  26.763  43.616  1.00  0.00     0.149 C 
HETATM    4  C8  UNL     1      76.342  25.434  43.666  1.00  0.00     0.177 C 
HETATM    5  C9  UNL     1      77.396  25.441  42.572  1.00  0.00     0.220 C 
ENDROOT
BRANCH   1   6
HETATM    6  C4  UNL     1      78.046  27.186  40.861  1.00  0.00     0.243 C 
BRANCH   6   7
HETATM    7  N1  UNL     1      78.051  27.139  39.444  1.00  0.00    -0.078 N 
HETATM    8  C1  UNL     1      79.330  27.153  38.804  1.00  0.00     0.271 C 
HETATM    9  C2  UNL     1      77.361  25.919  38.983  1.00  0.00     0.271 C 
HETATM   10  C3  UNL     1      77.288  28.245  38.842  1.00  0.00     0.271 C 
ENDBRANCH   6   7
ENDBRANCH   1   6
BRANCH   5  11
HETATM   11  N2  UNL     1      78.641  25.733  43.211  1.00  0.00    -0.072 N 
ATOM     12  H23 UNL     1      78.574  26.604  43.738  1.00  0.00     0.274 HD
ATOM     13  H22 UNL     1      78.810  25.079  43.974  1.00  0.00     0.274 HD
ATOM     14  H21 UNL     1      79.442  25.759  42.581  1.00  0.00     0.274 HD
ENDBRANCH   5  11
BRANCH   3  15
HETATM   15  O1  UNL     1      75.851  27.508  44.795  1.00  0.00    -0.393 OA
ATOM     16  H1  UNL     1      76.719  27.892  44.835  1.00  0.00     0.210 HD
ENDBRANCH   3  15
BRANCH   4  17
HETATM   17  O2  UNL     1      76.918  25.260  44.922  1.00  0.00    -0.391 OA
ATOM     18  H2  UNL     1      76.297  24.820  45.491  1.00  0.00     0.210 HD
ENDBRANCH   4  17
TORSDOF 5
ENDMDL
