MODEL 1
REMARK VINA RESULT: -9.107860820      0.000      0.000
REMARK  3 active torsions:
REMARK  status: ('A' for Active; 'I' for Inactive)
REMARK    1  A    between atoms: C3_6  and  C4_7 
REMARK    2  A    between atoms: N5_18  and  C8_19 
REMARK    3  A    between atoms: C13_24  and  C14_25 
ROOT
HETATM    1  C4  UNL     1      18.417  22.976  45.423  1.00  0.00     0.163 A 
HETATM    2  N2  UNL     1      17.881  23.446  46.558  1.00  0.00    -0.325 N 
ATOM      3  H2  UNL     1      18.445  23.519  47.405  1.00  0.00     0.169 HD
HETATM    4  C5  UNL     1      16.580  23.825  46.566  1.00  0.00     0.116 A 
HETATM    5  N3  UNL     1      16.060  24.283  47.673  1.00  0.00    -0.385 N 
ATOM      6  H31 UNL     1      15.081  24.567  47.678  1.00  0.00     0.157 HD
ATOM      7  H32 UNL     1      16.640  24.348  48.510  1.00  0.00     0.157 HD
HETATM    8  C6  UNL     1      15.799  23.736  45.438  1.00  0.00     0.070 A 
HETATM    9  C7  UNL     1      14.492  24.027  45.125  1.00  0.00     0.126 A 
HETATM   10  N4  UNL     1      14.304  23.718  43.816  1.00  0.00    -0.307 N 
ATOM     11  H4  UNL     1      13.425  23.832  43.311  1.00  0.00     0.186 HD
HETATM   12  N5  UNL     1      15.422  23.249  43.292  1.00  0.00    -0.271 N 
HETATM   13  C18 UNL     1      16.365  23.251  44.277  1.00  0.00     0.139 A 
HETATM   14  N6  UNL     1      17.656  22.890  44.322  1.00  0.00    -0.323 N 
ATOM     15  H6  UNL     1      18.083  22.529  43.469  1.00  0.00     0.169 HD
ENDROOT
BRANCH  12  16
HETATM   16  C8  UNL     1      15.643  22.807  41.932  1.00  0.00     0.114 C 
HETATM   17  C9  UNL     1      16.886  23.558  41.446  1.00  0.00     0.028 C 
HETATM   18  C10 UNL     1      16.554  24.965  41.049  1.00  0.00     0.002 C 
HETATM   19  C11 UNL     1      15.716  24.907  39.794  1.00  0.00     0.001 C 
HETATM   20  C12 UNL     1      14.998  23.576  39.708  1.00  0.00     0.007 C 
HETATM   21  C13 UNL     1      14.497  23.209  41.089  1.00  0.00     0.018 C 
BRANCH  21  22
HETATM   22  C14 UNL     1      13.377  22.225  41.006  1.00  0.00    -0.046 C 
HETATM   23  C15 UNL     1      13.315  21.233  42.099  1.00  0.00     0.015 C 
HETATM   24  C16 UNL     1      13.478  21.471  39.675  1.00  0.00     0.015 C 
HETATM   25  C17 UNL     1      12.052  22.966  40.970  1.00  0.00     0.015 C 
ENDBRANCH  21  22
ENDBRANCH  12  16
BRANCH   1  26
HETATM   26  C3  UNL     1      19.835  22.560  45.401  1.00  0.00     0.216 A 
HETATM   27  O1  UNL     1      20.725  22.952  44.551  1.00  0.00    -0.214 OA
HETATM   28  N1  UNL     1      21.883  22.392  44.816  1.00  0.00    -0.247 N 
HETATM   29  C2  UNL     1      21.730  21.606  45.883  1.00  0.00     0.100 A 
ATOM     30  H1  UNL     1      22.749  22.533  44.297  1.00  0.00     0.196 HD
HETATM   31  C1  UNL     1      22.807  20.803  46.490  1.00  0.00     0.091 C 
HETATM   32  N7  UNL     1      20.434  21.720  46.243  1.00  0.00    -0.321 N 
ATOM     33  H7  UNL     1      19.988  21.243  47.027  1.00  0.00     0.169 HD
ENDBRANCH   1  26
TORSDOF 3
ENDMDL
MODEL 2
REMARK VINA RESULT: -8.969357615      0.927      1.087
REMARK  3 active torsions:
REMARK  status: ('A' for Active; 'I' for Inactive)
REMARK    1  A    between atoms: C3_6  and  C4_7 
REMARK    2  A    between atoms: N5_18  and  C8_19 
REMARK    3  A    between atoms: C13_24  and  C14_25 
ROOT
HETATM    1  C4  UNL     1      18.641  23.118  45.308  1.00  0.00     0.163 A 
HETATM    2  N2  UNL     1      18.183  23.528  46.500  1.00  0.00    -0.325 N 
ATOM      3  H2  UNL     1      18.825  23.669  47.280  1.00  0.00     0.169 HD
HETATM    4  C5  UNL     1      16.855  23.751  46.656  1.00  0.00     0.116 A 
HETATM    5  N3  UNL     1      16.412  24.149  47.818  1.00  0.00    -0.385 N 
ATOM      6  H31 UNL     1      15.413  24.317  47.935  1.00  0.00     0.157 HD
ATOM      7  H32 UNL     1      17.070  24.285  48.586  1.00  0.00     0.157 HD
HETATM    8  C6  UNL     1      15.969  23.567  45.621  1.00  0.00     0.070 A 
HETATM    9  C7  UNL     1      14.611  23.701  45.458  1.00  0.00     0.126 A 
HETATM   10  N4  UNL     1      14.316  23.367  44.175  1.00  0.00    -0.307 N 
ATOM     11  H4  UNL     1      13.379  23.375  43.771  1.00  0.00     0.186 HD
HETATM   12  N5  UNL     1      15.415  23.030  43.526  1.00  0.00    -0.271 N 
HETATM   13  C18 UNL     1      16.455  23.146  44.400  1.00  0.00     0.139 A 
HETATM   14  N6  UNL     1      17.777  22.940  44.298  1.00  0.00    -0.323 N 
ATOM     15  H6  UNL     1      18.146  22.628  43.399  1.00  0.00     0.169 HD
ENDROOT
BRANCH  12  16
HETATM   16  C8  UNL     1      15.534  22.612  42.146  1.00  0.00     0.114 C 
HETATM   17  C9  UNL     1      16.819  23.260  41.621  1.00  0.00     0.028 C 
HETATM   18  C10 UNL     1      16.603  24.704  41.279  1.00  0.00     0.002 C 
HETATM   19  C11 UNL     1      15.707  24.762  40.063  1.00  0.00     0.001 C 
HETATM   20  C12 UNL     1      14.865  23.506  39.975  1.00  0.00     0.007 C 
HETATM   21  C13 UNL     1      14.394  23.144  41.368  1.00  0.00     0.018 C 
BRANCH  21  22
HETATM   22  C14 UNL     1      13.184  22.270  41.312  1.00  0.00    -0.046 C 
HETATM   23  C15 UNL     1      13.075  21.258  42.384  1.00  0.00     0.015 C 
HETATM   24  C16 UNL     1      13.160  21.545  39.961  1.00  0.00     0.015 C 
HETATM   25  C17 UNL     1      11.935  23.130  41.350  1.00  0.00     0.015 C 
ENDBRANCH  21  22
ENDBRANCH  12  16
BRANCH   1  26
HETATM   26  C3  UNL     1      20.086  22.872  45.126  1.00  0.00     0.216 A 
HETATM   27  O1  UNL     1      20.743  21.856  45.578  1.00  0.00    -0.214 OA
HETATM   28  N1  UNL     1      22.008  21.945  45.238  1.00  0.00    -0.247 N 
HETATM   29  C2  UNL     1      22.171  23.068  44.536  1.00  0.00     0.100 A 
ATOM     30  H1  UNL     1      22.740  21.273  45.469  1.00  0.00     0.196 HD
HETATM   31  C1  UNL     1      23.456  23.523  43.974  1.00  0.00     0.091 C 
HETATM   32  N7  UNL     1      20.951  23.644  44.472  1.00  0.00    -0.321 N 
ATOM     33  H7  UNL     1      20.730  24.522  44.003  1.00  0.00     0.169 HD
ENDBRANCH   1  26
TORSDOF 3
ENDMDL
MODEL 3
REMARK VINA RESULT: -8.233960282      3.481      8.505
REMARK  3 active torsions:
REMARK  status: ('A' for Active; 'I' for Inactive)
REMARK    1  A    between atoms: C3_6  and  C4_7 
REMARK    2  A    between atoms: N5_18  and  C8_19 
REMARK    3  A    between atoms: C13_24  and  C14_25 
ROOT
HETATM    1  C4  UNL     1      18.423  23.259  45.164  1.00  0.00     0.163 A 
HETATM    2  N2  UNL     1      18.481  23.242  43.824  1.00  0.00    -0.325 N 
ATOM      3  H2  UNL     1      17.626  23.180  43.271  1.00  0.00     0.169 HD
HETATM    4  C5  UNL     1      19.690  23.307  43.215  1.00  0.00     0.116 A 
HETATM    5  N3  UNL     1      19.743  23.290  41.911  1.00  0.00    -0.385 N 
ATOM      6  H31 UNL     1      20.653  23.338  41.453  1.00  0.00     0.157 HD
ATOM      7  H32 UNL     1      18.878  23.228  41.374  1.00  0.00     0.157 HD
HETATM    8  C6  UNL     1      20.856  23.389  43.939  1.00  0.00     0.070 A 
HETATM    9  C7  UNL     1      22.194  23.467  43.636  1.00  0.00     0.126 A 
HETATM   10  N4  UNL     1      22.878  23.527  44.808  1.00  0.00    -0.307 N 
ATOM     11  H4  UNL     1      23.893  23.592  44.888  1.00  0.00     0.186 HD
HETATM   12  N5  UNL     1      22.041  23.491  45.829  1.00  0.00    -0.271 N 
HETATM   13  C18 UNL     1      20.780  23.407  45.317  1.00  0.00     0.139 A 
HETATM   14  N6  UNL     1      19.560  23.340  45.871  1.00  0.00    -0.323 N 
ATOM     15  H6  UNL     1      19.494  23.352  46.889  1.00  0.00     0.169 HD
ENDROOT
BRANCH  12  16
HETATM   16  C8  UNL     1      22.363  23.534  47.239  1.00  0.00     0.114 C 
HETATM   17  C9  UNL     1      22.667  25.001  47.554  1.00  0.00     0.028 C 
HETATM   18  C10 UNL     1      24.050  25.380  47.117  1.00  0.00     0.002 C 
HETATM   19  C11 UNL     1      25.032  24.660  48.011  1.00  0.00     0.001 C 
HETATM   20  C12 UNL     1      24.398  23.408  48.581  1.00  0.00     0.007 C 
HETATM   21  C13 UNL     1      23.586  22.741  47.491  1.00  0.00     0.018 C 
BRANCH  21  22
HETATM   22  C14 UNL     1      23.369  21.295  47.795  1.00  0.00    -0.046 C 
HETATM   23  C15 UNL     1      23.610  20.362  46.675  1.00  0.00     0.015 C 
HETATM   24  C16 UNL     1      21.927  21.104  48.281  1.00  0.00     0.015 C 
HETATM   25  C17 UNL     1      24.260  20.881  48.951  1.00  0.00     0.015 C 
ENDBRANCH  21  22
ENDBRANCH  12  16
BRANCH   1  26
HETATM   26  C3  UNL     1      17.110  23.189  45.840  1.00  0.00     0.216 A 
HETATM   27  O1  UNL     1      16.920  22.984  47.101  1.00  0.00    -0.214 OA
HETATM   28  N1  UNL     1      15.634  22.981  47.370  1.00  0.00    -0.247 N 
HETATM   29  C2  UNL     1      14.971  23.193  46.233  1.00  0.00     0.100 A 
ATOM     30  H1  UNL     1      15.215  22.840  48.289  1.00  0.00     0.196 HD
HETATM   31  C1  UNL     1      13.502  23.260  46.122  1.00  0.00     0.091 C 
HETATM   32  N7  UNL     1      15.913  23.323  45.274  1.00  0.00    -0.321 N 
ATOM     33  H7  UNL     1      15.737  23.494  44.284  1.00  0.00     0.169 HD
ENDBRANCH   1  26
TORSDOF 3
ENDMDL
MODEL 4
REMARK VINA RESULT: -8.211094853      2.506      4.151
REMARK  3 active torsions:
REMARK  status: ('A' for Active; 'I' for Inactive)
REMARK    1  A    between atoms: C3_6  and  C4_7 
REMARK    2  A    between atoms: N5_18  and  C8_19 
REMARK    3  A    between atoms: C13_24  and  C14_25 
ROOT
HETATM    1  C4  UNL     1      16.299  22.768  43.314  1.00  0.00     0.163 A 
HETATM    2  N2  UNL     1      15.070  22.356  43.655  1.00  0.00    -0.325 N 
ATOM      3  H2  UNL     1      14.879  22.031  44.603  1.00  0.00     0.169 HD
HETATM    4  C5  UNL     1      14.085  22.376  42.725  1.00  0.00     0.116 A 
HETATM    5  N3  UNL     1      12.889  21.973  43.061  1.00  0.00    -0.385 N 
ATOM      6  H31 UNL     1      12.148  21.989  42.360  1.00  0.00     0.157 HD
ATOM      7  H32 UNL     1      12.717  21.652  44.014  1.00  0.00     0.157 HD
HETATM    8  C6  UNL     1      14.318  22.809  41.441  1.00  0.00     0.070 A 
HETATM    9  C7  UNL     1      13.561  22.949  40.302  1.00  0.00     0.126 A 
HETATM   10  N4  UNL     1      14.371  23.440  39.328  1.00  0.00    -0.307 N 
ATOM     11  H4  UNL     1      14.077  23.644  38.373  1.00  0.00     0.186 HD
HETATM   12  N5  UNL     1      15.594  23.615  39.796  1.00  0.00    -0.271 N 
HETATM   13  C18 UNL     1      15.587  23.232  41.105  1.00  0.00     0.139 A 
HETATM   14  N6  UNL     1      16.527  23.192  42.061  1.00  0.00    -0.323 N 
ATOM     15  H6  UNL     1      17.469  23.502  41.822  1.00  0.00     0.169 HD
ENDROOT
BRANCH  12  16
HETATM   16  C8  UNL     1      16.749  24.118  39.084  1.00  0.00     0.114 C 
HETATM   17  C9  UNL     1      16.607  25.642  39.081  1.00  0.00     0.028 C 
HETATM   18  C10 UNL     1      15.631  26.098  38.037  1.00  0.00     0.002 C 
HETATM   19  C11 UNL     1      16.248  25.840  36.683  1.00  0.00     0.001 C 
HETATM   20  C12 UNL     1      17.266  24.722  36.777  1.00  0.00     0.007 C 
HETATM   21  C13 UNL     1      16.712  23.643  37.684  1.00  0.00     0.018 C 
BRANCH  21  22
HETATM   22  C14 UNL     1      17.381  22.333  37.426  1.00  0.00    -0.046 C 
HETATM   23  C15 UNL     1      18.266  21.843  38.503  1.00  0.00     0.015 C 
HETATM   24  C16 UNL     1      18.206  22.445  36.138  1.00  0.00     0.015 C 
HETATM   25  C17 UNL     1      16.331  21.270  37.161  1.00  0.00     0.015 C 
ENDBRANCH  21  22
ENDBRANCH  12  16
BRANCH   1  26
HETATM   26  C3  UNL     1      17.383  22.751  44.319  1.00  0.00     0.216 A 
HETATM   27  O1  UNL     1      17.366  23.360  45.458  1.00  0.00    -0.214 OA
HETATM   28  N1  UNL     1      18.486  23.137  46.108  1.00  0.00    -0.247 N 
HETATM   29  C2  UNL     1      19.255  22.351  45.352  1.00  0.00     0.100 A 
ATOM     30  H1  UNL     1      18.726  23.501  47.029  1.00  0.00     0.196 HD
HETATM   31  C1  UNL     1      20.596  21.877  45.737  1.00  0.00     0.091 C 
HETATM   32  N7  UNL     1      18.548  22.115  44.226  1.00  0.00    -0.321 N 
ATOM     33  H7  UNL     1      18.855  21.545  43.438  1.00  0.00     0.169 HD
ENDBRANCH   1  26
TORSDOF 3
ENDMDL
MODEL 5
REMARK VINA RESULT: -7.905127497      3.228      6.619
REMARK  3 active torsions:
REMARK  status: ('A' for Active; 'I' for Inactive)
REMARK    1  A    between atoms: C3_6  and  C4_7 
REMARK    2  A    between atoms: N5_18  and  C8_19 
REMARK    3  A    between atoms: C13_24  and  C14_25 
ROOT
HETATM    1  C4  UNL     1      16.731  24.500  39.963  1.00  0.00     0.163 A 
HETATM    2  N2  UNL     1      17.749  23.707  39.600  1.00  0.00    -0.325 N 
ATOM      3  H2  UNL     1      18.176  23.804  38.679  1.00  0.00     0.169 HD
HETATM    4  C5  UNL     1      18.204  22.776  40.474  1.00  0.00     0.116 A 
HETATM    5  N3  UNL     1      19.196  22.006  40.118  1.00  0.00    -0.385 N 
ATOM      6  H31 UNL     1      19.538  21.305  40.775  1.00  0.00     0.157 HD
ATOM      7  H32 UNL     1      19.611  22.117  39.192  1.00  0.00     0.157 HD
HETATM    8  C6  UNL     1      17.644  22.626  41.721  1.00  0.00     0.070 A 
HETATM    9  C7  UNL     1      17.866  21.807  42.802  1.00  0.00     0.126 A 
HETATM   10  N4  UNL     1      16.969  22.146  43.765  1.00  0.00    -0.307 N 
ATOM     11  H4  UNL     1      16.902  21.703  44.681  1.00  0.00     0.186 HD
HETATM   12  N5  UNL     1      16.199  23.133  43.345  1.00  0.00    -0.271 N 
HETATM   13  C18 UNL     1      16.598  23.450  42.080  1.00  0.00     0.139 A 
HETATM   14  N6  UNL     1      16.185  24.355  41.180  1.00  0.00    -0.323 N 
ATOM     15  H6  UNL     1      15.411  24.969  41.436  1.00  0.00     0.169 HD
ENDROOT
BRANCH  12  16
HETATM   16  C8  UNL     1      15.125  23.783  44.064  1.00  0.00     0.114 C 
HETATM   17  C9  UNL     1      15.721  24.216  45.406  1.00  0.00     0.028 C 
HETATM   18  C10 UNL     1      15.808  23.064  46.362  1.00  0.00     0.002 C 
HETATM   19  C11 UNL     1      14.401  22.682  46.756  1.00  0.00     0.001 C 
HETATM   20  C12 UNL     1      13.424  23.102  45.677  1.00  0.00     0.007 C 
HETATM   21  C13 UNL     1      14.044  22.808  44.327  1.00  0.00     0.018 C 
BRANCH  21  22
HETATM   22  C14 UNL     1      12.995  22.703  43.269  1.00  0.00    -0.046 C 
HETATM   23  C15 UNL     1      13.036  23.744  42.221  1.00  0.00     0.015 C 
HETATM   24  C16 UNL     1      11.615  22.743  43.936  1.00  0.00     0.015 C 
HETATM   25  C17 UNL     1      13.094  21.350  42.590  1.00  0.00     0.015 C 
ENDBRANCH  21  22
ENDBRANCH  12  16
BRANCH   1  26
HETATM   26  C3  UNL     1      16.226  25.520  39.020  1.00  0.00     0.216 A 
HETATM   27  O1  UNL     1      15.623  25.283  37.902  1.00  0.00    -0.214 OA
HETATM   28  N1  UNL     1      15.307  26.412  37.309  1.00  0.00    -0.247 N 
HETATM   29  C2  UNL     1      15.726  27.417  38.080  1.00  0.00     0.100 A 
ATOM     30  H1  UNL     1      14.826  26.505  36.415  1.00  0.00     0.196 HD
HETATM   31  C1  UNL     1      15.556  28.845  37.756  1.00  0.00     0.091 C 
HETATM   32  N7  UNL     1      16.304  26.842  39.156  1.00  0.00    -0.321 N 
ATOM     33  H7  UNL     1      16.729  27.336  39.941  1.00  0.00     0.169 HD
ENDBRANCH   1  26
TORSDOF 3
ENDMDL
