MODEL 1
REMARK VINA RESULT: -4.059696383      0.000      0.000
REMARK  7 active torsions:
REMARK  status: ('A' for Active; 'I' for Inactive)
REMARK    1  A    between atoms: C2_2  and  C4_4 
REMARK    2  A    between atoms: C4_4  and  O2_6 
REMARK    3  A    between atoms: O2_6  and  C5_7 
REMARK    4  A    between atoms: C10_12  and  O3_13 
REMARK    5  A    between atoms: C16_20  and  O4_21 
REMARK    6  A    between atoms: C16_20  and  C17_23 
REMARK    7  A    between atoms: C17_23  and  O5_24 
ROOT
HETATM    1  C5  UNL     1      38.605  14.322 -15.289  1.00  0.00     0.064 C 
HETATM    2  C6  UNL     1      38.782  15.533 -15.753  1.00  0.00     0.013 C 
HETATM    3  C7  UNL     1      37.843  15.779 -16.913  1.00  0.00     0.034 C 
HETATM    4  C8  UNL     1      36.601  16.526 -16.503  1.00  0.00     0.018 C 
HETATM    5  C9  UNL     1      36.150  16.087 -15.185  1.00  0.00     0.022 A 
HETATM    6  C10 UNL     1      34.822  15.842 -14.646  1.00  0.00     0.127 A 
HETATM    7  C11 UNL     1      35.351  14.800 -15.500  1.00  0.00     0.022 A 
HETATM    8  C12 UNL     1      36.275  13.707 -15.284  1.00  0.00     0.025 C 
HETATM    9  C13 UNL     1      37.535  13.641 -16.078  1.00  0.00     0.030 C 
HETATM   10  C14 UNL     1      38.010  12.259 -16.381  1.00  0.00     0.021 C 
HETATM   11  C15 UNL     1      38.798  12.349 -17.672  1.00  0.00     0.043 C 
HETATM   12  C16 UNL     1      38.888  13.814 -17.984  1.00  0.00     0.098 C 
HETATM   13  C18 UNL     1      37.618  14.369 -17.354  1.00  0.00     0.071 C 
HETATM   14 BR1  UNL     1      36.279  14.087 -18.663  1.00  0.00    -0.080 Br
ENDROOT
BRANCH   1  15
HETATM   15  O2  UNL     1      39.246  13.709 -14.259  1.00  0.00    -0.279 OA
BRANCH  15  16
HETATM   16  C4  UNL     1      39.182  13.951 -12.922  1.00  0.00     0.293 C 
HETATM   17  O1  UNL     1      40.226  14.228 -12.327  1.00  0.00    -0.259 OA
BRANCH  16  18
HETATM   18  C2  UNL     1      37.909  13.890 -12.183  1.00  0.00     0.004 C 
HETATM   19  C1  UNL     1      37.278  14.973 -11.795  1.00  0.00     0.024 C 
HETATM   20  C3  UNL     1      37.334  12.561 -11.875  1.00  0.00     0.054 C 
ENDBRANCH  16  18
ENDBRANCH  15  16
ENDBRANCH   1  15
BRANCH  12  21
HETATM   21  O4  UNL     1      40.047  14.406 -17.600  1.00  0.00    -0.386 OA
ATOM     22  H4  UNL     1      40.669  14.556 -18.303  1.00  0.00     0.210 HD
ENDBRANCH  12  21
BRANCH  12  23
HETATM   23  C17 UNL     1      38.824  13.939 -19.508  1.00  0.00     0.203 C 
BRANCH  23  24
HETATM   24  O5  UNL     1      39.551  15.022 -19.967  1.00  0.00    -0.398 OA
ATOM     25  H5  UNL     1      39.500  15.108 -20.912  1.00  0.00     0.209 HD
ENDBRANCH  23  24
ENDBRANCH  12  23
BRANCH   6  26
HETATM   26  O3  UNL     1      33.822  16.705 -15.098  1.00  0.00    -0.395 OA
ATOM     27  H3  UNL     1      34.053  17.626 -15.110  1.00  0.00     0.210 HD
ENDBRANCH   6  26
TORSDOF 7
ENDMDL
MODEL 2
REMARK VINA RESULT: -4.038580173      2.749      5.089
REMARK  7 active torsions:
REMARK  status: ('A' for Active; 'I' for Inactive)
REMARK    1  A    between atoms: C2_2  and  C4_4 
REMARK    2  A    between atoms: C4_4  and  O2_6 
REMARK    3  A    between atoms: O2_6  and  C5_7 
REMARK    4  A    between atoms: C10_12  and  O3_13 
REMARK    5  A    between atoms: C16_20  and  O4_21 
REMARK    6  A    between atoms: C16_20  and  C17_23 
REMARK    7  A    between atoms: C17_23  and  O5_24 
ROOT
HETATM    1  C5  UNL     1      38.316  12.464 -13.693  1.00  0.00     0.064 C 
HETATM    2  C6  UNL     1      37.397  12.002 -14.503  1.00  0.00     0.013 C 
HETATM    3  C7  UNL     1      36.525  13.138 -14.988  1.00  0.00     0.034 C 
HETATM    4  C8  UNL     1      36.933  13.642 -16.347  1.00  0.00     0.018 C 
HETATM    5  C9  UNL     1      38.387  13.633 -16.482  1.00  0.00     0.022 A 
HETATM    6  C10 UNL     1      39.310  14.573 -17.097  1.00  0.00     0.127 A 
HETATM    7  C11 UNL     1      38.809  14.953 -15.794  1.00  0.00     0.022 A 
HETATM    8  C12 UNL     1      39.172  14.588 -14.442  1.00  0.00     0.025 C 
HETATM    9  C13 UNL     1      38.159  13.943 -13.558  1.00  0.00     0.030 C 
HETATM   10  C14 UNL     1      38.290  14.278 -12.109  1.00  0.00     0.021 C 
HETATM   11  C15 UNL     1      36.903  14.154 -11.512  1.00  0.00     0.043 C 
HETATM   12  C16 UNL     1      36.046  13.591 -12.607  1.00  0.00     0.098 C 
HETATM   13  C18 UNL     1      36.729  14.104 -13.866  1.00  0.00     0.071 C 
HETATM   14 BR1  UNL     1      36.032  15.849 -14.104  1.00  0.00    -0.080 Br
ENDROOT
BRANCH   1  15
HETATM   15  O2  UNL     1      39.292  11.776 -13.042  1.00  0.00    -0.279 OA
BRANCH  15  16
HETATM   16  C4  UNL     1      39.195  10.736 -12.171  1.00  0.00     0.293 C 
HETATM   17  O1  UNL     1      38.160  10.617 -11.513  1.00  0.00    -0.259 OA
BRANCH  16  18
HETATM   18  C2  UNL     1      40.288   9.762 -12.002  1.00  0.00     0.004 C 
HETATM   19  C1  UNL     1      41.100   9.450 -12.984  1.00  0.00     0.024 C 
HETATM   20  C3  UNL     1      40.467   9.125 -10.677  1.00  0.00     0.054 C 
ENDBRANCH  16  18
ENDBRANCH  15  16
ENDBRANCH   1  15
BRANCH  12  21
HETATM   21  O4  UNL     1      35.854  12.248 -12.544  1.00  0.00    -0.386 OA
ATOM     22  H4  UNL     1      34.956  11.968 -12.675  1.00  0.00     0.210 HD
ENDBRANCH  12  21
BRANCH  12  23
HETATM   23  C17 UNL     1      34.665  14.231 -12.452  1.00  0.00     0.203 C 
BRANCH  23  24
HETATM   24  O5  UNL     1      33.649  13.353 -12.784  1.00  0.00    -0.398 OA
ATOM     25  H5  UNL     1      33.356  12.850 -12.034  1.00  0.00     0.209 HD
ENDBRANCH  23  24
ENDBRANCH  12  23
BRANCH   6  26
HETATM   26  O3  UNL     1      38.846  15.197 -18.257  1.00  0.00    -0.395 OA
ATOM     27  H3  UNL     1      39.357  15.941 -18.552  1.00  0.00     0.210 HD
ENDBRANCH   6  26
TORSDOF 7
ENDMDL
MODEL 3
REMARK VINA RESULT: -4.002939793      2.806      4.078
REMARK  7 active torsions:
REMARK  status: ('A' for Active; 'I' for Inactive)
REMARK    1  A    between atoms: C2_2  and  C4_4 
REMARK    2  A    between atoms: C4_4  and  O2_6 
REMARK    3  A    between atoms: O2_6  and  C5_7 
REMARK    4  A    between atoms: C10_12  and  O3_13 
REMARK    5  A    between atoms: C16_20  and  O4_21 
REMARK    6  A    between atoms: C16_20  and  C17_23 
REMARK    7  A    between atoms: C17_23  and  O5_24 
ROOT
HETATM    1  C5  UNL     1      38.548  12.651 -12.917  1.00  0.00     0.064 C 
HETATM    2  C6  UNL     1      38.837  13.740 -12.249  1.00  0.00     0.013 C 
HETATM    3  C7  UNL     1      37.837  14.824 -12.579  1.00  0.00     0.034 C 
HETATM    4  C8  UNL     1      36.744  14.936 -11.549  1.00  0.00     0.018 C 
HETATM    5  C9  UNL     1      36.361  13.614 -11.061  1.00  0.00     0.022 A 
HETATM    6  C10 UNL     1      35.067  13.038 -10.734  1.00  0.00     0.127 A 
HETATM    7  C11 UNL     1      35.378  13.113 -12.146  1.00  0.00     0.022 A 
HETATM    8  C12 UNL     1      36.168  12.292 -13.037  1.00  0.00     0.025 C 
HETATM    9  C13 UNL     1      37.332  12.892 -13.751  1.00  0.00     0.030 C 
HETATM   10  C14 UNL     1      37.596  12.321 -15.105  1.00  0.00     0.021 C 
HETATM   11  C15 UNL     1      38.269  13.416 -15.909  1.00  0.00     0.043 C 
HETATM   12  C16 UNL     1      38.518  14.530 -14.936  1.00  0.00     0.098 C 
HETATM   13  C18 UNL     1      37.393  14.352 -13.926  1.00  0.00     0.071 C 
HETATM   14 BR1  UNL     1      35.915  15.247 -14.701  1.00  0.00    -0.080 Br
ENDROOT
BRANCH   1  15
HETATM   15  O2  UNL     1      39.195  11.456 -12.908  1.00  0.00    -0.279 OA
BRANCH  15  16
HETATM   16  C4  UNL     1      39.167  10.454 -11.990  1.00  0.00     0.293 C 
HETATM   17  O1  UNL     1      38.131  10.279 -11.345  1.00  0.00    -0.259 OA
BRANCH  16  18
HETATM   18  C2  UNL     1      40.333   9.584 -11.754  1.00  0.00     0.004 C 
HETATM   19  C1  UNL     1      41.164   9.259 -12.715  1.00  0.00     0.024 C 
HETATM   20  C3  UNL     1      40.565   9.070 -10.385  1.00  0.00     0.054 C 
ENDBRANCH  16  18
ENDBRANCH  15  16
ENDBRANCH   1  15
BRANCH  12  21
HETATM   21  O4  UNL     1      39.774  14.565 -14.422  1.00  0.00    -0.386 OA
ATOM     22  H4  UNL     1      40.442  14.872 -15.024  1.00  0.00     0.210 HD
ENDBRANCH  12  21
BRANCH  12  23
HETATM   23  C17 UNL     1      38.333  15.836 -15.712  1.00  0.00     0.203 C 
BRANCH  23  24
HETATM   24  O5  UNL     1      38.741  15.714 -17.028  1.00  0.00    -0.398 OA
ATOM     25  H5  UNL     1      39.323  16.420 -17.285  1.00  0.00     0.209 HD
ENDBRANCH  23  24
ENDBRANCH  12  23
BRANCH   6  26
HETATM   26  O3  UNL     1      34.151  13.914 -10.151  1.00  0.00    -0.395 OA
ATOM     27  H3  UNL     1      34.260  14.058  -9.219  1.00  0.00     0.210 HD
ENDBRANCH   6  26
TORSDOF 7
ENDMDL
MODEL 4
REMARK VINA RESULT: -3.958074267      2.866      4.428
REMARK  7 active torsions:
REMARK  status: ('A' for Active; 'I' for Inactive)
REMARK    1  A    between atoms: C2_2  and  C4_4 
REMARK    2  A    between atoms: C4_4  and  O2_6 
REMARK    3  A    between atoms: O2_6  and  C5_7 
REMARK    4  A    between atoms: C10_12  and  O3_13 
REMARK    5  A    between atoms: C16_20  and  O4_21 
REMARK    6  A    between atoms: C16_20  and  C17_23 
REMARK    7  A    between atoms: C17_23  and  O5_24 
ROOT
HETATM    1  C5  UNL     1      36.494  14.830 -12.493  1.00  0.00     0.064 C 
HETATM    2  C6  UNL     1      35.710  14.886 -13.541  1.00  0.00     0.013 C 
HETATM    3  C7  UNL     1      36.112  13.821 -14.537  1.00  0.00     0.034 C 
HETATM    4  C8  UNL     1      35.259  12.584 -14.436  1.00  0.00     0.018 C 
HETATM    5  C9  UNL     1      34.935  12.296 -13.042  1.00  0.00     0.022 A 
HETATM    6  C10 UNL     1      34.857  11.047 -12.302  1.00  0.00     0.127 A 
HETATM    7  C11 UNL     1      36.193  11.550 -12.538  1.00  0.00     0.022 A 
HETATM    8  C12 UNL     1      37.009  12.555 -11.892  1.00  0.00     0.025 C 
HETATM    9  C13 UNL     1      37.487  13.730 -12.676  1.00  0.00     0.030 C 
HETATM   10  C14 UNL     1      38.821  14.256 -12.263  1.00  0.00     0.021 C 
HETATM   11  C15 UNL     1      39.427  14.902 -13.493  1.00  0.00     0.043 C 
HETATM   12  C16 UNL     1      38.348  14.870 -14.534  1.00  0.00     0.098 C 
HETATM   13  C18 UNL     1      37.542  13.640 -14.144  1.00  0.00     0.071 C 
HETATM   14 BR1  UNL     1      38.470  12.194 -14.942  1.00  0.00    -0.080 Br
ENDROOT
BRANCH   1  15
HETATM   15  O2  UNL     1      36.472  15.609 -11.380  1.00  0.00    -0.279 OA
BRANCH  15  16
HETATM   16  C4  UNL     1      35.482  15.800 -10.467  1.00  0.00     0.293 C 
HETATM   17  O1  UNL     1      35.199  16.956 -10.143  1.00  0.00    -0.259 OA
BRANCH  16  18
HETATM   18  C2  UNL     1      34.750  14.670  -9.867  1.00  0.00     0.004 C 
HETATM   19  C1  UNL     1      35.268  13.936  -8.911  1.00  0.00     0.024 C 
HETATM   20  C3  UNL     1      33.390  14.365 -10.366  1.00  0.00     0.054 C 
ENDBRANCH  16  18
ENDBRANCH  15  16
ENDBRANCH   1  15
BRANCH  12  21
HETATM   21  O4  UNL     1      37.644  16.025 -14.657  1.00  0.00    -0.386 OA
ATOM     22  H4  UNL     1      36.941  15.995 -15.296  1.00  0.00     0.210 HD
ENDBRANCH  12  21
BRANCH  12  23
HETATM   23  C17 UNL     1      39.046  14.645 -15.877  1.00  0.00     0.203 C 
BRANCH  23  24
HETATM   24  O5  UNL     1      38.828  15.693 -16.753  1.00  0.00    -0.398 OA
ATOM     25  H5  UNL     1      38.789  15.398 -17.656  1.00  0.00     0.209 HD
ENDBRANCH  23  24
ENDBRANCH  12  23
BRANCH   6  26
HETATM   26  O3  UNL     1      34.361   9.956 -13.018  1.00  0.00    -0.395 OA
ATOM     27  H3  UNL     1      33.685  10.158 -13.653  1.00  0.00     0.210 HD
ENDBRANCH   6  26
TORSDOF 7
ENDMDL
MODEL 5
REMARK VINA RESULT: -3.942531249      1.664      2.250
REMARK  7 active torsions:
REMARK  status: ('A' for Active; 'I' for Inactive)
REMARK    1  A    between atoms: C2_2  and  C4_4 
REMARK    2  A    between atoms: C4_4  and  O2_6 
REMARK    3  A    between atoms: O2_6  and  C5_7 
REMARK    4  A    between atoms: C10_12  and  O3_13 
REMARK    5  A    between atoms: C16_20  and  O4_21 
REMARK    6  A    between atoms: C16_20  and  C17_23 
REMARK    7  A    between atoms: C17_23  and  O5_24 
ROOT
HETATM    1  C5  UNL     1      38.363  14.378 -15.156  1.00  0.00     0.064 C 
HETATM    2  C6  UNL     1      37.342  15.188 -15.288  1.00  0.00     0.013 C 
HETATM    3  C7  UNL     1      36.443  14.701 -16.401  1.00  0.00     0.034 C 
HETATM    4  C8  UNL     1      35.266  13.912 -15.892  1.00  0.00     0.018 C 
HETATM    5  C9  UNL     1      35.659  13.080 -14.757  1.00  0.00     0.022 A 
HETATM    6  C10 UNL     1      35.301  11.724 -14.379  1.00  0.00     0.127 A 
HETATM    7  C11 UNL     1      36.284  11.838 -15.435  1.00  0.00     0.022 A 
HETATM    8  C12 UNL     1      37.710  12.077 -15.447  1.00  0.00     0.025 C 
HETATM    9  C13 UNL     1      38.249  13.274 -16.155  1.00  0.00     0.030 C 
HETATM   10  C14 UNL     1      39.597  13.082 -16.769  1.00  0.00     0.021 C 
HETATM   11  C15 UNL     1      39.672  14.035 -17.946  1.00  0.00     0.043 C 
HETATM   12  C16 UNL     1      38.422  14.862 -17.870  1.00  0.00     0.098 C 
HETATM   13  C18 UNL     1      37.435  13.919 -17.198  1.00  0.00     0.071 C 
HETATM   14 BR1  UNL     1      36.751  12.862 -18.614  1.00  0.00    -0.080 Br
ENDROOT
BRANCH   1  15
HETATM   15  O2  UNL     1      39.398  14.458 -14.279  1.00  0.00    -0.279 OA
BRANCH  15  16
HETATM   16  C4  UNL     1      39.420  14.257 -12.934  1.00  0.00     0.293 C 
HETATM   17  O1  UNL     1      40.472  14.467 -12.327  1.00  0.00    -0.259 OA
BRANCH  16  18
HETATM   18  C2  UNL     1      38.227  13.799 -12.198  1.00  0.00     0.004 C 
HETATM   19  C1  UNL     1      38.010  12.531 -11.947  1.00  0.00     0.024 C 
HETATM   20  C3  UNL     1      37.254  14.812 -11.732  1.00  0.00     0.054 C 
ENDBRANCH  16  18
ENDBRANCH  15  16
ENDBRANCH   1  15
BRANCH  12  21
HETATM   21  O4  UNL     1      38.579  16.074 -17.280  1.00  0.00    -0.386 OA
ATOM     22  H4  UNL     1      38.204  16.144 -16.409  1.00  0.00     0.210 HD
ENDBRANCH  12  21
BRANCH  12  23
HETATM   23  C17 UNL     1      37.996  15.137 -19.314  1.00  0.00     0.203 C 
BRANCH  23  24
HETATM   24  O5  UNL     1      37.657  16.465 -19.507  1.00  0.00    -0.398 OA
ATOM     25  H5  UNL     1      36.930  16.561 -20.111  1.00  0.00     0.209 HD
ENDBRANCH  23  24
ENDBRANCH  12  23
BRANCH   6  26
HETATM   26  O3  UNL     1      33.985  11.351 -14.657  1.00  0.00    -0.395 OA
ATOM     27  H3  UNL     1      33.845  10.422 -14.801  1.00  0.00     0.210 HD
ENDBRANCH   6  26
TORSDOF 7
ENDMDL
