MODEL 1
REMARK VINA RESULT: -4.180208805      0.000      0.000
REMARK  5 active torsions:
REMARK  status: ('A' for Active; 'I' for Inactive)
REMARK       I    between atoms: C2_4  and  N2_5 
REMARK       I    between atoms: C2_4  and  N4_9 
REMARK    1  A    between atoms: C5_11  and  O1_12 
REMARK    2  A    between atoms: C6_14  and  N5_15 
REMARK       I    between atoms: N5_15  and  C8_17 
REMARK       I    between atoms: C8_17  and  N6_19 
REMARK    3  A    between atoms: N6_19  and  C9_20 
REMARK    4  A    between atoms: C9_20  and  C10_21 
REMARK    5  A    between atoms: C14_26  and  C15_27 
ROOT
HETATM    1  C1  UNL     1      41.560   5.936  -7.079  1.00  0.00     0.165 C 
HETATM    2  N1  UNL     1      41.017   7.021  -7.917  1.00  0.00    -0.230 N 
ATOM      3  H1  UNL     1      40.571   7.831  -7.487  1.00  0.00     0.177 HD
HETATM    4  C2  UNL     1      41.113   6.933  -9.217  1.00  0.00     0.684 C 
HETATM    5  N2  UNL     1      41.738   5.792  -9.758  1.00  0.00    -0.126 N 
ATOM      6  H2  UNL     1      41.157   4.996 -10.020  1.00  0.00     0.197 HD
HETATM    7  C3  UNL     1      43.132   5.700  -9.954  1.00  0.00     0.196 C 
HETATM    8  N3  UNL     1      44.287   5.643 -10.117  1.00  0.00    -0.171 NA
HETATM    9  N4  UNL     1      40.593   7.991 -10.017  1.00  0.00    -0.214 N 
HETATM   10  C4  UNL     1      39.343   8.551  -9.661  1.00  0.00     0.179 C 
HETATM   11  C5  UNL     1      38.714   9.401 -10.753  1.00  0.00     0.182 C 
HETATM   12  C6  UNL     1      39.734  10.105 -11.565  1.00  0.00     0.031 C 
HETATM   13  C14 UNL     1      40.747   9.176 -12.195  1.00  0.00     0.067 C 
HETATM   14  C16 UNL     1      41.412   8.381 -11.128  1.00  0.00     0.153 C 
ENDROOT
BRANCH  11  15
HETATM   15  O1  UNL     1      37.868   8.544 -11.450  1.00  0.00    -0.388 OA
ATOM     16  H1  UNL     1      38.198   8.532 -12.340  1.00  0.00     0.210 HD
ENDBRANCH  11  15
BRANCH  13  17
HETATM   17  C15 UNL     1      40.347   8.411 -13.390  1.00  0.00     0.126 C 
HETATM   18 CL1  UNL     1      40.912   9.260 -14.898  1.00  0.00    -0.130 Cl
ENDBRANCH  13  17
BRANCH  12  19
HETATM   19  N5  UNL     1      39.331  11.227 -12.289  1.00  0.00    -0.297 N 
HETATM   20  C7  UNL     1      38.203  11.122 -13.243  1.00  0.00     0.162 C 
HETATM   21  C8  UNL     1      39.905  12.522 -12.209  1.00  0.00     0.399 C 
HETATM   22  O2  UNL     1      40.911  12.665 -11.503  1.00  0.00    -0.230 OA
HETATM   23  N6  UNL     1      39.310  13.563 -12.921  1.00  0.00    -0.363 NA
BRANCH  23  24
HETATM   24  C9  UNL     1      38.735  14.569 -13.610  1.00  0.00     0.207 C 
BRANCH  24  25
HETATM   25  C10 UNL     1      37.419  15.026 -13.030  1.00  0.00     0.033 A 
HETATM   26  C11 UNL     1      36.987  14.935 -11.736  1.00  0.00     0.022 A 
HETATM   27  C12 UNL     1      35.750  15.401 -11.457  1.00  0.00     0.008 A 
HETATM   28  C13 UNL     1      35.030  15.927 -12.493  1.00  0.00     0.050 A 
HETATM   29  S1  UNL     1      36.086  15.760 -13.819  1.00  0.00    -0.100 SA
ENDBRANCH  24  25
ENDBRANCH  23  24
ENDBRANCH  12  19
TORSDOF 5
ENDMDL
MODEL 2
REMARK VINA RESULT: -4.172441948      6.930      8.235
REMARK  5 active torsions:
REMARK  status: ('A' for Active; 'I' for Inactive)
REMARK       I    between atoms: C2_4  and  N2_5 
REMARK       I    between atoms: C2_4  and  N4_9 
REMARK    1  A    between atoms: C5_11  and  O1_12 
REMARK    2  A    between atoms: C6_14  and  N5_15 
REMARK       I    between atoms: N5_15  and  C8_17 
REMARK       I    between atoms: C8_17  and  N6_19 
REMARK    3  A    between atoms: N6_19  and  C9_20 
REMARK    4  A    between atoms: C9_20  and  C10_21 
REMARK    5  A    between atoms: C14_26  and  C15_27 
ROOT
HETATM    1  C1  UNL     1      41.688   0.676  -9.201  1.00  0.00     0.165 C 
HETATM    2  N1  UNL     1      41.161   1.757  -8.347  1.00  0.00    -0.230 N 
ATOM      3  H1  UNL     1      40.513   1.545  -7.589  1.00  0.00     0.177 HD
HETATM    4  C2  UNL     1      41.533   2.988  -8.573  1.00  0.00     0.684 C 
HETATM    5  N2  UNL     1      42.431   3.224  -9.633  1.00  0.00    -0.126 N 
ATOM      6  H2  UNL     1      42.051   3.460 -10.550  1.00  0.00     0.197 HD
HETATM    7  C3  UNL     1      43.831   3.150  -9.485  1.00  0.00     0.196 C 
HETATM    8  N3  UNL     1      44.989   3.092  -9.343  1.00  0.00    -0.171 NA
HETATM    9  N4  UNL     1      41.025   4.023  -7.736  1.00  0.00    -0.214 N 
HETATM   10  C4  UNL     1      39.654   3.989  -7.382  1.00  0.00     0.179 C 
HETATM   11  C5  UNL     1      39.133   5.294  -6.804  1.00  0.00     0.182 C 
HETATM   12  C6  UNL     1      40.171   6.010  -6.025  1.00  0.00     0.031 C 
HETATM   13  C14 UNL     1      41.427   6.296  -6.817  1.00  0.00     0.067 C 
HETATM   14  C16 UNL     1      41.980   5.016  -7.338  1.00  0.00     0.153 C 
ENDROOT
BRANCH  11  15
HETATM   15  O1  UNL     1      38.596   5.990  -7.883  1.00  0.00    -0.388 OA
ATOM     16  H1  UNL     1      37.977   5.394  -8.286  1.00  0.00     0.210 HD
ENDBRANCH  11  15
BRANCH  13  17
HETATM   17  C15 UNL     1      41.408   7.409  -7.782  1.00  0.00     0.126 C 
HETATM   18 CL1  UNL     1      41.836   6.806  -9.446  1.00  0.00    -0.130 Cl
ENDBRANCH  13  17
BRANCH  12  19
HETATM   19  N5  UNL     1      39.749   6.961  -5.096  1.00  0.00    -0.297 N 
HETATM   20  C7  UNL     1      38.615   7.856  -5.420  1.00  0.00     0.162 C 
HETATM   21  C8  UNL     1      40.310   7.176  -3.810  1.00  0.00     0.399 C 
HETATM   22  O2  UNL     1      41.320   6.528  -3.504  1.00  0.00    -0.230 OA
HETATM   23  N6  UNL     1      39.697   8.094  -2.958  1.00  0.00    -0.363 NA
BRANCH  23  24
HETATM   24  C9  UNL     1      39.104   8.982  -2.135  1.00  0.00     0.207 C 
BRANCH  24  25
HETATM   25  C10 UNL     1      39.853  10.285  -2.007  1.00  0.00     0.033 A 
HETATM   26  C11 UNL     1      41.165  10.479  -1.676  1.00  0.00     0.022 A 
HETATM   27  C12 UNL     1      41.610  11.752  -1.606  1.00  0.00     0.008 A 
HETATM   28  C13 UNL     1      40.710  12.746  -1.873  1.00  0.00     0.050 A 
HETATM   29  S1  UNL     1      39.279  11.887  -2.213  1.00  0.00    -0.100 SA
ENDBRANCH  24  25
ENDBRANCH  23  24
ENDBRANCH  12  19
TORSDOF 5
ENDMDL
MODEL 3
REMARK VINA RESULT: -4.142113635      1.688      2.066
REMARK  5 active torsions:
REMARK  status: ('A' for Active; 'I' for Inactive)
REMARK       I    between atoms: C2_4  and  N2_5 
REMARK       I    between atoms: C2_4  and  N4_9 
REMARK    1  A    between atoms: C5_11  and  O1_12 
REMARK    2  A    between atoms: C6_14  and  N5_15 
REMARK       I    between atoms: N5_15  and  C8_17 
REMARK       I    between atoms: C8_17  and  N6_19 
REMARK    3  A    between atoms: N6_19  and  C9_20 
REMARK    4  A    between atoms: C9_20  and  C10_21 
REMARK    5  A    between atoms: C14_26  and  C15_27 
ROOT
HETATM    1  C1  UNL     1      38.362   6.572  -7.000  1.00  0.00     0.165 C 
HETATM    2  N1  UNL     1      38.244   7.610  -8.041  1.00  0.00    -0.230 N 
ATOM      3  H1  UNL     1      37.452   8.253  -8.040  1.00  0.00     0.177 HD
HETATM    4  C2  UNL     1      39.163   7.696  -8.965  1.00  0.00     0.684 C 
HETATM    5  N2  UNL     1      40.234   6.782  -8.919  1.00  0.00    -0.126 N 
ATOM      6  H2  UNL     1      40.161   5.918  -9.456  1.00  0.00     0.197 HD
HETATM    7  C3  UNL     1      41.404   7.006  -8.163  1.00  0.00     0.196 C 
HETATM    8  N3  UNL     1      42.369   7.211  -7.539  1.00  0.00    -0.171 NA
HETATM    9  N4  UNL     1      39.043   8.707  -9.961  1.00  0.00    -0.214 N 
HETATM   10  C4  UNL     1      37.767   8.948 -10.524  1.00  0.00     0.179 C 
HETATM   11  C5  UNL     1      37.801   9.769 -11.803  1.00  0.00     0.182 C 
HETATM   12  C6  UNL     1      38.903  10.761 -11.796  1.00  0.00     0.031 C 
HETATM   13  C14 UNL     1      40.266  10.144 -11.578  1.00  0.00     0.067 C 
HETATM   14  C16 UNL     1      40.261   9.386 -10.296  1.00  0.00     0.153 C 
ENDROOT
BRANCH  11  15
HETATM   15  O1  UNL     1      37.825   8.841 -12.839  1.00  0.00    -0.388 OA
ATOM     16  H1  UNL     1      37.114   8.238 -12.657  1.00  0.00     0.210 HD
ENDBRANCH  11  15
BRANCH  13  17
HETATM   17  C15 UNL     1      40.913   9.456 -12.709  1.00  0.00     0.126 C 
HETATM   18 CL1  UNL     1      42.056   8.177 -12.098  1.00  0.00    -0.130 Cl
ENDBRANCH  13  17
BRANCH  12  19
HETATM   19  N5  UNL     1      38.805  11.849 -12.662  1.00  0.00    -0.297 N 
HETATM   20  C7  UNL     1      37.841  11.814 -13.785  1.00  0.00     0.162 C 
HETATM   21  C8  UNL     1      39.561  13.048 -12.583  1.00  0.00     0.399 C 
HETATM   22  O2  UNL     1      40.452  13.114 -11.726  1.00  0.00    -0.230 OA
HETATM   23  N6  UNL     1      39.261  14.087 -13.464  1.00  0.00    -0.363 NA
BRANCH  23  24
HETATM   24  C9  UNL     1      38.972  15.091 -14.316  1.00  0.00     0.207 C 
BRANCH  24  25
HETATM   25  C10 UNL     1      37.538  15.555 -14.242  1.00  0.00     0.033 A 
HETATM   26  C11 UNL     1      36.834  16.280 -15.162  1.00  0.00     0.022 A 
HETATM   27  C12 UNL     1      35.556  16.595 -14.862  1.00  0.00     0.008 A 
HETATM   28  C13 UNL     1      35.068  16.162 -13.661  1.00  0.00     0.050 A 
HETATM   29  S1  UNL     1      36.393  15.333 -12.984  1.00  0.00    -0.100 SA
ENDBRANCH  24  25
ENDBRANCH  23  24
ENDBRANCH  12  19
TORSDOF 5
ENDMDL
MODEL 4
REMARK VINA RESULT: -4.113613049      1.530      2.401
REMARK  5 active torsions:
REMARK  status: ('A' for Active; 'I' for Inactive)
REMARK       I    between atoms: C2_4  and  N2_5 
REMARK       I    between atoms: C2_4  and  N4_9 
REMARK    1  A    between atoms: C5_11  and  O1_12 
REMARK    2  A    between atoms: C6_14  and  N5_15 
REMARK       I    between atoms: N5_15  and  C8_17 
REMARK       I    between atoms: C8_17  and  N6_19 
REMARK    3  A    between atoms: N6_19  and  C9_20 
REMARK    4  A    between atoms: C9_20  and  C10_21 
REMARK    5  A    between atoms: C14_26  and  C15_27 
ROOT
HETATM    1  C1  UNL     1      41.632   6.067  -6.906  1.00  0.00     0.165 C 
HETATM    2  N1  UNL     1      41.028   7.077  -7.793  1.00  0.00    -0.230 N 
ATOM      3  H1  UNL     1      40.556   7.891  -7.401  1.00  0.00     0.177 HD
HETATM    4  C2  UNL     1      41.103   6.918  -9.088  1.00  0.00     0.684 C 
HETATM    5  N2  UNL     1      41.766   5.774  -9.575  1.00  0.00    -0.126 N 
ATOM      6  H2  UNL     1      41.215   4.941  -9.779  1.00  0.00     0.197 HD
HETATM    7  C3  UNL     1      43.159   5.729  -9.795  1.00  0.00     0.196 C 
HETATM    8  N3  UNL     1      44.312   5.711  -9.979  1.00  0.00    -0.171 NA
HETATM    9  N4  UNL     1      40.523   7.905  -9.936  1.00  0.00    -0.214 N 
HETATM   10  C4  UNL     1      39.257   8.431  -9.586  1.00  0.00     0.179 C 
HETATM   11  C5  UNL     1      38.572   9.189 -10.711  1.00  0.00     0.182 C 
HETATM   12  C6  UNL     1      39.545   9.887 -11.585  1.00  0.00     0.031 C 
HETATM   13  C14 UNL     1      40.585   8.966 -12.181  1.00  0.00     0.067 C 
HETATM   14  C16 UNL     1      41.304   8.262 -11.084  1.00  0.00     0.153 C 
ENDROOT
BRANCH  11  15
HETATM   15  O1  UNL     1      37.750   8.259 -11.340  1.00  0.00    -0.388 OA
ATOM     16  H1  UNL     1      38.329   7.732 -11.878  1.00  0.00     0.210 HD
ENDBRANCH  11  15
BRANCH  13  17
HETATM   17  C15 UNL     1      40.197   8.117 -13.321  1.00  0.00     0.126 C 
HETATM   18 CL1  UNL     1      40.821   8.827 -14.877  1.00  0.00    -0.130 Cl
ENDBRANCH  13  17
BRANCH  12  19
HETATM   19  N5  UNL     1      39.081  10.946 -12.363  1.00  0.00    -0.297 N 
HETATM   20  C7  UNL     1      37.969  10.728 -13.317  1.00  0.00     0.162 C 
HETATM   21  C8  UNL     1      39.575  12.277 -12.342  1.00  0.00     0.399 C 
HETATM   22  O2  UNL     1      40.565  12.514 -11.637  1.00  0.00    -0.230 OA
HETATM   23  N6  UNL     1      38.924  13.245 -13.105  1.00  0.00    -0.363 NA
BRANCH  23  24
HETATM   24  C9  UNL     1      38.294  14.180 -13.844  1.00  0.00     0.207 C 
BRANCH  24  25
HETATM   25  C10 UNL     1      38.669  14.154 -15.305  1.00  0.00     0.033 A 
HETATM   26  C11 UNL     1      39.155  13.106 -16.035  1.00  0.00     0.022 A 
HETATM   27  C12 UNL     1      39.438  13.331 -17.337  1.00  0.00     0.008 A 
HETATM   28  C13 UNL     1      39.216  14.590 -17.818  1.00  0.00     0.050 A 
HETATM   29  S1  UNL     1      38.621  15.423 -16.456  1.00  0.00    -0.100 SA
ENDBRANCH  24  25
ENDBRANCH  23  24
ENDBRANCH  12  19
TORSDOF 5
ENDMDL
MODEL 5
REMARK VINA RESULT: -4.084842632      1.675      2.253
REMARK  5 active torsions:
REMARK  status: ('A' for Active; 'I' for Inactive)
REMARK       I    between atoms: C2_4  and  N2_5 
REMARK       I    between atoms: C2_4  and  N4_9 
REMARK    1  A    between atoms: C5_11  and  O1_12 
REMARK    2  A    between atoms: C6_14  and  N5_15 
REMARK       I    between atoms: N5_15  and  C8_17 
REMARK       I    between atoms: C8_17  and  N6_19 
REMARK    3  A    between atoms: N6_19  and  C9_20 
REMARK    4  A    between atoms: C9_20  and  C10_21 
REMARK    5  A    between atoms: C14_26  and  C15_27 
ROOT
HETATM    1  C1  UNL     1      43.104   5.598  -9.619  1.00  0.00     0.165 C 
HETATM    2  N1  UNL     1      42.264   6.762  -9.959  1.00  0.00    -0.230 N 
ATOM      3  H1  UNL     1      41.970   7.415  -9.233  1.00  0.00     0.177 HD
HETATM    4  C2  UNL     1      41.902   6.947 -11.200  1.00  0.00     0.684 C 
HETATM    5  N2  UNL     1      42.336   6.014 -12.162  1.00  0.00    -0.126 N 
ATOM      6  H2  UNL     1      41.727   5.228 -12.388  1.00  0.00     0.197 HD
HETATM    7  C3  UNL     1      43.575   6.118 -12.828  1.00  0.00     0.196 C 
HETATM    8  N3  UNL     1      44.601   6.223 -13.376  1.00  0.00    -0.171 NA
HETATM    9  N4  UNL     1      41.098   8.080 -11.519  1.00  0.00    -0.214 N 
HETATM   10  C4  UNL     1      40.033   8.415 -10.648  1.00  0.00     0.179 C 
HETATM   11  C5  UNL     1      39.033   9.392 -11.244  1.00  0.00     0.182 C 
HETATM   12  C6  UNL     1      39.679  10.353 -12.170  1.00  0.00     0.031 C 
HETATM   13  C14 UNL     1      40.438   9.687 -13.295  1.00  0.00     0.067 C 
HETATM   14  C16 UNL     1      41.462   8.772 -12.721  1.00  0.00     0.153 C 
ENDROOT
BRANCH  11  15
HETATM   15  O1  UNL     1      38.026   8.604 -11.793  1.00  0.00    -0.388 OA
ATOM     16  H1  UNL     1      38.189   7.724 -11.472  1.00  0.00     0.210 HD
ENDBRANCH  11  15
BRANCH  13  17
HETATM   17  C15 UNL     1      39.671   9.137 -14.427  1.00  0.00     0.126 C 
HETATM   18 CL1  UNL     1      39.658  10.320 -15.811  1.00  0.00    -0.130 Cl
ENDBRANCH  13  17
BRANCH  12  19
HETATM   19  N5  UNL     1      39.009  11.545 -12.444  1.00  0.00    -0.297 N 
HETATM   20  C7  UNL     1      37.652  11.509 -13.035  1.00  0.00     0.162 C 
HETATM   21  C8  UNL     1      39.504  12.853 -12.205  1.00  0.00     0.399 C 
HETATM   22  O2  UNL     1      40.668  12.966 -11.798  1.00  0.00    -0.230 OA
HETATM   23  N6  UNL     1      38.661  13.940 -12.434  1.00  0.00    -0.363 NA
BRANCH  23  24
HETATM   24  C9  UNL     1      37.844  14.990 -12.655  1.00  0.00     0.207 C 
BRANCH  24  25
HETATM   25  C10 UNL     1      37.739  15.381 -14.108  1.00  0.00     0.033 A 
HETATM   26  C11 UNL     1      38.718  15.366 -15.062  1.00  0.00     0.022 A 
HETATM   27  C12 UNL     1      38.387  15.783 -16.303  1.00  0.00     0.008 A 
HETATM   28  C13 UNL     1      37.097  16.188 -16.504  1.00  0.00     0.050 A 
HETATM   29  S1  UNL     1      36.384  15.977 -14.972  1.00  0.00    -0.100 SA
ENDBRANCH  24  25
ENDBRANCH  23  24
ENDBRANCH  12  19
TORSDOF 5
ENDMDL
