MODEL 1
REMARK VINA RESULT: -7.206626206      0.000      0.000
REMARK  5 active torsions:
REMARK  status: ('A' for Active; 'I' for Inactive)
REMARK    1  A    between atoms: C2_2  and  N1_3 
REMARK    2  A    between atoms: N1_3  and  C3_5 
REMARK    3  A    between atoms: N3_12  and  C7_14 
REMARK    4  A    between atoms: C7_14  and  C8_15 
REMARK    5  A    between atoms: C8_15  and  N4_16 
ROOT
HETATM    1  C3  UNL     1      -5.163   2.516  16.072  1.00  0.00     0.679 A 
HETATM    2  N2  UNL     1      -6.210   3.307  15.796  1.00  0.00    -0.200 N 
ATOM      3  H2  UNL     1      -7.091   3.146  16.283  1.00  0.00     0.183 HD
HETATM    4  C4  UNL     1      -6.138   4.306  14.900  1.00  0.00     0.133 A 
HETATM    5  C5  UNL     1      -4.960   4.567  14.211  1.00  0.00     0.094 A 
HETATM    6 CL1  UNL     1      -4.921   5.880  13.053  1.00  0.00    -0.079 Cl
HETATM    7  C6  UNL     1      -3.881   3.765  14.483  1.00  0.00     0.144 A 
HETATM    8  N3  UNL     1      -2.753   3.859  13.961  1.00  0.00    -0.349 N 
ATOM      9  H3  UNL     1      -2.123   3.147  14.331  1.00  0.00     0.167 HD
HETATM   10  N5  UNL     1      -4.033   2.770  15.407  1.00  0.00    -0.175 N 
ATOM     11  H5  UNL     1      -3.225   2.178  15.603  1.00  0.00     0.186 HD
ENDROOT
BRANCH   8  12
HETATM   12  C7  UNL     1      -2.103   4.655  13.019  1.00  0.00     0.107 C 
BRANCH  12  13
HETATM   13  C8  UNL     1      -2.147   4.101  11.601  1.00  0.00     0.108 C 
BRANCH  13  14
HETATM   14  N4  UNL     1      -2.676   2.810  11.535  1.00  0.00    -0.357 N 
HETATM   15  C9  UNL     1      -3.930   2.653  10.981  1.00  0.00     0.064 C 
HETATM   16  C10 UNL     1      -4.967   1.704  11.574  1.00  0.00     0.047 C 
HETATM   17  C11 UNL     1      -4.904   0.321  10.989  1.00  0.00     0.033 C 
HETATM   18  C12 UNL     1      -4.050  -0.735  11.504  1.00  0.00     0.187 C 
HETATM   19  O1  UNL     1      -2.640  -0.691  11.246  1.00  0.00    -0.313 OA
HETATM   20  C13 UNL     1      -2.306   0.552  11.334  1.00  0.00    -0.007 C 
HETATM   21  C14 UNL     1      -1.634   1.777  11.281  1.00  0.00     0.239 C 
ENDBRANCH  13  14
ENDBRANCH  12  13
ENDBRANCH   8  12
BRANCH   1  22
HETATM   22  N1  UNL     1      -5.251   1.564  16.937  1.00  0.00    -0.226 N 
ATOM     23  H1  UNL     1      -4.486   0.896  17.035  1.00  0.00     0.177 HD
BRANCH  22  24
HETATM   24  C2  UNL     1      -6.412   1.441  17.758  1.00  0.00     0.133 C 
HETATM   25  C1  UNL     1      -6.326   2.154  19.078  1.00  0.00     0.027 C 
ENDBRANCH  22  24
ENDBRANCH   1  22
TORSDOF 5
ENDMDL
MODEL 2
REMARK VINA RESULT: -7.089974072      2.175      5.616
REMARK  5 active torsions:
REMARK  status: ('A' for Active; 'I' for Inactive)
REMARK    1  A    between atoms: C2_2  and  N1_3 
REMARK    2  A    between atoms: N1_3  and  C3_5 
REMARK    3  A    between atoms: N3_12  and  C7_14 
REMARK    4  A    between atoms: C7_14  and  C8_15 
REMARK    5  A    between atoms: C8_15  and  N4_16 
ROOT
HETATM    1  C3  UNL     1      -3.052   0.764  11.013  1.00  0.00     0.679 A 
HETATM    2  N2  UNL     1      -1.842   1.266  10.729  1.00  0.00    -0.200 N 
ATOM      3  H2  UNL     1      -1.184   0.695  10.197  1.00  0.00     0.183 HD
HETATM    4  C4  UNL     1      -1.463   2.494  11.120  1.00  0.00     0.133 A 
HETATM    5  C5  UNL     1      -2.322   3.311  11.845  1.00  0.00     0.094 A 
HETATM    6 CL1  UNL     1      -1.778   4.904  12.330  1.00  0.00    -0.079 Cl
HETATM    7  C6  UNL     1      -3.564   2.812  12.143  1.00  0.00     0.144 A 
HETATM    8  N3  UNL     1      -4.455   3.406  12.780  1.00  0.00    -0.349 N 
ATOM      9  H3  UNL     1      -5.286   2.822  12.870  1.00  0.00     0.167 HD
HETATM   10  N5  UNL     1      -3.874   1.553  11.711  1.00  0.00    -0.175 N 
ATOM     11  H5  UNL     1      -4.801   1.189  11.937  1.00  0.00     0.186 HD
ENDROOT
BRANCH   8  12
HETATM   12  C7  UNL     1      -4.644   4.637  13.406  1.00  0.00     0.107 C 
BRANCH  12  13
HETATM   13  C8  UNL     1      -4.224   4.661  14.870  1.00  0.00     0.108 C 
BRANCH  13  14
HETATM   14  N4  UNL     1      -4.810   3.642  15.624  1.00  0.00    -0.357 N 
HETATM   15  C9  UNL     1      -6.182   3.504  15.569  1.00  0.00     0.064 C 
HETATM   16  C10 UNL     1      -7.018   3.199  16.808  1.00  0.00     0.047 C 
HETATM   17  C11 UNL     1      -7.217   1.728  17.038  1.00  0.00     0.033 C 
HETATM   18  C12 UNL     1      -6.297   0.898  17.796  1.00  0.00     0.187 C 
HETATM   19  O1  UNL     1      -5.045   0.516  17.209  1.00  0.00    -0.313 OA
HETATM   20  C13 UNL     1      -4.638   1.546  16.548  1.00  0.00    -0.007 C 
HETATM   21  C14 UNL     1      -3.959   2.422  15.695  1.00  0.00     0.239 C 
ENDBRANCH  13  14
ENDBRANCH  12  13
ENDBRANCH   8  12
BRANCH   1  22
HETATM   22  N1  UNL     1      -3.398  -0.416  10.627  1.00  0.00    -0.226 N 
ATOM     23  H1  UNL     1      -3.406  -0.642   9.633  1.00  0.00     0.177 HD
BRANCH  22  24
HETATM   24  C2  UNL     1      -3.769  -1.408  11.586  1.00  0.00     0.133 C 
HETATM   25  C1  UNL     1      -2.939  -2.660  11.545  1.00  0.00     0.027 C 
ENDBRANCH  22  24
ENDBRANCH   1  22
TORSDOF 5
ENDMDL
MODEL 3
REMARK VINA RESULT: -6.967164184      3.190      6.705
REMARK  5 active torsions:
REMARK  status: ('A' for Active; 'I' for Inactive)
REMARK    1  A    between atoms: C2_2  and  N1_3 
REMARK    2  A    between atoms: N1_3  and  C3_5 
REMARK    3  A    between atoms: N3_12  and  C7_14 
REMARK    4  A    between atoms: C7_14  and  C8_15 
REMARK    5  A    between atoms: C8_15  and  N4_16 
ROOT
HETATM    1  C3  UNL     1       0.809   4.946  11.806  1.00  0.00     0.679 A 
HETATM    2  N2  UNL     1       0.823   4.150  10.727  1.00  0.00    -0.200 N 
ATOM      3  H2  UNL     1       1.634   4.172  10.110  1.00  0.00     0.183 HD
HETATM    4  C4  UNL     1      -0.195   3.325  10.431  1.00  0.00     0.133 A 
HETATM    5  C5  UNL     1      -1.323   3.259  11.240  1.00  0.00     0.094 A 
HETATM    6 CL1  UNL     1      -2.621   2.167  10.807  1.00  0.00    -0.079 Cl
HETATM    7  C6  UNL     1      -1.351   4.068  12.347  1.00  0.00     0.144 A 
HETATM    8  N3  UNL     1      -2.277   4.134  13.178  1.00  0.00    -0.349 N 
ATOM      9  H3  UNL     1      -2.060   4.810  13.909  1.00  0.00     0.167 HD
HETATM   10  N5  UNL     1      -0.277   4.880  12.581  1.00  0.00    -0.175 N 
ATOM     11  H5  UNL     1      -0.307   5.478  13.407  1.00  0.00     0.186 HD
ENDROOT
BRANCH   8  12
HETATM   12  C7  UNL     1      -3.526   3.551  13.397  1.00  0.00     0.107 C 
BRANCH  12  13
HETATM   13  C8  UNL     1      -4.284   4.134  14.582  1.00  0.00     0.108 C 
BRANCH  13  14
HETATM   14  N4  UNL     1      -4.906   3.159  15.365  1.00  0.00    -0.357 N 
HETATM   15  C9  UNL     1      -6.244   3.325  15.662  1.00  0.00     0.064 C 
HETATM   16  C10 UNL     1      -6.813   3.019  17.044  1.00  0.00     0.047 C 
HETATM   17  C11 UNL     1      -7.304   1.605  17.180  1.00  0.00     0.033 C 
HETATM   18  C12 UNL     1      -6.462   0.494  17.587  1.00  0.00     0.187 C 
HETATM   19  O1  UNL     1      -5.514  -0.050  16.658  1.00  0.00    -0.313 OA
HETATM   20  C13 UNL     1      -5.037   0.958  16.012  1.00  0.00    -0.007 C 
HETATM   21  C14 UNL     1      -4.385   1.791  15.095  1.00  0.00     0.239 C 
ENDBRANCH  13  14
ENDBRANCH  12  13
ENDBRANCH   8  12
BRANCH   1  22
HETATM   22  N1  UNL     1       1.796   5.730  12.075  1.00  0.00    -0.226 N 
ATOM     23  H1  UNL     1       1.616   6.674  12.416  1.00  0.00     0.177 HD
BRANCH  22  24
HETATM   24  C2  UNL     1       3.141   5.282  11.900  1.00  0.00     0.133 C 
HETATM   25  C1  UNL     1       4.056   5.575  13.055  1.00  0.00     0.027 C 
ENDBRANCH  22  24
ENDBRANCH   1  22
TORSDOF 5
ENDMDL
MODEL 4
REMARK VINA RESULT: -6.756906900      2.413      6.387
REMARK  5 active torsions:
REMARK  status: ('A' for Active; 'I' for Inactive)
REMARK    1  A    between atoms: C2_2  and  N1_3 
REMARK    2  A    between atoms: N1_3  and  C3_5 
REMARK    3  A    between atoms: N3_12  and  C7_14 
REMARK    4  A    between atoms: C7_14  and  C8_15 
REMARK    5  A    between atoms: C8_15  and  N4_16 
ROOT
HETATM    1  C3  UNL     1      -1.027   3.002  10.736  1.00  0.00     0.679 A 
HETATM    2  N2  UNL     1      -1.479   1.748  10.594  1.00  0.00    -0.200 N 
ATOM      3  H2  UNL     1      -0.917   1.078  10.068  1.00  0.00     0.183 HD
HETATM    4  C4  UNL     1      -2.645   1.341  11.122  1.00  0.00     0.133 A 
HETATM    5  C5  UNL     1      -3.446   2.214  11.847  1.00  0.00     0.094 A 
HETATM    6 CL1  UNL     1      -4.958   1.632  12.512  1.00  0.00    -0.079 Cl
HETATM    7  C6  UNL     1      -2.997   3.501  12.001  1.00  0.00     0.144 A 
HETATM    8  N3  UNL     1      -3.584   4.409  12.620  1.00  0.00    -0.349 N 
ATOM      9  H3  UNL     1      -3.045   5.274  12.589  1.00  0.00     0.167 HD
HETATM   10  N5  UNL     1      -1.800   3.838  11.434  1.00  0.00    -0.175 N 
ATOM     11  H5  UNL     1      -1.473   4.798  11.553  1.00  0.00     0.186 HD
ENDROOT
BRANCH   8  12
HETATM   12  C7  UNL     1      -4.763   4.585  13.342  1.00  0.00     0.107 C 
BRANCH  12  13
HETATM   13  C8  UNL     1      -4.553   4.778  14.839  1.00  0.00     0.108 C 
BRANCH  13  14
HETATM   14  N4  UNL     1      -4.989   3.688  15.597  1.00  0.00    -0.357 N 
HETATM   15  C9  UNL     1      -6.338   3.401  15.599  1.00  0.00     0.064 C 
HETATM   16  C10 UNL     1      -7.079   2.987  16.867  1.00  0.00     0.047 C 
HETATM   17  C11 UNL     1      -7.105   1.499  17.076  1.00  0.00     0.033 C 
HETATM   18  C12 UNL     1      -6.066   0.765  17.776  1.00  0.00     0.187 C 
HETATM   19  O1  UNL     1      -4.807   0.532  17.128  1.00  0.00    -0.313 OA
HETATM   20  C13 UNL     1      -4.546   1.610  16.471  1.00  0.00    -0.007 C 
HETATM   21  C14 UNL     1      -4.007   2.569  15.607  1.00  0.00     0.239 C 
ENDBRANCH  13  14
ENDBRANCH  12  13
ENDBRANCH   8  12
BRANCH   1  22
HETATM   22  N1  UNL     1       0.097   3.373  10.225  1.00  0.00    -0.226 N 
ATOM     23  H1  UNL     1       0.958   2.896  10.493  1.00  0.00     0.177 HD
BRANCH  22  24
HETATM   24  C2  UNL     1       0.142   4.448   9.285  1.00  0.00     0.133 C 
HETATM   25  C1  UNL     1      -0.367   4.103   7.913  1.00  0.00     0.027 C 
ENDBRANCH  22  24
ENDBRANCH   1  22
TORSDOF 5
ENDMDL
MODEL 5
REMARK VINA RESULT: -6.729087074      2.957      6.516
REMARK  5 active torsions:
REMARK  status: ('A' for Active; 'I' for Inactive)
REMARK    1  A    between atoms: C2_2  and  N1_3 
REMARK    2  A    between atoms: N1_3  and  C3_5 
REMARK    3  A    between atoms: N3_12  and  C7_14 
REMARK    4  A    between atoms: C7_14  and  C8_15 
REMARK    5  A    between atoms: C8_15  and  N4_16 
ROOT
HETATM    1  C3  UNL     1       0.324   4.917  11.426  1.00  0.00     0.679 A 
HETATM    2  N2  UNL     1       0.334   6.257  11.460  1.00  0.00    -0.200 N 
ATOM      3  H2  UNL     1       0.912   6.762  10.787  1.00  0.00     0.183 HD
HETATM    4  C4  UNL     1      -0.390   6.958  12.347  1.00  0.00     0.133 A 
HETATM    5  C5  UNL     1      -1.193   6.318  13.283  1.00  0.00     0.094 A 
HETATM    6 CL1  UNL     1      -2.116   7.279  14.418  1.00  0.00    -0.079 Cl
HETATM    7  C6  UNL     1      -1.213   4.946  13.261  1.00  0.00     0.144 A 
HETATM    8  N3  UNL     1      -1.875   4.214  14.021  1.00  0.00    -0.349 N 
ATOM      9  H3  UNL     1      -1.719   3.230  13.803  1.00  0.00     0.167 HD
HETATM   10  N5  UNL     1      -0.449   4.304  12.327  1.00  0.00    -0.175 N 
ATOM     11  H5  UNL     1      -0.469   3.284  12.318  1.00  0.00     0.186 HD
ENDROOT
BRANCH   8  12
HETATM   12  C7  UNL     1      -2.767   4.351  15.084  1.00  0.00     0.107 C 
BRANCH  12  13
HETATM   13  C8  UNL     1      -4.230   4.187  14.693  1.00  0.00     0.108 C 
BRANCH  13  14
HETATM   14  N4  UNL     1      -4.884   3.194  15.426  1.00  0.00    -0.357 N 
HETATM   15  C9  UNL     1      -6.219   3.380  15.718  1.00  0.00     0.064 C 
HETATM   16  C10 UNL     1      -6.810   3.026  17.080  1.00  0.00     0.047 C 
HETATM   17  C11 UNL     1      -7.337   1.621  17.148  1.00  0.00     0.033 C 
HETATM   18  C12 UNL     1      -6.526   0.472  17.512  1.00  0.00     0.187 C 
HETATM   19  O1  UNL     1      -5.583  -0.054  16.567  1.00  0.00    -0.313 OA
HETATM   20  C13 UNL     1      -5.075   0.970  15.971  1.00  0.00    -0.007 C 
HETATM   21  C14 UNL     1      -4.394   1.826  15.099  1.00  0.00     0.239 C 
ENDBRANCH  13  14
ENDBRANCH  12  13
ENDBRANCH   8  12
BRANCH   1  22
HETATM   22  N1  UNL     1       1.024   4.262  10.565  1.00  0.00    -0.226 N 
ATOM     23  H1  UNL     1       1.699   3.566  10.883  1.00  0.00     0.177 HD
BRANCH  22  24
HETATM   24  C2  UNL     1       0.861   4.505   9.167  1.00  0.00     0.133 C 
HETATM   25  C1  UNL     1      -0.465   4.071   8.606  1.00  0.00     0.027 C 
ENDBRANCH  22  24
ENDBRANCH   1  22
TORSDOF 5
ENDMDL
