MODEL 1
REMARK VINA RESULT: -7.311938392      0.000      0.000
REMARK  12 active torsions:
REMARK  status: ('A' for Active; 'I' for Inactive)
REMARK    1  A    between atoms: O1_1  and  C1_3 
REMARK    2  A    between atoms: C1_3  and  C2_4 
REMARK    3  A    between atoms: C3_5  and  C4_6 
REMARK    4  A    between atoms: C4_6  and  O2_7 
REMARK    5  A    between atoms: O2_7  and  C5_8 
REMARK    6  A    between atoms: C5_8  and  C6_9 
REMARK    7  A    between atoms: C6_9  and  N1_10 
REMARK    8  A    between atoms: N1_10  and  C7_12 
REMARK    9  A    between atoms: C7_12  and  C8_13 
REMARK   10  A    between atoms: N2_17  and  C12_18 
REMARK   11  A    between atoms: C12_18  and  C13_19 
REMARK   12  A    between atoms: C13_19  and  C14_20 
ROOT
HETATM    1  C8  UNL     1      47.005   5.607  14.253  1.00  0.00     0.042 C 
HETATM    2  C9  UNL     1      48.355   5.176  14.653  1.00  0.00     0.016 C 
HETATM    3  C10 UNL     1      49.004   6.236  15.525  1.00  0.00     0.045 C 
HETATM    4  C11 UNL     1      49.091   7.587  14.843  1.00  0.00     0.063 C 
HETATM    5  N2  UNL     1      47.947   7.864  14.077  1.00  0.00    -0.373 N 
HETATM    6  C20 UNL     1      46.781   7.113  14.353  1.00  0.00     0.136 C 
ENDROOT
BRANCH   1   7
HETATM    7  C7  UNL     1      45.810   4.936  14.846  1.00  0.00     0.061 C 
BRANCH   7   8
HETATM    8  N1  UNL     1      44.553   5.507  14.777  1.00  0.00    -0.400 N 
ATOM      9  H1  UNL     1      44.477   6.505  14.974  1.00  0.00     0.158 HD
BRANCH   8  10
HETATM   10  C6  UNL     1      43.376   4.820  14.456  1.00  0.00     0.145 C 
BRANCH  10  11
HETATM   11  C5  UNL     1      42.736   5.451  13.184  1.00  0.00     0.188 C 
BRANCH  11  12
HETATM   12  O2  UNL     1      42.286   6.687  13.598  1.00  0.00    -0.378 OA
BRANCH  12  13
HETATM   13  C4  UNL     1      41.715   7.485  12.650  1.00  0.00     0.261 C 
BRANCH  13  14
HETATM   14  C3  UNL     1      41.188   8.747  13.172  1.00  0.00    -0.078 C 
HETATM   15  C2  UNL     1      40.774   9.787  13.613  1.00  0.00    -0.079 C 
BRANCH  15  16
HETATM   16  C1  UNL     1      40.292  11.061  14.152  1.00  0.00     0.257 C 
BRANCH  16  17
HETATM   17  O1  UNL     1      39.940  10.839  15.478  1.00  0.00    -0.389 OA
ATOM     18  H1  UNL     1      39.199  11.403  15.670  1.00  0.00     0.210 HD
ENDBRANCH  16  17
ENDBRANCH  15  16
ENDBRANCH  13  14
ENDBRANCH  12  13
ENDBRANCH  11  12
ENDBRANCH  10  11
ENDBRANCH   8  10
ENDBRANCH   7   8
ENDBRANCH   1   7
BRANCH   5  19
HETATM   19  C12 UNL     1      48.057   8.548  12.862  1.00  0.00     0.067 C 
BRANCH  19  20
HETATM   20  C13 UNL     1      46.788   9.250  12.480  1.00  0.00     0.083 C 
BRANCH  20  21
HETATM   21  C14 UNL     1      46.135   8.625  11.309  1.00  0.00    -0.053 A 
HETATM   22  C15 UNL     1      45.154   7.665  11.377  1.00  0.00     0.007 A 
HETATM   23  C16 UNL     1      44.590   7.089  10.240  1.00  0.00     0.001 A 
HETATM   24  C17 UNL     1      44.996   7.462   8.981  1.00  0.00     0.000 A 
HETATM   25  C18 UNL     1      45.985   8.429   8.902  1.00  0.00     0.001 A 
HETATM   26  C19 UNL     1      46.534   8.991  10.035  1.00  0.00     0.007 A 
ENDBRANCH  20  21
ENDBRANCH  19  20
ENDBRANCH   5  19
TORSDOF 12
ENDMDL
MODEL 2
REMARK VINA RESULT: -7.176111591      1.071      1.379
REMARK  12 active torsions:
REMARK  status: ('A' for Active; 'I' for Inactive)
REMARK    1  A    between atoms: O1_1  and  C1_3 
REMARK    2  A    between atoms: C1_3  and  C2_4 
REMARK    3  A    between atoms: C3_5  and  C4_6 
REMARK    4  A    between atoms: C4_6  and  O2_7 
REMARK    5  A    between atoms: O2_7  and  C5_8 
REMARK    6  A    between atoms: C5_8  and  C6_9 
REMARK    7  A    between atoms: C6_9  and  N1_10 
REMARK    8  A    between atoms: N1_10  and  C7_12 
REMARK    9  A    between atoms: C7_12  and  C8_13 
REMARK   10  A    between atoms: N2_17  and  C12_18 
REMARK   11  A    between atoms: C12_18  and  C13_19 
REMARK   12  A    between atoms: C13_19  and  C14_20 
ROOT
HETATM    1  C8  UNL     1      47.257   5.631  14.182  1.00  0.00     0.042 C 
HETATM    2  C9  UNL     1      48.692   5.497  14.484  1.00  0.00     0.016 C 
HETATM    3  C10 UNL     1      49.160   6.670  15.327  1.00  0.00     0.045 C 
HETATM    4  C11 UNL     1      48.912   8.009  14.663  1.00  0.00     0.063 C 
HETATM    5  N2  UNL     1      47.685   8.037  13.980  1.00  0.00    -0.373 N 
HETATM    6  C20 UNL     1      46.727   7.056  14.321  1.00  0.00     0.136 C 
ENDROOT
BRANCH   1   7
HETATM    7  C7  UNL     1      46.275   4.721  14.843  1.00  0.00     0.061 C 
BRANCH   7   8
HETATM    8  N1  UNL     1      45.559   3.785  14.121  1.00  0.00    -0.400 N 
ATOM      9  H1  UNL     1      46.038   2.922  13.863  1.00  0.00     0.158 HD
BRANCH   8  10
HETATM   10  C6  UNL     1      44.226   3.930  13.717  1.00  0.00     0.145 C 
BRANCH  10  11
HETATM   11  C5  UNL     1      43.433   4.704  14.812  1.00  0.00     0.188 C 
BRANCH  11  12
HETATM   12  O2  UNL     1      42.415   5.331  14.126  1.00  0.00    -0.378 OA
BRANCH  12  13
HETATM   13  C4  UNL     1      42.779   6.185  13.126  1.00  0.00     0.261 C 
BRANCH  13  14
HETATM   14  C3  UNL     1      41.997   7.421  13.084  1.00  0.00    -0.078 C 
HETATM   15  C2  UNL     1      41.362   8.443  13.070  1.00  0.00    -0.079 C 
BRANCH  15  16
HETATM   16  C1  UNL     1      40.604   9.697  13.067  1.00  0.00     0.257 C 
BRANCH  16  17
HETATM   17  O1  UNL     1      40.308  10.001  14.390  1.00  0.00    -0.389 OA
ATOM     18  H1  UNL     1      39.657   9.374  14.683  1.00  0.00     0.210 HD
ENDBRANCH  16  17
ENDBRANCH  15  16
ENDBRANCH  13  14
ENDBRANCH  12  13
ENDBRANCH  11  12
ENDBRANCH  10  11
ENDBRANCH   8  10
ENDBRANCH   7   8
ENDBRANCH   1   7
BRANCH   5  19
HETATM   19  C12 UNL     1      47.563   8.731  12.771  1.00  0.00     0.067 C 
BRANCH  19  20
HETATM   20  C13 UNL     1      46.271   9.484  12.668  1.00  0.00     0.083 C 
BRANCH  20  21
HETATM   21  C14 UNL     1      45.386   8.935  11.617  1.00  0.00    -0.053 A 
HETATM   22  C15 UNL     1      45.526   7.695  11.043  1.00  0.00     0.007 A 
HETATM   23  C16 UNL     1      44.679   7.237  10.035  1.00  0.00     0.001 A 
HETATM   24  C17 UNL     1      43.651   8.018   9.563  1.00  0.00     0.000 A 
HETATM   25  C18 UNL     1      43.502   9.270  10.136  1.00  0.00     0.001 A 
HETATM   26  C19 UNL     1      44.347   9.711  11.132  1.00  0.00     0.007 A 
ENDBRANCH  20  21
ENDBRANCH  19  20
ENDBRANCH   5  19
TORSDOF 12
ENDMDL
MODEL 3
REMARK VINA RESULT: -7.169292759      0.946      1.344
REMARK  12 active torsions:
REMARK  status: ('A' for Active; 'I' for Inactive)
REMARK    1  A    between atoms: O1_1  and  C1_3 
REMARK    2  A    between atoms: C1_3  and  C2_4 
REMARK    3  A    between atoms: C3_5  and  C4_6 
REMARK    4  A    between atoms: C4_6  and  O2_7 
REMARK    5  A    between atoms: O2_7  and  C5_8 
REMARK    6  A    between atoms: C5_8  and  C6_9 
REMARK    7  A    between atoms: C6_9  and  N1_10 
REMARK    8  A    between atoms: N1_10  and  C7_12 
REMARK    9  A    between atoms: C7_12  and  C8_13 
REMARK   10  A    between atoms: N2_17  and  C12_18 
REMARK   11  A    between atoms: C12_18  and  C13_19 
REMARK   12  A    between atoms: C13_19  and  C14_20 
ROOT
HETATM    1  C8  UNL     1      46.963   5.737  14.238  1.00  0.00     0.042 C 
HETATM    2  C9  UNL     1      48.329   5.213  14.396  1.00  0.00     0.016 C 
HETATM    3  C10 UNL     1      49.083   6.030  15.432  1.00  0.00     0.045 C 
HETATM    4  C11 UNL     1      49.149   7.504  15.086  1.00  0.00     0.063 C 
HETATM    5  N2  UNL     1      47.950   7.964  14.518  1.00  0.00    -0.373 N 
HETATM    6  C20 UNL     1      46.792   7.177  14.714  1.00  0.00     0.136 C 
ENDROOT
BRANCH   1   7
HETATM    7  C7  UNL     1      45.806   4.951  14.762  1.00  0.00     0.061 C 
BRANCH   7   8
HETATM    8  N1  UNL     1      44.538   5.497  14.839  1.00  0.00    -0.400 N 
ATOM      9  H1  UNL     1      44.416   6.324  15.422  1.00  0.00     0.158 HD
BRANCH   8  10
HETATM   10  C6  UNL     1      43.409   5.000  14.176  1.00  0.00     0.145 C 
BRANCH  10  11
HETATM   11  C5  UNL     1      43.098   5.893  12.938  1.00  0.00     0.188 C 
BRANCH  11  12
HETATM   12  O2  UNL     1      42.029   6.670  13.329  1.00  0.00    -0.378 OA
BRANCH  12  13
HETATM   13  C4  UNL     1      41.632   7.651  12.469  1.00  0.00     0.261 C 
BRANCH  13  14
HETATM   14  C3  UNL     1      41.170   8.873  13.130  1.00  0.00    -0.078 C 
HETATM   15  C2  UNL     1      40.806   9.889  13.661  1.00  0.00    -0.079 C 
BRANCH  15  16
HETATM   16  C1  UNL     1      40.368  11.138  14.289  1.00  0.00     0.257 C 
BRANCH  16  17
HETATM   17  O1  UNL     1      39.925  10.823  15.568  1.00  0.00    -0.389 OA
ATOM     18  H1  UNL     1      39.232  10.179  15.475  1.00  0.00     0.210 HD
ENDBRANCH  16  17
ENDBRANCH  15  16
ENDBRANCH  13  14
ENDBRANCH  12  13
ENDBRANCH  11  12
ENDBRANCH  10  11
ENDBRANCH   8  10
ENDBRANCH   7   8
ENDBRANCH   1   7
BRANCH   5  19
HETATM   19  C12 UNL     1      47.972   8.919  13.496  1.00  0.00     0.067 C 
BRANCH  19  20
HETATM   20  C13 UNL     1      46.821   8.770  12.546  1.00  0.00     0.083 C 
BRANCH  20  21
HETATM   21  C14 UNL     1      47.268   8.679  11.138  1.00  0.00    -0.053 A 
HETATM   22  C15 UNL     1      46.457   8.352  10.078  1.00  0.00     0.007 A 
HETATM   23  C16 UNL     1      46.936   8.253   8.772  1.00  0.00     0.001 A 
HETATM   24  C17 UNL     1      48.260   8.483   8.484  1.00  0.00     0.000 A 
HETATM   25  C18 UNL     1      49.085   8.814   9.546  1.00  0.00     0.001 A 
HETATM   26  C19 UNL     1      48.599   8.908  10.832  1.00  0.00     0.007 A 
ENDBRANCH  20  21
ENDBRANCH  19  20
ENDBRANCH   5  19
TORSDOF 12
ENDMDL
MODEL 4
REMARK VINA RESULT: -7.151707200      0.925      1.515
REMARK  12 active torsions:
REMARK  status: ('A' for Active; 'I' for Inactive)
REMARK    1  A    between atoms: O1_1  and  C1_3 
REMARK    2  A    between atoms: C1_3  and  C2_4 
REMARK    3  A    between atoms: C3_5  and  C4_6 
REMARK    4  A    between atoms: C4_6  and  O2_7 
REMARK    5  A    between atoms: O2_7  and  C5_8 
REMARK    6  A    between atoms: C5_8  and  C6_9 
REMARK    7  A    between atoms: C6_9  and  N1_10 
REMARK    8  A    between atoms: N1_10  and  C7_12 
REMARK    9  A    between atoms: C7_12  and  C8_13 
REMARK   10  A    between atoms: N2_17  and  C12_18 
REMARK   11  A    between atoms: C12_18  and  C13_19 
REMARK   12  A    between atoms: C13_19  and  C14_20 
ROOT
HETATM    1  C8  UNL     1      46.971   5.860  14.189  1.00  0.00     0.042 C 
HETATM    2  C9  UNL     1      48.361   5.386  14.288  1.00  0.00     0.016 C 
HETATM    3  C10 UNL     1      49.137   6.250  15.268  1.00  0.00     0.045 C 
HETATM    4  C11 UNL     1      49.135   7.718  14.889  1.00  0.00     0.063 C 
HETATM    5  N2  UNL     1      47.894   8.124  14.373  1.00  0.00    -0.373 N 
HETATM    6  C20 UNL     1      46.775   7.304  14.643  1.00  0.00     0.136 C 
ENDROOT
BRANCH   1   7
HETATM    7  C7  UNL     1      45.869   5.049  14.787  1.00  0.00     0.061 C 
BRANCH   7   8
HETATM    8  N1  UNL     1      44.562   5.498  14.792  1.00  0.00    -0.400 N 
ATOM      9  H1  UNL     1      44.395   6.457  15.096  1.00  0.00     0.158 HD
BRANCH   8  10
HETATM   10  C6  UNL     1      43.450   4.737  14.412  1.00  0.00     0.145 C 
BRANCH  10  11
HETATM   11  C5  UNL     1      42.791   5.373  13.153  1.00  0.00     0.188 C 
BRANCH  11  12
HETATM   12  O2  UNL     1      42.284   6.577  13.595  1.00  0.00    -0.378 OA
BRANCH  12  13
HETATM   13  C4  UNL     1      41.944   7.491  12.642  1.00  0.00     0.261 C 
BRANCH  13  14
HETATM   14  C3  UNL     1      41.305   8.696  13.173  1.00  0.00    -0.078 C 
HETATM   15  C2  UNL     1      40.764   9.685  13.593  1.00  0.00    -0.079 C 
BRANCH  15  16
HETATM   16  C1  UNL     1      40.084  10.881  14.098  1.00  0.00     0.257 C 
BRANCH  16  17
HETATM   17  O1  UNL     1      39.960  10.733  15.474  1.00  0.00    -0.389 OA
ATOM     18  H1  UNL     1      39.096  10.376  15.642  1.00  0.00     0.210 HD
ENDBRANCH  16  17
ENDBRANCH  15  16
ENDBRANCH  13  14
ENDBRANCH  12  13
ENDBRANCH  11  12
ENDBRANCH  10  11
ENDBRANCH   8  10
ENDBRANCH   7   8
ENDBRANCH   1   7
BRANCH   5  19
HETATM   19  C12 UNL     1      47.832   9.057  13.332  1.00  0.00     0.067 C 
BRANCH  19  20
HETATM   20  C13 UNL     1      48.860   8.803  12.271  1.00  0.00     0.083 C 
BRANCH  20  21
HETATM   21  C14 UNL     1      48.256   8.679  10.926  1.00  0.00    -0.053 A 
HETATM   22  C15 UNL     1      48.954   8.742   9.744  1.00  0.00     0.007 A 
HETATM   23  C16 UNL     1      48.331   8.646   8.501  1.00  0.00     0.001 A 
HETATM   24  C17 UNL     1      46.971   8.482   8.401  1.00  0.00     0.000 A 
HETATM   25  C18 UNL     1      46.258   8.417   9.587  1.00  0.00     0.001 A 
HETATM   26  C19 UNL     1      46.887   8.514  10.810  1.00  0.00     0.007 A 
ENDBRANCH  20  21
ENDBRANCH  19  20
ENDBRANCH   5  19
TORSDOF 12
ENDMDL
MODEL 5
REMARK VINA RESULT: -7.148351919      2.071      5.566
REMARK  12 active torsions:
REMARK  status: ('A' for Active; 'I' for Inactive)
REMARK    1  A    between atoms: O1_1  and  C1_3 
REMARK    2  A    between atoms: C1_3  and  C2_4 
REMARK    3  A    between atoms: C3_5  and  C4_6 
REMARK    4  A    between atoms: C4_6  and  O2_7 
REMARK    5  A    between atoms: O2_7  and  C5_8 
REMARK    6  A    between atoms: C5_8  and  C6_9 
REMARK    7  A    between atoms: C6_9  and  N1_10 
REMARK    8  A    between atoms: N1_10  and  C7_12 
REMARK    9  A    between atoms: C7_12  and  C8_13 
REMARK   10  A    between atoms: N2_17  and  C12_18 
REMARK   11  A    between atoms: C12_18  and  C13_19 
REMARK   12  A    between atoms: C13_19  and  C14_20 
ROOT
HETATM    1  C8  UNL     1      43.798   9.870  10.786  1.00  0.00     0.042 C 
HETATM    2  C9  UNL     1      43.816   9.024   9.582  1.00  0.00     0.016 C 
HETATM    3  C10 UNL     1      44.159   7.593   9.955  1.00  0.00     0.045 C 
HETATM    4  C11 UNL     1      45.489   7.473  10.671  1.00  0.00     0.063 C 
HETATM    5  N2  UNL     1      45.703   8.537  11.563  1.00  0.00    -0.373 N 
HETATM    6  C20 UNL     1      44.575   9.288  11.964  1.00  0.00     0.136 C 
ENDROOT
BRANCH   1   7
HETATM    7  C7  UNL     1      42.495  10.375  11.315  1.00  0.00     0.061 C 
BRANCH   7   8
HETATM    8  N1  UNL     1      42.163  10.256  12.651  1.00  0.00    -0.400 N 
ATOM      9  H1  UNL     1      42.756  10.736  13.328  1.00  0.00     0.158 HD
BRANCH   8  10
HETATM   10  C6  UNL     1      41.076   9.526  13.146  1.00  0.00     0.145 C 
BRANCH  10  11
HETATM   11  C5  UNL     1      41.122   8.076  12.579  1.00  0.00     0.188 C 
BRANCH  11  12
HETATM   12  O2  UNL     1      41.757   7.340  13.556  1.00  0.00    -0.378 OA
BRANCH  12  13
HETATM   13  C4  UNL     1      42.761   6.510  13.149  1.00  0.00     0.261 C 
BRANCH  13  14
HETATM   14  C3  UNL     1      42.908   5.307  13.968  1.00  0.00    -0.078 C 
HETATM   15  C2  UNL     1      43.051   4.317  14.638  1.00  0.00    -0.079 C 
BRANCH  15  16
HETATM   16  C1  UNL     1      43.247   3.120  15.460  1.00  0.00     0.257 C 
BRANCH  16  17
HETATM   17  O1  UNL     1      42.168   2.278  15.223  1.00  0.00    -0.389 OA
ATOM     18  H1  UNL     1      41.973   1.834  16.041  1.00  0.00     0.210 HD
ENDBRANCH  16  17
ENDBRANCH  15  16
ENDBRANCH  13  14
ENDBRANCH  12  13
ENDBRANCH  11  12
ENDBRANCH  10  11
ENDBRANCH   8  10
ENDBRANCH   7   8
ENDBRANCH   1   7
BRANCH   5  19
HETATM   19  C12 UNL     1      46.985   9.070  11.732  1.00  0.00     0.067 C 
BRANCH  19  20
HETATM   20  C13 UNL     1      47.321   9.311  13.174  1.00  0.00     0.083 C 
BRANCH  20  21
HETATM   21  C14 UNL     1      47.753   8.073  13.861  1.00  0.00    -0.053 A 
HETATM   22  C15 UNL     1      49.053   7.771  14.188  1.00  0.00     0.007 A 
HETATM   23  C16 UNL     1      49.409   6.576  14.812  1.00  0.00     0.001 A 
HETATM   24  C17 UNL     1      48.461   5.634  15.133  1.00  0.00     0.000 A 
HETATM   25  C18 UNL     1      47.148   5.930  14.807  1.00  0.00     0.001 A 
HETATM   26  C19 UNL     1      46.809   7.116  14.190  1.00  0.00     0.007 A 
ENDBRANCH  20  21
ENDBRANCH  19  20
ENDBRANCH   5  19
TORSDOF 12
ENDMDL
