MODEL 1
REMARK VINA RESULT: -7.008241383      0.000      0.000
REMARK  9 active torsions:
REMARK  status: ('A' for Active; 'I' for Inactive)
REMARK    1  A    between atoms: S1_2  and  C1_4 
REMARK    2  A    between atoms: S1_2  and  N3_17 
REMARK    3  A    between atoms: C1_4  and  C2_5 
REMARK    4  A    between atoms: C2_5  and  N1_6 
REMARK    5  A    between atoms: N1_6  and  C3_9 
REMARK    6  A    between atoms: C3_9  and  C4_10 
REMARK    7  A    between atoms: N3_17  and  C9_19 
REMARK    8  A    between atoms: C9_19  and  C10_20 
REMARK    9  A    between atoms: C10_20  and  C11_21 
ROOT
HETATM    1  O1  UNL     1      44.631  10.100   9.895  1.00  0.00    -0.206 OA
HETATM    2  S1  UNL     1      45.174   9.304  11.047  1.00  0.00     0.228 S 
HETATM    3  O2  UNL     1      45.327   7.872  10.564  1.00  0.00    -0.206 OA
ENDROOT
BRANCH   2   4
HETATM    4  C1  UNL     1      44.020   9.384  12.401  1.00  0.00     0.190 C 
BRANCH   4   5
HETATM    5  C2  UNL     1      42.743   8.709  12.009  1.00  0.00     0.249 C 
BRANCH   5   6
HETATM    6  N1  UNL     1      42.783   7.284  12.033  1.00  0.00    -0.070 N 
ATOM      7  H12 UNL     1      42.276   6.895  11.239  1.00  0.00     0.277 HD
ATOM      8  H11 UNL     1      43.720   6.946  11.817  1.00  0.00     0.277 HD
BRANCH   6   9
HETATM    9  C3  UNL     1      42.306   6.716  13.275  1.00  0.00     0.270 C 
BRANCH   9  10
HETATM   10  C4  UNL     1      43.116   5.530  13.657  1.00  0.00    -0.030 A 
HETATM   11  C5  UNL     1      42.821   4.782  14.784  1.00  0.00     0.026 A 
HETATM   12  C6  UNL     1      43.577   3.683  15.127  1.00  0.00     0.088 A 
HETATM   13  N2  UNL     1      44.619   3.324  14.367  1.00  0.00    -0.375 N 
HETATM   14  C7  UNL     1      44.922   4.038  13.267  1.00  0.00     0.088 A 
ATOM     15  H2  UNL     1      45.181   2.511  14.620  1.00  0.00     0.164 HD
HETATM   16  C8  UNL     1      44.182   5.140  12.901  1.00  0.00     0.026 A 
ENDBRANCH   9  10
ENDBRANCH   6   9
ENDBRANCH   5   6
ENDBRANCH   4   5
ENDBRANCH   2   4
BRANCH   2  17
HETATM   17  N3  UNL     1      46.692   9.962  11.465  1.00  0.00    -0.319 N 
ATOM     18  H3  UNL     1      47.372  10.280  10.775  1.00  0.00     0.172 HD
BRANCH  17  19
HETATM   19  C9  UNL     1      46.922  10.028  12.895  1.00  0.00     0.136 C 
BRANCH  19  20
HETATM   20  C10 UNL     1      48.310   9.450  13.128  1.00  0.00     0.058 C 
BRANCH  20  21
HETATM   21  C11 UNL     1      48.257   8.152  13.847  1.00  0.00    -0.057 A 
HETATM   22  C12 UNL     1      47.065   7.526  14.167  1.00  0.00     0.007 A 
HETATM   23  C13 UNL     1      47.093   6.318  14.837  1.00  0.00     0.001 A 
HETATM   24  C14 UNL     1      48.276   5.711  15.203  1.00  0.00     0.000 A 
HETATM   25  C15 UNL     1      49.469   6.335  14.883  1.00  0.00     0.001 A 
HETATM   26  C16 UNL     1      49.424   7.523  14.223  1.00  0.00     0.007 A 
ENDBRANCH  20  21
ENDBRANCH  19  20
ENDBRANCH  17  19
ENDBRANCH   2  17
TORSDOF 9
ENDMDL
MODEL 2
REMARK VINA RESULT: -7.006009676      0.921      1.422
REMARK  9 active torsions:
REMARK  status: ('A' for Active; 'I' for Inactive)
REMARK    1  A    between atoms: S1_2  and  C1_4 
REMARK    2  A    between atoms: S1_2  and  N3_17 
REMARK    3  A    between atoms: C1_4  and  C2_5 
REMARK    4  A    between atoms: C2_5  and  N1_6 
REMARK    5  A    between atoms: N1_6  and  C3_9 
REMARK    6  A    between atoms: C3_9  and  C4_10 
REMARK    7  A    between atoms: N3_17  and  C9_19 
REMARK    8  A    between atoms: C9_19  and  C10_20 
REMARK    9  A    between atoms: C10_20  and  C11_21 
ROOT
HETATM    1  O1  UNL     1      43.882  10.405  11.558  1.00  0.00    -0.206 OA
HETATM    2  S1  UNL     1      44.722   9.671  10.552  1.00  0.00     0.228 S 
HETATM    3  O2  UNL     1      44.687  10.483   9.268  1.00  0.00    -0.206 OA
ENDROOT
BRANCH   2   4
HETATM    4  C1  UNL     1      44.026   8.054  10.285  1.00  0.00     0.190 C 
BRANCH   4   5
HETATM    5  C2  UNL     1      42.855   7.858  11.196  1.00  0.00     0.249 C 
BRANCH   5   6
HETATM    6  N1  UNL     1      43.186   7.683  12.571  1.00  0.00    -0.070 N 
ATOM      7  H12 UNL     1      44.170   7.439  12.679  1.00  0.00     0.277 HD
ATOM      8  H11 UNL     1      43.179   8.577  13.062  1.00  0.00     0.277 HD
BRANCH   6   9
HETATM    9  C3  UNL     1      42.344   6.720  13.248  1.00  0.00     0.270 C 
BRANCH   9  10
HETATM   10  C4  UNL     1      43.133   5.532  13.665  1.00  0.00    -0.030 A 
HETATM   11  C5  UNL     1      44.217   5.086  12.930  1.00  0.00     0.026 A 
HETATM   12  C6  UNL     1      44.943   3.985  13.328  1.00  0.00     0.088 A 
HETATM   13  N2  UNL     1      44.601   3.325  14.442  1.00  0.00    -0.375 N 
HETATM   14  C7  UNL     1      43.550   3.743  15.171  1.00  0.00     0.088 A 
ATOM     15  H2  UNL     1      45.137   2.509  14.737  1.00  0.00     0.164 HD
HETATM   16  C8  UNL     1      42.808   4.841  14.796  1.00  0.00     0.026 A 
ENDBRANCH   9  10
ENDBRANCH   6   9
ENDBRANCH   5   6
ENDBRANCH   4   5
ENDBRANCH   2   4
BRANCH   2  17
HETATM   17  N3  UNL     1      46.312   9.586  11.165  1.00  0.00    -0.319 N 
ATOM     18  H3  UNL     1      47.128   9.408  10.580  1.00  0.00     0.172 HD
BRANCH  17  19
HETATM   19  C9  UNL     1      46.393   9.791  12.598  1.00  0.00     0.136 C 
BRANCH  19  20
HETATM   20  C10 UNL     1      47.839   9.519  12.984  1.00  0.00     0.058 C 
BRANCH  20  21
HETATM   21  C11 UNL     1      47.979   8.260  13.758  1.00  0.00    -0.057 A 
HETATM   22  C12 UNL     1      46.889   7.510  14.165  1.00  0.00     0.007 A 
HETATM   23  C13 UNL     1      47.095   6.347  14.881  1.00  0.00     0.001 A 
HETATM   24  C14 UNL     1      48.359   5.904  15.210  1.00  0.00     0.000 A 
HETATM   25  C15 UNL     1      49.451   6.652  14.804  1.00  0.00     0.001 A 
HETATM   26  C16 UNL     1      49.230   7.793  14.099  1.00  0.00     0.007 A 
ENDBRANCH  20  21
ENDBRANCH  19  20
ENDBRANCH  17  19
ENDBRANCH   2  17
TORSDOF 9
ENDMDL
MODEL 3
REMARK VINA RESULT: -6.960371893      3.089      5.310
REMARK  9 active torsions:
REMARK  status: ('A' for Active; 'I' for Inactive)
REMARK    1  A    between atoms: S1_2  and  C1_4 
REMARK    2  A    between atoms: S1_2  and  N3_17 
REMARK    3  A    between atoms: C1_4  and  C2_5 
REMARK    4  A    between atoms: C2_5  and  N1_6 
REMARK    5  A    between atoms: N1_6  and  C3_9 
REMARK    6  A    between atoms: C3_9  and  C4_10 
REMARK    7  A    between atoms: N3_17  and  C9_19 
REMARK    8  A    between atoms: C9_19  and  C10_20 
REMARK    9  A    between atoms: C10_20  and  C11_21 
ROOT
HETATM    1  O1  UNL     1      42.168   2.974  15.061  1.00  0.00    -0.206 OA
HETATM    2  S1  UNL     1      43.137   4.063  14.698  1.00  0.00     0.228 S 
HETATM    3  O2  UNL     1      43.190   5.019  15.877  1.00  0.00    -0.206 OA
ENDROOT
BRANCH   2   4
HETATM    4  C1  UNL     1      42.547   4.902  13.243  1.00  0.00     0.190 C 
BRANCH   4   5
HETATM    5  C2  UNL     1      42.636   6.381  13.448  1.00  0.00     0.249 C 
BRANCH   5   6
HETATM    6  N1  UNL     1      42.948   7.134  12.279  1.00  0.00    -0.070 N 
ATOM      7  H12 UNL     1      43.619   7.871  12.491  1.00  0.00     0.277 HD
ATOM      8  H11 UNL     1      43.506   6.580  11.630  1.00  0.00     0.277 HD
BRANCH   6   9
HETATM    9  C3  UNL     1      41.782   7.678  11.616  1.00  0.00     0.270 C 
BRANCH   9  10
HETATM   10  C4  UNL     1      41.243   8.841  12.369  1.00  0.00    -0.030 A 
HETATM   11  C5  UNL     1      39.965   8.832  12.900  1.00  0.00     0.026 A 
HETATM   12  C6  UNL     1      39.477   9.915  13.598  1.00  0.00     0.088 A 
HETATM   13  N2  UNL     1      40.241  11.000  13.770  1.00  0.00    -0.375 N 
HETATM   14  C7  UNL     1      41.487  11.028  13.261  1.00  0.00     0.088 A 
ATOM     15  H2  UNL     1      39.881  11.803  14.285  1.00  0.00     0.164 HD
HETATM   16  C8  UNL     1      42.000   9.959  12.560  1.00  0.00     0.026 A 
ENDBRANCH   9  10
ENDBRANCH   6   9
ENDBRANCH   5   6
ENDBRANCH   4   5
ENDBRANCH   2   4
BRANCH   2  17
HETATM   17  N3  UNL     1      44.661   3.339  14.443  1.00  0.00    -0.319 N 
ATOM     18  H3  UNL     1      44.882   2.386  14.730  1.00  0.00     0.172 HD
BRANCH  17  19
HETATM   19  C9  UNL     1      45.613   4.209  13.779  1.00  0.00     0.136 C 
BRANCH  19  20
HETATM   20  C10 UNL     1      46.684   4.531  14.810  1.00  0.00     0.058 C 
BRANCH  20  21
HETATM   21  C11 UNL     1      47.300   5.861  14.572  1.00  0.00    -0.057 A 
HETATM   22  C12 UNL     1      46.627   6.892  13.940  1.00  0.00     0.007 A 
HETATM   23  C13 UNL     1      47.264   8.103  13.753  1.00  0.00     0.001 A 
HETATM   24  C14 UNL     1      48.558   8.322  14.176  1.00  0.00     0.000 A 
HETATM   25  C15 UNL     1      49.234   7.293  14.808  1.00  0.00     0.001 A 
HETATM   26  C16 UNL     1      48.591   6.107  14.985  1.00  0.00     0.007 A 
ENDBRANCH  20  21
ENDBRANCH  19  20
ENDBRANCH  17  19
ENDBRANCH   2  17
TORSDOF 9
ENDMDL
MODEL 4
REMARK VINA RESULT: -6.905251550      2.876      4.999
REMARK  9 active torsions:
REMARK  status: ('A' for Active; 'I' for Inactive)
REMARK    1  A    between atoms: S1_2  and  C1_4 
REMARK    2  A    between atoms: S1_2  and  N3_17 
REMARK    3  A    between atoms: C1_4  and  C2_5 
REMARK    4  A    between atoms: C2_5  and  N1_6 
REMARK    5  A    between atoms: N1_6  and  C3_9 
REMARK    6  A    between atoms: C3_9  and  C4_10 
REMARK    7  A    between atoms: N3_17  and  C9_19 
REMARK    8  A    between atoms: C9_19  and  C10_20 
REMARK    9  A    between atoms: C10_20  and  C11_21 
ROOT
HETATM    1  O1  UNL     1      42.066   3.106  15.080  1.00  0.00    -0.206 OA
HETATM    2  S1  UNL     1      43.101   4.134  14.719  1.00  0.00     0.228 S 
HETATM    3  O2  UNL     1      43.236   5.064  15.912  1.00  0.00    -0.206 OA
ENDROOT
BRANCH   2   4
HETATM    4  C1  UNL     1      42.547   5.036  13.287  1.00  0.00     0.190 C 
BRANCH   4   5
HETATM    5  C2  UNL     1      42.759   6.501  13.506  1.00  0.00     0.249 C 
BRANCH   5   6
HETATM    6  N1  UNL     1      41.939   7.354  12.711  1.00  0.00    -0.070 N 
ATOM      7  H12 UNL     1      40.952   7.207  12.923  1.00  0.00     0.277 HD
ATOM      8  H11 UNL     1      42.033   8.325  13.008  1.00  0.00     0.277 HD
BRANCH   6   9
HETATM    9  C3  UNL     1      42.183   7.226  11.291  1.00  0.00     0.270 C 
BRANCH   9  10
HETATM   10  C4  UNL     1      43.482   7.846  10.921  1.00  0.00    -0.030 A 
HETATM   11  C5  UNL     1      44.496   7.111  10.333  1.00  0.00     0.026 A 
HETATM   12  C6  UNL     1      45.695   7.696   9.993  1.00  0.00     0.088 A 
HETATM   13  N2  UNL     1      45.896   8.997  10.232  1.00  0.00    -0.375 N 
HETATM   14  C7  UNL     1      44.922   9.731  10.804  1.00  0.00     0.088 A 
ATOM     15  H2  UNL     1      46.784   9.432   9.982  1.00  0.00     0.164 HD
HETATM   16  C8  UNL     1      43.714   9.170  11.153  1.00  0.00     0.026 A 
ENDBRANCH   9  10
ENDBRANCH   6   9
ENDBRANCH   5   6
ENDBRANCH   4   5
ENDBRANCH   2   4
BRANCH   2  17
HETATM   17  N3  UNL     1      44.568   3.314  14.426  1.00  0.00    -0.319 N 
ATOM     18  H3  UNL     1      44.738   2.352  14.717  1.00  0.00     0.172 HD
BRANCH  17  19
HETATM   19  C9  UNL     1      45.552   4.117  13.725  1.00  0.00     0.136 C 
BRANCH  19  20
HETATM   20  C10 UNL     1      46.580   4.532  14.766  1.00  0.00     0.058 C 
BRANCH  20  21
HETATM   21  C11 UNL     1      47.135   5.881  14.489  1.00  0.00    -0.057 A 
HETATM   22  C12 UNL     1      46.442   6.839  13.769  1.00  0.00     0.007 A 
HETATM   23  C13 UNL     1      47.022   8.074  13.551  1.00  0.00     0.001 A 
HETATM   24  C14 UNL     1      48.277   8.388  14.028  1.00  0.00     0.000 A 
HETATM   25  C15 UNL     1      48.971   7.433  14.749  1.00  0.00     0.001 A 
HETATM   26  C16 UNL     1      48.386   6.222  14.955  1.00  0.00     0.007 A 
ENDBRANCH  20  21
ENDBRANCH  19  20
ENDBRANCH  17  19
ENDBRANCH   2  17
TORSDOF 9
ENDMDL
MODEL 5
REMARK VINA RESULT: -6.802572062      3.126      5.487
REMARK  9 active torsions:
REMARK  status: ('A' for Active; 'I' for Inactive)
REMARK    1  A    between atoms: S1_2  and  C1_4 
REMARK    2  A    between atoms: S1_2  and  N3_17 
REMARK    3  A    between atoms: C1_4  and  C2_5 
REMARK    4  A    between atoms: C2_5  and  N1_6 
REMARK    5  A    between atoms: N1_6  and  C3_9 
REMARK    6  A    between atoms: C3_9  and  C4_10 
REMARK    7  A    between atoms: N3_17  and  C9_19 
REMARK    8  A    between atoms: C9_19  and  C10_20 
REMARK    9  A    between atoms: C10_20  and  C11_21 
ROOT
HETATM    1  O1  UNL     1      42.177   2.951  15.063  1.00  0.00    -0.206 OA
HETATM    2  S1  UNL     1      43.149   4.043  14.716  1.00  0.00     0.228 S 
HETATM    3  O2  UNL     1      43.188   4.994  15.900  1.00  0.00    -0.206 OA
ENDROOT
BRANCH   2   4
HETATM    4  C1  UNL     1      42.574   4.888  13.258  1.00  0.00     0.190 C 
BRANCH   4   5
HETATM    5  C2  UNL     1      42.620   6.366  13.486  1.00  0.00     0.249 C 
BRANCH   5   6
HETATM    6  N1  UNL     1      42.937   7.144  12.335  1.00  0.00    -0.070 N 
ATOM      7  H12 UNL     1      43.885   6.949  12.016  1.00  0.00     0.277 HD
ATOM      8  H11 UNL     1      42.415   6.816  11.523  1.00  0.00     0.277 HD
BRANCH   6   9
HETATM    9  C3  UNL     1      42.743   8.565  12.529  1.00  0.00     0.270 C 
BRANCH   9  10
HETATM   10  C4  UNL     1      41.303   8.919  12.429  1.00  0.00    -0.030 A 
HETATM   11  C5  UNL     1      40.558   8.619  11.302  1.00  0.00     0.026 A 
HETATM   12  C6  UNL     1      39.224   8.950  11.221  1.00  0.00     0.088 A 
HETATM   13  N2  UNL     1      38.627   9.575  12.243  1.00  0.00    -0.375 N 
HETATM   14  C7  UNL     1      39.334   9.876  13.348  1.00  0.00     0.088 A 
ATOM     15  H2  UNL     1      37.639   9.822  12.185  1.00  0.00     0.164 HD
HETATM   16  C8  UNL     1      40.669   9.555  13.455  1.00  0.00     0.026 A 
ENDBRANCH   9  10
ENDBRANCH   6   9
ENDBRANCH   5   6
ENDBRANCH   4   5
ENDBRANCH   2   4
BRANCH   2  17
HETATM   17  N3  UNL     1      44.676   3.322  14.473  1.00  0.00    -0.319 N 
ATOM     18  H3  UNL     1      44.905   2.379  14.788  1.00  0.00     0.172 HD
BRANCH  17  19
HETATM   19  C9  UNL     1      45.618   4.176  13.777  1.00  0.00     0.136 C 
BRANCH  19  20
HETATM   20  C10 UNL     1      46.602   4.667  14.827  1.00  0.00     0.058 C 
BRANCH  20  21
HETATM   21  C11 UNL     1      47.144   6.009  14.494  1.00  0.00    -0.057 A 
HETATM   22  C12 UNL     1      48.380   6.444  14.938  1.00  0.00     0.007 A 
HETATM   23  C13 UNL     1      48.820   7.706  14.588  1.00  0.00     0.001 A 
HETATM   24  C14 UNL     1      48.064   8.555  13.807  1.00  0.00     0.000 A 
HETATM   25  C15 UNL     1      46.827   8.122  13.362  1.00  0.00     0.001 A 
HETATM   26  C16 UNL     1      46.410   6.876  13.715  1.00  0.00     0.007 A 
ENDBRANCH  20  21
ENDBRANCH  19  20
ENDBRANCH  17  19
ENDBRANCH   2  17
TORSDOF 9
ENDMDL
