MODEL 1
REMARK VINA RESULT: -9.240747225      0.000      0.000
REMARK  13 active torsions:
REMARK  status: ('A' for Active; 'I' for Inactive)
REMARK    1  A    between atoms: C2_2  and  C5_5 
REMARK    2  A    between atoms: C5_5  and  C6_6 
REMARK    3  A    between atoms: C6_6  and  C7_7 
REMARK    4  A    between atoms: C7_7  and  C8_8 
REMARK    5  A    between atoms: C8_8  and  C9_9 
REMARK       I    between atoms: C9_9  and  N1_11 
REMARK    6  A    between atoms: N1_11  and  C10_13 
REMARK    7  A    between atoms: C10_13  and  C11_14 
REMARK    8  A    between atoms: C15_20  and  C16_21 
REMARK    9  A    between atoms: C21_26  and  O4_27 
REMARK   10  A    between atoms: C21_26  and  N2_29 
REMARK   11  A    between atoms: C24_32  and  C25_33 
REMARK   12  A    between atoms: C24_32  and  N4_41 
REMARK       I    between atoms: C25_33  and  N3_35 
REMARK   13  A    between atoms: N3_35  and  S1_37 
ROOT
HETATM    1  C5  UNL     1      12.048  24.474   5.571  1.00  0.00    -0.004 C 
HETATM    2  C21 UNL     1      13.148  23.569   5.688  1.00  0.00     0.144 C 
ENDROOT
BRANCH   1   3
HETATM    3  C2  UNL     1      11.121  24.427   4.395  1.00  0.00    -0.020 C 
HETATM    4  C1  UNL     1      11.856  24.255   3.114  1.00  0.00     0.019 C 
HETATM    5  C3  UNL     1      10.004  23.423   4.639  1.00  0.00     0.019 C 
HETATM    6  C4  UNL     1      10.355  25.763   4.226  1.00  0.00     0.019 C 
ENDBRANCH   1   3
BRANCH   1   7
HETATM    7  C6  UNL     1      11.811  25.467   6.452  1.00  0.00    -0.014 C 
BRANCH   7   8
HETATM    8  C7  UNL     1      11.306  25.440   7.803  1.00  0.00     0.037 C 
BRANCH   8   9
HETATM    9  C8  UNL     1       9.898  24.880   7.900  1.00  0.00     0.106 C 
BRANCH   9  10
HETATM   10  C9  UNL     1       8.878  25.941   7.665  1.00  0.00     0.218 C 
HETATM   11  O1  UNL     1       8.854  26.877   8.497  1.00  0.00    -0.274 OA
HETATM   12  N1  UNL     1       7.986  25.926   6.587  1.00  0.00    -0.342 N 
ATOM     13  H1  UNL     1       8.033  25.156   5.919  1.00  0.00     0.163 HD
BRANCH  12  14
HETATM   14  C10 UNL     1       7.013  26.950   6.390  1.00  0.00     0.125 C 
HETATM   15  C12 UNL     1       6.148  27.177   7.602  1.00  0.00     0.043 C 
HETATM   16  C13 UNL     1       4.726  26.921   7.194  1.00  0.00     0.004 C 
HETATM   17  C14 UNL     1       4.720  26.456   5.764  1.00  0.00     0.008 C 
HETATM   18  C15 UNL     1       6.085  26.749   5.221  1.00  0.00     0.029 C 
BRANCH  14  19
HETATM   19  C11 UNL     1       7.733  28.250   6.093  1.00  0.00     0.203 C 
HETATM   20  O2  UNL     1       8.501  28.394   5.126  1.00  0.00    -0.646 OA
HETATM   21  O3  UNL     1       7.503  29.297   6.956  1.00  0.00    -0.646 OA
ENDBRANCH  14  19
BRANCH  18  22
HETATM   22  C16 UNL     1       6.568  25.826   4.160  1.00  0.00    -0.007 C 
HETATM   23  C17 UNL     1       6.813  26.613   2.885  1.00  0.00     0.005 C 
HETATM   24  C18 UNL     1       6.517  25.647   1.753  1.00  0.00     0.000 C 
HETATM   25  C19 UNL     1       5.565  24.630   2.304  1.00  0.00     0.000 C 
HETATM   26  C20 UNL     1       5.407  24.903   3.791  1.00  0.00     0.005 C 
ENDBRANCH  18  22
ENDBRANCH  12  14
ENDBRANCH   9  10
ENDBRANCH   8   9
ENDBRANCH   7   8
ENDBRANCH   1   7
BRANCH   2  27
HETATM   27  O4  UNL     1      13.903  23.863   6.757  1.00  0.00    -0.346 OA
ATOM     28  H4  UNL     1      13.927  23.137   7.369  1.00  0.00     0.219 HD
ENDBRANCH   2  27
BRANCH   2  29
HETATM   29  N2  UNL     1      13.667  22.477   5.031  1.00  0.00    -0.359 N 
HETATM   30  C22 UNL     1      12.776  21.263   4.795  1.00  0.00     0.128 C 
HETATM   31  C23 UNL     1      13.707  20.170   5.219  1.00  0.00     0.062 C 
HETATM   32  C24 UNL     1      15.056  20.551   4.843  1.00  0.00     0.128 C 
HETATM   33  C32 UNL     1      14.867  22.021   4.407  1.00  0.00     0.166 C 
BRANCH  32  34
HETATM   34  C25 UNL     1      15.927  20.637   6.044  1.00  0.00     0.261 C 
HETATM   35  O5  UNL     1      17.139  20.958   5.832  1.00  0.00    -0.270 OA
HETATM   36  N3  UNL     1      15.520  20.394   7.373  1.00  0.00    -0.253 N 
ATOM     37  H3  UNL     1      14.556  20.126   7.571  1.00  0.00     0.181 HD
BRANCH  36  38
HETATM   38  S1  UNL     1      16.671  20.552   8.677  1.00  0.00     0.229 S 
HETATM   39  C26 UNL     1      16.025  19.954  10.200  1.00  0.00     0.186 C 
HETATM   40  O6  UNL     1      17.909  19.816   8.260  1.00  0.00    -0.206 OA
HETATM   41  O7  UNL     1      17.005  22.033   8.818  1.00  0.00    -0.206 OA
ENDBRANCH  36  38
ENDBRANCH  32  34
BRANCH  32  42
HETATM   42  N4  UNL     1      15.767  19.874   3.831  1.00  0.00    -0.394 N 
HETATM   43  C27 UNL     1      15.978  18.485   4.017  1.00  0.00     0.118 C 
HETATM   44  C28 UNL     1      17.175  18.047   3.202  1.00  0.00     0.019 C 
HETATM   45  C29 UNL     1      16.859  18.273   1.728  1.00  0.00     0.003 C 
HETATM   46  C30 UNL     1      15.511  18.957   1.606  1.00  0.00     0.019 C 
HETATM   47  C31 UNL     1      15.390  20.175   2.490  1.00  0.00     0.118 C 
ENDBRANCH  32  42
ENDBRANCH   2  29
TORSDOF 13
ENDMDL
MODEL 2
REMARK VINA RESULT: -8.785744062      2.974     10.929
REMARK  13 active torsions:
REMARK  status: ('A' for Active; 'I' for Inactive)
REMARK    1  A    between atoms: C2_2  and  C5_5 
REMARK    2  A    between atoms: C5_5  and  C6_6 
REMARK    3  A    between atoms: C6_6  and  C7_7 
REMARK    4  A    between atoms: C7_7  and  C8_8 
REMARK    5  A    between atoms: C8_8  and  C9_9 
REMARK       I    between atoms: C9_9  and  N1_11 
REMARK    6  A    between atoms: N1_11  and  C10_13 
REMARK    7  A    between atoms: C10_13  and  C11_14 
REMARK    8  A    between atoms: C15_20  and  C16_21 
REMARK    9  A    between atoms: C21_26  and  O4_27 
REMARK   10  A    between atoms: C21_26  and  N2_29 
REMARK   11  A    between atoms: C24_32  and  C25_33 
REMARK   12  A    between atoms: C24_32  and  N4_41 
REMARK       I    between atoms: C25_33  and  N3_35 
REMARK   13  A    between atoms: N3_35  and  S1_37 
ROOT
HETATM    1  C5  UNL     1      14.515  22.701   6.055  1.00  0.00    -0.004 C 
HETATM    2  C21 UNL     1      13.424  23.618   6.172  1.00  0.00     0.144 C 
ENDROOT
BRANCH   1   3
HETATM    3  C2  UNL     1      14.529  21.638   4.999  1.00  0.00    -0.020 C 
HETATM    4  C1  UNL     1      13.531  20.569   5.272  1.00  0.00     0.019 C 
HETATM    5  C3  UNL     1      14.443  22.263   3.615  1.00  0.00     0.019 C 
HETATM    6  C4  UNL     1      15.890  20.897   4.961  1.00  0.00     0.019 C 
ENDBRANCH   1   3
BRANCH   1   7
HETATM    7  C6  UNL     1      15.554  22.674   6.913  1.00  0.00    -0.014 C 
BRANCH   7   8
HETATM    8  C7  UNL     1      15.619  22.360   8.319  1.00  0.00     0.037 C 
BRANCH   8   9
HETATM    9  C8  UNL     1      15.170  20.944   8.634  1.00  0.00     0.106 C 
BRANCH   9  10
HETATM   10  C9  UNL     1      16.337  20.026   8.761  1.00  0.00     0.218 C 
HETATM   11  O1  UNL     1      17.249  20.173   7.916  1.00  0.00    -0.274 OA
HETATM   12  N1  UNL     1      16.442  19.047   9.755  1.00  0.00    -0.342 N 
ATOM     13  H1  UNL     1      15.688  18.954  10.437  1.00  0.00     0.163 HD
BRANCH  12  14
HETATM   14  C10 UNL     1      17.566  18.174   9.849  1.00  0.00     0.125 C 
HETATM   15  C12 UNL     1      18.059  17.708   8.504  1.00  0.00     0.043 C 
HETATM   16  C13 UNL     1      17.965  16.209   8.485  1.00  0.00     0.004 C 
HETATM   17  C14 UNL     1      17.340  15.758   9.776  1.00  0.00     0.008 C 
HETATM   18  C15 UNL     1      17.365  16.943  10.692  1.00  0.00     0.029 C 
BRANCH  14  19
HETATM   19  C11 UNL     1      18.703  18.919  10.518  1.00  0.00     0.203 C 
HETATM   20  O2  UNL     1      18.605  20.097  10.907  1.00  0.00    -0.646 OA
HETATM   21  O3  UNL     1      19.882  18.231  10.684  1.00  0.00    -0.646 OA
ENDBRANCH  14  19
BRANCH  18  22
HETATM   22  C16 UNL     1      16.262  17.010  11.687  1.00  0.00    -0.007 C 
HETATM   23  C17 UNL     1      16.585  16.097  12.856  1.00  0.00     0.005 C 
HETATM   24  C18 UNL     1      15.243  15.600  13.361  1.00  0.00     0.000 C 
HETATM   25  C19 UNL     1      14.297  15.683  12.202  1.00  0.00     0.000 C 
HETATM   26  C20 UNL     1      15.032  16.358  11.055  1.00  0.00     0.005 C 
ENDBRANCH  18  22
ENDBRANCH  12  14
ENDBRANCH   9  10
ENDBRANCH   8   9
ENDBRANCH   7   8
ENDBRANCH   1   7
BRANCH   2  27
HETATM   27  O4  UNL     1      13.570  24.405   7.248  1.00  0.00    -0.346 OA
ATOM     28  H4  UNL     1      12.821  24.334   7.828  1.00  0.00     0.219 HD
ENDBRANCH   2  27
BRANCH   2  29
HETATM   29  N2  UNL     1      12.264  23.940   5.508  1.00  0.00    -0.359 N 
HETATM   30  C22 UNL     1      12.321  24.942   4.361  1.00  0.00     0.128 C 
HETATM   31  C23 UNL     1      11.154  25.811   4.716  1.00  0.00     0.062 C 
HETATM   32  C24 UNL     1      10.126  24.973   5.306  1.00  0.00     0.128 C 
HETATM   33  C32 UNL     1      10.870  23.631   5.489  1.00  0.00     0.166 C 
BRANCH  32  34
HETATM   34  C25 UNL     1       9.826  25.415   6.692  1.00  0.00     0.261 C 
HETATM   35  O5  UNL     1       9.869  24.513   7.587  1.00  0.00    -0.270 OA
HETATM   36  N3  UNL     1       9.503  26.731   7.083  1.00  0.00    -0.253 N 
ATOM     37  H3  UNL     1       9.453  27.474   6.385  1.00  0.00     0.181 HD
BRANCH  36  38
HETATM   38  S1  UNL     1       9.190  27.088   8.763  1.00  0.00     0.229 S 
HETATM   39  C26 UNL     1       8.438  28.664   8.973  1.00  0.00     0.186 C 
HETATM   40  O6  UNL     1       8.331  25.978   9.293  1.00  0.00    -0.206 OA
HETATM   41  O7  UNL     1      10.527  27.066   9.496  1.00  0.00    -0.206 OA
ENDBRANCH  36  38
ENDBRANCH  32  34
BRANCH  32  42
HETATM   42  N4  UNL     1       8.905  24.720   4.650  1.00  0.00    -0.394 N 
HETATM   43  C27 UNL     1       8.229  25.838   4.100  1.00  0.00     0.118 C 
HETATM   44  C28 UNL     1       6.758  25.515   3.959  1.00  0.00     0.019 C 
HETATM   45  C29 UNL     1       6.614  24.359   2.976  1.00  0.00     0.003 C 
HETATM   46  C30 UNL     1       7.992  23.869   2.576  1.00  0.00     0.019 C 
HETATM   47  C31 UNL     1       8.888  23.605   3.763  1.00  0.00     0.118 C 
ENDBRANCH  32  42
ENDBRANCH   2  29
TORSDOF 13
ENDMDL
MODEL 3
REMARK VINA RESULT: -8.487362218      1.487      2.094
REMARK  13 active torsions:
REMARK  status: ('A' for Active; 'I' for Inactive)
REMARK    1  A    between atoms: C2_2  and  C5_5 
REMARK    2  A    between atoms: C5_5  and  C6_6 
REMARK    3  A    between atoms: C6_6  and  C7_7 
REMARK    4  A    between atoms: C7_7  and  C8_8 
REMARK    5  A    between atoms: C8_8  and  C9_9 
REMARK       I    between atoms: C9_9  and  N1_11 
REMARK    6  A    between atoms: N1_11  and  C10_13 
REMARK    7  A    between atoms: C10_13  and  C11_14 
REMARK    8  A    between atoms: C15_20  and  C16_21 
REMARK    9  A    between atoms: C21_26  and  O4_27 
REMARK   10  A    between atoms: C21_26  and  N2_29 
REMARK   11  A    between atoms: C24_32  and  C25_33 
REMARK   12  A    between atoms: C24_32  and  N4_41 
REMARK       I    between atoms: C25_33  and  N3_35 
REMARK   13  A    between atoms: N3_35  and  S1_37 
ROOT
HETATM    1  C5  UNL     1      11.498  24.613   5.572  1.00  0.00    -0.004 C 
HETATM    2  C21 UNL     1      12.640  23.772   5.756  1.00  0.00     0.144 C 
ENDROOT
BRANCH   1   3
HETATM    3  C2  UNL     1      10.639  24.503   4.350  1.00  0.00    -0.020 C 
HETATM    4  C1  UNL     1      11.449  24.418   3.105  1.00  0.00     0.019 C 
HETATM    5  C3  UNL     1       9.605  23.400   4.524  1.00  0.00     0.019 C 
HETATM    6  C4  UNL     1       9.765  25.769   4.158  1.00  0.00     0.019 C 
ENDBRANCH   1   3
BRANCH   1   7
HETATM    7  C6  UNL     1      11.160  25.597   6.428  1.00  0.00    -0.014 C 
BRANCH   7   8
HETATM    8  C7  UNL     1      10.704  25.554   7.796  1.00  0.00     0.037 C 
BRANCH   8   9
HETATM    9  C8  UNL     1       9.194  25.444   7.917  1.00  0.00     0.106 C 
BRANCH   9  10
HETATM   10  C9  UNL     1       8.525  26.695   7.461  1.00  0.00     0.218 C 
HETATM   11  O1  UNL     1       9.143  27.762   7.679  1.00  0.00    -0.274 OA
HETATM   12  N1  UNL     1       7.282  26.713   6.819  1.00  0.00    -0.342 N 
ATOM     13  H1  UNL     1       6.804  25.828   6.646  1.00  0.00     0.163 HD
BRANCH  12  14
HETATM   14  C10 UNL     1       6.659  27.926   6.400  1.00  0.00     0.125 C 
HETATM   15  C12 UNL     1       7.192  29.137   7.119  1.00  0.00     0.043 C 
HETATM   16  C13 UNL     1       6.039  29.782   7.833  1.00  0.00     0.004 C 
HETATM   17  C14 UNL     1       4.819  28.928   7.628  1.00  0.00     0.008 C 
HETATM   18  C15 UNL     1       5.159  27.966   6.531  1.00  0.00     0.029 C 
BRANCH  14  19
HETATM   19  C11 UNL     1       6.923  28.119   4.921  1.00  0.00     0.203 C 
HETATM   20  O2  UNL     1       6.095  27.825   4.041  1.00  0.00    -0.646 OA
HETATM   21  O3  UNL     1       8.145  28.645   4.573  1.00  0.00    -0.646 OA
ENDBRANCH  14  19
BRANCH  18  22
HETATM   22  C16 UNL     1       4.478  26.645   6.601  1.00  0.00    -0.007 C 
HETATM   23  C17 UNL     1       3.759  26.383   5.290  1.00  0.00     0.005 C 
HETATM   24  C18 UNL     1       2.543  25.552   5.657  1.00  0.00     0.000 C 
HETATM   25  C19 UNL     1       2.233  25.867   7.088  1.00  0.00     0.000 C 
HETATM   26  C20 UNL     1       3.339  26.768   7.613  1.00  0.00     0.005 C 
ENDBRANCH  18  22
ENDBRANCH  12  14
ENDBRANCH   9  10
ENDBRANCH   8   9
ENDBRANCH   7   8
ENDBRANCH   1   7
BRANCH   2  27
HETATM   27  O4  UNL     1      13.320  24.118   6.859  1.00  0.00    -0.346 OA
ATOM     28  H4  UNL     1      13.484  25.053   6.880  1.00  0.00     0.219 HD
ENDBRANCH   2  27
BRANCH   2  29
HETATM   29  N2  UNL     1      13.254  22.706   5.139  1.00  0.00    -0.359 N 
HETATM   30  C22 UNL     1      12.435  21.459   4.829  1.00  0.00     0.128 C 
HETATM   31  C23 UNL     1      13.374  20.402   5.323  1.00  0.00     0.062 C 
HETATM   32  C24 UNL     1      14.731  20.840   5.056  1.00  0.00     0.128 C 
HETATM   33  C32 UNL     1      14.516  22.303   4.611  1.00  0.00     0.166 C 
BRANCH  32  34
HETATM   34  C25 UNL     1      15.500  20.954   6.322  1.00  0.00     0.261 C 
HETATM   35  O5  UNL     1      14.832  20.822   7.395  1.00  0.00    -0.270 OA
HETATM   36  N3  UNL     1      16.887  21.194   6.422  1.00  0.00    -0.253 N 
ATOM     37  H3  UNL     1      17.447  21.313   5.578  1.00  0.00     0.181 HD
BRANCH  36  38
HETATM   38  S1  UNL     1      17.642  21.287   7.994  1.00  0.00     0.229 S 
HETATM   39  C26 UNL     1      17.442  19.799   8.910  1.00  0.00     0.186 C 
HETATM   40  O6  UNL     1      19.087  21.621   7.766  1.00  0.00    -0.206 OA
HETATM   41  O7  UNL     1      16.987  22.437   8.752  1.00  0.00    -0.206 OA
ENDBRANCH  36  38
ENDBRANCH  32  34
BRANCH  32  42
HETATM   42  N4  UNL     1      15.547  20.198   4.101  1.00  0.00    -0.394 N 
HETATM   43  C27 UNL     1      15.860  18.837   4.339  1.00  0.00     0.118 C 
HETATM   44  C28 UNL     1      17.130  18.479   3.598  1.00  0.00     0.019 C 
HETATM   45  C29 UNL     1      16.875  18.641   2.104  1.00  0.00     0.003 C 
HETATM   46  C30 UNL     1      15.484  19.208   1.894  1.00  0.00     0.019 C 
HETATM   47  C31 UNL     1      15.218  20.433   2.735  1.00  0.00     0.118 C 
ENDBRANCH  32  42
ENDBRANCH   2  29
TORSDOF 13
ENDMDL
MODEL 4
REMARK VINA RESULT: -8.466860934      3.132     11.411
REMARK  13 active torsions:
REMARK  status: ('A' for Active; 'I' for Inactive)
REMARK    1  A    between atoms: C2_2  and  C5_5 
REMARK    2  A    between atoms: C5_5  and  C6_6 
REMARK    3  A    between atoms: C6_6  and  C7_7 
REMARK    4  A    between atoms: C7_7  and  C8_8 
REMARK    5  A    between atoms: C8_8  and  C9_9 
REMARK       I    between atoms: C9_9  and  N1_11 
REMARK    6  A    between atoms: N1_11  and  C10_13 
REMARK    7  A    between atoms: C10_13  and  C11_14 
REMARK    8  A    between atoms: C15_20  and  C16_21 
REMARK    9  A    between atoms: C21_26  and  O4_27 
REMARK   10  A    between atoms: C21_26  and  N2_29 
REMARK   11  A    between atoms: C24_32  and  C25_33 
REMARK   12  A    between atoms: C24_32  and  N4_41 
REMARK       I    between atoms: C25_33  and  N3_35 
REMARK   13  A    between atoms: N3_35  and  S1_37 
ROOT
HETATM    1  C5  UNL     1      14.000  22.726   6.537  1.00  0.00    -0.004 C 
HETATM    2  C21 UNL     1      12.792  23.491   6.544  1.00  0.00     0.144 C 
ENDROOT
BRANCH   1   3
HETATM    3  C2  UNL     1      14.446  21.983   5.315  1.00  0.00    -0.020 C 
HETATM    4  C1  UNL     1      13.418  21.015   4.847  1.00  0.00     0.019 C 
HETATM    5  C3  UNL     1      14.948  22.954   4.257  1.00  0.00     0.019 C 
HETATM    6  C4  UNL     1      15.694  21.112   5.607  1.00  0.00     0.019 C 
ENDBRANCH   1   3
BRANCH   1   7
HETATM    7  C6  UNL     1      14.773  22.557   7.629  1.00  0.00    -0.014 C 
BRANCH   7   8
HETATM    8  C7  UNL     1      14.738  21.565   8.675  1.00  0.00     0.037 C 
BRANCH   8   9
HETATM    9  C8  UNL     1      16.112  21.241   9.235  1.00  0.00     0.106 C 
BRANCH   9  10
HETATM   10  C9  UNL     1      16.197  19.816   9.661  1.00  0.00     0.218 C 
HETATM   11  O1  UNL     1      15.166  19.334  10.183  1.00  0.00    -0.274 OA
HETATM   12  N1  UNL     1      17.345  19.031   9.501  1.00  0.00    -0.342 N 
ATOM     13  H1  UNL     1      18.168  19.447   9.064  1.00  0.00     0.163 HD
BRANCH  12  14
HETATM   14  C10 UNL     1      17.403  17.671   9.926  1.00  0.00     0.125 C 
HETATM   15  C12 UNL     1      16.056  17.121  10.317  1.00  0.00     0.043 C 
HETATM   16  C13 UNL     1      16.145  16.692  11.753  1.00  0.00     0.004 C 
HETATM   17  C14 UNL     1      17.509  17.051  12.271  1.00  0.00     0.008 C 
HETATM   18  C15 UNL     1      18.340  17.388  11.071  1.00  0.00     0.029 C 
BRANCH  14  19
HETATM   19  C11 UNL     1      17.926  16.828   8.781  1.00  0.00     0.203 C 
HETATM   20  O2  UNL     1      17.683  15.614   8.668  1.00  0.00    -0.646 OA
HETATM   21  O3  UNL     1      18.702  17.469   7.844  1.00  0.00    -0.646 OA
ENDBRANCH  14  19
BRANCH  18  22
HETATM   22  C16 UNL     1      19.416  18.390  11.293  1.00  0.00    -0.007 C 
HETATM   23  C17 UNL     1      20.666  17.683  11.784  1.00  0.00     0.005 C 
HETATM   24  C18 UNL     1      21.361  18.680  12.693  1.00  0.00     0.000 C 
HETATM   25  C19 UNL     1      20.297  19.605  13.199  1.00  0.00     0.000 C 
HETATM   26  C20 UNL     1      19.002  19.251  12.487  1.00  0.00     0.005 C 
ENDBRANCH  18  22
ENDBRANCH  12  14
ENDBRANCH   9  10
ENDBRANCH   8   9
ENDBRANCH   7   8
ENDBRANCH   1   7
BRANCH   2  27
HETATM   27  O4  UNL     1      12.535  23.976   7.767  1.00  0.00    -0.346 OA
ATOM     28  H4  UNL     1      11.786  23.541   8.157  1.00  0.00     0.219 HD
ENDBRANCH   2  27
BRANCH   2  29
HETATM   29  N2  UNL     1      11.809  23.884   5.665  1.00  0.00    -0.359 N 
HETATM   30  C22 UNL     1      12.193  24.721   4.451  1.00  0.00     0.128 C 
HETATM   31  C23 UNL     1      11.134  25.778   4.518  1.00  0.00     0.062 C 
HETATM   32  C24 UNL     1       9.912  25.166   5.007  1.00  0.00     0.128 C 
HETATM   33  C32 UNL     1      10.404  23.768   5.444  1.00  0.00     0.166 C 
BRANCH  32  34
HETATM   34  C25 UNL     1       9.478  25.811   6.273  1.00  0.00     0.261 C 
HETATM   35  O5  UNL     1       9.228  25.027   7.242  1.00  0.00    -0.270 OA
HETATM   36  N3  UNL     1       9.323  27.199   6.477  1.00  0.00    -0.253 N 
ATOM     37  H3  UNL     1       9.508  27.851   5.714  1.00  0.00     0.181 HD
BRANCH  36  38
HETATM   38  S1  UNL     1       8.815  27.797   8.036  1.00  0.00     0.229 S 
HETATM   39  C26 UNL     1       9.933  27.337   9.314  1.00  0.00     0.186 C 
HETATM   40  O6  UNL     1       8.681  29.286   7.912  1.00  0.00    -0.206 OA
HETATM   41  O7  UNL     1       7.441  27.205   8.332  1.00  0.00    -0.206 OA
ENDBRANCH  36  38
ENDBRANCH  32  34
BRANCH  32  42
HETATM   42  N4  UNL     1       8.779  25.003   4.184  1.00  0.00    -0.394 N 
HETATM   43  C27 UNL     1       8.525  26.025   3.235  1.00  0.00     0.118 C 
HETATM   44  C28 UNL     1       7.060  26.007   2.860  1.00  0.00     0.019 C 
HETATM   45  C29 UNL     1       6.752  24.670   2.194  1.00  0.00     0.003 C 
HETATM   46  C30 UNL     1       7.988  23.792   2.244  1.00  0.00     0.019 C 
HETATM   47  C31 UNL     1       8.590  23.706   3.626  1.00  0.00     0.118 C 
ENDBRANCH  32  42
ENDBRANCH   2  29
TORSDOF 13
ENDMDL
MODEL 5
REMARK VINA RESULT: -8.307903386      2.488      4.889
REMARK  13 active torsions:
REMARK  status: ('A' for Active; 'I' for Inactive)
REMARK    1  A    between atoms: C2_2  and  C5_5 
REMARK    2  A    between atoms: C5_5  and  C6_6 
REMARK    3  A    between atoms: C6_6  and  C7_7 
REMARK    4  A    between atoms: C7_7  and  C8_8 
REMARK    5  A    between atoms: C8_8  and  C9_9 
REMARK       I    between atoms: C9_9  and  N1_11 
REMARK    6  A    between atoms: N1_11  and  C10_13 
REMARK    7  A    between atoms: C10_13  and  C11_14 
REMARK    8  A    between atoms: C15_20  and  C16_21 
REMARK    9  A    between atoms: C21_26  and  O4_27 
REMARK   10  A    between atoms: C21_26  and  N2_29 
REMARK   11  A    between atoms: C24_32  and  C25_33 
REMARK   12  A    between atoms: C24_32  and  N4_41 
REMARK       I    between atoms: C25_33  and  N3_35 
REMARK   13  A    between atoms: N3_35  and  S1_37 
ROOT
HETATM    1  C5  UNL     1      12.139  23.480   5.560  1.00  0.00    -0.004 C 
HETATM    2  C21 UNL     1      13.443  22.900   5.633  1.00  0.00     0.144 C 
ENDROOT
BRANCH   1   3
HETATM    3  C2  UNL     1      11.261  23.579   6.770  1.00  0.00    -0.020 C 
HETATM    4  C1  UNL     1      10.927  22.241   7.327  1.00  0.00     0.019 C 
HETATM    5  C3  UNL     1      11.844  24.568   7.769  1.00  0.00     0.019 C 
HETATM    6  C4  UNL     1       9.888  24.208   6.422  1.00  0.00     0.019 C 
ENDBRANCH   1   3
BRANCH   1   7
HETATM    7  C6  UNL     1      11.581  23.902   4.407  1.00  0.00    -0.014 C 
BRANCH   7   8
HETATM    8  C7  UNL     1      11.152  23.177   3.237  1.00  0.00     0.037 C 
BRANCH   8   9
HETATM    9  C8  UNL     1       9.646  22.987   3.174  1.00  0.00     0.106 C 
BRANCH   9  10
HETATM   10  C9  UNL     1       8.963  24.239   2.743  1.00  0.00     0.218 C 
HETATM   11  O1  UNL     1       9.641  25.023   2.040  1.00  0.00    -0.274 OA
HETATM   12  N1  UNL     1       7.642  24.552   3.083  1.00  0.00    -0.342 N 
ATOM     13  H1  UNL     1       7.110  23.891   3.649  1.00  0.00     0.163 HD
BRANCH  12  14
HETATM   14  C10 UNL     1       7.015  25.762   2.665  1.00  0.00     0.125 C 
HETATM   15  C12 UNL     1       7.540  26.270   1.348  1.00  0.00     0.043 C 
HETATM   16  C13 UNL     1       8.108  27.639   1.588  1.00  0.00     0.004 C 
HETATM   17  C14 UNL     1       8.013  27.941   3.057  1.00  0.00     0.008 C 
HETATM   18  C15 UNL     1       7.098  26.908   3.640  1.00  0.00     0.029 C 
BRANCH  14  19
HETATM   19  C11 UNL     1       5.532  25.505   2.496  1.00  0.00     0.203 C 
HETATM   20  O2  UNL     1       4.959  24.505   2.965  1.00  0.00    -0.646 OA
HETATM   21  O3  UNL     1       4.817  26.441   1.785  1.00  0.00    -0.646 OA
ENDBRANCH  14  19
BRANCH  18  22
HETATM   22  C16 UNL     1       7.363  26.538   5.055  1.00  0.00    -0.007 C 
HETATM   23  C17 UNL     1       6.172  26.934   5.908  1.00  0.00     0.005 C 
HETATM   24  C18 UNL     1       6.749  27.281   7.269  1.00  0.00     0.000 C 
HETATM   25  C19 UNL     1       8.172  27.686   7.033  1.00  0.00     0.000 C 
HETATM   26  C20 UNL     1       8.483  27.445   5.565  1.00  0.00     0.005 C 
ENDBRANCH  18  22
ENDBRANCH  12  14
ENDBRANCH   9  10
ENDBRANCH   8   9
ENDBRANCH   7   8
ENDBRANCH   1   7
BRANCH   2  27
HETATM   27  O4  UNL     1      14.002  22.814   4.417  1.00  0.00    -0.346 OA
ATOM     28  H4  UNL     1      13.467  22.289   3.832  1.00  0.00     0.219 HD
ENDBRANCH   2  27
BRANCH   2  29
HETATM   29  N2  UNL     1      14.305  22.402   6.583  1.00  0.00    -0.359 N 
HETATM   30  C22 UNL     1      15.324  23.338   7.221  1.00  0.00     0.128 C 
HETATM   31  C23 UNL     1      16.553  22.487   7.132  1.00  0.00     0.062 C 
HETATM   32  C24 UNL     1      16.160  21.102   7.322  1.00  0.00     0.128 C 
HETATM   33  C32 UNL     1      14.619  21.195   7.277  1.00  0.00     0.166 C 
BRANCH  32  34
HETATM   34  C25 UNL     1      16.511  20.293   6.126  1.00  0.00     0.261 C 
HETATM   35  O5  UNL     1      16.276  20.832   4.999  1.00  0.00    -0.270 OA
HETATM   36  N3  UNL     1      17.071  18.998   6.146  1.00  0.00    -0.253 N 
ATOM     37  H3  UNL     1      17.262  18.538   7.036  1.00  0.00     0.181 HD
BRANCH  36  38
HETATM   38  S1  UNL     1      17.437  18.186   4.644  1.00  0.00     0.229 S 
HETATM   39  C26 UNL     1      16.016  18.023   3.620  1.00  0.00     0.186 C 
HETATM   40  O6  UNL     1      18.527  18.972   3.977  1.00  0.00    -0.206 OA
HETATM   41  O7  UNL     1      17.972  16.800   4.988  1.00  0.00    -0.206 OA
ENDBRANCH  36  38
ENDBRANCH  32  34
BRANCH  32  42
HETATM   42  N4  UNL     1      16.531  20.374   8.471  1.00  0.00    -0.394 N 
HETATM   43  C27 UNL     1      17.624  20.874   9.221  1.00  0.00     0.118 C 
HETATM   44  C28 UNL     1      18.235  19.749  10.027  1.00  0.00     0.019 C 
HETATM   45  C29 UNL     1      17.188  19.246  11.015  1.00  0.00     0.003 C 
HETATM   46  C30 UNL     1      15.878  19.968  10.765  1.00  0.00     0.019 C 
HETATM   47  C31 UNL     1      15.465  19.947   9.314  1.00  0.00     0.118 C 
ENDBRANCH  32  42
ENDBRANCH   2  29
TORSDOF 13
ENDMDL
