MODEL 1
REMARK VINA RESULT: -7.208720611      0.000      0.000
REMARK  14 active torsions:
REMARK  status: ('A' for Active; 'I' for Inactive)
REMARK    1  A    between atoms: C2_2  and  O1_3 
REMARK    2  A    between atoms: C2_2  and  N1_5 
REMARK    3  A    between atoms: N2_9  and  C6_10 
REMARK    4  A    between atoms: C6_10  and  C7_11 
REMARK    5  A    between atoms: C7_11  and  C8_12 
REMARK    6  A    between atoms: C8_12  and  C9_13 
REMARK    7  A    between atoms: C9_13  and  C10_14 
REMARK    8  A    between atoms: C10_14  and  C11_15 
REMARK    9  A    between atoms: C11_15  and  C12_16 
REMARK   10  A    between atoms: C12_16  and  C13_17 
REMARK   11  A    between atoms: C13_17  and  N3_18 
REMARK       I    between atoms: N3_18  and  C14_20 
REMARK   12  A    between atoms: C14_20  and  C15_22 
REMARK   13  A    between atoms: C15_22  and  C16_24 
REMARK   14  A    between atoms: C22_32  and  O6_33 
ROOT
HETATM    1  N3  UNL     1       6.709   7.900  23.673  1.00  0.00    -0.354 N 
ATOM      2  H3  UNL     1       6.243   8.354  22.887  1.00  0.00     0.162 HD
HETATM    3  C14 UNL     1       8.111   8.041  23.809  1.00  0.00     0.290 C 
HETATM    4  O2  UNL     1       8.688   7.482  24.763  1.00  0.00    -0.264 OA
ENDROOT
BRANCH   1   5
HETATM    5  C13 UNL     1       5.926   7.145  24.594  1.00  0.00     0.123 C 
BRANCH   5   6
HETATM    6  C12 UNL     1       4.619   7.825  24.901  1.00  0.00     0.020 C 
BRANCH   6   7
HETATM    7  C11 UNL     1       3.722   7.715  23.694  1.00  0.00     0.002 C 
BRANCH   7   8
HETATM    8  C10 UNL     1       3.530   6.260  23.342  1.00  0.00     0.000 C 
BRANCH   8   9
HETATM    9  C9  UNL     1       3.297   6.208  21.830  1.00  0.00     0.000 C 
BRANCH   9  10
HETATM   10  C8  UNL     1       4.596   6.395  21.098  1.00  0.00     0.002 C 
BRANCH  10  11
HETATM   11  C7  UNL     1       5.497   5.193  21.181  1.00  0.00     0.030 C 
BRANCH  11  12
HETATM   12  C6  UNL     1       5.646   4.539  19.805  1.00  0.00     0.273 C 
BRANCH  12  13
HETATM   13  N2  UNL     1       6.848   3.728  19.848  1.00  0.00     0.093 N 
HETATM   14  C5  UNL     1       6.526   2.322  19.836  1.00  0.00     0.278 C 
HETATM   15  C4  UNL     1       5.701   1.919  18.665  1.00  0.00     0.075 C 
HETATM   16  C3  UNL     1       6.403   2.201  17.354  1.00  0.00     0.067 C 
HETATM   17  N1  UNL     1       7.806   2.075  17.402  1.00  0.00    -0.346 N 
HETATM   18  C26 UNL     1       8.550   2.931  18.235  1.00  0.00     0.095 C 
HETATM   19  C25 UNL     1       7.776   4.090  18.799  1.00  0.00     0.317 C 
BRANCH  17  20
HETATM   20  C2  UNL     1       8.394   0.873  16.954  1.00  0.00     0.219 C 
HETATM   21  C1  UNL     1       9.769   0.583  17.535  1.00  0.00     0.063 C 
BRANCH  20  22
HETATM   22  O1  UNL     1       8.490   0.762  15.574  1.00  0.00    -0.377 OA
ATOM     23  H1  UNL     1       9.082   1.440  15.271  1.00  0.00     0.212 HD
ENDBRANCH  20  22
ENDBRANCH  17  20
ENDBRANCH  12  13
ENDBRANCH  11  12
ENDBRANCH  10  11
ENDBRANCH   9  10
ENDBRANCH   8   9
ENDBRANCH   7   8
ENDBRANCH   6   7
ENDBRANCH   5   6
ENDBRANCH   1   5
BRANCH   3  24
HETATM   24  C15 UNL     1       8.912   8.817  22.872  1.00  0.00     0.254 C 
HETATM   25  O3  UNL     1       9.975   9.344  23.296  1.00  0.00    -0.283 OA
BRANCH  24  26
HETATM   26  C16 UNL     1       8.544   9.018  21.450  1.00  0.00     0.262 C 
HETATM   27  O4  UNL     1       7.898   7.912  21.007  1.00  0.00    -0.367 OA
HETATM   28  C17 UNL     1       7.888   7.657  19.681  1.00  0.00     0.172 C 
HETATM   29  C18 UNL     1       8.148   8.771  18.739  1.00  0.00     0.058 C 
HETATM   30  C19 UNL     1       7.098   9.797  18.576  1.00  0.00     0.130 C 
HETATM   31  O5  UNL     1       7.531  11.110  18.881  1.00  0.00    -0.385 OA
HETATM   32  C23 UNL     1       5.807   9.566  19.305  1.00  0.00     0.053 C 
HETATM   33  C20 UNL     1       6.723  11.999  18.217  1.00  0.00     0.170 C 
HETATM   34  C21 UNL     1       5.256  11.881  18.528  1.00  0.00     0.058 C 
HETATM   35  C22 UNL     1       4.772  10.455  18.594  1.00  0.00     0.127 C 
HETATM   36  C24 UNL     1       5.820   9.933  20.740  1.00  0.00     0.086 C 
HETATM   37  S1  UNL     1       7.413  10.438  21.387  1.00  0.00    -0.129 SA
BRANCH  35  38
HETATM   38  O6  UNL     1       3.597  10.388  19.312  1.00  0.00    -0.395 OA
ATOM     39  H6  UNL     1       3.777  10.127  20.207  1.00  0.00     0.210 HD
ENDBRANCH  35  38
ENDBRANCH  24  26
ENDBRANCH   3  24
TORSDOF 14
ENDMDL
MODEL 2
REMARK VINA RESULT: -7.162151276      0.977      1.410
REMARK  14 active torsions:
REMARK  status: ('A' for Active; 'I' for Inactive)
REMARK    1  A    between atoms: C2_2  and  O1_3 
REMARK    2  A    between atoms: C2_2  and  N1_5 
REMARK    3  A    between atoms: N2_9  and  C6_10 
REMARK    4  A    between atoms: C6_10  and  C7_11 
REMARK    5  A    between atoms: C7_11  and  C8_12 
REMARK    6  A    between atoms: C8_12  and  C9_13 
REMARK    7  A    between atoms: C9_13  and  C10_14 
REMARK    8  A    between atoms: C10_14  and  C11_15 
REMARK    9  A    between atoms: C11_15  and  C12_16 
REMARK   10  A    between atoms: C12_16  and  C13_17 
REMARK   11  A    between atoms: C13_17  and  N3_18 
REMARK       I    between atoms: N3_18  and  C14_20 
REMARK   12  A    between atoms: C14_20  and  C15_22 
REMARK   13  A    between atoms: C15_22  and  C16_24 
REMARK   14  A    between atoms: C22_32  and  O6_33 
ROOT
HETATM    1  N3  UNL     1       6.801   7.625  23.726  1.00  0.00    -0.354 N 
ATOM      2  H3  UNL     1       6.632   7.407  22.744  1.00  0.00     0.162 HD
HETATM    3  C14 UNL     1       7.952   8.372  24.072  1.00  0.00     0.290 C 
HETATM    4  O2  UNL     1       8.168   8.636  25.272  1.00  0.00    -0.264 OA
ENDROOT
BRANCH   1   5
HETATM    5  C13 UNL     1       5.869   7.166  24.702  1.00  0.00     0.123 C 
BRANCH   5   6
HETATM    6  C12 UNL     1       4.752   8.151  24.912  1.00  0.00     0.020 C 
BRANCH   6   7
HETATM    7  C11 UNL     1       3.458   7.391  25.060  1.00  0.00     0.002 C 
BRANCH   7   8
HETATM    8  C10 UNL     1       3.223   6.555  23.825  1.00  0.00     0.000 C 
BRANCH   8   9
HETATM    9  C9  UNL     1       2.845   7.531  22.708  1.00  0.00     0.000 C 
BRANCH   9  10
HETATM   10  C8  UNL     1       3.419   7.068  21.399  1.00  0.00     0.002 C 
BRANCH  10  11
HETATM   11  C7  UNL     1       4.277   5.839  21.534  1.00  0.00     0.030 C 
BRANCH  11  12
HETATM   12  C6  UNL     1       5.138   5.646  20.283  1.00  0.00     0.273 C 
BRANCH  12  13
HETATM   13  N2  UNL     1       4.975   4.267  19.864  1.00  0.00     0.093 N 
HETATM   14  C5  UNL     1       5.378   4.091  18.491  1.00  0.00     0.278 C 
HETATM   15  C4  UNL     1       6.778   4.523  18.230  1.00  0.00     0.075 C 
HETATM   16  C3  UNL     1       7.775   3.747  19.063  1.00  0.00     0.067 C 
HETATM   17  N1  UNL     1       7.405   2.412  19.325  1.00  0.00    -0.346 N 
HETATM   18  C26 UNL     1       6.244   2.150  20.076  1.00  0.00     0.095 C 
HETATM   19  C25 UNL     1       5.650   3.352  20.758  1.00  0.00     0.317 C 
BRANCH  17  20
HETATM   20  C2  UNL     1       7.945   1.388  18.519  1.00  0.00     0.219 C 
HETATM   21  C1  UNL     1       9.286   1.718  17.885  1.00  0.00     0.063 C 
BRANCH  20  22
HETATM   22  O1  UNL     1       7.100   0.949  17.510  1.00  0.00    -0.377 OA
ATOM     23  H1  UNL     1       6.459   0.370  17.904  1.00  0.00     0.212 HD
ENDBRANCH  20  22
ENDBRANCH  17  20
ENDBRANCH  12  13
ENDBRANCH  11  12
ENDBRANCH  10  11
ENDBRANCH   9  10
ENDBRANCH   8   9
ENDBRANCH   7   8
ENDBRANCH   6   7
ENDBRANCH   5   6
ENDBRANCH   1   5
BRANCH   3  24
HETATM   24  C15 UNL     1       8.903   8.849  23.075  1.00  0.00     0.254 C 
HETATM   25  O3  UNL     1      10.069   9.133  23.456  1.00  0.00    -0.283 OA
BRANCH  24  26
HETATM   26  C16 UNL     1       8.569   9.015  21.640  1.00  0.00     0.262 C 
HETATM   27  O4  UNL     1       7.979   7.879  21.196  1.00  0.00    -0.367 OA
HETATM   28  C17 UNL     1       8.017   7.604  19.875  1.00  0.00     0.172 C 
HETATM   29  C18 UNL     1       8.263   8.713  18.923  1.00  0.00     0.058 C 
HETATM   30  C19 UNL     1       7.180   9.696  18.714  1.00  0.00     0.130 C 
HETATM   31  O5  UNL     1       7.555  11.029  19.011  1.00  0.00    -0.385 OA
HETATM   32  C23 UNL     1       5.878   9.428  19.409  1.00  0.00     0.053 C 
HETATM   33  C20 UNL     1       6.735  11.877  18.310  1.00  0.00     0.170 C 
HETATM   34  C21 UNL     1       5.264  11.708  18.580  1.00  0.00     0.058 C 
HETATM   35  C22 UNL     1       4.832  10.266  18.654  1.00  0.00     0.127 C 
HETATM   36  C24 UNL     1       5.835   9.815  20.837  1.00  0.00     0.086 C 
HETATM   37  S1  UNL     1       7.388  10.390  21.523  1.00  0.00    -0.129 SA
BRANCH  35  38
HETATM   38  O6  UNL     1       3.639  10.166  19.338  1.00  0.00    -0.395 OA
ATOM     39  H6  UNL     1       3.804   9.938  20.246  1.00  0.00     0.210 HD
ENDBRANCH  35  38
ENDBRANCH  24  26
ENDBRANCH   3  24
TORSDOF 14
ENDMDL
MODEL 3
REMARK VINA RESULT: -7.027782228      2.227      3.696
REMARK  14 active torsions:
REMARK  status: ('A' for Active; 'I' for Inactive)
REMARK    1  A    between atoms: C2_2  and  O1_3 
REMARK    2  A    between atoms: C2_2  and  N1_5 
REMARK    3  A    between atoms: N2_9  and  C6_10 
REMARK    4  A    between atoms: C6_10  and  C7_11 
REMARK    5  A    between atoms: C7_11  and  C8_12 
REMARK    6  A    between atoms: C8_12  and  C9_13 
REMARK    7  A    between atoms: C9_13  and  C10_14 
REMARK    8  A    between atoms: C10_14  and  C11_15 
REMARK    9  A    between atoms: C11_15  and  C12_16 
REMARK   10  A    between atoms: C12_16  and  C13_17 
REMARK   11  A    between atoms: C13_17  and  N3_18 
REMARK       I    between atoms: N3_18  and  C14_20 
REMARK   12  A    between atoms: C14_20  and  C15_22 
REMARK   13  A    between atoms: C15_22  and  C16_24 
REMARK   14  A    between atoms: C22_32  and  O6_33 
ROOT
HETATM    1  N3  UNL     1       4.283   5.649  23.453  1.00  0.00    -0.354 N 
ATOM      2  H3  UNL     1       5.270   5.441  23.610  1.00  0.00     0.162 HD
HETATM    3  C14 UNL     1       3.781   6.911  23.850  1.00  0.00     0.290 C 
HETATM    4  O2  UNL     1       2.574   7.170  23.668  1.00  0.00    -0.264 OA
ENDROOT
BRANCH   1   5
HETATM    5  C13 UNL     1       3.460   4.659  22.843  1.00  0.00     0.123 C 
BRANCH   5   6
HETATM    6  C12 UNL     1       2.900   3.698  23.857  1.00  0.00     0.020 C 
BRANCH   6   7
HETATM    7  C11 UNL     1       3.172   2.291  23.392  1.00  0.00     0.002 C 
BRANCH   7   8
HETATM    8  C10 UNL     1       3.625   2.317  21.952  1.00  0.00     0.000 C 
BRANCH   8   9
HETATM    9  C9  UNL     1       4.711   1.246  21.820  1.00  0.00     0.000 C 
BRANCH   9  10
HETATM   10  C8  UNL     1       6.038   1.886  21.531  1.00  0.00     0.002 C 
BRANCH  10  11
HETATM   11  C7  UNL     1       5.926   3.108  20.660  1.00  0.00     0.030 C 
BRANCH  11  12
HETATM   12  C6  UNL     1       7.315   3.653  20.319  1.00  0.00     0.273 C 
BRANCH  12  13
HETATM   13  N2  UNL     1       7.309   3.974  18.904  1.00  0.00     0.093 N 
HETATM   14  C5  UNL     1       8.405   3.330  18.222  1.00  0.00     0.278 C 
HETATM   15  C4  UNL     1       8.413   1.851  18.391  1.00  0.00     0.075 C 
HETATM   16  C3  UNL     1       7.150   1.212  17.856  1.00  0.00     0.067 C 
HETATM   17  N1  UNL     1       6.590   1.867  16.741  1.00  0.00    -0.346 N 
HETATM   18  C26 UNL     1       6.124   3.188  16.876  1.00  0.00     0.095 C 
HETATM   19  C25 UNL     1       6.031   3.682  18.293  1.00  0.00     0.317 C 
BRANCH  17  20
HETATM   20  C2  UNL     1       6.866   1.366  15.451  1.00  0.00     0.219 C 
HETATM   21  C1  UNL     1       6.190   0.045  15.124  1.00  0.00     0.063 C 
BRANCH  20  22
HETATM   22  O1  UNL     1       8.217   1.227  15.168  1.00  0.00    -0.377 OA
ATOM     23  H1  UNL     1       8.440   1.873  14.508  1.00  0.00     0.212 HD
ENDBRANCH  20  22
ENDBRANCH  17  20
ENDBRANCH  12  13
ENDBRANCH  11  12
ENDBRANCH  10  11
ENDBRANCH   9  10
ENDBRANCH   8   9
ENDBRANCH   7   8
ENDBRANCH   6   7
ENDBRANCH   5   6
ENDBRANCH   1   5
BRANCH   3  24
HETATM   24  C15 UNL     1       4.622   7.928  24.468  1.00  0.00     0.254 C 
HETATM   25  O3  UNL     1       4.286   8.369  25.599  1.00  0.00    -0.283 OA
BRANCH  24  26
HETATM   26  C16 UNL     1       5.851   8.468  23.837  1.00  0.00     0.262 C 
HETATM   27  O4  UNL     1       6.831   7.537  23.927  1.00  0.00    -0.367 OA
HETATM   28  C17 UNL     1       8.117   7.945  23.866  1.00  0.00     0.172 C 
HETATM   29  C18 UNL     1       8.419   9.260  23.253  1.00  0.00     0.058 C 
HETATM   30  C19 UNL     1       8.282   9.387  21.787  1.00  0.00     0.130 C 
HETATM   31  O5  UNL     1       7.366  10.390  21.385  1.00  0.00    -0.385 OA
HETATM   32  C23 UNL     1       7.945   8.137  21.028  1.00  0.00     0.053 C 
HETATM   33  C20 UNL     1       7.693  10.792  20.114  1.00  0.00     0.170 C 
HETATM   34  C21 UNL     1       7.706   9.695  19.084  1.00  0.00     0.058 C 
HETATM   35  C22 UNL     1       8.351   8.424  19.571  1.00  0.00     0.127 C 
HETATM   36  C24 UNL     1       6.514   7.758  21.042  1.00  0.00     0.086 C 
HETATM   37  S1  UNL     1       5.464   8.766  22.087  1.00  0.00    -0.129 SA
BRANCH  35  38
HETATM   38  O6  UNL     1       7.934   7.358  18.802  1.00  0.00    -0.395 OA
ATOM     39  H6  UNL     1       8.190   7.491  17.897  1.00  0.00     0.210 HD
ENDBRANCH  35  38
ENDBRANCH  24  26
ENDBRANCH   3  24
TORSDOF 14
ENDMDL
MODEL 4
REMARK VINA RESULT: -6.964510846      1.690      2.935
REMARK  14 active torsions:
REMARK  status: ('A' for Active; 'I' for Inactive)
REMARK    1  A    between atoms: C2_2  and  O1_3 
REMARK    2  A    between atoms: C2_2  and  N1_5 
REMARK    3  A    between atoms: N2_9  and  C6_10 
REMARK    4  A    between atoms: C6_10  and  C7_11 
REMARK    5  A    between atoms: C7_11  and  C8_12 
REMARK    6  A    between atoms: C8_12  and  C9_13 
REMARK    7  A    between atoms: C9_13  and  C10_14 
REMARK    8  A    between atoms: C10_14  and  C11_15 
REMARK    9  A    between atoms: C11_15  and  C12_16 
REMARK   10  A    between atoms: C12_16  and  C13_17 
REMARK   11  A    between atoms: C13_17  and  N3_18 
REMARK       I    between atoms: N3_18  and  C14_20 
REMARK   12  A    between atoms: C14_20  and  C15_22 
REMARK   13  A    between atoms: C15_22  and  C16_24 
REMARK   14  A    between atoms: C22_32  and  O6_33 
ROOT
HETATM    1  N3  UNL     1       7.714   8.208  22.715  1.00  0.00    -0.354 N 
ATOM      2  H3  UNL     1       7.165   7.693  22.026  1.00  0.00     0.162 HD
HETATM    3  C14 UNL     1       8.374   9.394  22.314  1.00  0.00     0.290 C 
HETATM    4  O2  UNL     1       9.053  10.025  23.150  1.00  0.00    -0.264 OA
ENDROOT
BRANCH   1   5
HETATM    5  C13 UNL     1       7.790   7.707  24.047  1.00  0.00     0.123 C 
BRANCH   5   6
HETATM    6  C12 UNL     1       6.679   8.245  24.909  1.00  0.00     0.020 C 
BRANCH   6   7
HETATM    7  C11 UNL     1       5.448   7.402  24.692  1.00  0.00     0.002 C 
BRANCH   7   8
HETATM    8  C10 UNL     1       4.364   8.247  24.070  1.00  0.00     0.000 C 
BRANCH   8   9
HETATM    9  C9  UNL     1       3.645   7.352  23.057  1.00  0.00     0.000 C 
BRANCH   9  10
HETATM   10  C8  UNL     1       4.305   7.457  21.712  1.00  0.00     0.002 C 
BRANCH  10  11
HETATM   11  C7  UNL     1       4.981   6.181  21.287  1.00  0.00     0.030 C 
BRANCH  11  12
HETATM   12  C6  UNL     1       5.774   6.399  19.996  1.00  0.00     0.273 C 
BRANCH  12  13
HETATM   13  N2  UNL     1       5.354   5.373  19.061  1.00  0.00     0.093 N 
HETATM   14  C5  UNL     1       6.331   5.191  18.016  1.00  0.00     0.278 C 
HETATM   15  C4  UNL     1       7.688   4.861  18.533  1.00  0.00     0.075 C 
HETATM   16  C3  UNL     1       7.691   3.580  19.339  1.00  0.00     0.067 C 
HETATM   17  N1  UNL     1       6.764   2.612  18.903  1.00  0.00    -0.346 N 
HETATM   18  C26 UNL     1       5.387   2.898  18.956  1.00  0.00     0.095 C 
HETATM   19  C25 UNL     1       5.030   4.134  19.734  1.00  0.00     0.317 C 
BRANCH  17  20
HETATM   20  C2  UNL     1       7.216   1.570  18.066  1.00  0.00     0.219 C 
HETATM   21  C1  UNL     1       8.675   1.188  18.257  1.00  0.00     0.063 C 
BRANCH  20  22
HETATM   22  O1  UNL     1       7.014   1.795  16.712  1.00  0.00    -0.377 OA
ATOM     23  H1  UNL     1       6.991   2.735  16.577  1.00  0.00     0.212 HD
ENDBRANCH  20  22
ENDBRANCH  17  20
ENDBRANCH  12  13
ENDBRANCH  11  12
ENDBRANCH  10  11
ENDBRANCH   9  10
ENDBRANCH   8   9
ENDBRANCH   7   8
ENDBRANCH   6   7
ENDBRANCH   5   6
ENDBRANCH   1   5
BRANCH   3  24
HETATM   24  C15 UNL     1       8.292   9.912  20.955  1.00  0.00     0.254 C 
HETATM   25  O3  UNL     1       8.972   9.343  20.061  1.00  0.00    -0.283 OA
BRANCH  24  26
HETATM   26  C16 UNL     1       7.450  11.072  20.570  1.00  0.00     0.262 C 
HETATM   27  O4  UNL     1       8.210  11.945  19.864  1.00  0.00    -0.367 OA
HETATM   28  C17 UNL     1       7.830  13.240  19.817  1.00  0.00     0.172 C 
HETATM   29  C18 UNL     1       6.418  13.579  20.111  1.00  0.00     0.058 C 
HETATM   30  C19 UNL     1       5.396  13.216  19.108  1.00  0.00     0.130 C 
HETATM   31  O5  UNL     1       4.383  12.362  19.609  1.00  0.00    -0.385 OA
HETATM   32  C23 UNL     1       5.891  12.623  17.822  1.00  0.00     0.053 C 
HETATM   33  C20 UNL     1       3.262  12.517  18.832  1.00  0.00     0.170 C 
HETATM   34  C21 UNL     1       3.460  12.238  17.366  1.00  0.00     0.058 C 
HETATM   35  C22 UNL     1       4.741  12.811  16.817  1.00  0.00     0.127 C 
HETATM   36  C24 UNL     1       6.222  11.181  17.879  1.00  0.00     0.086 C 
HETATM   37  S1  UNL     1       6.122  10.436  19.506  1.00  0.00    -0.129 SA
BRANCH  35  38
HETATM   38  O6  UNL     1       5.089  12.158  15.654  1.00  0.00    -0.395 OA
ATOM     39  H6  UNL     1       6.011  12.295  15.467  1.00  0.00     0.210 HD
ENDBRANCH  35  38
ENDBRANCH  24  26
ENDBRANCH   3  24
TORSDOF 14
ENDMDL
MODEL 5
REMARK VINA RESULT: -6.936132909      1.551      2.536
REMARK  14 active torsions:
REMARK  status: ('A' for Active; 'I' for Inactive)
REMARK    1  A    between atoms: C2_2  and  O1_3 
REMARK    2  A    between atoms: C2_2  and  N1_5 
REMARK    3  A    between atoms: N2_9  and  C6_10 
REMARK    4  A    between atoms: C6_10  and  C7_11 
REMARK    5  A    between atoms: C7_11  and  C8_12 
REMARK    6  A    between atoms: C8_12  and  C9_13 
REMARK    7  A    between atoms: C9_13  and  C10_14 
REMARK    8  A    between atoms: C10_14  and  C11_15 
REMARK    9  A    between atoms: C11_15  and  C12_16 
REMARK   10  A    between atoms: C12_16  and  C13_17 
REMARK   11  A    between atoms: C13_17  and  N3_18 
REMARK       I    between atoms: N3_18  and  C14_20 
REMARK   12  A    between atoms: C14_20  and  C15_22 
REMARK   13  A    between atoms: C15_22  and  C16_24 
REMARK   14  A    between atoms: C22_32  and  O6_33 
ROOT
HETATM    1  N3  UNL     1       6.265   8.938  23.262  1.00  0.00    -0.354 N 
ATOM      2  H3  UNL     1       5.607   8.935  22.482  1.00  0.00     0.162 HD
HETATM    3  C14 UNL     1       7.605   9.328  23.023  1.00  0.00     0.290 C 
HETATM    4  O2  UNL     1       8.416   9.327  23.971  1.00  0.00    -0.264 OA
ENDROOT
BRANCH   1   5
HETATM    5  C13 UNL     1       5.803   8.549  24.553  1.00  0.00     0.123 C 
BRANCH   5   6
HETATM    6  C12 UNL     1       4.313   8.716  24.684  1.00  0.00     0.020 C 
BRANCH   6   7
HETATM    7  C11 UNL     1       3.716   7.403  25.123  1.00  0.00     0.002 C 
BRANCH   7   8
HETATM    8  C10 UNL     1       3.784   6.415  23.984  1.00  0.00     0.000 C 
BRANCH   8   9
HETATM    9  C9  UNL     1       2.950   7.009  22.846  1.00  0.00     0.000 C 
BRANCH   9  10
HETATM   10  C8  UNL     1       3.576   6.683  21.520  1.00  0.00     0.002 C 
BRANCH  10  11
HETATM   11  C7  UNL     1       4.915   6.010  21.650  1.00  0.00     0.030 C 
BRANCH  11  12
HETATM   12  C6  UNL     1       5.526   5.759  20.269  1.00  0.00     0.273 C 
BRANCH  12  13
HETATM   13  N2  UNL     1       5.249   4.378  19.927  1.00  0.00     0.093 N 
HETATM   14  C5  UNL     1       5.515   4.126  18.532  1.00  0.00     0.278 C 
HETATM   15  C4  UNL     1       6.907   4.464  18.129  1.00  0.00     0.075 C 
HETATM   16  C3  UNL     1       7.931   3.662  18.903  1.00  0.00     0.067 C 
HETATM   17  N1  UNL     1       7.514   2.363  19.255  1.00  0.00    -0.346 N 
HETATM   18  C26 UNL     1       6.413   2.199  20.117  1.00  0.00     0.095 C 
HETATM   19  C25 UNL     1       5.952   3.459  20.796  1.00  0.00     0.317 C 
BRANCH  17  20
HETATM   20  C2  UNL     1       7.920   1.279  18.449  1.00  0.00     0.219 C 
HETATM   21  C1  UNL     1       9.329   1.394  17.892  1.00  0.00     0.063 C 
BRANCH  20  22
HETATM   22  O1  UNL     1       7.070   1.004  17.387  1.00  0.00    -0.377 OA
ATOM     23  H1  UNL     1       6.275   1.508  17.518  1.00  0.00     0.212 HD
ENDBRANCH  20  22
ENDBRANCH  17  20
ENDBRANCH  12  13
ENDBRANCH  11  12
ENDBRANCH  10  11
ENDBRANCH   9  10
ENDBRANCH   8   9
ENDBRANCH   7   8
ENDBRANCH   6   7
ENDBRANCH   5   6
ENDBRANCH   1   5
BRANCH   3  24
HETATM   24  C15 UNL     1       8.078   9.733  21.706  1.00  0.00     0.254 C 
HETATM   25  O3  UNL     1       9.201   9.310  21.323  1.00  0.00    -0.283 OA
BRANCH  24  26
HETATM   26  C16 UNL     1       7.308  10.614  20.795  1.00  0.00     0.262 C 
HETATM   27  O4  UNL     1       8.169  11.458  20.176  1.00  0.00    -0.367 OA
HETATM   28  C17 UNL     1       7.692  12.624  19.688  1.00  0.00     0.172 C 
HETATM   29  C18 UNL     1       6.239  12.741  19.418  1.00  0.00     0.058 C 
HETATM   30  C19 UNL     1       5.689  12.002  18.263  1.00  0.00     0.130 C 
HETATM   31  O5  UNL     1       4.664  11.088  18.608  1.00  0.00    -0.385 OA
HETATM   32  C23 UNL     1       6.672  11.272  17.396  1.00  0.00     0.053 C 
HETATM   33  C20 UNL     1       3.884  10.872  17.499  1.00  0.00     0.170 C 
HETATM   34  C21 UNL     1       4.620  10.353  16.294  1.00  0.00     0.058 C 
HETATM   35  C22 UNL     1       5.942  11.038  16.061  1.00  0.00     0.127 C 
HETATM   36  C24 UNL     1       7.115   9.958  17.915  1.00  0.00     0.086 C 
HETATM   37  S1  UNL     1       6.524   9.543  19.555  1.00  0.00    -0.129 SA
BRANCH  35  38
HETATM   38  O6  UNL     1       6.751  10.247  15.274  1.00  0.00    -0.395 OA
ATOM     39  H6  UNL     1       7.271  10.790  14.692  1.00  0.00     0.210 HD
ENDBRANCH  35  38
ENDBRANCH  24  26
ENDBRANCH   3  24
TORSDOF 14
ENDMDL
