MODEL 1
REMARK VINA RESULT: -6.897739779      0.000      0.000
REMARK  4 active torsions:
REMARK  status: ('A' for Active; 'I' for Inactive)
REMARK    1  A    between atoms: N2_5  and  C4_6 
REMARK    2  A    between atoms: C4_6  and  C5_7 
REMARK    3  A    between atoms: C5_7  and  N3_8 
REMARK    4  A    between atoms: C7_13  and  N4_14 
REMARK       I    between atoms: N5_19  and  C9_20 
ROOT
HETATM    1  C5  UNL     1      57.164  17.135  43.179  1.00  0.00     0.215 C 
HETATM    2  C6  UNL     1      56.187  16.718  44.216  1.00  0.00     0.097 C 
HETATM    3  C7  UNL     1      56.971  16.583  45.537  1.00  0.00     0.205 C 
HETATM    4  C8  UNL     1      58.391  16.787  45.057  1.00  0.00     0.161 C 
HETATM    5  N5  UNL     1      58.178  17.805  44.028  1.00  0.00    -0.320 N 
HETATM    6  C9  UNL     1      58.806  19.040  43.973  1.00  0.00     0.186 C 
HETATM    7  N6  UNL     1      58.505  20.029  44.785  1.00  0.00    -0.374 N 
ATOM      8  H61 UNL     1      58.967  20.937  44.745  1.00  0.00     0.158 HD
ATOM      9  H62 UNL     1      57.773  19.839  45.469  1.00  0.00     0.158 HD
HETATM   10  N7  UNL     1      59.822  19.304  43.024  1.00  0.00    -0.064 NA
ENDROOT
BRANCH   1  11
HETATM   11  C4  UNL     1      56.732  17.971  42.057  1.00  0.00     0.175 C 
BRANCH  11  12
HETATM   12  N2  UNL     1      55.673  17.364  41.279  1.00  0.00    -0.211 NA
HETATM   13  C3  UNL     1      56.239  16.941  39.971  1.00  0.00     0.134 C 
HETATM   14  C2  UNL     1      55.153  16.280  39.185  1.00  0.00     0.157 C 
HETATM   15  N1  UNL     1      54.181  17.304  38.773  1.00  0.00    -0.220 N 
HETATM   16  C1  UNL     1      53.335  17.161  37.618  1.00  0.00     0.168 C 
HETATM   17  C10 UNL     1      54.149  18.443  39.619  1.00  0.00     0.684 C 
HETATM   18  N8  UNL     1      54.662  18.268  40.967  1.00  0.00    -0.152 N 
HETATM   19  N9  UNL     1      53.684  19.552  39.224  1.00  0.00    -0.234 N 
ATOM     20  H8  UNL     1      54.265  18.833  41.717  1.00  0.00     0.199 HD
ATOM     21  H92 UNL     1      53.323  19.675  38.277  1.00  0.00     0.174 HD
ATOM     22  H91 UNL     1      53.661  20.370  39.832  1.00  0.00     0.174 HD
ENDBRANCH  11  12
ENDBRANCH   1  11
BRANCH   1  23
HETATM   23  N3  UNL     1      57.896  15.986  42.603  1.00  0.00    -0.051 N 
ATOM     24  H33 UNL     1      58.142  15.279  43.295  1.00  0.00     0.277 HD
ATOM     25  H32 UNL     1      57.312  15.393  42.013  1.00  0.00     0.277 HD
ATOM     26  H31 UNL     1      58.705  16.368  42.113  1.00  0.00     0.277 HD
ENDBRANCH   1  23
BRANCH   3  27
HETATM   27  N4  UNL     1      56.753  15.301  46.161  1.00  0.00    -0.073 N 
ATOM     28  H43 UNL     1      57.021  14.536  45.541  1.00  0.00     0.274 HD
ATOM     29  H42 UNL     1      57.420  15.137  46.914  1.00  0.00     0.274 HD
ATOM     30  H41 UNL     1      55.791  15.197  46.486  1.00  0.00     0.274 HD
ENDBRANCH   3  27
TORSDOF 4
ENDMDL
MODEL 2
REMARK VINA RESULT: -6.399767829      1.285      3.278
REMARK  4 active torsions:
REMARK  status: ('A' for Active; 'I' for Inactive)
REMARK    1  A    between atoms: N2_5  and  C4_6 
REMARK    2  A    between atoms: C4_6  and  C5_7 
REMARK    3  A    between atoms: C5_7  and  N3_8 
REMARK    4  A    between atoms: C7_13  and  N4_14 
REMARK       I    between atoms: N5_19  and  C9_20 
ROOT
HETATM    1  C5  UNL     1      57.012  18.135  43.536  1.00  0.00     0.215 C 
HETATM    2  C6  UNL     1      58.137  18.618  42.696  1.00  0.00     0.097 C 
HETATM    3  C7  UNL     1      59.418  17.963  43.250  1.00  0.00     0.205 C 
HETATM    4  C8  UNL     1      58.886  17.281  44.491  1.00  0.00     0.161 C 
HETATM    5  N5  UNL     1      57.574  16.848  44.012  1.00  0.00    -0.320 N 
HETATM    6  C9  UNL     1      57.096  15.546  44.034  1.00  0.00     0.186 C 
HETATM    7  N6  UNL     1      57.524  14.615  43.211  1.00  0.00    -0.374 N 
ATOM      8  H61 UNL     1      57.173  13.658  43.228  1.00  0.00     0.158 HD
ATOM      9  H62 UNL     1      58.239  14.904  42.542  1.00  0.00     0.158 HD
HETATM   10  N7  UNL     1      56.105  15.145  44.962  1.00  0.00    -0.064 NA
ENDROOT
BRANCH   1  11
HETATM   11  C4  UNL     1      55.676  17.983  42.957  1.00  0.00     0.175 C 
BRANCH  11  12
HETATM   12  N2  UNL     1      55.663  18.158  41.520  1.00  0.00    -0.211 NA
HETATM   13  C3  UNL     1      54.270  18.469  41.102  1.00  0.00     0.134 C 
HETATM   14  C2  UNL     1      54.265  18.688  39.623  1.00  0.00     0.157 C 
HETATM   15  N1  UNL     1      54.496  17.398  38.955  1.00  0.00    -0.220 N 
HETATM   16  C1  UNL     1      54.052  17.118  37.616  1.00  0.00     0.168 C 
HETATM   17  C10 UNL     1      55.201  16.457  39.750  1.00  0.00     0.684 C 
HETATM   18  N8  UNL     1      55.997  16.990  40.842  1.00  0.00    -0.152 N 
HETATM   19  N9  UNL     1      55.150  15.214  39.510  1.00  0.00    -0.234 N 
ATOM     20  H8  UNL     1      56.838  16.487  41.124  1.00  0.00     0.199 HD
ATOM     21  H92 UNL     1      54.591  14.839  38.743  1.00  0.00     0.174 HD
ATOM     22  H91 UNL     1      55.657  14.537  40.080  1.00  0.00     0.174 HD
ENDBRANCH  11  12
ENDBRANCH   1  11
BRANCH   1  23
HETATM   23  N3  UNL     1      56.855  18.926  44.775  1.00  0.00    -0.051 N 
ATOM     24  H33 UNL     1      57.698  19.440  45.033  1.00  0.00     0.277 HD
ATOM     25  H32 UNL     1      56.241  19.733  44.662  1.00  0.00     0.277 HD
ATOM     26  H31 UNL     1      56.541  18.281  45.500  1.00  0.00     0.277 HD
ENDBRANCH   1  23
BRANCH   3  27
HETATM   27  N4  UNL     1      60.443  18.940  43.525  1.00  0.00    -0.073 N 
ATOM     28  H43 UNL     1      61.369  18.585  43.284  1.00  0.00     0.274 HD
ATOM     29  H42 UNL     1      60.398  19.721  42.870  1.00  0.00     0.274 HD
ATOM     30  H41 UNL     1      60.408  19.263  44.492  1.00  0.00     0.274 HD
ENDBRANCH   3  27
TORSDOF 4
ENDMDL
MODEL 3
REMARK VINA RESULT: -5.879521946      1.510      3.081
REMARK  4 active torsions:
REMARK  status: ('A' for Active; 'I' for Inactive)
REMARK    1  A    between atoms: N2_5  and  C4_6 
REMARK    2  A    between atoms: C4_6  and  C5_7 
REMARK    3  A    between atoms: C5_7  and  N3_8 
REMARK    4  A    between atoms: C7_13  and  N4_14 
REMARK       I    between atoms: N5_19  and  C9_20 
ROOT
HETATM    1  C5  UNL     1      58.331  17.512  43.229  1.00  0.00     0.215 C 
HETATM    2  C6  UNL     1      59.774  17.183  43.353  1.00  0.00     0.097 C 
HETATM    3  C7  UNL     1      60.214  17.639  44.758  1.00  0.00     0.205 C 
HETATM    4  C8  UNL     1      58.969  18.352  45.239  1.00  0.00     0.161 C 
HETATM    5  N5  UNL     1      57.934  17.498  44.657  1.00  0.00    -0.320 N 
HETATM    6  C9  UNL     1      56.911  16.878  45.359  1.00  0.00     0.186 C 
HETATM    7  N6  UNL     1      57.108  15.836  46.136  1.00  0.00    -0.374 N 
ATOM      8  H61 UNL     1      56.356  15.381  46.652  1.00  0.00     0.158 HD
ATOM      9  H62 UNL     1      58.069  15.499  46.197  1.00  0.00     0.158 HD
HETATM   10  N7  UNL     1      55.578  17.345  45.275  1.00  0.00    -0.064 NA
ENDROOT
BRANCH   1  11
HETATM   11  C4  UNL     1      57.457  16.683  42.396  1.00  0.00     0.175 C 
BRANCH  11  12
HETATM   12  N2  UNL     1      56.789  17.438  41.357  1.00  0.00    -0.211 NA
HETATM   13  C3  UNL     1      55.419  17.769  41.832  1.00  0.00     0.134 C 
HETATM   14  C2  UNL     1      54.744  18.582  40.775  1.00  0.00     0.157 C 
HETATM   15  N1  UNL     1      54.459  17.712  39.623  1.00  0.00    -0.220 N 
HETATM   16  C1  UNL     1      53.401  17.976  38.684  1.00  0.00     0.168 C 
HETATM   17  C10 UNL     1      55.325  16.593  39.518  1.00  0.00     0.684 C 
HETATM   18  N8  UNL     1      56.605  16.692  40.197  1.00  0.00    -0.152 N 
HETATM   19  N9  UNL     1      55.003  15.563  38.854  1.00  0.00    -0.234 N 
ATOM     20  H8  UNL     1      57.405  16.194  39.807  1.00  0.00     0.199 HD
ATOM     21  H92 UNL     1      54.104  15.493  38.377  1.00  0.00     0.174 HD
ATOM     22  H91 UNL     1      55.625  14.759  38.779  1.00  0.00     0.174 HD
ENDBRANCH  11  12
ENDBRANCH   1  11
BRANCH   1  23
HETATM   23  N3  UNL     1      58.108  18.916  42.820  1.00  0.00    -0.051 N 
ATOM     24  H33 UNL     1      57.200  19.279  43.110  1.00  0.00     0.277 HD
ATOM     25  H32 UNL     1      58.684  19.581  43.336  1.00  0.00     0.277 HD
ATOM     26  H31 UNL     1      58.253  18.957  41.811  1.00  0.00     0.277 HD
ENDBRANCH   1  23
BRANCH   3  27
HETATM   27  N4  UNL     1      61.379  18.489  44.705  1.00  0.00    -0.073 N 
ATOM     28  H43 UNL     1      62.212  17.961  44.445  1.00  0.00     0.274 HD
ATOM     29  H42 UNL     1      61.338  19.125  43.910  1.00  0.00     0.274 HD
ATOM     30  H41 UNL     1      61.518  18.995  45.580  1.00  0.00     0.274 HD
ENDBRANCH   3  27
TORSDOF 4
ENDMDL
MODEL 4
REMARK VINA RESULT: -5.834006499      1.417      2.060
REMARK  4 active torsions:
REMARK  status: ('A' for Active; 'I' for Inactive)
REMARK    1  A    between atoms: N2_5  and  C4_6 
REMARK    2  A    between atoms: C4_6  and  C5_7 
REMARK    3  A    between atoms: C5_7  and  N3_8 
REMARK    4  A    between atoms: C7_13  and  N4_14 
REMARK       I    between atoms: N5_19  and  C9_20 
ROOT
HETATM    1  C5  UNL     1      56.614  17.054  42.553  1.00  0.00     0.215 C 
HETATM    2  C6  UNL     1      55.217  16.646  42.849  1.00  0.00     0.097 C 
HETATM    3  C7  UNL     1      55.264  15.799  44.137  1.00  0.00     0.205 C 
HETATM    4  C8  UNL     1      56.757  15.677  44.352  1.00  0.00     0.161 C 
HETATM    5  N5  UNL     1      57.197  17.001  43.915  1.00  0.00    -0.320 N 
HETATM    6  C9  UNL     1      57.945  17.893  44.670  1.00  0.00     0.186 C 
HETATM    7  N6  UNL     1      57.443  18.569  45.679  1.00  0.00    -0.374 N 
ATOM      8  H61 UNL     1      57.993  19.224  46.234  1.00  0.00     0.158 HD
ATOM      9  H62 UNL     1      56.456  18.403  45.882  1.00  0.00     0.158 HD
HETATM   10  N7  UNL     1      59.312  18.123  44.388  1.00  0.00    -0.064 NA
ENDROOT
BRANCH   1  11
HETATM   11  C4  UNL     1      56.880  18.326  41.878  1.00  0.00     0.175 C 
BRANCH  11  12
HETATM   12  N2  UNL     1      56.219  18.430  40.594  1.00  0.00    -0.211 NA
HETATM   13  C3  UNL     1      54.765  18.626  40.836  1.00  0.00     0.134 C 
HETATM   14  C2  UNL     1      54.088  18.772  39.511  1.00  0.00     0.157 C 
HETATM   15  N1  UNL     1      54.105  17.470  38.827  1.00  0.00    -0.220 N 
HETATM   16  C1  UNL     1      53.138  17.095  37.830  1.00  0.00     0.168 C 
HETATM   17  C10 UNL     1      55.163  16.617  39.238  1.00  0.00     0.684 C 
HETATM   18  N8  UNL     1      56.313  17.255  39.854  1.00  0.00    -0.152 N 
HETATM   19  N9  UNL     1      55.113  15.364  39.063  1.00  0.00    -0.234 N 
ATOM     20  H8  UNL     1      57.230  16.824  39.740  1.00  0.00     0.199 HD
ATOM     21  H92 UNL     1      54.305  14.916  38.630  1.00  0.00     0.174 HD
ATOM     22  H91 UNL     1      55.873  14.751  39.358  1.00  0.00     0.174 HD
ENDBRANCH  11  12
ENDBRANCH   1  11
BRANCH   1  23
HETATM   23  N3  UNL     1      57.360  16.011  41.815  1.00  0.00    -0.051 N 
ATOM     24  H33 UNL     1      56.972  15.818  40.892  1.00  0.00     0.277 HD
ATOM     25  H32 UNL     1      58.282  16.320  41.506  1.00  0.00     0.277 HD
ATOM     26  H31 UNL     1      57.392  15.189  42.418  1.00  0.00     0.277 HD
ENDBRANCH   1  23
BRANCH   3  27
HETATM   27  N4  UNL     1      54.601  14.530  43.968  1.00  0.00    -0.073 N 
ATOM     28  H43 UNL     1      53.657  14.549  44.355  1.00  0.00     0.274 HD
ATOM     29  H42 UNL     1      54.368  14.360  42.990  1.00  0.00     0.274 HD
ATOM     30  H41 UNL     1      55.148  13.762  44.359  1.00  0.00     0.274 HD
ENDBRANCH   3  27
TORSDOF 4
ENDMDL
MODEL 5
REMARK VINA RESULT: -5.745984008      1.675      5.984
REMARK  4 active torsions:
REMARK  status: ('A' for Active; 'I' for Inactive)
REMARK    1  A    between atoms: N2_5  and  C4_6 
REMARK    2  A    between atoms: C4_6  and  C5_7 
REMARK    3  A    between atoms: C5_7  and  N3_8 
REMARK    4  A    between atoms: C7_13  and  N4_14 
REMARK       I    between atoms: N5_19  and  C9_20 
ROOT
HETATM    1  C5  UNL     1      55.694  17.762  40.997  1.00  0.00     0.215 C 
HETATM    2  C6  UNL     1      54.402  17.931  40.286  1.00  0.00     0.097 C 
HETATM    3  C7  UNL     1      54.285  16.759  39.291  1.00  0.00     0.205 C 
HETATM    4  C8  UNL     1      55.648  16.117  39.434  1.00  0.00     0.161 C 
HETATM    5  N5  UNL     1      55.876  16.296  40.867  1.00  0.00    -0.320 N 
HETATM    6  C9  UNL     1      56.163  15.285  41.771  1.00  0.00     0.186 C 
HETATM    7  N6  UNL     1      55.262  14.423  42.187  1.00  0.00    -0.374 N 
ATOM      8  H61 UNL     1      55.474  13.679  42.851  1.00  0.00     0.158 HD
ATOM      9  H62 UNL     1      54.323  14.538  41.804  1.00  0.00     0.158 HD
HETATM   10  N7  UNL     1      57.465  15.125  42.302  1.00  0.00    -0.064 NA
ENDROOT
BRANCH   1  11
HETATM   11  C4  UNL     1      55.838  18.224  42.379  1.00  0.00     0.175 C 
BRANCH  11  12
HETATM   12  N2  UNL     1      56.949  17.601  43.067  1.00  0.00    -0.211 NA
HETATM   13  C3  UNL     1      56.960  18.090  44.471  1.00  0.00     0.134 C 
HETATM   14  C2  UNL     1      58.083  17.416  45.190  1.00  0.00     0.157 C 
HETATM   15  N1  UNL     1      59.356  17.947  44.679  1.00  0.00    -0.220 N 
HETATM   16  C1  UNL     1      60.572  17.944  45.448  1.00  0.00     0.168 C 
HETATM   17  C10 UNL     1      59.277  18.458  43.357  1.00  0.00     0.684 C 
HETATM   18  N8  UNL     1      58.178  17.979  42.537  1.00  0.00    -0.152 N 
HETATM   19  N9  UNL     1      60.131  19.280  42.910  1.00  0.00    -0.234 N 
ATOM     20  H8  UNL     1      58.314  17.916  41.528  1.00  0.00     0.199 HD
ATOM     21  H92 UNL     1      60.902  19.617  43.486  1.00  0.00     0.174 HD
ATOM     22  H91 UNL     1      60.074  19.647  41.961  1.00  0.00     0.174 HD
ENDBRANCH  11  12
ENDBRANCH   1  11
BRANCH   1  23
HETATM   23  N3  UNL     1      56.832  18.322  40.236  1.00  0.00    -0.051 N 
ATOM     24  H33 UNL     1      57.414  18.950  40.789  1.00  0.00     0.277 HD
ATOM     25  H32 UNL     1      57.552  17.632  40.023  1.00  0.00     0.277 HD
ATOM     26  H31 UNL     1      56.442  18.766  39.404  1.00  0.00     0.277 HD
ENDBRANCH   1  23
BRANCH   3  27
HETATM   27  N4  UNL     1      54.002  17.218  37.954  1.00  0.00    -0.073 N 
ATOM     28  H43 UNL     1      54.839  17.202  37.371  1.00  0.00     0.274 HD
ATOM     29  H42 UNL     1      53.438  16.540  37.440  1.00  0.00     0.274 HD
ATOM     30  H41 UNL     1      53.566  18.140  37.954  1.00  0.00     0.274 HD
ENDBRANCH   3  27
TORSDOF 4
ENDMDL
