MODEL 1
REMARK VINA RESULT: -7.249969054      0.000      0.000
REMARK  7 active torsions:
REMARK  status: ('A' for Active; 'I' for Inactive)
REMARK    1  A    between atoms: C10_11  and  C11_12 
REMARK    2  A    between atoms: C11_12  and  O1_13 
REMARK    3  A    between atoms: C17_21  and  C18_22 
REMARK    4  A    between atoms: C18_22  and  C19_23 
REMARK       I    between atoms: C19_23  and  N2_25 
REMARK    5  A    between atoms: N2_25  and  C20_27 
REMARK    6  A    between atoms: C20_27  and  C21_28 
REMARK    7  A    between atoms: C21_28  and  C22_29 
ROOT
HETATM    1  C1  UNL     1      15.336 -19.262  24.181  1.00  0.00     0.012 C 
HETATM    2  C2  UNL     1      16.544 -18.506  23.713  1.00  0.00     0.018 C 
HETATM    3  C3  UNL     1      17.193 -17.916  24.937  1.00  0.00     0.278 C 
HETATM    4  N1  UNL     1      18.559 -18.407  24.938  1.00  0.00     0.099 N 
HETATM    5  C4  UNL     1      18.964 -18.508  26.331  1.00  0.00     0.277 C 
HETATM    6  C5  UNL     1      18.862 -17.031  26.714  1.00  0.00     0.066 C 
HETATM    7  C6  UNL     1      19.385 -16.364  25.458  1.00  0.00    -0.048 C 
HETATM    8  C7  UNL     1      19.615 -15.081  25.479  1.00  0.00    -0.022 C 
HETATM    9  C8  UNL     1      20.106 -14.074  24.521  1.00  0.00     0.028 C 
HETATM   10  C9  UNL     1      19.633 -14.212  23.124  1.00  0.00     0.011 C 
HETATM   11  C10 UNL     1      18.292 -14.924  22.961  1.00  0.00     0.015 C 
HETATM   12  C12 UNL     1      18.518 -16.276  22.399  1.00  0.00     0.013 C 
HETATM   13  C13 UNL     1      17.383 -17.040  21.864  1.00  0.00     0.009 C 
HETATM   14  C14 UNL     1      17.974 -18.211  21.098  1.00  0.00     0.080 C 
HETATM   15  S1  UNL     1      19.499 -18.607  22.050  1.00  0.00    -0.161 SA
HETATM   16  C15 UNL     1      19.534 -17.106  23.074  1.00  0.00     0.089 C 
HETATM   17  C16 UNL     1      19.502 -17.441  24.473  1.00  0.00     0.265 C 
HETATM   18  C17 UNL     1      16.218 -17.407  22.696  1.00  0.00     0.024 C 
ENDROOT
BRANCH  18  19
HETATM   19  C18 UNL     1      15.059 -17.951  21.941  1.00  0.00     0.052 C 
BRANCH  19  20
HETATM   20  C19 UNL     1      13.901 -17.158  21.618  1.00  0.00     0.237 C 
HETATM   21  O2  UNL     1      12.778 -17.631  21.352  1.00  0.00    -0.269 OA
HETATM   22  N2  UNL     1      13.967 -15.716  21.579  1.00  0.00    -0.357 N 
ATOM     23  H2  UNL     1      14.848 -15.244  21.784  1.00  0.00     0.162 HD
BRANCH  22  24
HETATM   24  C20 UNL     1      12.817 -14.951  21.258  1.00  0.00     0.133 C 
BRANCH  24  25
HETATM   25  C21 UNL     1      13.043 -13.970  20.148  1.00  0.00     0.133 C 
BRANCH  25  26
HETATM   26  C22 UNL     1      13.346 -12.606  20.667  1.00  0.00     0.174 C 
HETATM   27  O3  UNL     1      13.179 -11.560  19.989  1.00  0.00    -0.648 OA
HETATM   28  O4  UNL     1      13.836 -12.486  21.961  1.00  0.00    -0.648 OA
ENDBRANCH  25  26
ENDBRANCH  24  25
ENDBRANCH  22  24
ENDBRANCH  19  20
ENDBRANCH  18  19
BRANCH  11  29
HETATM   29  C11 UNL     1      17.605 -14.070  21.883  1.00  0.00     0.169 C 
BRANCH  29  30
HETATM   30  O1  UNL     1      16.297 -13.825  22.317  1.00  0.00    -0.400 OA
ATOM     31  H1  UNL     1      15.728 -13.911  21.561  1.00  0.00     0.209 HD
ENDBRANCH  29  30
ENDBRANCH  11  29
TORSDOF 7
ENDMDL
MODEL 2
REMARK VINA RESULT: -7.244853663      1.884      2.048
REMARK  7 active torsions:
REMARK  status: ('A' for Active; 'I' for Inactive)
REMARK    1  A    between atoms: C10_11  and  C11_12 
REMARK    2  A    between atoms: C11_12  and  O1_13 
REMARK    3  A    between atoms: C17_21  and  C18_22 
REMARK    4  A    between atoms: C18_22  and  C19_23 
REMARK       I    between atoms: C19_23  and  N2_25 
REMARK    5  A    between atoms: N2_25  and  C20_27 
REMARK    6  A    between atoms: C20_27  and  C21_28 
REMARK    7  A    between atoms: C21_28  and  C22_29 
ROOT
HETATM    1  C1  UNL     1      15.859 -18.467  23.422  1.00  0.00     0.012 C 
HETATM    2  C2  UNL     1      17.266 -17.946  23.412  1.00  0.00     0.018 C 
HETATM    3  C3  UNL     1      17.536 -17.388  24.785  1.00  0.00     0.278 C 
HETATM    4  N1  UNL     1      18.708 -18.090  25.275  1.00  0.00     0.099 N 
HETATM    5  C4  UNL     1      18.575 -18.163  26.721  1.00  0.00     0.277 C 
HETATM    6  C5  UNL     1      18.602 -16.667  27.036  1.00  0.00     0.066 C 
HETATM    7  C6  UNL     1      19.638 -16.176  26.047  1.00  0.00    -0.048 C 
HETATM    8  C7  UNL     1      20.064 -14.948  26.143  1.00  0.00    -0.022 C 
HETATM    9  C8  UNL     1      21.027 -14.096  25.419  1.00  0.00     0.028 C 
HETATM   10  C9  UNL     1      21.058 -14.248  23.946  1.00  0.00     0.011 C 
HETATM   11  C10 UNL     1      19.757 -14.746  23.318  1.00  0.00     0.015 C 
HETATM   12  C12 UNL     1      19.929 -16.151  22.879  1.00  0.00     0.013 C 
HETATM   13  C13 UNL     1      18.940 -16.757  21.978  1.00  0.00     0.009 C 
HETATM   14  C14 UNL     1      19.550 -18.056  21.478  1.00  0.00     0.080 C 
HETATM   15  S1  UNL     1      20.551 -18.626  22.913  1.00  0.00    -0.161 SA
HETATM   16  C15 UNL     1      20.484 -17.087  23.876  1.00  0.00     0.089 C 
HETATM   17  C16 UNL     1      19.906 -17.319  25.172  1.00  0.00     0.265 C 
HETATM   18  C17 UNL     1      17.512 -16.878  22.341  1.00  0.00     0.024 C 
ENDROOT
BRANCH  18  19
HETATM   19  C18 UNL     1      16.616 -17.278  21.225  1.00  0.00     0.052 C 
BRANCH  19  20
HETATM   20  C19 UNL     1      15.904 -16.320  20.419  1.00  0.00     0.237 C 
HETATM   21  O2  UNL     1      15.219 -16.615  19.419  1.00  0.00    -0.269 OA
HETATM   22  N2  UNL     1      15.937 -14.910  20.727  1.00  0.00    -0.357 N 
ATOM     23  H2  UNL     1      16.472 -14.579  21.529  1.00  0.00     0.162 HD
BRANCH  22  24
HETATM   24  C20 UNL     1      15.230 -13.981  19.922  1.00  0.00     0.133 C 
BRANCH  24  25
HETATM   25  C21 UNL     1      15.503 -12.552  20.278  1.00  0.00     0.133 C 
BRANCH  25  26
HETATM   26  C22 UNL     1      16.524 -11.942  19.380  1.00  0.00     0.174 C 
HETATM   27  O3  UNL     1      16.293 -11.642  18.180  1.00  0.00    -0.648 OA
HETATM   28  O4  UNL     1      17.789 -11.693  19.893  1.00  0.00    -0.648 OA
ENDBRANCH  25  26
ENDBRANCH  24  25
ENDBRANCH  22  24
ENDBRANCH  19  20
ENDBRANCH  18  19
BRANCH  11  29
HETATM   29  C11 UNL     1      19.650 -13.866  22.062  1.00  0.00     0.169 C 
BRANCH  29  30
HETATM   30  O1  UNL     1      18.336 -13.389  21.998  1.00  0.00    -0.400 OA
ATOM     31  H1  UNL     1      18.042 -13.491  21.100  1.00  0.00     0.209 HD
ENDBRANCH  29  30
ENDBRANCH  11  29
TORSDOF 7
ENDMDL
MODEL 3
REMARK VINA RESULT: -7.020833501      1.331      1.506
REMARK  7 active torsions:
REMARK  status: ('A' for Active; 'I' for Inactive)
REMARK    1  A    between atoms: C10_11  and  C11_12 
REMARK    2  A    between atoms: C11_12  and  O1_13 
REMARK    3  A    between atoms: C17_21  and  C18_22 
REMARK    4  A    between atoms: C18_22  and  C19_23 
REMARK       I    between atoms: C19_23  and  N2_25 
REMARK    5  A    between atoms: N2_25  and  C20_27 
REMARK    6  A    between atoms: C20_27  and  C21_28 
REMARK    7  A    between atoms: C21_28  and  C22_29 
ROOT
HETATM    1  C1  UNL     1      15.724 -18.649  23.727  1.00  0.00     0.012 C 
HETATM    2  C2  UNL     1      17.086 -18.043  23.566  1.00  0.00     0.018 C 
HETATM    3  C3  UNL     1      17.460 -17.444  24.896  1.00  0.00     0.278 C 
HETATM    4  N1  UNL     1      18.718 -18.065  25.271  1.00  0.00     0.099 N 
HETATM    5  C4  UNL     1      18.738 -18.118  26.724  1.00  0.00     0.277 C 
HETATM    6  C5  UNL     1      18.704 -16.617  27.016  1.00  0.00     0.066 C 
HETATM    7  C6  UNL     1      19.601 -16.083  25.919  1.00  0.00    -0.048 C 
HETATM    8  C7  UNL     1      19.957 -14.830  25.956  1.00  0.00    -0.022 C 
HETATM    9  C8  UNL     1      20.785 -13.935  25.126  1.00  0.00     0.028 C 
HETATM   10  C9  UNL     1      20.675 -14.113  23.659  1.00  0.00     0.011 C 
HETATM   11  C10 UNL     1      19.350 -14.700  23.175  1.00  0.00     0.015 C 
HETATM   12  C12 UNL     1      19.563 -16.100  22.738  1.00  0.00     0.013 C 
HETATM   13  C13 UNL     1      18.527 -16.782  21.951  1.00  0.00     0.009 C 
HETATM   14  C14 UNL     1      19.163 -18.050  21.407  1.00  0.00     0.080 C 
HETATM   15  S1  UNL     1      20.340 -18.532  22.738  1.00  0.00    -0.161 SA
HETATM   16  C15 UNL     1      20.275 -16.981  23.684  1.00  0.00     0.089 C 
HETATM   17  C16 UNL     1      19.848 -17.224  25.036  1.00  0.00     0.265 C 
HETATM   18  C17 UNL     1      17.155 -16.982  22.462  1.00  0.00     0.024 C 
ENDROOT
BRANCH  18  19
HETATM   19  C18 UNL     1      16.176 -17.457  21.450  1.00  0.00     0.052 C 
BRANCH  19  20
HETATM   20  C19 UNL     1      15.196 -16.588  20.849  1.00  0.00     0.237 C 
HETATM   21  O2  UNL     1      15.235 -16.200  19.664  1.00  0.00    -0.269 OA
HETATM   22  N2  UNL     1      14.069 -16.095  21.604  1.00  0.00    -0.357 N 
ATOM     23  H2  UNL     1      13.957 -16.363  22.582  1.00  0.00     0.162 HD
BRANCH  22  24
HETATM   24  C20 UNL     1      13.115 -15.240  20.996  1.00  0.00     0.133 C 
BRANCH  24  25
HETATM   25  C21 UNL     1      12.897 -13.960  21.744  1.00  0.00     0.133 C 
BRANCH  25  26
HETATM   26  C22 UNL     1      14.055 -13.031  21.603  1.00  0.00     0.174 C 
HETATM   27  O3  UNL     1      15.233 -13.350  21.910  1.00  0.00    -0.648 OA
HETATM   28  O4  UNL     1      13.821 -11.756  21.109  1.00  0.00    -0.648 OA
ENDBRANCH  25  26
ENDBRANCH  24  25
ENDBRANCH  22  24
ENDBRANCH  19  20
ENDBRANCH  18  19
BRANCH  11  29
HETATM   29  C11 UNL     1      19.061 -13.852  21.926  1.00  0.00     0.169 C 
BRANCH  29  30
HETATM   30  O1  UNL     1      20.252 -13.769  21.194  1.00  0.00    -0.400 OA
ATOM     31  H1  UNL     1      20.026 -13.474  20.320  1.00  0.00     0.209 HD
ENDBRANCH  29  30
ENDBRANCH  11  29
TORSDOF 7
ENDMDL
MODEL 4
REMARK VINA RESULT: -7.018558253      1.001      1.144
REMARK  7 active torsions:
REMARK  status: ('A' for Active; 'I' for Inactive)
REMARK    1  A    between atoms: C10_11  and  C11_12 
REMARK    2  A    between atoms: C11_12  and  O1_13 
REMARK    3  A    between atoms: C17_21  and  C18_22 
REMARK    4  A    between atoms: C18_22  and  C19_23 
REMARK       I    between atoms: C19_23  and  N2_25 
REMARK    5  A    between atoms: N2_25  and  C20_27 
REMARK    6  A    between atoms: C20_27  and  C21_28 
REMARK    7  A    between atoms: C21_28  and  C22_29 
ROOT
HETATM    1  C1  UNL     1      15.392 -19.262  24.145  1.00  0.00     0.012 C 
HETATM    2  C2  UNL     1      16.607 -18.497  23.713  1.00  0.00     0.018 C 
HETATM    3  C3  UNL     1      17.224 -17.915  24.958  1.00  0.00     0.278 C 
HETATM    4  N1  UNL     1      18.591 -18.401  24.989  1.00  0.00     0.099 N 
HETATM    5  C4  UNL     1      18.962 -18.512  26.391  1.00  0.00     0.277 C 
HETATM    6  C5  UNL     1      18.845 -17.039  26.783  1.00  0.00     0.066 C 
HETATM    7  C6  UNL     1      19.396 -16.359  25.547  1.00  0.00    -0.048 C 
HETATM    8  C7  UNL     1      19.620 -15.076  25.585  1.00  0.00    -0.022 C 
HETATM    9  C8  UNL     1      20.131 -14.058  24.648  1.00  0.00     0.028 C 
HETATM   10  C9  UNL     1      19.693 -14.186  23.238  1.00  0.00     0.011 C 
HETATM   11  C10 UNL     1      18.359 -14.901  23.036  1.00  0.00     0.015 C 
HETATM   12  C12 UNL     1      18.604 -16.248  22.468  1.00  0.00     0.013 C 
HETATM   13  C13 UNL     1      17.486 -17.012  21.898  1.00  0.00     0.009 C 
HETATM   14  C14 UNL     1      18.101 -18.174  21.137  1.00  0.00     0.080 C 
HETATM   15  S1  UNL     1      19.603 -18.572  22.123  1.00  0.00    -0.161 SA
HETATM   16  C15 UNL     1      19.607 -17.080  23.161  1.00  0.00     0.089 C 
HETATM   17  C16 UNL     1      19.542 -17.427  24.555  1.00  0.00     0.265 C 
HETATM   18  C17 UNL     1      16.302 -17.390  22.698  1.00  0.00     0.024 C 
ENDROOT
BRANCH  18  19
HETATM   19  C18 UNL     1      15.165 -17.933  21.911  1.00  0.00     0.052 C 
BRANCH  19  20
HETATM   20  C19 UNL     1      13.988 -17.158  21.612  1.00  0.00     0.237 C 
HETATM   21  O2  UNL     1      12.848 -17.642  21.465  1.00  0.00    -0.269 OA
HETATM   22  N2  UNL     1      14.053 -15.724  21.458  1.00  0.00    -0.357 N 
ATOM     23  H2  UNL     1      14.947 -15.244  21.562  1.00  0.00     0.162 HD
BRANCH  22  24
HETATM   24  C20 UNL     1      12.884 -14.978  21.163  1.00  0.00     0.133 C 
BRANCH  24  25
HETATM   25  C21 UNL     1      13.003 -14.146  19.923  1.00  0.00     0.133 C 
BRANCH  25  26
HETATM   26  C22 UNL     1      14.305 -14.367  19.230  1.00  0.00     0.174 C 
HETATM   27  O3  UNL     1      15.326 -13.666  19.446  1.00  0.00    -0.648 OA
HETATM   28  O4  UNL     1      14.391 -15.397  18.304  1.00  0.00    -0.648 OA
ENDBRANCH  25  26
ENDBRANCH  24  25
ENDBRANCH  22  24
ENDBRANCH  19  20
ENDBRANCH  18  19
BRANCH  11  29
HETATM   29  C11 UNL     1      17.696 -14.041  21.948  1.00  0.00     0.169 C 
BRANCH  29  30
HETATM   30  O1  UNL     1      16.369 -13.825  22.339  1.00  0.00    -0.400 OA
ATOM     31  H1  UNL     1      16.293 -12.913  22.591  1.00  0.00     0.209 HD
ENDBRANCH  29  30
ENDBRANCH  11  29
TORSDOF 7
ENDMDL
MODEL 5
REMARK VINA RESULT: -6.524089202      1.676      2.058
REMARK  7 active torsions:
REMARK  status: ('A' for Active; 'I' for Inactive)
REMARK    1  A    between atoms: C10_11  and  C11_12 
REMARK    2  A    between atoms: C11_12  and  O1_13 
REMARK    3  A    between atoms: C17_21  and  C18_22 
REMARK    4  A    between atoms: C18_22  and  C19_23 
REMARK       I    between atoms: C19_23  and  N2_25 
REMARK    5  A    between atoms: N2_25  and  C20_27 
REMARK    6  A    between atoms: C20_27  and  C21_28 
REMARK    7  A    between atoms: C21_28  and  C22_29 
ROOT
HETATM    1  C1  UNL     1      15.977 -18.696  23.513  1.00  0.00     0.012 C 
HETATM    2  C2  UNL     1      17.341 -18.077  23.442  1.00  0.00     0.018 C 
HETATM    3  C3  UNL     1      17.605 -17.443  24.783  1.00  0.00     0.278 C 
HETATM    4  N1  UNL     1      18.837 -18.038  25.267  1.00  0.00     0.099 N 
HETATM    5  C4  UNL     1      18.747 -18.058  26.718  1.00  0.00     0.277 C 
HETATM    6  C5  UNL     1      18.674 -16.552  26.971  1.00  0.00     0.066 C 
HETATM    7  C6  UNL     1      19.646 -16.030  25.934  1.00  0.00    -0.048 C 
HETATM    8  C7  UNL     1      19.983 -14.772  25.968  1.00  0.00    -0.022 C 
HETATM    9  C8  UNL     1      20.862 -13.886  25.183  1.00  0.00     0.028 C 
HETATM   10  C9  UNL     1      20.867 -14.098  23.717  1.00  0.00     0.011 C 
HETATM   11  C10 UNL     1      19.590 -14.713  23.147  1.00  0.00     0.015 C 
HETATM   12  C12 UNL     1      19.852 -16.120  22.761  1.00  0.00     0.013 C 
HETATM   13  C13 UNL     1      18.887 -16.833  21.913  1.00  0.00     0.009 C 
HETATM   14  C14 UNL     1      19.577 -18.105  21.449  1.00  0.00     0.080 C 
HETATM   15  S1  UNL     1      20.654 -18.541  22.877  1.00  0.00    -0.161 SA
HETATM   16  C15 UNL     1      20.499 -16.970  23.778  1.00  0.00     0.089 C 
HETATM   17  C16 UNL     1      19.973 -17.188  25.099  1.00  0.00     0.265 C 
HETATM   18  C17 UNL     1      17.482 -17.040  22.322  1.00  0.00     0.024 C 
ENDROOT
BRANCH  18  19
HETATM   19  C18 UNL     1      16.589 -17.551  21.249  1.00  0.00     0.052 C 
BRANCH  19  20
HETATM   20  C19 UNL     1      15.887 -16.679  20.343  1.00  0.00     0.237 C 
HETATM   21  O2  UNL     1      15.919 -15.433  20.400  1.00  0.00    -0.269 OA
HETATM   22  N2  UNL     1      15.073 -17.208  19.273  1.00  0.00    -0.357 N 
ATOM     23  H2  UNL     1      14.990 -18.217  19.151  1.00  0.00     0.162 HD
BRANCH  22  24
HETATM   24  C20 UNL     1      14.389 -16.334  18.391  1.00  0.00     0.133 C 
BRANCH  24  25
HETATM   25  C21 UNL     1      12.898 -16.388  18.534  1.00  0.00     0.133 C 
BRANCH  25  26
HETATM   26  C22 UNL     1      12.436 -15.714  19.781  1.00  0.00     0.174 C 
HETATM   27  O3  UNL     1      12.050 -14.517  19.813  1.00  0.00    -0.648 OA
HETATM   28  O4  UNL     1      12.432 -16.444  20.962  1.00  0.00    -0.648 OA
ENDBRANCH  25  26
ENDBRANCH  24  25
ENDBRANCH  22  24
ENDBRANCH  19  20
ENDBRANCH  18  19
BRANCH  11  29
HETATM   29  C11 UNL     1      19.387 -13.898  21.860  1.00  0.00     0.169 C 
BRANCH  29  30
HETATM   30  O1  UNL     1      18.026 -13.582  21.777  1.00  0.00    -0.400 OA
ATOM     31  H1  UNL     1      17.649 -13.727  22.636  1.00  0.00     0.209 HD
ENDBRANCH  29  30
ENDBRANCH  11  29
TORSDOF 7
ENDMDL
