MODEL 1
REMARK VINA RESULT: -8.961315994      0.000      0.000
REMARK  18 active torsions:
REMARK  status: ('A' for Active; 'I' for Inactive)
REMARK    1  A    between atoms: C2_2  and  O1_3 
REMARK    2  A    between atoms: O1_3  and  C3_4 
REMARK       I    between atoms: C3_4  and  N1_6 
REMARK    3  A    between atoms: C6_9  and  C7_10 
REMARK    4  A    between atoms: C6_9  and  C24_34 
REMARK    5  A    between atoms: C7_10  and  N2_11 
REMARK    6  A    between atoms: N2_11  and  C9_13 
REMARK    7  A    between atoms: C9_13  and  O3_14 
REMARK    8  A    between atoms: C9_13  and  C10_16 
REMARK    9  A    between atoms: C10_16  and  N3_18 
REMARK   10  A    between atoms: N3_18  and  C12_20 
REMARK   11  A    between atoms: C12_20  and  C13_21 
REMARK   12  A    between atoms: C12_20  and  C18_28 
REMARK   13  A    between atoms: C13_21  and  O5_23 
REMARK   14  A    between atoms: O5_23  and  C14_24 
REMARK       I    between atoms: C24_34  and  N4_36 
REMARK   15  A    between atoms: N4_36  and  C25_38 
REMARK   16  A    between atoms: C25_38  and  C26_39 
REMARK   17  A    between atoms: C25_38  and  C30_46 
REMARK   18  A    between atoms: C26_39  and  C27_40 
ROOT
HETATM    1  C3  UNL     1       8.746  27.508   7.590  1.00  0.00     0.366 C 
HETATM    2  O2  UNL     1       8.702  28.273   6.658  1.00  0.00    -0.238 OA
HETATM    3  N1  UNL     1       9.436  26.290   7.804  1.00  0.00    -0.308 N 
HETATM    4  C4  UNL     1       8.888  25.046   7.292  1.00  0.00     0.135 C 
HETATM    5  C5  UNL     1       9.853  23.943   7.464  1.00  0.00     0.045 C 
HETATM    6  C6  UNL     1      11.189  24.256   6.913  1.00  0.00     0.079 C 
HETATM    7  C31 UNL     1      11.752  25.393   7.816  1.00  0.00     0.069 C 
HETATM    8  C32 UNL     1      10.719  26.171   8.453  1.00  0.00     0.070 C 
ENDROOT
BRANCH   6   9
HETATM    9  C7  UNL     1      12.155  23.203   7.053  1.00  0.00     0.085 C 
BRANCH   9  10
HETATM   10  N2  UNL     1      12.657  22.480   5.906  1.00  0.00    -0.347 N 
HETATM   11  C8  UNL     1      11.989  21.545   5.073  1.00  0.00     0.157 C 
BRANCH  10  12
HETATM   12  C9  UNL     1      14.053  22.602   5.819  1.00  0.00     0.139 C 
BRANCH  12  13
HETATM   13  O3  UNL     1      14.248  23.447   4.823  1.00  0.00    -0.348 OA
ATOM     14  H3  UNL     1      15.122  23.788   4.970  1.00  0.00     0.219 HD
ENDBRANCH  12  13
BRANCH  12  15
HETATM   15  C10 UNL     1      15.215  22.105   6.486  1.00  0.00     0.148 C 
HETATM   16  C11 UNL     1      15.817  23.364   7.166  1.00  0.00     0.040 C 
BRANCH  15  17
HETATM   17  N3  UNL     1      16.123  21.632   5.505  1.00  0.00    -0.397 N 
ATOM     18  H3  UNL     1      16.433  22.230   4.739  1.00  0.00     0.154 HD
BRANCH  17  19
HETATM   19  C12 UNL     1      16.589  20.284   5.628  1.00  0.00     0.182 C 
BRANCH  19  20
HETATM   20  C13 UNL     1      17.797  20.019   6.434  1.00  0.00     0.282 C 
HETATM   21  O4  UNL     1      18.923  20.193   6.050  1.00  0.00    -0.263 OA
BRANCH  20  22
HETATM   22  O5  UNL     1      17.541  19.438   7.697  1.00  0.00    -0.310 OA
BRANCH  22  23
HETATM   23  C14 UNL     1      17.623  20.231   8.861  1.00  0.00     0.060 C 
HETATM   24  C15 UNL     1      18.228  21.540   8.903  1.00  0.00     0.045 C 
HETATM   25  C16 UNL     1      18.303  19.195   9.824  1.00  0.00     0.045 C 
HETATM   26  C17 UNL     1      16.196  20.336   9.419  1.00  0.00     0.045 C 
ENDBRANCH  22  23
ENDBRANCH  20  22
ENDBRANCH  19  20
BRANCH  19  27
HETATM   27  C18 UNL     1      16.647  19.574   4.316  1.00  0.00     0.018 C 
HETATM   28  C19 UNL     1      16.757  18.085   4.367  1.00  0.00     0.007 C 
HETATM   29  C20 UNL     1      16.749  17.581   2.943  1.00  0.00     0.000 C 
HETATM   30  C21 UNL     1      16.719  18.691   1.918  1.00  0.00     0.000 C 
HETATM   31  C22 UNL     1      15.538  19.620   2.117  1.00  0.00     0.000 C 
HETATM   32  C23 UNL     1      15.254  19.774   3.602  1.00  0.00     0.007 C 
ENDBRANCH  19  27
ENDBRANCH  17  19
ENDBRANCH  15  17
ENDBRANCH  12  15
ENDBRANCH  10  12
ENDBRANCH   9  10
ENDBRANCH   6   9
BRANCH   6  33
HETATM   33  C24 UNL     1      11.196  24.930   5.572  1.00  0.00     0.236 C 
HETATM   34  O6  UNL     1      12.070  25.750   5.177  1.00  0.00    -0.272 OA
HETATM   35  N4  UNL     1      10.182  24.722   4.712  1.00  0.00    -0.324 N 
ATOM     36  H4  UNL     1       9.529  24.011   5.043  1.00  0.00     0.169 HD
BRANCH  35  37
HETATM   37  C25 UNL     1       9.790  25.281   3.399  1.00  0.00     0.094 C 
BRANCH  37  38
HETATM   38  C26 UNL     1       8.698  26.287   3.482  1.00  0.00     0.122 C 
BRANCH  38  39
HETATM   39  C27 UNL     1       7.408  25.624   2.883  1.00  0.00     0.021 A 
HETATM   40  C28 UNL     1       7.036  26.012   1.663  1.00  0.00     0.076 A 
HETATM   41  S1  UNL     1       5.339  25.382   1.627  1.00  0.00    -0.095 SA
HETATM   42  C29 UNL     1       5.538  24.573   3.200  1.00  0.00     0.138 A 
HETATM   43  N5  UNL     1       6.688  24.923   3.587  1.00  0.00    -0.363 N 
ATOM     44  H5  UNL     1       7.023  24.618   4.501  1.00  0.00     0.165 HD
ENDBRANCH  38  39
ENDBRANCH  37  38
BRANCH  37  45
HETATM   45  C30 UNL     1       9.926  24.327   2.376  1.00  0.00     0.222 C 
HETATM   46  O7  UNL     1      10.356  24.528   1.245  1.00  0.00    -0.643 OA
HETATM   47  O8  UNL     1       9.616  23.013   2.710  1.00  0.00    -0.643 OA
ENDBRANCH  37  45
ENDBRANCH  35  37
ENDBRANCH   6  33
BRANCH   1  48
HETATM   48  O1  UNL     1       7.952  27.871   8.746  1.00  0.00    -0.304 OA
BRANCH  48  49
HETATM   49  C2  UNL     1       8.301  29.035   9.477  1.00  0.00     0.176 C 
HETATM   50  C1  UNL     1       9.145  28.730  10.685  1.00  0.00     0.034 C 
ENDBRANCH  48  49
ENDBRANCH   1  48
TORSDOF 18
ENDMDL
MODEL 2
REMARK VINA RESULT: -8.818143667      1.201      1.851
REMARK  18 active torsions:
REMARK  status: ('A' for Active; 'I' for Inactive)
REMARK    1  A    between atoms: C2_2  and  O1_3 
REMARK    2  A    between atoms: O1_3  and  C3_4 
REMARK       I    between atoms: C3_4  and  N1_6 
REMARK    3  A    between atoms: C6_9  and  C7_10 
REMARK    4  A    between atoms: C6_9  and  C24_34 
REMARK    5  A    between atoms: C7_10  and  N2_11 
REMARK    6  A    between atoms: N2_11  and  C9_13 
REMARK    7  A    between atoms: C9_13  and  O3_14 
REMARK    8  A    between atoms: C9_13  and  C10_16 
REMARK    9  A    between atoms: C10_16  and  N3_18 
REMARK   10  A    between atoms: N3_18  and  C12_20 
REMARK   11  A    between atoms: C12_20  and  C13_21 
REMARK   12  A    between atoms: C12_20  and  C18_28 
REMARK   13  A    between atoms: C13_21  and  O5_23 
REMARK   14  A    between atoms: O5_23  and  C14_24 
REMARK       I    between atoms: C24_34  and  N4_36 
REMARK   15  A    between atoms: N4_36  and  C25_38 
REMARK   16  A    between atoms: C25_38  and  C26_39 
REMARK   17  A    between atoms: C25_38  and  C30_46 
REMARK   18  A    between atoms: C26_39  and  C27_40 
ROOT
HETATM    1  C3  UNL     1       9.274  26.213   8.394  1.00  0.00     0.366 C 
HETATM    2  O2  UNL     1       8.154  26.492   8.045  1.00  0.00    -0.238 OA
HETATM    3  N1  UNL     1      10.361  25.587   7.736  1.00  0.00    -0.308 N 
HETATM    4  C4  UNL     1      10.426  24.138   7.660  1.00  0.00     0.135 C 
HETATM    5  C5  UNL     1      11.529  23.713   6.777  1.00  0.00     0.045 C 
HETATM    6  C6  UNL     1      11.485  24.359   5.448  1.00  0.00     0.079 C 
HETATM    7  C31 UNL     1      11.775  25.866   5.713  1.00  0.00     0.069 C 
HETATM    8  C32 UNL     1      11.420  26.283   7.047  1.00  0.00     0.070 C 
ENDROOT
BRANCH   6   9
HETATM    9  C7  UNL     1      12.538  23.964   4.555  1.00  0.00     0.085 C 
BRANCH   9  10
HETATM   10  N2  UNL     1      13.045  22.610   4.537  1.00  0.00    -0.347 N 
HETATM   11  C8  UNL     1      12.334  21.389   4.411  1.00  0.00     0.157 C 
BRANCH  10  12
HETATM   12  C9  UNL     1      14.391  22.583   4.933  1.00  0.00     0.139 C 
BRANCH  12  13
HETATM   13  O3  UNL     1      14.988  23.447   4.131  1.00  0.00    -0.348 OA
ATOM     14  H3  UNL     1      14.520  24.262   4.271  1.00  0.00     0.219 HD
ENDBRANCH  12  13
BRANCH  12  15
HETATM   15  C10 UNL     1      15.208  21.932   5.908  1.00  0.00     0.148 C 
HETATM   16  C11 UNL     1      15.552  23.062   6.916  1.00  0.00     0.040 C 
BRANCH  15  17
HETATM   17  N3  UNL     1      16.401  21.500   5.274  1.00  0.00    -0.397 N 
ATOM     18  H3  UNL     1      16.933  22.125   4.667  1.00  0.00     0.154 HD
BRANCH  17  19
HETATM   19  C12 UNL     1      16.831  20.156   5.515  1.00  0.00     0.182 C 
BRANCH  19  20
HETATM   20  C13 UNL     1      17.973  19.927   6.422  1.00  0.00     0.282 C 
HETATM   21  O4  UNL     1      19.126  20.081   6.117  1.00  0.00    -0.263 OA
BRANCH  20  22
HETATM   22  O5  UNL     1      17.619  19.405   7.687  1.00  0.00    -0.310 OA
BRANCH  22  23
HETATM   23  C14 UNL     1      17.615  20.251   8.816  1.00  0.00     0.060 C 
HETATM   24  C15 UNL     1      18.147  21.592   8.819  1.00  0.00     0.045 C 
HETATM   25  C16 UNL     1      18.314  19.297   9.848  1.00  0.00     0.045 C 
HETATM   26  C17 UNL     1      16.165  20.300   9.319  1.00  0.00     0.045 C 
ENDBRANCH  22  23
ENDBRANCH  20  22
ENDBRANCH  19  20
BRANCH  19  27
HETATM   27  C18 UNL     1      16.970  19.364   4.258  1.00  0.00     0.018 C 
HETATM   28  C19 UNL     1      17.298  17.914   4.416  1.00  0.00     0.007 C 
HETATM   29  C20 UNL     1      17.339  17.305   3.034  1.00  0.00     0.000 C 
HETATM   30  C21 UNL     1      17.128  18.317   1.931  1.00  0.00     0.000 C 
HETATM   31  C22 UNL     1      15.827  19.077   2.095  1.00  0.00     0.000 C 
HETATM   32  C23 UNL     1      15.550  19.303   3.572  1.00  0.00     0.007 C 
ENDBRANCH  19  27
ENDBRANCH  17  19
ENDBRANCH  15  17
ENDBRANCH  12  15
ENDBRANCH  10  12
ENDBRANCH   9  10
ENDBRANCH   6   9
BRANCH   6  33
HETATM   33  C24 UNL     1      10.129  24.440   4.811  1.00  0.00     0.236 C 
HETATM   34  O6  UNL     1       9.493  23.461   4.333  1.00  0.00    -0.272 OA
HETATM   35  N4  UNL     1       9.527  25.635   4.662  1.00  0.00    -0.324 N 
ATOM     36  H4  UNL     1      10.045  26.390   5.113  1.00  0.00     0.169 HD
BRANCH  35  37
HETATM   37  C25 UNL     1       8.293  26.112   4.000  1.00  0.00     0.094 C 
BRANCH  37  38
HETATM   38  C26 UNL     1       8.184  25.701   2.575  1.00  0.00     0.122 C 
BRANCH  38  39
HETATM   39  C27 UNL     1       6.731  25.150   2.359  1.00  0.00     0.021 A 
HETATM   40  C28 UNL     1       6.131  25.454   1.208  1.00  0.00     0.076 A 
HETATM   41  S1  UNL     1       4.416  25.047   1.621  1.00  0.00    -0.095 SA
HETATM   42  C29 UNL     1       4.886  24.388   3.206  1.00  0.00     0.138 A 
HETATM   43  N5  UNL     1       6.123  24.625   3.287  1.00  0.00    -0.363 N 
ATOM     44  H5  UNL     1       6.626  24.376   4.139  1.00  0.00     0.165 HD
ENDBRANCH  38  39
ENDBRANCH  37  38
BRANCH  37  45
HETATM   45  C30 UNL     1       7.888  27.358   4.509  1.00  0.00     0.222 C 
HETATM   46  O7  UNL     1       8.591  28.161   5.113  1.00  0.00    -0.643 OA
HETATM   47  O8  UNL     1       6.583  27.747   4.226  1.00  0.00    -0.643 OA
ENDBRANCH  37  45
ENDBRANCH  35  37
ENDBRANCH   6  33
BRANCH   1  48
HETATM   48  O1  UNL     1       9.624  26.577   9.752  1.00  0.00    -0.304 OA
BRANCH  48  49
HETATM   49  C2  UNL     1      10.000  27.917  10.025  1.00  0.00     0.176 C 
HETATM   50  C1  UNL     1       8.842  28.762  10.484  1.00  0.00     0.034 C 
ENDBRANCH  48  49
ENDBRANCH   1  48
TORSDOF 18
ENDMDL
MODEL 3
REMARK VINA RESULT: -8.472121337      3.448     10.227
REMARK  18 active torsions:
REMARK  status: ('A' for Active; 'I' for Inactive)
REMARK    1  A    between atoms: C2_2  and  O1_3 
REMARK    2  A    between atoms: O1_3  and  C3_4 
REMARK       I    between atoms: C3_4  and  N1_6 
REMARK    3  A    between atoms: C6_9  and  C7_10 
REMARK    4  A    between atoms: C6_9  and  C24_34 
REMARK    5  A    between atoms: C7_10  and  N2_11 
REMARK    6  A    between atoms: N2_11  and  C9_13 
REMARK    7  A    between atoms: C9_13  and  O3_14 
REMARK    8  A    between atoms: C9_13  and  C10_16 
REMARK    9  A    between atoms: C10_16  and  N3_18 
REMARK   10  A    between atoms: N3_18  and  C12_20 
REMARK   11  A    between atoms: C12_20  and  C13_21 
REMARK   12  A    between atoms: C12_20  and  C18_28 
REMARK   13  A    between atoms: C13_21  and  O5_23 
REMARK   14  A    between atoms: O5_23  and  C14_24 
REMARK       I    between atoms: C24_34  and  N4_36 
REMARK   15  A    between atoms: N4_36  and  C25_38 
REMARK   16  A    between atoms: C25_38  and  C26_39 
REMARK   17  A    between atoms: C25_38  and  C30_46 
REMARK   18  A    between atoms: C26_39  and  C27_40 
ROOT
HETATM    1  C3  UNL     1      17.296  18.883  10.224  1.00  0.00     0.366 C 
HETATM    2  O2  UNL     1      17.175  17.798   9.713  1.00  0.00    -0.238 OA
HETATM    3  N1  UNL     1      17.019  20.197   9.773  1.00  0.00    -0.308 N 
HETATM    4  C4  UNL     1      17.983  20.897   8.942  1.00  0.00     0.135 C 
HETATM    5  C5  UNL     1      17.414  22.161   8.437  1.00  0.00     0.045 C 
HETATM    6  C6  UNL     1      16.104  21.980   7.775  1.00  0.00     0.079 C 
HETATM    7  C31 UNL     1      15.125  21.552   8.909  1.00  0.00     0.069 C 
HETATM    8  C32 UNL     1      15.790  20.912  10.016  1.00  0.00     0.070 C 
ENDROOT
BRANCH   6   9
HETATM    9  C7  UNL     1      15.521  23.188   7.263  1.00  0.00     0.085 C 
BRANCH   9  10
HETATM   10  N2  UNL     1      14.746  23.194   6.042  1.00  0.00    -0.347 N 
HETATM   11  C8  UNL     1      15.050  23.792   4.791  1.00  0.00     0.157 C 
BRANCH  10  12
HETATM   12  C9  UNL     1      13.444  22.729   6.283  1.00  0.00     0.139 C 
BRANCH  12  13
HETATM   13  O3  UNL     1      13.211  21.878   5.301  1.00  0.00    -0.348 OA
ATOM     14  H3  UNL     1      13.025  21.056   5.739  1.00  0.00     0.219 HD
ENDBRANCH  12  13
BRANCH  12  15
HETATM   15  C10 UNL     1      12.403  22.911   7.246  1.00  0.00     0.148 C 
HETATM   16  C11 UNL     1      11.178  22.208   6.601  1.00  0.00     0.040 C 
BRANCH  15  17
HETATM   17  N3  UNL     1      12.134  24.299   7.354  1.00  0.00    -0.397 N 
ATOM     18  H3  UNL     1      12.711  24.906   7.937  1.00  0.00     0.154 HD
BRANCH  17  19
HETATM   19  C12 UNL     1      11.023  24.818   6.615  1.00  0.00     0.182 C 
BRANCH  19  20
HETATM   20  C13 UNL     1      11.282  25.545   5.358  1.00  0.00     0.282 C 
HETATM   21  O4  UNL     1      12.325  26.078   5.081  1.00  0.00    -0.263 OA
BRANCH  20  22
HETATM   22  O5  UNL     1      10.158  25.662   4.508  1.00  0.00    -0.310 OA
BRANCH  22  23
HETATM   23  C14 UNL     1       9.888  24.649   3.564  1.00  0.00     0.060 C 
HETATM   24  C15 UNL     1      10.789  23.561   3.269  1.00  0.00     0.045 C 
HETATM   25  C16 UNL     1       9.559  25.547   2.319  1.00  0.00     0.045 C 
HETATM   26  C17 UNL     1       8.518  24.061   3.937  1.00  0.00     0.045 C 
ENDBRANCH  22  23
ENDBRANCH  20  22
ENDBRANCH  19  20
BRANCH  19  27
HETATM   27  C18 UNL     1      10.055  25.558   7.479  1.00  0.00     0.018 C 
HETATM   28  C19 UNL     1       8.780  24.851   7.807  1.00  0.00     0.007 C 
HETATM   29  C20 UNL     1       7.984  25.753   8.722  1.00  0.00     0.000 C 
HETATM   30  C21 UNL     1       8.645  27.090   8.961  1.00  0.00     0.000 C 
HETATM   31  C22 UNL     1      10.048  26.943   9.516  1.00  0.00     0.000 C 
HETATM   32  C23 UNL     1      10.714  25.721   8.904  1.00  0.00     0.007 C 
ENDBRANCH  19  27
ENDBRANCH  17  19
ENDBRANCH  15  17
ENDBRANCH  12  15
ENDBRANCH  10  12
ENDBRANCH   9  10
ENDBRANCH   6   9
BRANCH   6  33
HETATM   33  C24 UNL     1      16.002  20.801   6.853  1.00  0.00     0.236 C 
HETATM   34  O6  UNL     1      15.135  19.887   6.936  1.00  0.00    -0.272 OA
HETATM   35  N4  UNL     1      16.917  20.628   5.880  1.00  0.00    -0.324 N 
ATOM     36  H4  UNL     1      17.562  21.415   5.809  1.00  0.00     0.169 HD
BRANCH  35  37
HETATM   37  C25 UNL     1      17.208  19.568   4.891  1.00  0.00     0.094 C 
BRANCH  37  38
HETATM   38  C26 UNL     1      18.636  19.152   4.865  1.00  0.00     0.122 C 
BRANCH  38  39
HETATM   39  C27 UNL     1      18.680  17.618   5.192  1.00  0.00     0.021 A 
HETATM   40  C28 UNL     1      18.516  17.265   6.467  1.00  0.00     0.076 A 
HETATM   41  S1  UNL     1      19.110  15.555   6.407  1.00  0.00    -0.095 SA
HETATM   42  C29 UNL     1      19.295  15.614   4.638  1.00  0.00     0.138 A 
HETATM   43  N5  UNL     1      19.031  16.812   4.337  1.00  0.00    -0.363 N 
ATOM     44  H5  UNL     1      19.111  17.114   3.366  1.00  0.00     0.165 HD
ENDBRANCH  38  39
ENDBRANCH  37  38
BRANCH  37  45
HETATM   45  C30 UNL     1      16.386  19.687   3.757  1.00  0.00     0.222 C 
HETATM   46  O7  UNL     1      15.389  20.391   3.651  1.00  0.00    -0.643 OA
HETATM   47  O8  UNL     1      16.795  18.995   2.621  1.00  0.00    -0.643 OA
ENDBRANCH  37  45
ENDBRANCH  35  37
ENDBRANCH   6  33
BRANCH   1  48
HETATM   48  O1  UNL     1      17.822  18.893  11.574  1.00  0.00    -0.304 OA
BRANCH  48  49
HETATM   49  C2  UNL     1      19.224  18.799  11.762  1.00  0.00     0.176 C 
HETATM   50  C1  UNL     1      19.711  19.627  12.921  1.00  0.00     0.034 C 
ENDBRANCH  48  49
ENDBRANCH   1  48
TORSDOF 18
ENDMDL
MODEL 4
REMARK VINA RESULT: -8.457425060      3.258     10.873
REMARK  18 active torsions:
REMARK  status: ('A' for Active; 'I' for Inactive)
REMARK    1  A    between atoms: C2_2  and  O1_3 
REMARK    2  A    between atoms: O1_3  and  C3_4 
REMARK       I    between atoms: C3_4  and  N1_6 
REMARK    3  A    between atoms: C6_9  and  C7_10 
REMARK    4  A    between atoms: C6_9  and  C24_34 
REMARK    5  A    between atoms: C7_10  and  N2_11 
REMARK    6  A    between atoms: N2_11  and  C9_13 
REMARK    7  A    between atoms: C9_13  and  O3_14 
REMARK    8  A    between atoms: C9_13  and  C10_16 
REMARK    9  A    between atoms: C10_16  and  N3_18 
REMARK   10  A    between atoms: N3_18  and  C12_20 
REMARK   11  A    between atoms: C12_20  and  C13_21 
REMARK   12  A    between atoms: C12_20  and  C18_28 
REMARK   13  A    between atoms: C13_21  and  O5_23 
REMARK   14  A    between atoms: O5_23  and  C14_24 
REMARK       I    between atoms: C24_34  and  N4_36 
REMARK   15  A    between atoms: N4_36  and  C25_38 
REMARK   16  A    between atoms: C25_38  and  C26_39 
REMARK   17  A    between atoms: C25_38  and  C30_46 
REMARK   18  A    between atoms: C26_39  and  C27_40 
ROOT
HETATM    1  C3  UNL     1      15.556  19.477   4.002  1.00  0.00     0.366 C 
HETATM    2  O2  UNL     1      16.164  18.724   4.722  1.00  0.00    -0.238 OA
HETATM    3  N1  UNL     1      14.852  20.683   4.242  1.00  0.00    -0.308 N 
HETATM    4  C4  UNL     1      13.483  20.639   4.725  1.00  0.00     0.135 C 
HETATM    5  C5  UNL     1      13.015  21.992   5.083  1.00  0.00     0.045 C 
HETATM    6  C6  UNL     1      13.931  22.694   6.006  1.00  0.00     0.079 C 
HETATM    7  C31 UNL     1      15.229  22.949   5.184  1.00  0.00     0.069 C 
HETATM    8  C32 UNL     1      15.412  22.006   4.110  1.00  0.00     0.070 C 
ENDROOT
BRANCH   6   9
HETATM    9  C7  UNL     1      13.505  24.012   6.385  1.00  0.00     0.085 C 
BRANCH   9  10
HETATM   10  N2  UNL     1      12.107  24.333   6.557  1.00  0.00    -0.347 N 
HETATM   11  C8  UNL     1      11.175  23.810   7.491  1.00  0.00     0.157 C 
BRANCH  10  12
HETATM   12  C9  UNL     1      11.639  25.093   5.473  1.00  0.00     0.139 C 
BRANCH  12  13
HETATM   13  O3  UNL     1      12.565  26.018   5.295  1.00  0.00    -0.348 OA
ATOM     14  H3  UNL     1      12.458  26.290   4.392  1.00  0.00     0.219 HD
ENDBRANCH  12  13
BRANCH  12  15
HETATM   15  C10 UNL     1      10.525  25.109   4.578  1.00  0.00     0.148 C 
HETATM   16  C11 UNL     1      11.182  25.149   3.171  1.00  0.00     0.040 C 
BRANCH  15  17
HETATM   17  N3  UNL     1       9.805  26.314   4.785  1.00  0.00    -0.397 N 
ATOM     18  H3  UNL     1      10.254  27.224   4.674  1.00  0.00     0.154 HD
BRANCH  17  19
HETATM   19  C12 UNL     1       8.426  26.206   5.154  1.00  0.00     0.182 C 
BRANCH  19  20
HETATM   20  C13 UNL     1       7.400  26.742   4.238  1.00  0.00     0.282 C 
HETATM   21  O4  UNL     1       6.987  27.871   4.265  1.00  0.00    -0.263 OA
BRANCH  20  22
HETATM   22  O5  UNL     1       6.845  25.785   3.358  1.00  0.00    -0.310 OA
BRANCH  22  23
HETATM   23  C14 UNL     1       7.311  25.706   2.029  1.00  0.00     0.060 C 
HETATM   24  C15 UNL     1       8.171  26.689   1.416  1.00  0.00     0.045 C 
HETATM   25  C16 UNL     1       5.937  25.528   1.291  1.00  0.00     0.045 C 
HETATM   26  C17 UNL     1       7.965  24.324   1.877  1.00  0.00     0.045 C 
ENDBRANCH  22  23
ENDBRANCH  20  22
ENDBRANCH  19  20
BRANCH  19  27
HETATM   27  C18 UNL     1       8.174  26.637   6.562  1.00  0.00     0.018 C 
HETATM   28  C19 UNL     1       8.298  25.582   7.613  1.00  0.00     0.007 C 
HETATM   29  C20 UNL     1       8.054  26.245   8.950  1.00  0.00     0.000 C 
HETATM   30  C21 UNL     1       7.687  27.705   8.832  1.00  0.00     0.000 C 
HETATM   31  C22 UNL     1       8.733  28.498   8.075  1.00  0.00     0.000 C 
HETATM   32  C23 UNL     1       9.323  27.640   6.968  1.00  0.00     0.007 C 
ENDBRANCH  19  27
ENDBRANCH  17  19
ENDBRANCH  15  17
ENDBRANCH  12  15
ENDBRANCH  10  12
ENDBRANCH   9  10
ENDBRANCH   6   9
BRANCH   6  33
HETATM   33  C24 UNL     1      14.471  21.867   7.136  1.00  0.00     0.236 C 
HETATM   34  O6  UNL     1      13.801  21.472   8.130  1.00  0.00    -0.272 OA
HETATM   35  N4  UNL     1      15.778  21.545   7.168  1.00  0.00    -0.324 N 
ATOM     36  H4  UNL     1      16.270  21.831   6.321  1.00  0.00     0.169 HD
BRANCH  35  37
HETATM   37  C25 UNL     1      16.669  20.874   8.140  1.00  0.00     0.094 C 
BRANCH  37  38
HETATM   38  C26 UNL     1      16.292  21.116   9.559  1.00  0.00     0.122 C 
BRANCH  38  39
HETATM   39  C27 UNL     1      16.487  19.763  10.328  1.00  0.00     0.021 A 
HETATM   40  C28 UNL     1      17.590  19.638  11.067  1.00  0.00     0.076 A 
HETATM   41  S1  UNL     1      17.602  17.847  11.329  1.00  0.00    -0.095 SA
HETATM   42  C29 UNL     1      16.022  17.655  10.533  1.00  0.00     0.138 A 
HETATM   43  N5  UNL     1      15.747  18.810  10.105  1.00  0.00    -0.363 N 
ATOM     44  H5  UNL     1      14.894  18.954   9.564  1.00  0.00     0.165 HD
ENDBRANCH  38  39
ENDBRANCH  37  38
BRANCH  37  45
HETATM   45  C30 UNL     1      17.988  20.803   7.661  1.00  0.00     0.222 C 
HETATM   46  O7  UNL     1      18.372  20.185   6.674  1.00  0.00    -0.643 OA
HETATM   47  O8  UNL     1      18.932  21.576   8.330  1.00  0.00    -0.643 OA
ENDBRANCH  37  45
ENDBRANCH  35  37
ENDBRANCH   6  33
BRANCH   1  48
HETATM   48  O1  UNL     1      15.517  19.118   2.599  1.00  0.00    -0.304 OA
BRANCH  48  49
HETATM   49  C2  UNL     1      16.737  18.846   1.928  1.00  0.00     0.176 C 
HETATM   50  C1  UNL     1      17.037  17.373   1.846  1.00  0.00     0.034 C 
ENDBRANCH  48  49
ENDBRANCH   1  48
TORSDOF 18
ENDMDL
MODEL 5
REMARK VINA RESULT: -8.435288326      1.240      3.375
REMARK  18 active torsions:
REMARK  status: ('A' for Active; 'I' for Inactive)
REMARK    1  A    between atoms: C2_2  and  O1_3 
REMARK    2  A    between atoms: O1_3  and  C3_4 
REMARK       I    between atoms: C3_4  and  N1_6 
REMARK    3  A    between atoms: C6_9  and  C7_10 
REMARK    4  A    between atoms: C6_9  and  C24_34 
REMARK    5  A    between atoms: C7_10  and  N2_11 
REMARK    6  A    between atoms: N2_11  and  C9_13 
REMARK    7  A    between atoms: C9_13  and  O3_14 
REMARK    8  A    between atoms: C9_13  and  C10_16 
REMARK    9  A    between atoms: C10_16  and  N3_18 
REMARK   10  A    between atoms: N3_18  and  C12_20 
REMARK   11  A    between atoms: C12_20  and  C13_21 
REMARK   12  A    between atoms: C12_20  and  C18_28 
REMARK   13  A    between atoms: C13_21  and  O5_23 
REMARK   14  A    between atoms: O5_23  and  C14_24 
REMARK       I    between atoms: C24_34  and  N4_36 
REMARK   15  A    between atoms: N4_36  and  C25_38 
REMARK   16  A    between atoms: C25_38  and  C26_39 
REMARK   17  A    between atoms: C25_38  and  C30_46 
REMARK   18  A    between atoms: C26_39  and  C27_40 
ROOT
HETATM    1  C3  UNL     1       8.486  28.321   7.872  1.00  0.00     0.366 C 
HETATM    2  O2  UNL     1       8.548  29.007   6.882  1.00  0.00    -0.238 OA
HETATM    3  N1  UNL     1       9.022  27.052   8.201  1.00  0.00    -0.308 N 
HETATM    4  C4  UNL     1       8.338  25.843   7.775  1.00  0.00     0.135 C 
HETATM    5  C5  UNL     1       9.163  24.653   8.058  1.00  0.00     0.045 C 
HETATM    6  C6  UNL     1      10.535  24.760   7.519  1.00  0.00     0.079 C 
HETATM    7  C31 UNL     1      11.214  25.894   8.343  1.00  0.00     0.069 C 
HETATM    8  C32 UNL     1      10.272  26.837   8.889  1.00  0.00     0.070 C 
ENDROOT
BRANCH   6   9
HETATM    9  C7  UNL     1      11.367  23.616   7.766  1.00  0.00     0.085 C 
BRANCH   9  10
HETATM   10  N2  UNL     1      12.142  23.003   6.712  1.00  0.00    -0.347 N 
HETATM   11  C8  UNL     1      11.718  22.115   5.689  1.00  0.00     0.157 C 
BRANCH  10  12
HETATM   12  C9  UNL     1      13.515  23.177   6.945  1.00  0.00     0.139 C 
BRANCH  12  13
HETATM   13  O3  UNL     1      13.913  23.984   5.979  1.00  0.00    -0.348 OA
ATOM     14  H3  UNL     1      14.530  23.466   5.476  1.00  0.00     0.219 HD
ENDBRANCH  12  13
BRANCH  12  15
HETATM   15  C10 UNL     1      14.503  22.756   7.888  1.00  0.00     0.148 C 
HETATM   16  C11 UNL     1      15.735  23.637   7.549  1.00  0.00     0.040 C 
BRANCH  15  17
HETATM   17  N3  UNL     1      14.820  21.398   7.626  1.00  0.00    -0.397 N 
ATOM     18  H3  UNL     1      14.096  20.679   7.614  1.00  0.00     0.154 HD
BRANCH  17  19
HETATM   19  C12 UNL     1      16.192  21.074   7.378  1.00  0.00     0.182 C 
BRANCH  19  20
HETATM   20  C13 UNL     1      16.573  20.560   6.048  1.00  0.00     0.282 C 
HETATM   21  O4  UNL     1      17.427  19.735   5.856  1.00  0.00    -0.263 OA
BRANCH  20  22
HETATM   22  O5  UNL     1      15.912  21.187   4.967  1.00  0.00    -0.310 OA
BRANCH  22  23
HETATM   23  C14 UNL     1      15.207  20.404   4.030  1.00  0.00     0.060 C 
HETATM   24  C15 UNL     1      15.837  19.513   3.086  1.00  0.00     0.045 C 
HETATM   25  C16 UNL     1      14.352  21.533   3.352  1.00  0.00     0.045 C 
HETATM   26  C17 UNL     1      14.160  19.610   4.826  1.00  0.00     0.045 C 
ENDBRANCH  22  23
ENDBRANCH  20  22
ENDBRANCH  19  20
BRANCH  19  27
HETATM   27  C18 UNL     1      16.794  20.253   8.469  1.00  0.00     0.018 C 
HETATM   28  C19 UNL     1      17.882  20.896   9.266  1.00  0.00     0.007 C 
HETATM   29  C20 UNL     1      18.302  19.915  10.335  1.00  0.00     0.000 C 
HETATM   30  C21 UNL     1      17.588  18.587  10.238  1.00  0.00     0.000 C 
HETATM   31  C22 UNL     1      16.081  18.745  10.282  1.00  0.00     0.000 C 
HETATM   32  C23 UNL     1      15.680  20.023   9.564  1.00  0.00     0.007 C 
ENDBRANCH  19  27
ENDBRANCH  17  19
ENDBRANCH  15  17
ENDBRANCH  12  15
ENDBRANCH  10  12
ENDBRANCH   9  10
ENDBRANCH   6   9
BRANCH   6  33
HETATM   33  C24 UNL     1      10.643  25.317   6.129  1.00  0.00     0.236 C 
HETATM   34  O6  UNL     1      11.547  26.102   5.731  1.00  0.00    -0.272 OA
HETATM   35  N4  UNL     1       9.694  25.034   5.217  1.00  0.00    -0.324 N 
ATOM     36  H4  UNL     1       9.016  24.352   5.559  1.00  0.00     0.169 HD
BRANCH  35  37
HETATM   37  C25 UNL     1       9.403  25.476   3.836  1.00  0.00     0.094 C 
BRANCH  37  38
HETATM   38  C26 UNL     1       8.266  26.432   3.744  1.00  0.00     0.122 C 
BRANCH  38  39
HETATM   39  C27 UNL     1       7.075  25.673   3.059  1.00  0.00     0.021 A 
HETATM   40  C28 UNL     1       6.733  26.063   1.832  1.00  0.00     0.076 A 
HETATM   41  S1  UNL     1       5.105  25.283   1.687  1.00  0.00    -0.095 SA
HETATM   42  C29 UNL     1       5.296  24.449   3.248  1.00  0.00     0.138 A 
HETATM   43  N5  UNL     1       6.387  24.889   3.705  1.00  0.00    -0.363 N 
ATOM     44  H5  UNL     1       6.701  24.588   4.628  1.00  0.00     0.165 HD
ENDBRANCH  38  39
ENDBRANCH  37  38
BRANCH  37  45
HETATM   45  C30 UNL     1       9.673  24.459   2.905  1.00  0.00     0.222 C 
HETATM   46  O7  UNL     1      10.315  24.574   1.867  1.00  0.00    -0.643 OA
HETATM   47  O8  UNL     1       9.235  23.182   3.239  1.00  0.00    -0.643 OA
ENDBRANCH  37  45
ENDBRANCH  35  37
ENDBRANCH   6  33
BRANCH   1  48
HETATM   48  O1  UNL     1       7.722  28.869   8.975  1.00  0.00    -0.304 OA
BRANCH  48  49
HETATM   49  C2  UNL     1       6.447  29.429   8.712  1.00  0.00     0.176 C 
HETATM   50  C1  UNL     1       5.537  28.483   7.977  1.00  0.00     0.034 C 
ENDBRANCH  48  49
ENDBRANCH   1  48
TORSDOF 18
ENDMDL
