MODEL 1
REMARK VINA RESULT: -4.737065864      0.000      0.000
REMARK  7 active torsions:
REMARK  status: ('A' for Active; 'I' for Inactive)
REMARK    1  A    between atoms: C2_2  and  N1_3 
REMARK    2  A    between atoms: C5_6  and  C6_7 
REMARK    3  A    between atoms: C5_6  and  C7_10 
REMARK    4  A    between atoms: C6_7  and  O1_8 
REMARK    5  A    between atoms: C7_10  and  C8_11 
REMARK    6  A    between atoms: C8_11  and  O2_12 
REMARK    7  A    between atoms: C9_14  and  O3_15 
ROOT
HETATM    1  N1  UNL     1      40.293  -2.721  30.435  1.00  0.00     0.008 N 
HETATM    2  C3  UNL     1      39.211  -3.282  29.614  1.00  0.00     0.302 C 
HETATM    3  C4  UNL     1      41.201  -2.085  29.531  1.00  0.00     0.278 C 
HETATM    4  C5  UNL     1      42.426  -2.835  29.149  1.00  0.00     0.035 C 
HETATM    5  C9  UNL     1      43.436  -3.067  30.186  1.00  0.00     0.135 C 
HETATM    6  C10 UNL     1      43.011  -2.864  31.603  1.00  0.00     0.079 C 
HETATM    7  C11 UNL     1      41.828  -3.627  32.038  1.00  0.00     0.089 C 
HETATM    8  N2  UNL     1      40.744  -3.741  31.173  1.00  0.00    -0.232 N 
ATOM      9  H2  UNL     1      40.272  -4.642  31.100  1.00  0.00     0.192 HD
ENDROOT
BRANCH   4  10
HETATM   10  C6  UNL     1      42.096  -4.156  28.437  1.00  0.00     0.178 C 
BRANCH  10  11
HETATM   11  O1  UNL     1      42.731  -4.222  27.211  1.00  0.00    -0.400 OA
ATOM     12  H1  UNL     1      42.221  -3.776  26.544  1.00  0.00     0.209 HD
ENDBRANCH  10  11
ENDBRANCH   4  10
BRANCH   4  13
HETATM   13  C7  UNL     1      43.093  -2.027  28.045  1.00  0.00     0.042 C 
BRANCH  13  14
HETATM   14  C8  UNL     1      44.207  -1.172  28.508  1.00  0.00     0.165 C 
BRANCH  14  15
HETATM   15  O2  UNL     1      43.832   0.185  28.439  1.00  0.00    -0.401 OA
ATOM     16  H2  UNL     1      43.195   0.311  27.747  1.00  0.00     0.209 HD
ENDBRANCH  14  15
ENDBRANCH  13  14
ENDBRANCH   4  13
BRANCH   5  17
HETATM   17  O3  UNL     1      43.926  -4.371  30.060  1.00  0.00    -0.394 OA
ATOM     18  H3  UNL     1      44.873  -4.353  30.131  1.00  0.00     0.210 HD
ENDBRANCH   5  17
BRANCH   1  19
HETATM   19  C2  UNL     1      39.589  -1.677  31.204  1.00  0.00     0.260 C 
HETATM   20  C1  UNL     1      39.327  -0.455  30.404  1.00  0.00     0.037 C 
ENDBRANCH   1  19
TORSDOF 7
ENDMDL
MODEL 2
REMARK VINA RESULT: -4.517595137      2.006      3.785
REMARK  7 active torsions:
REMARK  status: ('A' for Active; 'I' for Inactive)
REMARK    1  A    between atoms: C2_2  and  N1_3 
REMARK    2  A    between atoms: C5_6  and  C6_7 
REMARK    3  A    between atoms: C5_6  and  C7_10 
REMARK    4  A    between atoms: C6_7  and  O1_8 
REMARK    5  A    between atoms: C7_10  and  C8_11 
REMARK    6  A    between atoms: C8_11  and  O2_12 
REMARK    7  A    between atoms: C9_14  and  O3_15 
ROOT
HETATM    1  N1  UNL     1      42.588  -4.798  30.084  1.00  0.00     0.008 N 
HETATM    2  C3  UNL     1      43.843  -5.089  30.792  1.00  0.00     0.302 C 
HETATM    3  C4  UNL     1      42.956  -4.260  28.811  1.00  0.00     0.278 C 
HETATM    4  C5  UNL     1      42.915  -2.782  28.654  1.00  0.00     0.035 C 
HETATM    5  C9  UNL     1      41.604  -2.128  28.685  1.00  0.00     0.135 C 
HETATM    6  C10 UNL     1      40.462  -2.924  29.227  1.00  0.00     0.079 C 
HETATM    7  C11 UNL     1      40.648  -3.481  30.577  1.00  0.00     0.089 C 
HETATM    8  N2  UNL     1      41.880  -4.028  30.918  1.00  0.00    -0.232 N 
ATOM      9  H2  UNL     1      42.260  -3.834  31.844  1.00  0.00     0.192 HD
ENDROOT
BRANCH   4  10
HETATM   10  C6  UNL     1      43.876  -2.073  29.621  1.00  0.00     0.178 C 
BRANCH  10  11
HETATM   11  O1  UNL     1      44.675  -1.173  28.941  1.00  0.00    -0.400 OA
ATOM     12  H1  UNL     1      44.997  -0.499  29.529  1.00  0.00     0.209 HD
ENDBRANCH  10  11
ENDBRANCH   4  10
BRANCH   4  13
HETATM   13  C7  UNL     1      43.535  -2.482  27.297  1.00  0.00     0.042 C 
BRANCH  13  14
HETATM   14  C8  UNL     1      43.801  -3.679  26.472  1.00  0.00     0.165 C 
BRANCH  14  15
HETATM   15  O2  UNL     1      44.567  -3.325  25.342  1.00  0.00    -0.401 OA
ATOM     16  H2  UNL     1      44.004  -2.955  24.672  1.00  0.00     0.209 HD
ENDBRANCH  14  15
ENDBRANCH  13  14
ENDBRANCH   4  13
BRANCH   5  17
HETATM   17  O3  UNL     1      41.703  -0.946  29.425  1.00  0.00    -0.394 OA
ATOM     18  H3  UNL     1      41.451  -0.215  28.874  1.00  0.00     0.210 HD
ENDBRANCH   5  17
BRANCH   1  19
HETATM   19  C2  UNL     1      42.028  -6.148  29.879  1.00  0.00     0.260 C 
HETATM   20  C1  UNL     1      42.760  -7.194  30.637  1.00  0.00     0.037 C 
ENDBRANCH   1  19
TORSDOF 7
ENDMDL
MODEL 3
REMARK VINA RESULT: -4.298386768      6.940      8.225
REMARK  7 active torsions:
REMARK  status: ('A' for Active; 'I' for Inactive)
REMARK    1  A    between atoms: C2_2  and  N1_3 
REMARK    2  A    between atoms: C5_6  and  C6_7 
REMARK    3  A    between atoms: C5_6  and  C7_10 
REMARK    4  A    between atoms: C6_7  and  O1_8 
REMARK    5  A    between atoms: C7_10  and  C8_11 
REMARK    6  A    between atoms: C8_11  and  O2_12 
REMARK    7  A    between atoms: C9_14  and  O3_15 
ROOT
HETATM    1  N1  UNL     1      43.450   2.795  36.571  1.00  0.00     0.008 N 
HETATM    2  C3  UNL     1      44.221   4.022  36.330  1.00  0.00     0.302 C 
HETATM    3  C4  UNL     1      44.393   1.719  36.586  1.00  0.00     0.278 C 
HETATM    4  C5  UNL     1      44.528   0.909  35.348  1.00  0.00     0.035 C 
HETATM    5  C9  UNL     1      43.394   0.067  34.956  1.00  0.00     0.135 C 
HETATM    6  C10 UNL     1      42.080   0.354  35.605  1.00  0.00     0.079 C 
HETATM    7  C11 UNL     1      41.592   1.739  35.488  1.00  0.00     0.089 C 
HETATM    8  N2  UNL     1      42.494   2.787  35.636  1.00  0.00    -0.232 N 
ATOM      9  H2  UNL     1      42.422   3.584  35.005  1.00  0.00     0.192 HD
ENDROOT
BRANCH   4  10
HETATM   10  C6  UNL     1      44.988   1.756  34.151  1.00  0.00     0.178 C 
BRANCH  10  11
HETATM   11  O1  UNL     1      46.117   1.209  33.571  1.00  0.00    -0.400 OA
ATOM     12  H1  UNL     1      46.194   1.482  32.664  1.00  0.00     0.209 HD
ENDBRANCH  10  11
ENDBRANCH   4  10
BRANCH   4  13
HETATM   13  C7  UNL     1      45.717  -0.015  35.571  1.00  0.00     0.042 C 
BRANCH  13  14
HETATM   14  C8  UNL     1      46.582   0.374  36.704  1.00  0.00     0.165 C 
BRANCH  14  15
HETATM   15  O2  UNL     1      47.845   0.784  36.228  1.00  0.00    -0.401 OA
ATOM     16  H2  UNL     1      48.426   0.036  36.164  1.00  0.00     0.209 HD
ENDBRANCH  14  15
ENDBRANCH  13  14
ENDBRANCH   4  13
BRANCH   5  17
HETATM   17  O3  UNL     1      43.224   0.149  33.570  1.00  0.00    -0.394 OA
ATOM     18  H3  UNL     1      42.363   0.505  33.385  1.00  0.00     0.210 HD
ENDBRANCH   5  17
BRANCH   1  19
HETATM   19  C2  UNL     1      42.956   3.005  37.946  1.00  0.00     0.260 C 
HETATM   20  C1  UNL     1      43.400   1.942  38.883  1.00  0.00     0.037 C 
ENDBRANCH   1  19
TORSDOF 7
ENDMDL
MODEL 4
REMARK VINA RESULT: -4.292106847      6.738      8.490
REMARK  7 active torsions:
REMARK  status: ('A' for Active; 'I' for Inactive)
REMARK    1  A    between atoms: C2_2  and  N1_3 
REMARK    2  A    between atoms: C5_6  and  C6_7 
REMARK    3  A    between atoms: C5_6  and  C7_10 
REMARK    4  A    between atoms: C6_7  and  O1_8 
REMARK    5  A    between atoms: C7_10  and  C8_11 
REMARK    6  A    between atoms: C8_11  and  O2_12 
REMARK    7  A    between atoms: C9_14  and  O3_15 
ROOT
HETATM    1  N1  UNL     1      46.002   0.617  36.539  1.00  0.00     0.008 N 
HETATM    2  C3  UNL     1      47.024   0.098  35.619  1.00  0.00     0.302 C 
HETATM    3  C4  UNL     1      44.748   0.095  36.089  1.00  0.00     0.278 C 
HETATM    4  C5  UNL     1      43.887   0.989  35.272  1.00  0.00     0.035 C 
HETATM    5  C9  UNL     1      43.299   2.159  35.929  1.00  0.00     0.135 C 
HETATM    6  C10 UNL     1      43.886   2.566  37.241  1.00  0.00     0.079 C 
HETATM    7  C11 UNL     1      45.339   2.807  37.250  1.00  0.00     0.089 C 
HETATM    8  N2  UNL     1      46.171   1.944  36.545  1.00  0.00    -0.232 N 
ATOM      9  H2  UNL     1      46.943   2.340  36.010  1.00  0.00     0.192 HD
ENDROOT
BRANCH   4  10
HETATM   10  C6  UNL     1      44.574   1.414  33.965  1.00  0.00     0.178 C 
BRANCH  10  11
HETATM   11  O1  UNL     1      43.799   1.071  32.872  1.00  0.00    -0.400 OA
ATOM     12  H1  UNL     1      43.727   1.802  32.269  1.00  0.00     0.209 HD
ENDBRANCH  10  11
ENDBRANCH   4  10
BRANCH   4  13
HETATM   13  C7  UNL     1      42.736   0.128  34.771  1.00  0.00     0.042 C 
BRANCH  13  14
HETATM   14  C8  UNL     1      43.044  -1.315  34.699  1.00  0.00     0.165 C 
BRANCH  14  15
HETATM   15  O2  UNL     1      42.979  -1.755  33.361  1.00  0.00    -0.401 OA
ATOM     16  H2  UNL     1      43.766  -1.496  32.897  1.00  0.00     0.209 HD
ENDBRANCH  14  15
ENDBRANCH  13  14
ENDBRANCH   4  13
BRANCH   5  17
HETATM   17  O3  UNL     1      43.370   3.252  35.061  1.00  0.00    -0.394 OA
ATOM     18  H3  UNL     1      44.067   3.830  35.348  1.00  0.00     0.210 HD
ENDBRANCH   5  17
BRANCH   1  19
HETATM   19  C2  UNL     1      46.360  -0.048  37.807  1.00  0.00     0.260 C 
HETATM   20  C1  UNL     1      47.777   0.170  38.189  1.00  0.00     0.037 C 
ENDBRANCH   1  19
TORSDOF 7
ENDMDL
MODEL 5
REMARK VINA RESULT: -4.240492359      7.398      8.767
REMARK  7 active torsions:
REMARK  status: ('A' for Active; 'I' for Inactive)
REMARK    1  A    between atoms: C2_2  and  N1_3 
REMARK    2  A    between atoms: C5_6  and  C6_7 
REMARK    3  A    between atoms: C5_6  and  C7_10 
REMARK    4  A    between atoms: C6_7  and  O1_8 
REMARK    5  A    between atoms: C7_10  and  C8_11 
REMARK    6  A    between atoms: C8_11  and  O2_12 
REMARK    7  A    between atoms: C9_14  and  O3_15 
ROOT
HETATM    1  N1  UNL     1      44.630   2.426  37.194  1.00  0.00     0.008 N 
HETATM    2  C3  UNL     1      44.614   3.668  36.409  1.00  0.00     0.302 C 
HETATM    3  C4  UNL     1      45.799   1.706  36.792  1.00  0.00     0.278 C 
HETATM    4  C5  UNL     1      45.622   0.606  35.808  1.00  0.00     0.035 C 
HETATM    5  C9  UNL     1      44.892  -0.588  36.243  1.00  0.00     0.135 C 
HETATM    6  C10 UNL     1      44.079  -0.469  37.490  1.00  0.00     0.079 C 
HETATM    7  C11 UNL     1      43.087   0.620  37.511  1.00  0.00     0.089 C 
HETATM    8  N2  UNL     1      43.435   1.860  36.988  1.00  0.00    -0.232 N 
ATOM      9  H2  UNL     1      42.750   2.361  36.423  1.00  0.00     0.192 HD
ENDROOT
BRANCH   4  10
HETATM   10  C6  UNL     1      45.050   1.111  34.474  1.00  0.00     0.178 C 
BRANCH  10  11
HETATM   11  O1  UNL     1      45.803   0.645  33.413  1.00  0.00    -0.400 OA
ATOM     12  H1  UNL     1      45.306   0.688  32.604  1.00  0.00     0.209 HD
ENDBRANCH  10  11
ENDBRANCH   4  10
BRANCH   4  13
HETATM   13  C7  UNL     1      47.023   0.158  35.414  1.00  0.00     0.042 C 
BRANCH  13  14
HETATM   14  C8  UNL     1      47.825  -0.380  36.533  1.00  0.00     0.165 C 
BRANCH  14  15
HETATM   15  O2  UNL     1      48.644  -1.432  36.076  1.00  0.00    -0.401 OA
ATOM     16  H2  UNL     1      49.499  -1.096  35.834  1.00  0.00     0.209 HD
ENDBRANCH  14  15
ENDBRANCH  13  14
ENDBRANCH   4  13
BRANCH   5  17
HETATM   17  O3  UNL     1      44.048  -1.007  35.210  1.00  0.00    -0.394 OA
ATOM     18  H3  UNL     1      43.151  -1.002  35.522  1.00  0.00     0.210 HD
ENDBRANCH   5  17
BRANCH   1  19
HETATM   19  C2  UNL     1      44.837   2.929  38.565  1.00  0.00     0.260 C 
HETATM   20  C1  UNL     1      45.994   2.290  39.241  1.00  0.00     0.037 C 
ENDBRANCH   1  19
TORSDOF 7
ENDMDL
