MODEL 1
REMARK VINA RESULT: -6.307262399      0.000      0.000
REMARK  5 active torsions:
REMARK  status: ('A' for Active; 'I' for Inactive)
REMARK    1  A    between atoms: N2_7  and  C4_8 
REMARK    2  A    between atoms: C4_8  and  C5_9 
REMARK    3  A    between atoms: C5_9  and  C6_10 
REMARK    4  A    between atoms: C6_10  and  N3_11 
REMARK    5  A    between atoms: N3_11  and  C7_13 
ROOT
HETATM    1  N1  UNL     1      44.501  -3.296  24.489  1.00  0.00    -0.389 N 
ATOM      2  H11 UNL     1      44.116  -4.100  23.995  1.00  0.00     0.157 HD
ATOM      3  H12 UNL     1      45.068  -2.540  24.105  1.00  0.00     0.157 HD
HETATM    4  C1  UNL     1      44.269  -3.174  25.752  1.00  0.00     0.072 C 
HETATM    5  C2  UNL     1      44.822  -2.019  26.463  1.00  0.00     0.106 C 
HETATM    6  C3  UNL     1      43.836  -1.208  27.222  1.00  0.00     0.280 C 
HETATM    7  N2  UNL     1      43.067  -1.901  28.183  1.00  0.00     0.090 N 
HETATM    8  C8  UNL     1      43.454  -3.239  28.460  1.00  0.00     0.292 C 
HETATM    9  C9  UNL     1      42.757  -4.207  27.535  1.00  0.00     0.151 C 
HETATM   10  N5  UNL     1      43.482  -4.224  26.286  1.00  0.00    -0.378 N 
ATOM     11  H5  UNL     1      43.421  -5.080  25.732  1.00  0.00     0.160 HD
ENDROOT
BRANCH   7  12
HETATM   12  C4  UNL     1      42.985  -1.145  29.404  1.00  0.00     0.274 C 
BRANCH  12  13
HETATM   13  C5  UNL     1      43.768  -1.916  30.453  1.00  0.00     0.050 C 
BRANCH  13  14
HETATM   14  C6  UNL     1      43.209  -1.533  31.796  1.00  0.00     0.123 C 
BRANCH  14  15
HETATM   15  N3  UNL     1      43.799  -0.345  32.355  1.00  0.00    -0.369 N 
ATOM     16  H3  UNL     1      43.465   0.563  32.032  1.00  0.00     0.161 HD
BRANCH  15  17
HETATM   17  C7  UNL     1      44.816  -0.378  33.328  1.00  0.00     0.180 C 
HETATM   18  N4  UNL     1      45.892   0.542  33.284  1.00  0.00    -0.070 NA
HETATM   19  S1  UNL     1      44.784  -1.472  34.529  1.00  0.00    -0.044 SA
ENDBRANCH  15  17
ENDBRANCH  14  15
ENDBRANCH  13  14
ENDBRANCH  12  13
ENDBRANCH   7  12
TORSDOF 5
ENDMDL
MODEL 2
REMARK VINA RESULT: -6.188457189      1.019      1.704
REMARK  5 active torsions:
REMARK  status: ('A' for Active; 'I' for Inactive)
REMARK    1  A    between atoms: N2_7  and  C4_8 
REMARK    2  A    between atoms: C4_8  and  C5_9 
REMARK    3  A    between atoms: C5_9  and  C6_10 
REMARK    4  A    between atoms: C6_10  and  N3_11 
REMARK    5  A    between atoms: N3_11  and  C7_13 
ROOT
HETATM    1  N1  UNL     1      44.526  -3.377  24.257  1.00  0.00    -0.389 N 
ATOM      2  H11 UNL     1      44.883  -2.688  23.596  1.00  0.00     0.157 HD
ATOM      3  H12 UNL     1      44.483  -4.389  24.139  1.00  0.00     0.157 HD
HETATM    4  C1  UNL     1      44.067  -2.970  25.391  1.00  0.00     0.072 C 
HETATM    5  C2  UNL     1      43.554  -3.960  26.341  1.00  0.00     0.106 C 
HETATM    6  C3  UNL     1      44.154  -3.909  27.699  1.00  0.00     0.280 C 
HETATM    7  N2  UNL     1      44.067  -2.670  28.371  1.00  0.00     0.090 N 
HETATM    8  C8  UNL     1      43.249  -1.677  27.771  1.00  0.00     0.292 C 
HETATM    9  C9  UNL     1      44.043  -0.837  26.799  1.00  0.00     0.151 C 
HETATM   10  N5  UNL     1      44.128  -1.564  25.554  1.00  0.00    -0.378 N 
ATOM     11  H5  UNL     1      44.243  -1.008  24.706  1.00  0.00     0.160 HD
ENDROOT
BRANCH   7  12
HETATM   12  C4  UNL     1      43.681  -2.867  29.743  1.00  0.00     0.274 C 
BRANCH  12  13
HETATM   13  C5  UNL     1      43.423  -1.490  30.331  1.00  0.00     0.050 C 
BRANCH  13  14
HETATM   14  C6  UNL     1      43.426  -1.639  31.828  1.00  0.00     0.123 C 
BRANCH  14  15
HETATM   15  N3  UNL     1      43.808  -0.441  32.531  1.00  0.00    -0.369 N 
ATOM     16  H3  UNL     1      43.261   0.406  32.380  1.00  0.00     0.161 HD
BRANCH  15  17
HETATM   17  C7  UNL     1      44.901  -0.386  33.416  1.00  0.00     0.180 C 
HETATM   18  N4  UNL     1      45.906   0.600  33.268  1.00  0.00    -0.070 NA
HETATM   19  S1  UNL     1      45.041  -1.454  34.633  1.00  0.00    -0.044 SA
ENDBRANCH  15  17
ENDBRANCH  14  15
ENDBRANCH  13  14
ENDBRANCH  12  13
ENDBRANCH   7  12
TORSDOF 5
ENDMDL
MODEL 3
REMARK VINA RESULT: -6.064343089      2.550      3.356
REMARK  5 active torsions:
REMARK  status: ('A' for Active; 'I' for Inactive)
REMARK    1  A    between atoms: N2_7  and  C4_8 
REMARK    2  A    between atoms: C4_8  and  C5_9 
REMARK    3  A    between atoms: C5_9  and  C6_10 
REMARK    4  A    between atoms: C6_10  and  N3_11 
REMARK    5  A    between atoms: N3_11  and  C7_13 
ROOT
HETATM    1  N1  UNL     1      44.606  -3.443  24.256  1.00  0.00    -0.389 N 
ATOM      2  H11 UNL     1      45.005  -2.778  23.594  1.00  0.00     0.157 HD
ATOM      3  H12 UNL     1      44.543  -4.456  24.160  1.00  0.00     0.157 HD
HETATM    4  C1  UNL     1      44.113  -2.998  25.361  1.00  0.00     0.072 C 
HETATM    5  C2  UNL     1      43.539  -3.953  26.313  1.00  0.00     0.106 C 
HETATM    6  C3  UNL     1      44.086  -3.882  27.692  1.00  0.00     0.280 C 
HETATM    7  N2  UNL     1      44.003  -2.626  28.332  1.00  0.00     0.090 N 
HETATM    8  C8  UNL     1      43.233  -1.630  27.676  1.00  0.00     0.292 C 
HETATM    9  C9  UNL     1      44.084  -0.832  26.717  1.00  0.00     0.151 C 
HETATM   10  N5  UNL     1      44.201  -1.590  25.494  1.00  0.00    -0.378 N 
ATOM     11  H5  UNL     1      44.363  -1.058  24.638  1.00  0.00     0.160 HD
ENDROOT
BRANCH   7  12
HETATM   12  C4  UNL     1      43.558  -2.781  29.691  1.00  0.00     0.274 C 
BRANCH  12  13
HETATM   13  C5  UNL     1      44.013  -1.545  30.448  1.00  0.00     0.050 C 
BRANCH  13  14
HETATM   14  C6  UNL     1      42.867  -1.110  31.319  1.00  0.00     0.123 C 
BRANCH  14  15
HETATM   15  N3  UNL     1      41.982  -0.165  30.689  1.00  0.00    -0.369 N 
ATOM     16  H3  UNL     1      42.366   0.725  30.373  1.00  0.00     0.161 HD
BRANCH  15  17
HETATM   17  C7  UNL     1      40.610  -0.414  30.487  1.00  0.00     0.180 C 
HETATM   18  N4  UNL     1      40.179  -1.537  29.741  1.00  0.00    -0.070 NA
HETATM   19  S1  UNL     1      39.485   0.583  31.103  1.00  0.00    -0.044 SA
ENDBRANCH  15  17
ENDBRANCH  14  15
ENDBRANCH  13  14
ENDBRANCH  12  13
ENDBRANCH   7  12
TORSDOF 5
ENDMDL
MODEL 4
REMARK VINA RESULT: -6.014029315      1.627      2.181
REMARK  5 active torsions:
REMARK  status: ('A' for Active; 'I' for Inactive)
REMARK    1  A    between atoms: N2_7  and  C4_8 
REMARK    2  A    between atoms: C4_8  and  C5_9 
REMARK    3  A    between atoms: C5_9  and  C6_10 
REMARK    4  A    between atoms: C6_10  and  N3_11 
REMARK    5  A    between atoms: N3_11  and  C7_13 
ROOT
HETATM    1  N1  UNL     1      44.527  -3.249  24.396  1.00  0.00    -0.389 N 
ATOM      2  H11 UNL     1      44.150  -4.049  23.890  1.00  0.00     0.157 HD
ATOM      3  H12 UNL     1      45.086  -2.482  24.022  1.00  0.00     0.157 HD
HETATM    4  C1  UNL     1      44.294  -3.147  25.659  1.00  0.00     0.072 C 
HETATM    5  C2  UNL     1      44.835  -1.996  26.387  1.00  0.00     0.106 C 
HETATM    6  C3  UNL     1      43.841  -1.206  27.157  1.00  0.00     0.280 C 
HETATM    7  N2  UNL     1      43.078  -1.920  28.107  1.00  0.00     0.090 N 
HETATM    8  C8  UNL     1      43.478  -3.257  28.367  1.00  0.00     0.292 C 
HETATM    9  C9  UNL     1      42.791  -4.220  27.427  1.00  0.00     0.151 C 
HETATM   10  N5  UNL     1      43.517  -4.212  26.178  1.00  0.00    -0.378 N 
ATOM     11  H5  UNL     1      43.464  -5.060  25.613  1.00  0.00     0.160 HD
ENDROOT
BRANCH   7  12
HETATM   12  C4  UNL     1      42.989  -1.182  29.339  1.00  0.00     0.274 C 
BRANCH  12  13
HETATM   13  C5  UNL     1      43.827  -1.929  30.363  1.00  0.00     0.050 C 
BRANCH  13  14
HETATM   14  C6  UNL     1      43.439  -1.409  31.720  1.00  0.00     0.123 C 
BRANCH  14  15
HETATM   15  N3  UNL     1      42.458  -0.355  31.681  1.00  0.00    -0.369 N 
ATOM     16  H3  UNL     1      42.666   0.483  31.138  1.00  0.00     0.161 HD
BRANCH  15  17
HETATM   17  C7  UNL     1      41.225  -0.428  32.357  1.00  0.00     0.180 C 
HETATM   18  N4  UNL     1      40.078  -0.958  31.718  1.00  0.00    -0.070 NA
HETATM   19  S1  UNL     1      41.084   0.096  33.888  1.00  0.00    -0.044 SA
ENDBRANCH  15  17
ENDBRANCH  14  15
ENDBRANCH  13  14
ENDBRANCH  12  13
ENDBRANCH   7  12
TORSDOF 5
ENDMDL
MODEL 5
REMARK VINA RESULT: -5.970898748      1.461      2.161
REMARK  5 active torsions:
REMARK  status: ('A' for Active; 'I' for Inactive)
REMARK    1  A    between atoms: N2_7  and  C4_8 
REMARK    2  A    between atoms: C4_8  and  C5_9 
REMARK    3  A    between atoms: C5_9  and  C6_10 
REMARK    4  A    between atoms: C6_10  and  N3_11 
REMARK    5  A    between atoms: N3_11  and  C7_13 
ROOT
HETATM    1  N1  UNL     1      44.225  -4.682  25.217  1.00  0.00    -0.389 N 
ATOM      2  H11 UNL     1      44.875  -4.528  24.448  1.00  0.00     0.157 HD
ATOM      3  H12 UNL     1      43.694  -5.528  25.424  1.00  0.00     0.157 HD
HETATM    4  C1  UNL     1      44.019  -3.726  26.058  1.00  0.00     0.072 C 
HETATM    5  C2  UNL     1      43.085  -3.948  27.164  1.00  0.00     0.106 C 
HETATM    6  C3  UNL     1      43.629  -3.677  28.519  1.00  0.00     0.280 C 
HETATM    7  N2  UNL     1      44.155  -2.384  28.732  1.00  0.00     0.090 N 
HETATM    8  C8  UNL     1      43.927  -1.429  27.707  1.00  0.00     0.292 C 
HETATM    9  C9  UNL     1      45.033  -1.464  26.679  1.00  0.00     0.151 C 
HETATM   10  N5  UNL     1      44.757  -2.552  25.770  1.00  0.00    -0.378 N 
ATOM     11  H5  UNL     1      45.132  -2.465  24.825  1.00  0.00     0.160 HD
ENDROOT
BRANCH   7  12
HETATM   12  C4  UNL     1      43.717  -1.864  30.000  1.00  0.00     0.274 C 
BRANCH  12  13
HETATM   13  C5  UNL     1      42.393  -1.161  29.754  1.00  0.00     0.050 C 
BRANCH  13  14
HETATM   14  C6  UNL     1      42.011  -0.472  31.036  1.00  0.00     0.123 C 
BRANCH  14  15
HETATM   15  N3  UNL     1      43.037  -0.509  32.046  1.00  0.00    -0.369 N 
ATOM     16  H3  UNL     1      43.840  -1.122  31.901  1.00  0.00     0.161 HD
BRANCH  15  17
HETATM   17  C7  UNL     1      42.985   0.261  33.223  1.00  0.00     0.180 C 
HETATM   18  N4  UNL     1      44.049   1.127  33.571  1.00  0.00    -0.070 NA
HETATM   19  S1  UNL     1      41.702   0.175  34.216  1.00  0.00    -0.044 SA
ENDBRANCH  15  17
ENDBRANCH  14  15
ENDBRANCH  13  14
ENDBRANCH  12  13
ENDBRANCH   7  12
TORSDOF 5
ENDMDL
