MODEL 1
REMARK VINA RESULT: -7.200236606      0.000      0.000
REMARK  10 active torsions:
REMARK  status: ('A' for Active; 'I' for Inactive)
REMARK    1  A    between atoms: N1_1  and  C1_4 
REMARK    2  A    between atoms: C2_7  and  N3_8 
REMARK    3  A    between atoms: N5_15  and  C5_16 
REMARK    4  A    between atoms: C9_22  and  C10_23 
REMARK    5  A    between atoms: N8_26  and  C11_27 
REMARK    6  A    between atoms: C11_27  and  C12_28 
REMARK    7  A    between atoms: C12_28  and  O1_29 
REMARK    8  A    between atoms: N9_35  and  C16_36 
REMARK    9  A    between atoms: C16_36  and  C17_37 
REMARK   10  A    between atoms: C17_37  and  N10_38 
ROOT
HETATM    1  C1  UNL     1       2.368 -11.716  34.630  1.00  0.00     0.679 A 
HETATM    2  N2  UNL     1       3.679 -11.599  34.878  1.00  0.00    -0.175 N 
ATOM      3  H2  UNL     1       4.286 -11.229  34.146  1.00  0.00     0.186 HD
HETATM    4  C2  UNL     1       4.234 -11.957  36.075  1.00  0.00     0.146 A 
HETATM    5  C3  UNL     1       3.420 -12.455  37.063  1.00  0.00     0.145 A 
HETATM    6  C4  UNL     1       2.077 -12.559  36.769  1.00  0.00     0.171 A 
HETATM    7  N4  UNL     1       1.548 -12.200  35.579  1.00  0.00    -0.174 N 
ATOM      8  H4  UNL     1       0.548 -12.295  35.404  1.00  0.00     0.186 HD
HETATM    9  N5  UNL     1       1.436 -13.057  37.832  1.00  0.00    -0.160 N 
HETATM   10  C8  UNL     1       2.347 -13.274  38.803  1.00  0.00     0.694 A 
HETATM   11  N6  UNL     1       2.487 -13.717  40.052  1.00  0.00    -0.186 N 
ATOM     12  H6  UNL     1       1.730 -14.058  40.644  1.00  0.00     0.184 HD
HETATM   13  C9  UNL     1       3.774 -13.644  40.406  1.00  0.00     0.111 A 
HETATM   14  C18 UNL     1       4.440 -13.121  39.286  1.00  0.00     0.149 A 
HETATM   15  N11 UNL     1       3.562 -12.901  38.320  1.00  0.00    -0.148 N 
ENDROOT
BRANCH  13  16
HETATM   16  C10 UNL     1       4.432 -14.002  41.647  1.00  0.00     0.155 A 
HETATM   17  N7  UNL     1       5.303 -13.222  42.313  1.00  0.00    -0.277 N 
HETATM   18  N8  UNL     1       5.716 -13.844  43.401  1.00  0.00    -0.238 N 
ATOM     19  H7  UNL     1       5.599 -12.291  42.022  1.00  0.00     0.189 HD
HETATM   20  C15 UNL     1       5.102 -15.036  43.429  1.00  0.00     0.345 A 
HETATM   21  O2  UNL     1       5.272 -15.886  44.337  1.00  0.00    -0.245 OA
HETATM   22  N9  UNL     1       4.293 -15.142  42.330  1.00  0.00    -0.279 N 
BRANCH  18  23
HETATM   23  C11 UNL     1       6.664 -13.295  44.357  1.00  0.00     0.192 C 
BRANCH  23  24
HETATM   24  C12 UNL     1       7.844 -14.203  44.550  1.00  0.00     0.076 A 
HETATM   25  C13 UNL     1       7.741 -15.314  45.546  1.00  0.00     0.042 A 
HETATM   26  C14 UNL     1       8.615 -14.157  45.855  1.00  0.00     0.042 A 
BRANCH  24  27
HETATM   27  O1  UNL     1       8.543 -14.474  43.375  1.00  0.00    -0.388 OA
ATOM     28  H1  UNL     1       9.402 -14.855  43.519  1.00  0.00     0.210 HD
ENDBRANCH  24  27
ENDBRANCH  23  24
ENDBRANCH  18  23
BRANCH  22  29
HETATM   29  C16 UNL     1       3.480 -16.284  42.030  1.00  0.00     0.162 C 
BRANCH  29  30
HETATM   30  C17 UNL     1       2.100 -16.234  42.634  1.00  0.00     0.250 C 
BRANCH  30  31
HETATM   31  N10 UNL     1       1.160 -15.913  41.592  1.00  0.00    -0.078 N 
ATOM     32 3H10 UNL     1       1.102 -14.911  41.411  1.00  0.00     0.274 HD
ATOM     33 2H10 UNL     1       1.483 -16.204  40.669  1.00  0.00     0.274 HD
ATOM     34 1H10 UNL     1       0.257 -16.321  41.837  1.00  0.00     0.274 HD
ENDBRANCH  30  31
ENDBRANCH  29  30
ENDBRANCH  22  29
ENDBRANCH  13  16
BRANCH   9  35
HETATM   35  C5  UNL     1       0.026 -13.334  37.975  1.00  0.00     0.110 A 
HETATM   36  C6  UNL     1      -0.973 -12.267  38.141  1.00  0.00     0.028 A 
HETATM   37  C7  UNL     1      -0.519 -13.026  39.364  1.00  0.00     0.028 A 
ENDBRANCH   9  35
BRANCH   4  38
HETATM   38  N3  UNL     1       5.475 -11.835  36.279  1.00  0.00    -0.383 N 
ATOM     39  H32 UNL     1       5.990 -12.577  36.753  1.00  0.00     0.157 HD
ATOM     40  H31 UNL     1       5.977 -11.001  35.976  1.00  0.00     0.157 HD
ENDBRANCH   4  38
BRANCH   1  41
HETATM   41  N1  UNL     1       1.849 -11.372  33.487  1.00  0.00    -0.234 N 
ATOM     42  H12 UNL     1       2.414 -10.809  32.851  1.00  0.00     0.174 HD
ATOM     43  H11 UNL     1       0.905 -11.649  33.216  1.00  0.00     0.174 HD
ENDBRANCH   1  41
TORSDOF 10
ENDMDL
MODEL 2
REMARK VINA RESULT: -6.186605278      3.454      9.612
REMARK  10 active torsions:
REMARK  status: ('A' for Active; 'I' for Inactive)
REMARK    1  A    between atoms: N1_1  and  C1_4 
REMARK    2  A    between atoms: C2_7  and  N3_8 
REMARK    3  A    between atoms: N5_15  and  C5_16 
REMARK    4  A    between atoms: C9_22  and  C10_23 
REMARK    5  A    between atoms: N8_26  and  C11_27 
REMARK    6  A    between atoms: C11_27  and  C12_28 
REMARK    7  A    between atoms: C12_28  and  O1_29 
REMARK    8  A    between atoms: N9_35  and  C16_36 
REMARK    9  A    between atoms: C16_36  and  C17_37 
REMARK   10  A    between atoms: C17_37  and  N10_38 
ROOT
HETATM    1  C1  UNL     1      10.276 -15.964  48.145  1.00  0.00     0.679 A 
HETATM    2  N2  UNL     1       9.000 -16.058  48.543  1.00  0.00    -0.175 N 
ATOM      3  H2  UNL     1       8.806 -16.345  49.502  1.00  0.00     0.186 HD
HETATM    4  C2  UNL     1       7.950 -15.784  47.712  1.00  0.00     0.146 A 
HETATM    5  C3  UNL     1       8.207 -15.395  46.420  1.00  0.00     0.145 A 
HETATM    6  C4  UNL     1       9.533 -15.310  46.048  1.00  0.00     0.171 A 
HETATM    7  N4  UNL     1      10.557 -15.587  46.885  1.00  0.00    -0.174 N 
ATOM      8  H4  UNL     1      11.524 -15.511  46.568  1.00  0.00     0.186 HD
HETATM    9  N5  UNL     1       9.603 -14.922  44.771  1.00  0.00    -0.160 N 
HETATM   10  C8  UNL     1       8.343 -14.757  44.317  1.00  0.00     0.694 A 
HETATM   11  N6  UNL     1       7.636 -14.414  43.241  1.00  0.00    -0.186 N 
ATOM     12  H6  UNL     1       8.028 -14.148  42.338  1.00  0.00     0.184 HD
HETATM   13  C9  UNL     1       6.332 -14.475  43.530  1.00  0.00     0.111 A 
HETATM   14  C18 UNL     1       6.266 -14.883  44.873  1.00  0.00     0.149 A 
HETATM   15  N11 UNL     1       7.495 -15.050  45.337  1.00  0.00    -0.148 N 
ENDROOT
BRANCH  13  16
HETATM   16  C10 UNL     1       5.170 -14.200  42.709  1.00  0.00     0.155 A 
HETATM   17  N7  UNL     1       5.038 -13.146  41.883  1.00  0.00    -0.277 N 
HETATM   18  N8  UNL     1       3.863 -13.193  41.285  1.00  0.00    -0.238 N 
ATOM     19  H7  UNL     1       5.740 -12.421  41.740  1.00  0.00     0.189 HD
HETATM   20  C15 UNL     1       3.237 -14.290  41.736  1.00  0.00     0.345 A 
HETATM   21  O2  UNL     1       2.087 -14.637  41.367  1.00  0.00    -0.245 OA
HETATM   22  N9  UNL     1       4.053 -14.929  42.630  1.00  0.00    -0.279 N 
BRANCH  18  23
HETATM   23  C11 UNL     1       3.385 -12.211  40.326  1.00  0.00     0.192 C 
BRANCH  23  24
HETATM   24  C12 UNL     1       3.099 -12.837  38.991  1.00  0.00     0.076 A 
HETATM   25  C13 UNL     1       4.132 -13.729  38.377  1.00  0.00     0.042 A 
HETATM   26  C14 UNL     1       3.890 -12.396  37.775  1.00  0.00     0.042 A 
BRANCH  24  27
HETATM   27  O1  UNL     1       1.766 -13.207  38.817  1.00  0.00    -0.388 OA
ATOM     28  H1  UNL     1       1.295 -13.340  39.631  1.00  0.00     0.210 HD
ENDBRANCH  24  27
ENDBRANCH  23  24
ENDBRANCH  18  23
BRANCH  22  29
HETATM   29  C16 UNL     1       3.711 -16.141  43.315  1.00  0.00     0.162 C 
BRANCH  29  30
HETATM   30  C17 UNL     1       3.225 -17.243  42.411  1.00  0.00     0.250 C 
BRANCH  30  31
HETATM   31  N10 UNL     1       4.329 -17.686  41.600  1.00  0.00    -0.078 N 
ATOM     32 3H10 UNL     1       4.039 -17.972  40.665  1.00  0.00     0.274 HD
ATOM     33 2H10 UNL     1       4.946 -16.921  41.326  1.00  0.00     0.274 HD
ATOM     34 1H10 UNL     1       4.822 -18.426  42.102  1.00  0.00     0.274 HD
ENDBRANCH  30  31
ENDBRANCH  29  30
ENDBRANCH  22  29
ENDBRANCH  13  16
BRANCH   9  35
HETATM   35  C5  UNL     1      10.783 -14.702  43.968  1.00  0.00     0.110 A 
HETATM   36  C6  UNL     1      10.849 -15.076  42.546  1.00  0.00     0.028 A 
HETATM   37  C7  UNL     1      11.494 -15.987  43.562  1.00  0.00     0.028 A 
ENDBRANCH   9  35
BRANCH   4  38
HETATM   38  N3  UNL     1       6.758 -15.881  48.117  1.00  0.00    -0.383 N 
ATOM     39  H32 UNL     1       5.993 -15.951  47.445  1.00  0.00     0.157 HD
ATOM     40  H31 UNL     1       6.541 -15.891  49.114  1.00  0.00     0.157 HD
ENDBRANCH   4  38
BRANCH   1  41
HETATM   41  N1  UNL     1      11.270 -16.228  48.943  1.00  0.00    -0.234 N 
ATOM     42  H12 UNL     1      11.893 -16.998  48.698  1.00  0.00     0.174 HD
ATOM     43  H11 UNL     1      11.437 -15.692  49.794  1.00  0.00     0.174 HD
ENDBRANCH   1  41
TORSDOF 10
ENDMDL
MODEL 3
REMARK VINA RESULT: -5.933821317      1.832      3.397
REMARK  10 active torsions:
REMARK  status: ('A' for Active; 'I' for Inactive)
REMARK    1  A    between atoms: N1_1  and  C1_4 
REMARK    2  A    between atoms: C2_7  and  N3_8 
REMARK    3  A    between atoms: N5_15  and  C5_16 
REMARK    4  A    between atoms: C9_22  and  C10_23 
REMARK    5  A    between atoms: N8_26  and  C11_27 
REMARK    6  A    between atoms: C11_27  and  C12_28 
REMARK    7  A    between atoms: C12_28  and  O1_29 
REMARK    8  A    between atoms: N9_35  and  C16_36 
REMARK    9  A    between atoms: C16_36  and  C17_37 
REMARK   10  A    between atoms: C17_37  and  N10_38 
ROOT
HETATM    1  C1  UNL     1       0.064 -12.144  38.046  1.00  0.00     0.679 A 
HETATM    2  N2  UNL     1      -0.404 -12.758  39.140  1.00  0.00    -0.175 N 
ATOM      3  H2  UNL     1      -1.409 -12.914  39.223  1.00  0.00     0.186 HD
HETATM    4  C2  UNL     1       0.413 -13.184  40.150  1.00  0.00     0.146 A 
HETATM    5  C3  UNL     1       1.767 -12.977  40.042  1.00  0.00     0.145 A 
HETATM    6  C4  UNL     1       2.210 -12.342  38.901  1.00  0.00     0.171 A 
HETATM    7  N4  UNL     1       1.385 -11.928  37.914  1.00  0.00    -0.174 N 
ATOM      8  H4  UNL     1       1.756 -11.462  37.087  1.00  0.00     0.186 HD
HETATM    9  N5  UNL     1       3.541 -12.223  38.958  1.00  0.00    -0.160 N 
HETATM   10  C8  UNL     1       3.957 -12.771  40.118  1.00  0.00     0.694 A 
HETATM   11  N6  UNL     1       5.045 -13.023  40.846  1.00  0.00    -0.186 N 
ATOM     12  H6  UNL     1       6.000 -12.781  40.582  1.00  0.00     0.184 HD
HETATM   13  C9  UNL     1       4.688 -13.643  41.976  1.00  0.00     0.111 A 
HETATM   14  C18 UNL     1       3.290 -13.764  41.909  1.00  0.00     0.149 A 
HETATM   15  N11 UNL     1       2.861 -13.231  40.776  1.00  0.00    -0.148 N 
ENDROOT
BRANCH  13  16
HETATM   16  C10 UNL     1       5.491 -14.121  43.084  1.00  0.00     0.155 A 
HETATM   17  N7  UNL     1       6.645 -13.567  43.498  1.00  0.00    -0.277 N 
HETATM   18  N8  UNL     1       7.120 -14.243  44.526  1.00  0.00    -0.238 N 
ATOM     19  H7  UNL     1       7.087 -12.748  43.080  1.00  0.00     0.189 HD
HETATM   20  C15 UNL     1       6.258 -15.241  44.771  1.00  0.00     0.345 A 
HETATM   21  O2  UNL     1       6.409 -16.081  45.692  1.00  0.00    -0.245 OA
HETATM   22  N9  UNL     1       5.231 -15.170  43.869  1.00  0.00    -0.279 N 
BRANCH  18  23
HETATM   23  C11 UNL     1       8.353 -13.924  45.226  1.00  0.00     0.192 C 
BRANCH  23  24
HETATM   24  C12 UNL     1       9.508 -14.732  44.707  1.00  0.00     0.076 A 
HETATM   25  C13 UNL     1       9.784 -16.069  45.320  1.00  0.00     0.042 A 
HETATM   26  C14 UNL     1      10.721 -14.952  45.590  1.00  0.00     0.042 A 
BRANCH  24  27
HETATM   27  O1  UNL     1       9.701 -14.619  43.331  1.00  0.00    -0.388 OA
ATOM     28  H1  UNL     1       9.875 -15.447  42.899  1.00  0.00     0.210 HD
ENDBRANCH  24  27
ENDBRANCH  23  24
ENDBRANCH  18  23
BRANCH  22  29
HETATM   29  C16 UNL     1       4.123 -16.078  43.830  1.00  0.00     0.162 C 
BRANCH  29  30
HETATM   30  C17 UNL     1       4.085 -16.952  42.604  1.00  0.00     0.250 C 
BRANCH  30  31
HETATM   31  N10 UNL     1       2.774 -16.858  42.018  1.00  0.00    -0.078 N 
ATOM     32 3H10 UNL     1       2.263 -17.740  42.056  1.00  0.00     0.274 HD
ATOM     33 2H10 UNL     1       2.131 -16.301  42.583  1.00  0.00     0.274 HD
ATOM     34 1H10 UNL     1       2.870 -16.500  41.068  1.00  0.00     0.274 HD
ENDBRANCH  30  31
ENDBRANCH  29  30
ENDBRANCH  22  29
ENDBRANCH  13  16
BRANCH   9  35
HETATM   35  C5  UNL     1       4.426 -11.626  37.986  1.00  0.00     0.110 A 
HETATM   36  C6  UNL     1       3.980 -11.271  36.629  1.00  0.00     0.028 A 
HETATM   37  C7  UNL     1       4.764 -12.547  36.821  1.00  0.00     0.028 A 
ENDBRANCH   9  35
BRANCH   4  38
HETATM   38  N3  UNL     1      -0.059 -13.760  41.170  1.00  0.00    -0.383 N 
ATOM     39  H32 UNL     1       0.262 -13.495  42.101  1.00  0.00     0.157 HD
ATOM     40  H31 UNL     1      -0.763 -14.493  41.080  1.00  0.00     0.157 HD
ENDBRANCH   4  38
BRANCH   1  41
HETATM   41  N1  UNL     1      -0.722 -11.742  37.090  1.00  0.00    -0.234 N 
ATOM     42  H12 UNL     1      -1.354 -12.422  36.668  1.00  0.00     0.174 HD
ATOM     43  H11 UNL     1      -0.722 -10.777  36.758  1.00  0.00     0.174 HD
ENDBRANCH   1  41
TORSDOF 10
ENDMDL
MODEL 4
REMARK VINA RESULT: -4.975330580      1.654      3.327
REMARK  10 active torsions:
REMARK  status: ('A' for Active; 'I' for Inactive)
REMARK    1  A    between atoms: N1_1  and  C1_4 
REMARK    2  A    between atoms: C2_7  and  N3_8 
REMARK    3  A    between atoms: N5_15  and  C5_16 
REMARK    4  A    between atoms: C9_22  and  C10_23 
REMARK    5  A    between atoms: N8_26  and  C11_27 
REMARK    6  A    between atoms: C11_27  and  C12_28 
REMARK    7  A    between atoms: C12_28  and  O1_29 
REMARK    8  A    between atoms: N9_35  and  C16_36 
REMARK    9  A    between atoms: C16_36  and  C17_37 
REMARK   10  A    between atoms: C17_37  and  N10_38 
ROOT
HETATM    1  C1  UNL     1       2.540 -11.447  33.425  1.00  0.00     0.679 A 
HETATM    2  N2  UNL     1       1.551 -12.218  33.896  1.00  0.00    -0.175 N 
ATOM      3  H2  UNL     1       0.740 -12.393  33.302  1.00  0.00     0.186 HD
HETATM    4  C2  UNL     1       1.587 -12.779  35.142  1.00  0.00     0.146 A 
HETATM    5  C3  UNL     1       2.678 -12.546  35.945  1.00  0.00     0.145 A 
HETATM    6  C4  UNL     1       3.674 -11.748  35.424  1.00  0.00     0.171 A 
HETATM    7  N4  UNL     1       3.619 -11.202  34.189  1.00  0.00    -0.174 N 
ATOM      8  H4  UNL     1       4.379 -10.617  33.843  1.00  0.00     0.186 HD
HETATM    9  N5  UNL     1       4.652 -11.625  36.328  1.00  0.00    -0.160 N 
HETATM   10  C8  UNL     1       4.298 -12.333  37.420  1.00  0.00     0.694 A 
HETATM   11  N6  UNL     1       4.702 -12.678  38.642  1.00  0.00    -0.186 N 
ATOM     12  H6  UNL     1       5.579 -12.391  39.076  1.00  0.00     0.184 HD
HETATM   13  C9  UNL     1       3.777 -13.458  39.211  1.00  0.00     0.111 A 
HETATM   14  C18 UNL     1       2.755 -13.582  38.257  1.00  0.00     0.149 A 
HETATM   15  N11 UNL     1       3.084 -12.894  37.175  1.00  0.00    -0.148 N 
ENDROOT
BRANCH  13  16
HETATM   16  C10 UNL     1       3.746 -14.085  40.518  1.00  0.00     0.155 A 
HETATM   17  N7  UNL     1       4.784 -14.143  41.373  1.00  0.00    -0.277 N 
HETATM   18  N8  UNL     1       4.422 -14.781  42.469  1.00  0.00    -0.238 N 
ATOM     19  H7  UNL     1       5.710 -13.753  41.200  1.00  0.00     0.189 HD
HETATM   20  C15 UNL     1       3.138 -15.134  42.312  1.00  0.00     0.345 A 
HETATM   21  O2  UNL     1       2.478 -15.762  43.177  1.00  0.00    -0.245 OA
HETATM   22  N9  UNL     1       2.706 -14.699  41.088  1.00  0.00    -0.279 N 
BRANCH  18  23
HETATM   23  C11 UNL     1       5.294 -15.028  43.606  1.00  0.00     0.192 C 
BRANCH  23  24
HETATM   24  C12 UNL     1       6.414 -14.030  43.671  1.00  0.00     0.076 A 
HETATM   25  C13 UNL     1       7.809 -14.495  43.396  1.00  0.00     0.042 A 
HETATM   26  C14 UNL     1       7.439 -14.130  44.784  1.00  0.00     0.042 A 
BRANCH  24  27
HETATM   27  O1  UNL     1       6.069 -12.765  43.199  1.00  0.00    -0.388 OA
ATOM     28  H1  UNL     1       6.778 -12.312  42.759  1.00  0.00     0.210 HD
ENDBRANCH  24  27
ENDBRANCH  23  24
ENDBRANCH  18  23
BRANCH  22  29
HETATM   29  C16 UNL     1       1.381 -14.900  40.580  1.00  0.00     0.162 C 
BRANCH  29  30
HETATM   30  C17 UNL     1       0.403 -13.821  40.966  1.00  0.00     0.250 C 
BRANCH  30  31
HETATM   31  N10 UNL     1      -0.339 -13.439  39.793  1.00  0.00    -0.078 N 
ATOM     32 3H10 UNL     1      -0.034 -13.937  38.957  1.00  0.00     0.274 HD
ATOM     33 2H10 UNL     1      -1.302 -13.776  39.812  1.00  0.00     0.274 HD
ATOM     34 1H10 UNL     1      -0.281 -12.426  39.690  1.00  0.00     0.274 HD
ENDBRANCH  30  31
ENDBRANCH  29  30
ENDBRANCH  22  29
ENDBRANCH  13  16
BRANCH   9  35
HETATM   35  C5  UNL     1       5.887 -10.886  36.214  1.00  0.00     0.110 A 
HETATM   36  C6  UNL     1       6.469 -10.147  37.345  1.00  0.00     0.028 A 
HETATM   37  C7  UNL     1       5.704  -9.376  36.297  1.00  0.00     0.028 A 
ENDBRANCH   9  35
BRANCH   4  38
HETATM   38  N3  UNL     1       0.639 -13.501  35.558  1.00  0.00    -0.383 N 
ATOM     39  H32 UNL     1      -0.138 -13.081  36.069  1.00  0.00     0.157 HD
ATOM     40  H31 UNL     1       0.634 -14.507  35.393  1.00  0.00     0.157 HD
ENDBRANCH   4  38
BRANCH   1  41
HETATM   41  N1  UNL     1       2.496 -10.918  32.236  1.00  0.00    -0.234 N 
ATOM     42  H12 UNL     1       2.973 -10.028  32.087  1.00  0.00     0.174 HD
ATOM     43  H11 UNL     1       2.003 -11.364  31.463  1.00  0.00     0.174 HD
ENDBRANCH   1  41
TORSDOF 10
ENDMDL
MODEL 5
REMARK VINA RESULT: -4.429398595      2.951      5.605
REMARK  10 active torsions:
REMARK  status: ('A' for Active; 'I' for Inactive)
REMARK    1  A    between atoms: N1_1  and  C1_4 
REMARK    2  A    between atoms: C2_7  and  N3_8 
REMARK    3  A    between atoms: N5_15  and  C5_16 
REMARK    4  A    between atoms: C9_22  and  C10_23 
REMARK    5  A    between atoms: N8_26  and  C11_27 
REMARK    6  A    between atoms: C11_27  and  C12_28 
REMARK    7  A    between atoms: C12_28  and  O1_29 
REMARK    8  A    between atoms: N9_35  and  C16_36 
REMARK    9  A    between atoms: C16_36  and  C17_37 
REMARK   10  A    between atoms: C17_37  and  N10_38 
ROOT
HETATM    1  C1  UNL     1       0.860 -14.653  40.267  1.00  0.00     0.679 A 
HETATM    2  N2  UNL     1       0.931 -15.625  41.186  1.00  0.00    -0.175 N 
ATOM      3  H2  UNL     1       0.152 -16.278  41.271  1.00  0.00     0.186 HD
HETATM    4  C2  UNL     1       2.008 -15.774  42.015  1.00  0.00     0.146 A 
HETATM    5  C3  UNL     1       3.060 -14.898  41.903  1.00  0.00     0.145 A 
HETATM    6  C4  UNL     1       2.949 -13.912  40.945  1.00  0.00     0.171 A 
HETATM    7  N4  UNL     1       1.874 -13.781  40.136  1.00  0.00    -0.174 N 
ATOM      8  H4  UNL     1       1.834 -13.036  39.441  1.00  0.00     0.186 HD
HETATM    9  N5  UNL     1       4.050 -13.153  40.971  1.00  0.00    -0.160 N 
HETATM   10  C8  UNL     1       4.865 -13.637  41.930  1.00  0.00     0.694 A 
HETATM   11  N6  UNL     1       6.045 -13.448  42.520  1.00  0.00    -0.186 N 
ATOM     12  H6  UNL     1       6.710 -12.711  42.285  1.00  0.00     0.184 HD
HETATM   13  C9  UNL     1       6.221 -14.375  43.467  1.00  0.00     0.111 A 
HETATM   14  C18 UNL     1       5.062 -15.167  43.434  1.00  0.00     0.149 A 
HETATM   15  N11 UNL     1       4.248 -14.708  42.496  1.00  0.00    -0.148 N 
ENDROOT
BRANCH  13  16
HETATM   16  C10 UNL     1       7.328 -14.595  44.377  1.00  0.00     0.155 A 
HETATM   17  N7  UNL     1       7.207 -14.879  45.687  1.00  0.00    -0.277 N 
HETATM   18  N8  UNL     1       8.403 -15.019  46.225  1.00  0.00    -0.238 N 
ATOM     19  H7  UNL     1       6.324 -14.971  46.189  1.00  0.00     0.189 HD
HETATM   20  C15 UNL     1       9.298 -14.823  45.246  1.00  0.00     0.345 A 
HETATM   21  O2  UNL     1      10.541 -14.884  45.417  1.00  0.00    -0.245 OA
HETATM   22  N9  UNL     1       8.630 -14.557  44.082  1.00  0.00    -0.279 N 
BRANCH  18  23
HETATM   23  C11 UNL     1       8.648 -15.328  47.624  1.00  0.00     0.192 C 
BRANCH  23  24
HETATM   24  C12 UNL     1       9.059 -14.107  48.396  1.00  0.00     0.076 A 
HETATM   25  C13 UNL     1      10.518 -13.847  48.606  1.00  0.00     0.042 A 
HETATM   26  C14 UNL     1       9.693 -14.269  49.764  1.00  0.00     0.042 A 
BRANCH  24  27
HETATM   27  O1  UNL     1       8.249 -12.997  48.167  1.00  0.00    -0.388 OA
ATOM     28  H1  UNL     1       8.552 -12.206  48.596  1.00  0.00     0.210 HD
ENDBRANCH  24  27
ENDBRANCH  23  24
ENDBRANCH  18  23
BRANCH  22  29
HETATM   29  C16 UNL     1       9.267 -14.295  42.824  1.00  0.00     0.162 C 
BRANCH  29  30
HETATM   30  C17 UNL     1      10.546 -15.061  42.610  1.00  0.00     0.250 C 
BRANCH  30  31
HETATM   31  N10 UNL     1      11.069 -14.720  41.313  1.00  0.00    -0.078 N 
ATOM     32 3H10 UNL     1      12.013 -14.337  41.360  1.00  0.00     0.274 HD
ATOM     33 2H10 UNL     1      11.280 -15.542  40.747  1.00  0.00     0.274 HD
ATOM     34 1H10 UNL     1      10.411 -14.088  40.857  1.00  0.00     0.274 HD
ENDBRANCH  30  31
ENDBRANCH  29  30
ENDBRANCH  22  29
ENDBRANCH  13  16
BRANCH   9  35
HETATM   35  C5  UNL     1       4.367 -12.011  40.147  1.00  0.00     0.110 A 
HETATM   36  C6  UNL     1       3.355 -11.330  39.323  1.00  0.00     0.028 A 
HETATM   37  C7  UNL     1       4.299 -12.299  38.652  1.00  0.00     0.028 A 
ENDBRANCH   9  35
BRANCH   4  38
HETATM   38  N3  UNL     1       2.046 -16.701  42.872  1.00  0.00    -0.383 N 
ATOM     39  H32 UNL     1       1.304 -16.785  43.567  1.00  0.00     0.157 HD
ATOM     40  H31 UNL     1       2.812 -17.374  42.883  1.00  0.00     0.157 HD
ENDBRANCH   4  38
BRANCH   1  41
HETATM   41  N1  UNL     1      -0.171 -14.519  39.483  1.00  0.00    -0.234 N 
ATOM     42  H12 UNL     1      -1.087 -14.786  39.842  1.00  0.00     0.174 HD
ATOM     43  H11 UNL     1      -0.084 -14.159  38.532  1.00  0.00     0.174 HD
ENDBRANCH   1  41
TORSDOF 10
ENDMDL
