MODEL 1
REMARK VINA RESULT: -2.311196978      0.000      0.000
REMARK  6 active torsions:
REMARK  status: ('A' for Active; 'I' for Inactive)
REMARK       I    between atoms: C2_2  and  N1_4 
REMARK    1  A    between atoms: N1_4  and  C3_6 
REMARK    2  A    between atoms: C4_7  and  C5_8 
REMARK    3  A    between atoms: C9_13  and  C10_14 
REMARK    4  A    between atoms: C10_14  and  O3_15 
REMARK    5  A    between atoms: C10_14  and  N2_17 
REMARK       I    between atoms: N2_17  and  C11_19 
REMARK    6  A    between atoms: N4_23  and  C13_24 
ROOT
HETATM    1  C3  UNL     1       7.956 -14.989  44.853  1.00  0.00     0.128 A 
HETATM    2  C4  UNL     1       8.406 -15.206  46.198  1.00  0.00     0.054 A 
HETATM    3  C9  UNL     1       7.359 -15.436  47.019  1.00  0.00     0.023 A 
HETATM    4  C12 UNL     1       6.233 -15.355  46.168  1.00  0.00     0.112 A 
HETATM    5  N4  UNL     1       6.648 -15.087  44.889  1.00  0.00    -0.299 N 
ENDROOT
BRANCH   5   6
HETATM    6  C13 UNL     1       5.658 -14.923  43.861  1.00  0.00     0.151 A 
HETATM    7  C14 UNL     1       5.661 -13.887  42.952  1.00  0.00     0.155 A 
HETATM    8  N5  UNL     1       6.658 -12.900  43.089  1.00  0.00    -0.080 NA
HETATM    9  N6  UNL     1       4.754 -13.792  41.956  1.00  0.00    -0.290 N 
HETATM   10  C15 UNL     1       4.771 -12.694  41.009  1.00  0.00     0.162 C 
HETATM   11  C16 UNL     1       3.819 -14.750  41.856  1.00  0.00     0.332 A 
HETATM   12  O5  UNL     1       2.969 -14.650  40.913  1.00  0.00    -0.246 OA
HETATM   13  N7  UNL     1       3.790 -15.772  42.727  1.00  0.00    -0.269 N 
HETATM   14  C17 UNL     1       2.769 -16.794  42.597  1.00  0.00     0.164 C 
HETATM   15  C18 UNL     1       4.684 -15.890  43.730  1.00  0.00     0.282 A 
HETATM   16  O6  UNL     1       4.655 -16.858  44.552  1.00  0.00    -0.265 OA
ENDBRANCH   5   6
BRANCH   1  17
HETATM   17  N1  UNL     1       8.863 -14.642  43.836  1.00  0.00    -0.312 N 
HETATM   18  C2  UNL     1       9.973 -15.248  43.294  1.00  0.00     0.219 C 
HETATM   19  C1  UNL     1      10.623 -14.602  42.073  1.00  0.00     0.117 C 
HETATM   20  O1  UNL     1      10.533 -16.266  43.665  1.00  0.00    -0.274 OA
ATOM     21  H1  UNL     1       8.651 -13.742  43.404  1.00  0.00     0.170 HD
ENDBRANCH   1  17
BRANCH   2  22
HETATM   22  C5  UNL     1       9.834 -15.215  46.557  1.00  0.00     0.089 A 
HETATM   23  C6  UNL     1      10.692 -14.181  46.814  1.00  0.00     0.040 A 
HETATM   24  C7  UNL     1      11.936 -14.689  47.093  1.00  0.00     0.027 A 
HETATM   25  C8  UNL     1      11.805 -16.050  46.996  1.00  0.00     0.142 A 
HETATM   26  O2  UNL     1      10.575 -16.321  46.684  1.00  0.00    -0.322 OA
ENDBRANCH   2  22
BRANCH   3  27
HETATM   27  C10 UNL     1       7.216 -15.837  48.433  1.00  0.00     0.258 C 
BRANCH  27  28
HETATM   28  O3  UNL     1       5.898 -16.502  48.495  1.00  0.00    -0.372 OA
ATOM     29  H3  UNL     1       5.932 -17.022  49.290  1.00  0.00     0.212 HD
ENDBRANCH  27  28
BRANCH  27  30
HETATM   30  N2  UNL     1       8.059 -16.986  48.814  1.00  0.00    -0.315 N 
HETATM   31  C11 UNL     1       9.226 -16.809  49.589  1.00  0.00     0.330 C 
HETATM   32  N3  UNL     1      10.015 -17.916  49.941  1.00  0.00    -0.040 NA
HETATM   33  O4  UNL     1       9.551 -15.668  49.959  1.00  0.00    -0.251 OA
ATOM     34  H2  UNL     1       7.794 -17.924  48.512  1.00  0.00     0.166 HD
ENDBRANCH  27  30
ENDBRANCH   3  27
TORSDOF 6
ENDMDL
MODEL 2
REMARK VINA RESULT: -1.957344716      4.870     10.770
REMARK  6 active torsions:
REMARK  status: ('A' for Active; 'I' for Inactive)
REMARK       I    between atoms: C2_2  and  N1_4 
REMARK    1  A    between atoms: N1_4  and  C3_6 
REMARK    2  A    between atoms: C4_7  and  C5_8 
REMARK    3  A    between atoms: C9_13  and  C10_14 
REMARK    4  A    between atoms: C10_14  and  O3_15 
REMARK    5  A    between atoms: C10_14  and  N2_17 
REMARK       I    between atoms: N2_17  and  C11_19 
REMARK    6  A    between atoms: N4_23  and  C13_24 
ROOT
HETATM    1  C3  UNL     1       2.435 -13.564  38.902  1.00  0.00     0.128 A 
HETATM    2  C4  UNL     1       1.297 -12.970  38.260  1.00  0.00     0.054 A 
HETATM    3  C9  UNL     1       0.320 -12.720  39.157  1.00  0.00     0.023 A 
HETATM    4  C12 UNL     1       0.859 -13.174  40.383  1.00  0.00     0.112 A 
HETATM    5  N4  UNL     1       2.121 -13.666  40.171  1.00  0.00    -0.299 N 
ENDROOT
BRANCH   5   6
HETATM    6  C13 UNL     1       2.843 -14.220  41.283  1.00  0.00     0.151 A 
HETATM    7  C14 UNL     1       2.452 -15.351  41.964  1.00  0.00     0.155 A 
HETATM    8  N5  UNL     1       1.236 -15.956  41.585  1.00  0.00    -0.080 NA
HETATM    9  N6  UNL     1       3.183 -15.886  42.965  1.00  0.00    -0.290 N 
HETATM   10  C15 UNL     1       2.755 -17.078  43.672  1.00  0.00     0.162 C 
HETATM   11  C16 UNL     1       4.335 -15.285  43.301  1.00  0.00     0.332 A 
HETATM   12  O5  UNL     1       5.017 -15.798  44.246  1.00  0.00    -0.246 OA
HETATM   13  N7  UNL     1       4.744 -14.180  42.655  1.00  0.00    -0.269 N 
HETATM   14  C17 UNL     1       5.992 -13.549  43.037  1.00  0.00     0.164 C 
HETATM   15  C18 UNL     1       4.031 -13.626  41.652  1.00  0.00     0.282 A 
HETATM   16  O6  UNL     1       4.420 -12.582  41.043  1.00  0.00    -0.265 OA
ENDBRANCH   5   6
BRANCH   1  17
HETATM   17  N1  UNL     1       3.544 -13.994  38.151  1.00  0.00    -0.312 N 
HETATM   18  C2  UNL     1       4.616 -13.354  37.574  1.00  0.00     0.219 C 
HETATM   19  C1  UNL     1       5.714 -14.209  36.948  1.00  0.00     0.117 C 
HETATM   20  O1  UNL     1       4.822 -12.154  37.490  1.00  0.00    -0.274 OA
ATOM     21  H1  UNL     1       3.555 -15.003  38.002  1.00  0.00     0.170 HD
ENDBRANCH   1  17
BRANCH   2  22
HETATM   22  C5  UNL     1       1.282 -12.654  36.822  1.00  0.00     0.089 A 
HETATM   23  C6  UNL     1       0.569 -13.211  35.797  1.00  0.00     0.040 A 
HETATM   24  C7  UNL     1       0.905 -12.586  34.623  1.00  0.00     0.027 A 
HETATM   25  C8  UNL     1       1.839 -11.642  34.967  1.00  0.00     0.142 A 
HETATM   26  O2  UNL     1       2.034 -11.708  36.248  1.00  0.00    -0.322 OA
ENDBRANCH   2  22
BRANCH   3  27
HETATM   27  C10 UNL     1      -0.982 -12.026  39.110  1.00  0.00     0.258 C 
BRANCH  27  28
HETATM   28  O3  UNL     1      -0.938 -11.246  37.855  1.00  0.00    -0.372 OA
ATOM     29  H3  UNL     1      -0.611 -10.394  38.118  1.00  0.00     0.212 HD
ENDBRANCH  27  28
BRANCH  27  30
HETATM   30  N2  UNL     1      -2.116 -12.909  38.778  1.00  0.00    -0.315 N 
HETATM   31  C11 UNL     1      -3.382 -12.377  38.448  1.00  0.00     0.330 C 
HETATM   32  N3  UNL     1      -4.449 -13.235  38.136  1.00  0.00    -0.040 NA
HETATM   33  O4  UNL     1      -3.547 -11.145  38.436  1.00  0.00    -0.251 OA
ATOM     34  H2  UNL     1      -1.983 -13.920  38.787  1.00  0.00     0.166 HD
ENDBRANCH  27  30
ENDBRANCH   3  27
TORSDOF 6
ENDMDL
MODEL 3
REMARK VINA RESULT: -1.158537916      4.766     10.534
REMARK  6 active torsions:
REMARK  status: ('A' for Active; 'I' for Inactive)
REMARK       I    between atoms: C2_2  and  N1_4 
REMARK    1  A    between atoms: N1_4  and  C3_6 
REMARK    2  A    between atoms: C4_7  and  C5_8 
REMARK    3  A    between atoms: C9_13  and  C10_14 
REMARK    4  A    between atoms: C10_14  and  O3_15 
REMARK    5  A    between atoms: C10_14  and  N2_17 
REMARK       I    between atoms: N2_17  and  C11_19 
REMARK    6  A    between atoms: N4_23  and  C13_24 
ROOT
HETATM    1  C3  UNL     1       2.505 -13.658  39.039  1.00  0.00     0.128 A 
HETATM    2  C4  UNL     1       1.308 -13.109  38.471  1.00  0.00     0.054 A 
HETATM    3  C9  UNL     1       0.360 -12.949  39.420  1.00  0.00     0.023 A 
HETATM    4  C12 UNL     1       0.980 -13.413  40.602  1.00  0.00     0.112 A 
HETATM    5  N4  UNL     1       2.257 -13.823  40.316  1.00  0.00    -0.299 N 
ENDROOT
BRANCH   5   6
HETATM    6  C13 UNL     1       3.060 -14.372  41.373  1.00  0.00     0.151 A 
HETATM    7  C14 UNL     1       4.252 -13.824  41.795  1.00  0.00     0.155 A 
HETATM    8  N5  UNL     1       4.736 -12.697  41.099  1.00  0.00    -0.080 NA
HETATM    9  N6  UNL     1       4.955 -14.324  42.833  1.00  0.00    -0.290 N 
HETATM   10  C15 UNL     1       6.208 -13.734  43.263  1.00  0.00     0.162 C 
HETATM   11  C16 UNL     1       4.464 -15.397  43.473  1.00  0.00     0.332 A 
HETATM   12  O5  UNL     1       5.136 -15.860  44.451  1.00  0.00    -0.246 OA
HETATM   13  N7  UNL     1       3.306 -15.955  43.086  1.00  0.00    -0.269 N 
HETATM   14  C17 UNL     1       2.798 -17.113  43.794  1.00  0.00     0.164 C 
HETATM   15  C18 UNL     1       2.584 -15.474  42.052  1.00  0.00     0.282 A 
HETATM   16  O6  UNL     1       1.488 -16.002  41.688  1.00  0.00    -0.265 OA
ENDBRANCH   5   6
BRANCH   1  17
HETATM   17  N1  UNL     1       3.601 -13.995  38.224  1.00  0.00    -0.312 N 
HETATM   18  C2  UNL     1       4.608 -13.273  37.626  1.00  0.00     0.219 C 
HETATM   19  C1  UNL     1       5.723 -14.040  36.919  1.00  0.00     0.117 C 
HETATM   20  O1  UNL     1       4.742 -12.061  37.579  1.00  0.00    -0.274 OA
ATOM     21  H1  UNL     1       3.663 -14.995  38.035  1.00  0.00     0.170 HD
ENDBRANCH   1  17
BRANCH   2  22
HETATM   22  C5  UNL     1       1.208 -12.744  37.048  1.00  0.00     0.089 A 
HETATM   23  C6  UNL     1       0.492 -13.315  36.032  1.00  0.00     0.040 A 
HETATM   24  C7  UNL     1       0.732 -12.625  34.870  1.00  0.00     0.027 A 
HETATM   25  C8  UNL     1       1.610 -11.628  35.212  1.00  0.00     0.142 A 
HETATM   26  O2  UNL     1       1.864 -11.726  36.481  1.00  0.00    -0.322 OA
ENDBRANCH   2  22
BRANCH   3  27
HETATM   27  C10 UNL     1      -0.980 -12.331  39.456  1.00  0.00     0.258 C 
BRANCH  27  28
HETATM   28  O3  UNL     1      -0.762 -10.949  38.981  1.00  0.00    -0.372 OA
ATOM     29  H3  UNL     1       0.015 -10.659  39.445  1.00  0.00     0.212 HD
ENDBRANCH  27  28
BRANCH  27  30
HETATM   30  N2  UNL     1      -1.878 -12.792  38.381  1.00  0.00    -0.315 N 
HETATM   31  C11 UNL     1      -3.054 -12.080  38.057  1.00  0.00     0.330 C 
HETATM   32  N3  UNL     1      -3.896 -12.536  37.029  1.00  0.00    -0.040 NA
HETATM   33  O4  UNL     1      -3.340 -11.047  38.686  1.00  0.00    -0.251 OA
ATOM     34  H2  UNL     1      -1.645 -13.639  37.862  1.00  0.00     0.166 HD
ENDBRANCH  27  30
ENDBRANCH   3  27
TORSDOF 6
ENDMDL
MODEL 4
REMARK VINA RESULT: -0.609252620      3.914     10.097
REMARK  6 active torsions:
REMARK  status: ('A' for Active; 'I' for Inactive)
REMARK       I    between atoms: C2_2  and  N1_4 
REMARK    1  A    between atoms: N1_4  and  C3_6 
REMARK    2  A    between atoms: C4_7  and  C5_8 
REMARK    3  A    between atoms: C9_13  and  C10_14 
REMARK    4  A    between atoms: C10_14  and  O3_15 
REMARK    5  A    between atoms: C10_14  and  N2_17 
REMARK       I    between atoms: N2_17  and  C11_19 
REMARK    6  A    between atoms: N4_23  and  C13_24 
ROOT
HETATM    1  C3  UNL     1       2.837 -13.207  40.149  1.00  0.00     0.128 A 
HETATM    2  C4  UNL     1       3.080 -12.563  38.891  1.00  0.00     0.054 A 
HETATM    3  C9  UNL     1       4.401 -12.537  38.615  1.00  0.00     0.023 A 
HETATM    4  C12 UNL     1       4.994 -13.175  39.729  1.00  0.00     0.112 A 
HETATM    5  N4  UNL     1       4.015 -13.553  40.611  1.00  0.00    -0.299 N 
ENDROOT
BRANCH   5   6
HETATM    6  C13 UNL     1       4.401 -14.188  41.840  1.00  0.00     0.151 A 
HETATM    7  C14 UNL     1       3.806 -15.328  42.334  1.00  0.00     0.155 A 
HETATM    8  N5  UNL     1       2.712 -15.857  41.619  1.00  0.00    -0.080 NA
HETATM    9  N6  UNL     1       4.230 -15.940  43.460  1.00  0.00    -0.290 N 
HETATM   10  C15 UNL     1       3.591 -17.139  43.966  1.00  0.00     0.162 C 
HETATM   11  C16 UNL     1       5.274 -15.409  44.116  1.00  0.00     0.332 A 
HETATM   12  O5  UNL     1       5.666 -15.995  45.177  1.00  0.00    -0.246 OA
HETATM   13  N7  UNL     1       5.876 -14.298  43.660  1.00  0.00    -0.269 N 
HETATM   14  C17 UNL     1       7.002 -13.745  44.387  1.00  0.00     0.164 C 
HETATM   15  C18 UNL     1       5.471 -13.668  42.538  1.00  0.00     0.282 A 
HETATM   16  O6  UNL     1       6.042 -12.618  42.108  1.00  0.00    -0.265 OA
ENDBRANCH   5   6
BRANCH   1  17
HETATM   17  N1  UNL     1       1.540 -13.273  40.688  1.00  0.00    -0.312 N 
HETATM   18  C2  UNL     1       0.363 -13.860  40.283  1.00  0.00     0.219 C 
HETATM   19  C1  UNL     1      -0.825 -13.826  41.241  1.00  0.00     0.117 C 
HETATM   20  O1  UNL     1       0.126 -14.424  39.228  1.00  0.00    -0.274 OA
ATOM     21  H1  UNL     1       1.453 -12.777  41.575  1.00  0.00     0.170 HD
ENDBRANCH   1  17
BRANCH   2  22
HETATM   22  C5  UNL     1       1.986 -12.065  38.039  1.00  0.00     0.089 A 
HETATM   23  C6  UNL     1       1.570 -12.469  36.801  1.00  0.00     0.040 A 
HETATM   24  C7  UNL     1       0.513 -11.689  36.405  1.00  0.00     0.027 A 
HETATM   25  C8  UNL     1       0.306 -10.806  37.434  1.00  0.00     0.142 A 
HETATM   26  O2  UNL     1       1.176 -11.052  38.364  1.00  0.00    -0.322 OA
ENDBRANCH   2  22
BRANCH   3  27
HETATM   27  C10 UNL     1       5.212 -12.135  37.448  1.00  0.00     0.258 C 
BRANCH  27  28
HETATM   28  O3  UNL     1       4.725 -12.994  36.348  1.00  0.00    -0.372 OA
ATOM     29  H3  UNL     1       4.763 -12.437  35.579  1.00  0.00     0.212 HD
ENDBRANCH  27  28
BRANCH  27  30
HETATM   30  N2  UNL     1       4.836 -10.825  36.885  1.00  0.00    -0.315 N 
HETATM   31  C11 UNL     1       5.802  -9.814  36.682  1.00  0.00     0.330 C 
HETATM   32  N3  UNL     1       5.424  -8.573  36.145  1.00  0.00    -0.040 NA
HETATM   33  O4  UNL     1       6.989 -10.030  36.982  1.00  0.00    -0.251 OA
ATOM     34  H2  UNL     1       3.863 -10.646  36.637  1.00  0.00     0.166 HD
ENDBRANCH  27  30
ENDBRANCH   3  27
TORSDOF 6
ENDMDL
MODEL 5
REMARK VINA RESULT: -0.480517307      1.087      2.012
REMARK  6 active torsions:
REMARK  status: ('A' for Active; 'I' for Inactive)
REMARK       I    between atoms: C2_2  and  N1_4 
REMARK    1  A    between atoms: N1_4  and  C3_6 
REMARK    2  A    between atoms: C4_7  and  C5_8 
REMARK    3  A    between atoms: C9_13  and  C10_14 
REMARK    4  A    between atoms: C10_14  and  O3_15 
REMARK    5  A    between atoms: C10_14  and  N2_17 
REMARK       I    between atoms: N2_17  and  C11_19 
REMARK    6  A    between atoms: N4_23  and  C13_24 
ROOT
HETATM    1  C3  UNL     1       7.907 -14.819  44.471  1.00  0.00     0.128 A 
HETATM    2  C4  UNL     1       8.406 -15.005  45.804  1.00  0.00     0.054 A 
HETATM    3  C9  UNL     1       7.394 -15.268  46.659  1.00  0.00     0.023 A 
HETATM    4  C12 UNL     1       6.241 -15.240  45.841  1.00  0.00     0.112 A 
HETATM    5  N4  UNL     1       6.606 -14.968  44.548  1.00  0.00    -0.299 N 
ENDROOT
BRANCH   5   6
HETATM    6  C13 UNL     1       5.580 -14.853  43.549  1.00  0.00     0.151 A 
HETATM    7  C14 UNL     1       4.540 -15.745  43.412  1.00  0.00     0.155 A 
HETATM    8  N5  UNL     1       4.526 -16.869  44.263  1.00  0.00    -0.080 NA
HETATM    9  N6  UNL     1       3.553 -15.578  42.506  1.00  0.00    -0.290 N 
HETATM   10  C15 UNL     1       2.465 -16.529  42.376  1.00  0.00     0.162 C 
HETATM   11  C16 UNL     1       3.598 -14.497  41.712  1.00  0.00     0.332 A 
HETATM   12  O5  UNL     1       2.662 -14.350  40.860  1.00  0.00    -0.246 OA
HETATM   13  N7  UNL     1       4.599 -13.609  41.820  1.00  0.00    -0.269 N 
HETATM   14  C17 UNL     1       4.624 -12.449  40.950  1.00  0.00     0.164 C 
HETATM   15  C18 UNL     1       5.596 -13.753  42.718  1.00  0.00     0.282 A 
HETATM   16  O6  UNL     1       6.542 -12.911  42.819  1.00  0.00    -0.265 OA
ENDBRANCH   5   6
BRANCH   1  17
HETATM   17  N1  UNL     1       8.769 -14.447  43.424  1.00  0.00    -0.312 N 
HETATM   18  C2  UNL     1       9.889 -15.011  42.858  1.00  0.00     0.219 C 
HETATM   19  C1  UNL     1      10.475 -14.354  41.611  1.00  0.00     0.117 C 
HETATM   20  O1  UNL     1      10.504 -15.999  43.226  1.00  0.00    -0.274 OA
ATOM     21  H1  UNL     1       8.505 -13.563  42.988  1.00  0.00     0.170 HD
ENDBRANCH   1  17
BRANCH   2  22
HETATM   22  C5  UNL     1       9.843 -14.954  46.120  1.00  0.00     0.089 A 
HETATM   23  C6  UNL     1      10.661 -13.886  46.366  1.00  0.00     0.040 A 
HETATM   24  C7  UNL     1      11.935 -14.341  46.600  1.00  0.00     0.027 A 
HETATM   25  C8  UNL     1      11.862 -15.705  46.486  1.00  0.00     0.142 A 
HETATM   26  O2  UNL     1      10.636 -16.027  46.207  1.00  0.00    -0.322 OA
ENDBRANCH   2  22
BRANCH   3  27
HETATM   27  C10 UNL     1       7.309 -15.660  48.079  1.00  0.00     0.258 C 
BRANCH  27  28
HETATM   28  O3  UNL     1       6.231 -16.670  48.119  1.00  0.00    -0.372 OA
ATOM     29  H3  UNL     1       5.680 -16.400  48.844  1.00  0.00     0.212 HD
ENDBRANCH  27  28
BRANCH  27  30
HETATM   30  N2  UNL     1       8.425 -16.514  48.528  1.00  0.00    -0.315 N 
HETATM   31  C11 UNL     1       8.409 -17.125  49.802  1.00  0.00     0.330 C 
HETATM   32  N3  UNL     1       9.481 -17.934  50.211  1.00  0.00    -0.040 NA
HETATM   33  O4  UNL     1       7.440 -16.942  50.559  1.00  0.00    -0.251 OA
ATOM     34  H2  UNL     1       9.221 -16.667  47.909  1.00  0.00     0.166 HD
ENDBRANCH  27  30
ENDBRANCH   3  27
TORSDOF 6
ENDMDL
