MODEL 1
REMARK VINA RESULT: -6.862410009      0.000      0.000
REMARK  6 active torsions:
REMARK  status: ('A' for Active; 'I' for Inactive)
REMARK    1  A    between atoms: N2_5  and  C4_6 
REMARK    2  A    between atoms: C4_6  and  C5_7 
REMARK    3  A    between atoms: C5_7  and  N3_8 
REMARK    4  A    between atoms: N3_8  and  C6_10 
REMARK    5  A    between atoms: C6_10  and  N4_12 
REMARK    6  A    between atoms: N4_12  and  C7_14 
ROOT
HETATM    1  C6  UNL     1      -2.301   4.264  12.299  1.00  0.00     0.167 C 
HETATM    2  S1  UNL     1      -2.165   5.757  11.684  1.00  0.00    -0.041 SA
ENDROOT
BRANCH   1   3
HETATM    3  N3  UNL     1      -2.022   4.070  13.674  1.00  0.00    -0.366 N 
ATOM      4  H3  UNL     1      -1.072   3.781  13.907  1.00  0.00     0.161 HD
BRANCH   3   5
HETATM    5  C5  UNL     1      -2.918   4.234  14.767  1.00  0.00     0.141 C 
BRANCH   5   6
HETATM    6  C4  UNL     1      -4.340   4.350  14.347  1.00  0.00     0.141 C 
BRANCH   6   7
HETATM    7  N2  UNL     1      -5.195   3.318  14.799  1.00  0.00    -0.389 N 
HETATM    8  C3  UNL     1      -4.628   2.124  15.281  1.00  0.00     0.077 C 
HETATM    9  C2  UNL     1      -4.928   1.833  16.733  1.00  0.00     0.160 C 
HETATM   10  N1  UNL     1      -6.251   2.161  17.144  1.00  0.00    -0.411 N 
HETATM   11  C1  UNL     1      -7.162   1.063  17.132  1.00  0.00     0.143 C 
HETATM   12  C14 UNL     1      -6.776   3.401  16.675  1.00  0.00     0.136 C 
HETATM   13  C13 UNL     1      -6.491   3.671  15.237  1.00  0.00     0.141 C 
ENDBRANCH   6   7
ENDBRANCH   5   6
ENDBRANCH   3   5
ENDBRANCH   1   3
BRANCH   1  14
HETATM   14  N4  UNL     1      -2.707   3.213  11.440  1.00  0.00    -0.363 N 
ATOM     15  H4  UNL     1      -2.658   3.404  10.439  1.00  0.00     0.162 HD
BRANCH  14  16
HETATM   16  C7  UNL     1      -3.173   1.926  11.812  1.00  0.00     0.084 C 
HETATM   17  C8  UNL     1      -4.628   1.749  11.569  1.00  0.00     0.031 C 
HETATM   18  C9  UNL     1      -4.989   0.350  11.119  1.00  0.00     0.081 C 
HETATM   19  C10 UNL     1      -4.218  -0.700  11.885  1.00  0.00     0.243 C 
HETATM   20  F1  UNL     1      -4.637  -1.940  11.443  1.00  0.00    -0.206 F 
HETATM   21  F2  UNL     1      -4.489  -0.650  13.239  1.00  0.00    -0.206 F 
HETATM   22  C11 UNL     1      -2.764  -0.552  11.594  1.00  0.00     0.081 C 
HETATM   23  C12 UNL     1      -2.325   0.825  11.211  1.00  0.00     0.031 C 
ENDBRANCH  14  16
ENDBRANCH   1  14
TORSDOF 6
ENDMDL
MODEL 2
REMARK VINA RESULT: -6.822403262      2.555      5.403
REMARK  6 active torsions:
REMARK  status: ('A' for Active; 'I' for Inactive)
REMARK    1  A    between atoms: N2_5  and  C4_6 
REMARK    2  A    between atoms: C4_6  and  C5_7 
REMARK    3  A    between atoms: C5_7  and  N3_8 
REMARK    4  A    between atoms: N3_8  and  C6_10 
REMARK    5  A    between atoms: C6_10  and  N4_12 
REMARK    6  A    between atoms: N4_12  and  C7_14 
ROOT
HETATM    1  C6  UNL     1      -3.818   4.427  14.095  1.00  0.00     0.167 C 
HETATM    2  S1  UNL     1      -3.066   5.712  14.735  1.00  0.00    -0.041 SA
ENDROOT
BRANCH   1   3
HETATM    3  N3  UNL     1      -4.519   4.590  12.875  1.00  0.00    -0.366 N 
ATOM      4  H3  UNL     1      -5.537   4.578  12.933  1.00  0.00     0.161 HD
BRANCH   3   5
HETATM    5  C5  UNL     1      -3.962   4.770  11.578  1.00  0.00     0.141 C 
BRANCH   5   6
HETATM    6  C4  UNL     1      -4.162   3.597  10.686  1.00  0.00     0.141 C 
BRANCH   6   7
HETATM    7  N2  UNL     1      -4.032   2.331  11.304  1.00  0.00    -0.389 N 
HETATM    8  C3  UNL     1      -5.116   1.435  11.258  1.00  0.00     0.077 C 
HETATM    9  C2  UNL     1      -4.830   0.147  10.521  1.00  0.00     0.160 C 
HETATM   10  N1  UNL     1      -3.528  -0.385  10.740  1.00  0.00    -0.411 N 
HETATM   11  C1  UNL     1      -3.464  -1.394  11.747  1.00  0.00     0.143 C 
HETATM   12  C14 UNL     1      -2.448   0.546  10.734  1.00  0.00     0.136 C 
HETATM   13  C13 UNL     1      -2.733   1.806  11.477  1.00  0.00     0.141 C 
ENDBRANCH   6   7
ENDBRANCH   5   6
ENDBRANCH   3   5
ENDBRANCH   1   3
BRANCH   1  14
HETATM   14  N4  UNL     1      -3.733   3.186  14.773  1.00  0.00    -0.363 N 
ATOM     15  H4  UNL     1      -2.994   2.553  14.465  1.00  0.00     0.162 HD
BRANCH  14  16
HETATM   16  C7  UNL     1      -4.555   2.723  15.833  1.00  0.00     0.084 C 
HETATM   17  C8  UNL     1      -5.847   3.452  15.918  1.00  0.00     0.031 C 
HETATM   18  C9  UNL     1      -7.002   2.568  16.336  1.00  0.00     0.081 C 
HETATM   19  C10 UNL     1      -6.602   1.608  17.432  1.00  0.00     0.243 C 
HETATM   20  F1  UNL     1      -7.719   0.873  17.779  1.00  0.00    -0.206 F 
HETATM   21  F2  UNL     1      -6.195   2.272  18.572  1.00  0.00    -0.206 F 
HETATM   22  C11 UNL     1      -5.558   0.680  16.915  1.00  0.00     0.081 C 
HETATM   23  C12 UNL     1      -4.716   1.218  15.803  1.00  0.00     0.031 C 
ENDBRANCH  14  16
ENDBRANCH   1  14
TORSDOF 6
ENDMDL
MODEL 3
REMARK VINA RESULT: -6.800376940      0.853      1.465
REMARK  6 active torsions:
REMARK  status: ('A' for Active; 'I' for Inactive)
REMARK    1  A    between atoms: N2_5  and  C4_6 
REMARK    2  A    between atoms: C4_6  and  C5_7 
REMARK    3  A    between atoms: C5_7  and  N3_8 
REMARK    4  A    between atoms: N3_8  and  C6_10 
REMARK    5  A    between atoms: C6_10  and  N4_12 
REMARK    6  A    between atoms: N4_12  and  C7_14 
ROOT
HETATM    1  C6  UNL     1      -2.703   4.364  12.352  1.00  0.00     0.167 C 
HETATM    2  S1  UNL     1      -2.050   5.738  11.793  1.00  0.00    -0.041 SA
ENDROOT
BRANCH   1   3
HETATM    3  N3  UNL     1      -2.281   3.879  13.614  1.00  0.00    -0.366 N 
ATOM      4  H3  UNL     1      -1.428   3.319  13.622  1.00  0.00     0.161 HD
BRANCH   3   5
HETATM    5  C5  UNL     1      -2.912   4.084  14.873  1.00  0.00     0.141 C 
BRANCH   5   6
HETATM    6  C4  UNL     1      -4.360   4.403  14.758  1.00  0.00     0.141 C 
BRANCH   6   7
HETATM    7  N2  UNL     1      -5.245   3.356  15.108  1.00  0.00    -0.389 N 
HETATM    8  C3  UNL     1      -4.712   2.134  15.558  1.00  0.00     0.077 C 
HETATM    9  C2  UNL     1      -5.092   1.772  16.975  1.00  0.00     0.160 C 
HETATM   10  N1  UNL     1      -6.434   2.091  17.329  1.00  0.00    -0.411 N 
HETATM   11  C1  UNL     1      -7.350   1.002  17.211  1.00  0.00     0.143 C 
HETATM   12  C14 UNL     1      -6.926   3.357  16.896  1.00  0.00     0.136 C 
HETATM   13  C13 UNL     1      -6.560   3.698  15.492  1.00  0.00     0.141 C 
ENDBRANCH   6   7
ENDBRANCH   5   6
ENDBRANCH   3   5
ENDBRANCH   1   3
BRANCH   1  14
HETATM   14  N4  UNL     1      -3.681   3.709  11.564  1.00  0.00    -0.363 N 
ATOM     15  H4  UNL     1      -4.473   4.278  11.263  1.00  0.00     0.162 HD
BRANCH  14  16
HETATM   16  C7  UNL     1      -3.685   2.354  11.144  1.00  0.00     0.084 C 
HETATM   17  C8  UNL     1      -2.317   1.806  10.955  1.00  0.00     0.031 C 
HETATM   18  C9  UNL     1      -2.200   0.352  11.356  1.00  0.00     0.081 C 
HETATM   19  C10 UNL     1      -3.402  -0.449  10.914  1.00  0.00     0.243 C 
HETATM   20  F1  UNL     1      -3.194  -1.764  11.281  1.00  0.00    -0.206 F 
HETATM   21  F2  UNL     1      -3.547  -0.440   9.540  1.00  0.00    -0.206 F 
HETATM   22  C11 UNL     1      -4.616   0.059  11.613  1.00  0.00     0.081 C 
HETATM   23  C12 UNL     1      -4.561   1.494  12.030  1.00  0.00     0.031 C 
ENDBRANCH  14  16
ENDBRANCH   1  14
TORSDOF 6
ENDMDL
MODEL 4
REMARK VINA RESULT: -6.728128936      2.408      5.220
REMARK  6 active torsions:
REMARK  status: ('A' for Active; 'I' for Inactive)
REMARK    1  A    between atoms: N2_5  and  C4_6 
REMARK    2  A    between atoms: C4_6  and  C5_7 
REMARK    3  A    between atoms: C5_7  and  N3_8 
REMARK    4  A    between atoms: N3_8  and  C6_10 
REMARK    5  A    between atoms: C6_10  and  N4_12 
REMARK    6  A    between atoms: N4_12  and  C7_14 
ROOT
HETATM    1  C6  UNL     1      -3.426   4.680  14.396  1.00  0.00     0.167 C 
HETATM    2  S1  UNL     1      -3.521   6.267  14.712  1.00  0.00    -0.041 SA
ENDROOT
BRANCH   1   3
HETATM    3  N3  UNL     1      -2.165   4.132  14.055  1.00  0.00    -0.366 N 
ATOM      4  H3  UNL     1      -1.739   3.512  14.744  1.00  0.00     0.161 HD
BRANCH   3   5
HETATM    5  C5  UNL     1      -1.425   4.350  12.859  1.00  0.00     0.141 C 
BRANCH   5   6
HETATM    6  C4  UNL     1      -2.286   4.542  11.662  1.00  0.00     0.141 C 
BRANCH   6   7
HETATM    7  N2  UNL     1      -2.638   3.360  10.969  1.00  0.00    -0.389 N 
HETATM    8  C3  UNL     1      -1.639   2.407  10.696  1.00  0.00     0.077 C 
HETATM    9  C2  UNL     1      -1.865   1.063  11.351  1.00  0.00     0.160 C 
HETATM   10  N1  UNL     1      -3.221   0.631  11.365  1.00  0.00    -0.411 N 
HETATM   11  C1  UNL     1      -3.569  -0.257  10.303  1.00  0.00     0.143 C 
HETATM   12  C14 UNL     1      -4.201   1.613  11.691  1.00  0.00     0.136 C 
HETATM   13  C13 UNL     1      -3.981   2.929  11.028  1.00  0.00     0.141 C 
ENDBRANCH   6   7
ENDBRANCH   5   6
ENDBRANCH   3   5
ENDBRANCH   1   3
BRANCH   1  14
HETATM   14  N4  UNL     1      -4.605   3.900  14.487  1.00  0.00    -0.363 N 
ATOM     15  H4  UNL     1      -5.199   3.882  13.658  1.00  0.00     0.162 HD
BRANCH  14  16
HETATM   16  C7  UNL     1      -5.054   3.140  15.598  1.00  0.00     0.084 C 
HETATM   17  C8  UNL     1      -6.432   3.498  16.020  1.00  0.00     0.031 C 
HETATM   18  C9  UNL     1      -7.232   2.310  16.505  1.00  0.00     0.081 C 
HETATM   19  C10 UNL     1      -6.397   1.385  17.359  1.00  0.00     0.243 C 
HETATM   20  F1  UNL     1      -7.211   0.356  17.791  1.00  0.00    -0.206 F 
HETATM   21  F2  UNL     1      -5.926   2.019  18.493  1.00  0.00    -0.206 F 
HETATM   22  C11 UNL     1      -5.297   0.813  16.533  1.00  0.00     0.081 C 
HETATM   23  C12 UNL     1      -4.859   1.655  15.379  1.00  0.00     0.031 C 
ENDBRANCH  14  16
ENDBRANCH   1  14
TORSDOF 6
ENDMDL
MODEL 5
REMARK VINA RESULT: -6.660433919      2.874      5.467
REMARK  6 active torsions:
REMARK  status: ('A' for Active; 'I' for Inactive)
REMARK    1  A    between atoms: N2_5  and  C4_6 
REMARK    2  A    between atoms: C4_6  and  C5_7 
REMARK    3  A    between atoms: C5_7  and  N3_8 
REMARK    4  A    between atoms: N3_8  and  C6_10 
REMARK    5  A    between atoms: C6_10  and  N4_12 
REMARK    6  A    between atoms: N4_12  and  C7_14 
ROOT
HETATM    1  C6  UNL     1      -4.496   1.319  12.657  1.00  0.00     0.167 C 
HETATM    2  S1  UNL     1      -4.141  -0.216  12.278  1.00  0.00    -0.041 SA
ENDROOT
BRANCH   1   3
HETATM    3  N3  UNL     1      -4.954   2.182  11.631  1.00  0.00    -0.366 N 
ATOM      4  H3  UNL     1      -5.962   2.205  11.476  1.00  0.00     0.161 HD
BRANCH   3   5
HETATM    5  C5  UNL     1      -4.166   3.018  10.793  1.00  0.00     0.141 C 
BRANCH   5   6
HETATM    6  C4  UNL     1      -2.822   3.314  11.355  1.00  0.00     0.141 C 
BRANCH   6   7
HETATM    7  N2  UNL     1      -2.715   4.527  12.075  1.00  0.00    -0.389 N 
HETATM    8  C3  UNL     1      -3.761   5.465  11.990  1.00  0.00     0.077 C 
HETATM    9  C2  UNL     1      -4.454   5.746  13.304  1.00  0.00     0.160 C 
HETATM   10  N1  UNL     1      -3.587   5.806  14.431  1.00  0.00    -0.411 N 
HETATM   11  C1  UNL     1      -3.187   7.126  14.799  1.00  0.00     0.143 C 
HETATM   12  C14 UNL     1      -2.568   4.812  14.508  1.00  0.00     0.136 C 
HETATM   13  C13 UNL     1      -1.878   4.554  13.212  1.00  0.00     0.141 C 
ENDBRANCH   6   7
ENDBRANCH   5   6
ENDBRANCH   3   5
ENDBRANCH   1   3
BRANCH   1  14
HETATM   14  N4  UNL     1      -4.348   1.735  14.003  1.00  0.00    -0.363 N 
ATOM     15  H4  UNL     1      -3.448   2.146  14.252  1.00  0.00     0.162 HD
BRANCH  14  16
HETATM   16  C7  UNL     1      -5.308   1.647  15.045  1.00  0.00     0.084 C 
HETATM   17  C8  UNL     1      -4.916   0.685  16.108  1.00  0.00     0.031 C 
HETATM   18  C9  UNL     1      -5.331   1.130  17.493  1.00  0.00     0.081 C 
HETATM   19  C10 UNL     1      -6.716   1.735  17.494  1.00  0.00     0.243 C 
HETATM   20  F1  UNL     1      -7.029   2.073  18.796  1.00  0.00    -0.206 F 
HETATM   21  F2  UNL     1      -7.672   0.828  17.079  1.00  0.00    -0.206 F 
HETATM   22  C11 UNL     1      -6.712   2.972  16.664  1.00  0.00     0.081 C 
HETATM   23  C12 UNL     1      -5.685   3.012  15.579  1.00  0.00     0.031 C 
ENDBRANCH  14  16
ENDBRANCH   1  14
TORSDOF 6
ENDMDL
