MODEL 1
REMARK VINA RESULT: -6.978693346      0.000      0.000
REMARK  21 active torsions:
REMARK  status: ('A' for Active; 'I' for Inactive)
REMARK    1  A    between atoms: C2_2  and  C3_3 
REMARK       I    between atoms: C3_3  and  N1_5 
REMARK    2  A    between atoms: N1_5  and  C4_7 
REMARK    3  A    between atoms: C4_7  and  C5_8 
REMARK    4  A    between atoms: C4_7  and  C12_15 
REMARK    5  A    between atoms: C5_8  and  C6_9 
REMARK    6  A    between atoms: C12_15  and  O2_16 
REMARK    7  A    between atoms: C12_15  and  C13_18 
REMARK    8  A    between atoms: C13_18  and  C14_19 
REMARK    9  A    between atoms: C14_19  and  C16_21 
REMARK       I    between atoms: C16_21  and  N2_23 
REMARK       I    between atoms: N2_23  and  C17_25 
REMARK   10  A    between atoms: C17_25  and  C18_27 
REMARK   11  A    between atoms: C18_27  and  C19_28 
REMARK   12  A    between atoms: C18_27  and  N3_32 
REMARK   13  A    between atoms: C19_28  and  C20_29 
REMARK   14  A    between atoms: N3_32  and  C23_34 
REMARK   15  A    between atoms: C23_34  and  C25_36 
REMARK       I    between atoms: C25_36  and  N4_38 
REMARK   16  A    between atoms: N4_38  and  C26_40 
REMARK   17  A    between atoms: C26_40  and  C27_41 
REMARK   18  A    between atoms: C27_41  and  O6_42 
REMARK   19  A    between atoms: C27_41  and  C28_44 
REMARK   20  A    between atoms: C28_44  and  O7_45 
REMARK   21  A    between atoms: C28_44  and  C30_47 
ROOT
HETATM    1  C16 UNL     1      12.856  16.718  12.344  1.00  0.00     0.228 C 
HETATM    2  O3  UNL     1      13.061  16.134  13.439  1.00  0.00    -0.273 OA
HETATM    3  N2  UNL     1      11.922  17.767  12.303  1.00  0.00    -0.296 N 
ATOM      4  H2  UNL     1      11.750  18.211  11.401  1.00  0.00     0.171 HD
HETATM    5  C17 UNL     1      11.213  18.246  13.407  1.00  0.00     0.246 C 
HETATM    6  O4  UNL     1      11.476  17.654  14.527  1.00  0.00    -0.271 OA
ENDROOT
BRANCH   5   7
HETATM    7  C18 UNL     1      10.219  19.340  13.423  1.00  0.00     0.170 C 
BRANCH   7   8
HETATM    8  C19 UNL     1       9.609  19.502  12.026  1.00  0.00     0.038 C 
BRANCH   8   9
HETATM    9  C20 UNL     1      10.304  20.542  11.205  1.00  0.00    -0.020 C 
HETATM   10  C21 UNL     1       9.450  21.054  10.066  1.00  0.00     0.009 C 
HETATM   11  C22 UNL     1      10.624  21.718  12.114  1.00  0.00     0.009 C 
ENDBRANCH   8   9
ENDBRANCH   7   8
BRANCH   7  12
HETATM   12  N3  UNL     1       9.288  19.384  14.444  1.00  0.00    -0.397 N 
ATOM     13  H3  UNL     1       9.207  18.548  15.024  1.00  0.00     0.154 HD
BRANCH  12  14
HETATM   14  C23 UNL     1       8.455  20.437  14.762  1.00  0.00     0.166 C 
HETATM   15  C24 UNL     1       7.127  19.982  15.398  1.00  0.00     0.042 C 
BRANCH  14  16
HETATM   16  C25 UNL     1       9.085  21.263  15.864  1.00  0.00     0.239 C 
HETATM   17  O5  UNL     1       8.877  20.869  17.030  1.00  0.00    -0.271 OA
HETATM   18  N4  UNL     1       9.853  22.403  15.578  1.00  0.00    -0.357 N 
ATOM     19  H4  UNL     1      10.007  22.659  14.603  1.00  0.00     0.162 HD
BRANCH  18  20
HETATM   20  C26 UNL     1      10.435  23.231  16.616  1.00  0.00     0.157 C 
BRANCH  20  21
HETATM   21  C27 UNL     1      11.806  23.769  16.146  1.00  0.00     0.165 C 
BRANCH  21  22
HETATM   22  O6  UNL     1      11.652  24.155  14.868  1.00  0.00    -0.391 OA
ATOM     23  H6  UNL     1      11.882  25.076  14.832  1.00  0.00     0.210 HD
ENDBRANCH  21  22
BRANCH  21  24
HETATM   24  C28 UNL     1      12.787  22.739  16.514  1.00  0.00     0.155 C 
BRANCH  24  25
HETATM   25  O7  UNL     1      12.249  21.915  17.484  1.00  0.00    -0.388 OA
HETATM   26  C29 UNL     1      13.041  21.558  18.523  1.00  0.00     0.202 C 
ENDBRANCH  24  25
BRANCH  24  27
HETATM   27  C30 UNL     1      14.156  23.142  16.925  1.00  0.00     0.017 A 
HETATM   28  C31 UNL     1      15.196  23.479  15.879  1.00  0.00     0.007 A 
HETATM   29  C32 UNL     1      14.708  24.488  16.920  1.00  0.00     0.007 A 
ENDBRANCH  24  27
ENDBRANCH  21  24
ENDBRANCH  20  21
ENDBRANCH  18  20
ENDBRANCH  14  16
ENDBRANCH  12  14
ENDBRANCH   7  12
ENDBRANCH   5   7
BRANCH   1  30
HETATM   30  C14 UNL     1      13.628  16.249  11.151  1.00  0.00     0.076 C 
HETATM   31  C15 UNL     1      15.056  16.022  11.533  1.00  0.00     0.020 C 
BRANCH  30  32
HETATM   32  C13 UNL     1      13.349  17.119   9.984  1.00  0.00     0.047 C 
BRANCH  32  33
HETATM   33  C12 UNL     1      12.313  16.766   9.011  1.00  0.00     0.141 C 
BRANCH  33  34
HETATM   34  C4  UNL     1      12.060  17.559   7.793  1.00  0.00     0.114 C 
BRANCH  34  35
HETATM   35  N1  UNL     1      12.791  18.849   7.840  1.00  0.00    -0.350 N 
HETATM   36  C3  UNL     1      12.289  20.085   7.524  1.00  0.00     0.240 C 
HETATM   37  O1  UNL     1      11.084  20.200   7.072  1.00  0.00    -0.269 OA
ATOM     38  H1  UNL     1      13.766  18.812   8.138  1.00  0.00     0.163 HD
BRANCH  36  39
HETATM   39  C2  UNL     1      12.989  21.329   7.652  1.00  0.00     0.064 C 
HETATM   40  C1  UNL     1      12.643  22.232   8.575  1.00  0.00     0.017 C 
ENDBRANCH  36  39
ENDBRANCH  34  35
BRANCH  34  41
HETATM   41  C5  UNL     1      12.560  16.807   6.520  1.00  0.00     0.032 C 
BRANCH  41  42
HETATM   42  C6  UNL     1      11.520  16.494   5.528  1.00  0.00    -0.013 C 
HETATM   43  C7  UNL     1      11.219  17.646   4.583  1.00  0.00     0.005 C 
HETATM   44  C8  UNL     1      11.790  17.472   3.210  1.00  0.00     0.000 C 
HETATM   45  C9  UNL     1      13.214  16.940   3.213  1.00  0.00     0.000 C 
HETATM   46  C10 UNL     1      13.288  15.653   4.014  1.00  0.00     0.000 C 
HETATM   47  C11 UNL     1      11.986  15.310   4.643  1.00  0.00     0.005 C 
ENDBRANCH  41  42
ENDBRANCH  34  41
ENDBRANCH  33  34
BRANCH  33  48
HETATM   48  O2  UNL     1      11.092  16.469   9.683  1.00  0.00    -0.393 OA
ATOM     49  H2  UNL     1      11.254  15.954  10.464  1.00  0.00     0.210 HD
ENDBRANCH  33  48
ENDBRANCH  32  33
ENDBRANCH  30  32
ENDBRANCH   1  30
TORSDOF 21
ENDMDL
MODEL 2
REMARK VINA RESULT: -6.749041165      2.591      5.493
REMARK  21 active torsions:
REMARK  status: ('A' for Active; 'I' for Inactive)
REMARK    1  A    between atoms: C2_2  and  C3_3 
REMARK       I    between atoms: C3_3  and  N1_5 
REMARK    2  A    between atoms: N1_5  and  C4_7 
REMARK    3  A    between atoms: C4_7  and  C5_8 
REMARK    4  A    between atoms: C4_7  and  C12_15 
REMARK    5  A    between atoms: C5_8  and  C6_9 
REMARK    6  A    between atoms: C12_15  and  O2_16 
REMARK    7  A    between atoms: C12_15  and  C13_18 
REMARK    8  A    between atoms: C13_18  and  C14_19 
REMARK    9  A    between atoms: C14_19  and  C16_21 
REMARK       I    between atoms: C16_21  and  N2_23 
REMARK       I    between atoms: N2_23  and  C17_25 
REMARK   10  A    between atoms: C17_25  and  C18_27 
REMARK   11  A    between atoms: C18_27  and  C19_28 
REMARK   12  A    between atoms: C18_27  and  N3_32 
REMARK   13  A    between atoms: C19_28  and  C20_29 
REMARK   14  A    between atoms: N3_32  and  C23_34 
REMARK   15  A    between atoms: C23_34  and  C25_36 
REMARK       I    between atoms: C25_36  and  N4_38 
REMARK   16  A    between atoms: N4_38  and  C26_40 
REMARK   17  A    between atoms: C26_40  and  C27_41 
REMARK   18  A    between atoms: C27_41  and  O6_42 
REMARK   19  A    between atoms: C27_41  and  C28_44 
REMARK   20  A    between atoms: C28_44  and  O7_45 
REMARK   21  A    between atoms: C28_44  and  C30_47 
ROOT
HETATM    1  C16 UNL     1      12.781  16.717  12.351  1.00  0.00     0.228 C 
HETATM    2  O3  UNL     1      12.843  16.070  13.428  1.00  0.00    -0.273 OA
HETATM    3  N2  UNL     1      11.957  17.853  12.293  1.00  0.00    -0.296 N 
ATOM      4  H2  UNL     1      11.898  18.349  11.403  1.00  0.00     0.171 HD
HETATM    5  C17 UNL     1      11.212  18.354  13.364  1.00  0.00     0.246 C 
HETATM    6  O4  UNL     1      11.330  17.691  14.470  1.00  0.00    -0.271 OA
ENDROOT
BRANCH   5   7
HETATM    7  C18 UNL     1      10.328  19.538  13.360  1.00  0.00     0.170 C 
BRANCH   7   8
HETATM    8  C19 UNL     1      10.238  20.109  11.941  1.00  0.00     0.038 C 
BRANCH   8   9
HETATM    9  C20 UNL     1       9.847  21.553  11.919  1.00  0.00    -0.020 C 
HETATM   10  C21 UNL     1      11.040  22.482  11.880  1.00  0.00     0.009 C 
HETATM   11  C22 UNL     1       9.024  21.796  10.663  1.00  0.00     0.009 C 
ENDBRANCH   8   9
ENDBRANCH   7   8
BRANCH   7  12
HETATM   12  N3  UNL     1       9.109  19.465  14.008  1.00  0.00    -0.397 N 
ATOM     13  H3  UNL     1       8.366  18.959  13.525  1.00  0.00     0.154 HD
BRANCH  12  14
HETATM   14  C23 UNL     1       8.789  20.005  15.236  1.00  0.00     0.166 C 
HETATM   15  C24 UNL     1       8.912  21.541  15.268  1.00  0.00     0.042 C 
BRANCH  14  16
HETATM   16  C25 UNL     1       7.318  19.784  15.518  1.00  0.00     0.239 C 
HETATM   17  O5  UNL     1       6.565  20.751  15.283  1.00  0.00    -0.271 OA
HETATM   18  N4  UNL     1       6.842  18.560  16.015  1.00  0.00    -0.357 N 
ATOM     19  H4  UNL     1       7.506  17.799  16.161  1.00  0.00     0.162 HD
BRANCH  18  20
HETATM   20  C26 UNL     1       5.445  18.335  16.327  1.00  0.00     0.157 C 
BRANCH  20  21
HETATM   21  C27 UNL     1       5.157  16.817  16.371  1.00  0.00     0.165 C 
BRANCH  21  22
HETATM   22  O6  UNL     1       6.339  16.206  16.567  1.00  0.00    -0.391 OA
ATOM     23  H6  UNL     1       6.998  16.750  16.151  1.00  0.00     0.210 HD
ENDBRANCH  21  22
BRANCH  21  24
HETATM   24  C28 UNL     1       4.342  16.529  15.184  1.00  0.00     0.155 C 
BRANCH  24  25
HETATM   25  O7  UNL     1       4.335  17.631  14.350  1.00  0.00    -0.388 OA
HETATM   26  C29 UNL     1       3.368  17.705  13.405  1.00  0.00     0.202 C 
ENDBRANCH  24  25
BRANCH  24  27
HETATM   27  C30 UNL     1       2.950  16.040  15.350  1.00  0.00     0.017 A 
HETATM   28  C31 UNL     1       2.676  14.558  15.489  1.00  0.00     0.007 A 
HETATM   29  C32 UNL     1       2.330  15.573  16.581  1.00  0.00     0.007 A 
ENDBRANCH  24  27
ENDBRANCH  21  24
ENDBRANCH  20  21
ENDBRANCH  18  20
ENDBRANCH  14  16
ENDBRANCH  12  14
ENDBRANCH   7  12
ENDBRANCH   5   7
BRANCH   1  30
HETATM   30  C14 UNL     1      13.596  16.225  11.196  1.00  0.00     0.076 C 
HETATM   31  C15 UNL     1      15.017  16.042  11.625  1.00  0.00     0.020 C 
BRANCH  30  32
HETATM   32  C13 UNL     1      13.332  17.049   9.993  1.00  0.00     0.047 C 
BRANCH  32  33
HETATM   33  C12 UNL     1      12.243  16.712   9.073  1.00  0.00     0.141 C 
BRANCH  33  34
HETATM   34  C4  UNL     1      11.930  17.520   7.878  1.00  0.00     0.114 C 
BRANCH  34  35
HETATM   35  N1  UNL     1      12.568  18.857   7.963  1.00  0.00    -0.350 N 
HETATM   36  C3  UNL     1      11.924  20.066   8.048  1.00  0.00     0.240 C 
HETATM   37  O1  UNL     1      10.635  20.119   7.991  1.00  0.00    -0.269 OA
ATOM     38  H1  UNL     1      13.587  18.880   7.957  1.00  0.00     0.163 HD
BRANCH  36  39
HETATM   39  C2  UNL     1      12.559  21.341   8.209  1.00  0.00     0.064 C 
HETATM   40  C1  UNL     1      11.849  22.471   8.268  1.00  0.00     0.017 C 
ENDBRANCH  36  39
ENDBRANCH  34  35
BRANCH  34  41
HETATM   41  C5  UNL     1      12.479  16.844   6.584  1.00  0.00     0.032 C 
BRANCH  41  42
HETATM   42  C6  UNL     1      12.115  17.512   5.325  1.00  0.00    -0.013 C 
HETATM   43  C7  UNL     1      13.315  18.011   4.537  1.00  0.00     0.005 C 
HETATM   44  C8  UNL     1      13.649  17.174   3.341  1.00  0.00     0.000 C 
HETATM   45  C9  UNL     1      13.579  15.680   3.614  1.00  0.00     0.000 C 
HETATM   46  C10 UNL     1      12.221  15.317   4.187  1.00  0.00     0.000 C 
HETATM   47  C11 UNL     1      11.368  16.514   4.404  1.00  0.00     0.005 C 
ENDBRANCH  41  42
ENDBRANCH  34  41
ENDBRANCH  33  34
BRANCH  33  48
HETATM   48  O2  UNL     1      11.058  16.415   9.806  1.00  0.00    -0.393 OA
ATOM     49  H2  UNL     1      11.005  15.486   9.998  1.00  0.00     0.210 HD
ENDBRANCH  33  48
ENDBRANCH  32  33
ENDBRANCH  30  32
ENDBRANCH   1  30
TORSDOF 21
ENDMDL
MODEL 3
REMARK VINA RESULT: -6.674588916      3.341      6.888
REMARK  21 active torsions:
REMARK  status: ('A' for Active; 'I' for Inactive)
REMARK    1  A    between atoms: C2_2  and  C3_3 
REMARK       I    between atoms: C3_3  and  N1_5 
REMARK    2  A    between atoms: N1_5  and  C4_7 
REMARK    3  A    between atoms: C4_7  and  C5_8 
REMARK    4  A    between atoms: C4_7  and  C12_15 
REMARK    5  A    between atoms: C5_8  and  C6_9 
REMARK    6  A    between atoms: C12_15  and  O2_16 
REMARK    7  A    between atoms: C12_15  and  C13_18 
REMARK    8  A    between atoms: C13_18  and  C14_19 
REMARK    9  A    between atoms: C14_19  and  C16_21 
REMARK       I    between atoms: C16_21  and  N2_23 
REMARK       I    between atoms: N2_23  and  C17_25 
REMARK   10  A    between atoms: C17_25  and  C18_27 
REMARK   11  A    between atoms: C18_27  and  C19_28 
REMARK   12  A    between atoms: C18_27  and  N3_32 
REMARK   13  A    between atoms: C19_28  and  C20_29 
REMARK   14  A    between atoms: N3_32  and  C23_34 
REMARK   15  A    between atoms: C23_34  and  C25_36 
REMARK       I    between atoms: C25_36  and  N4_38 
REMARK   16  A    between atoms: N4_38  and  C26_40 
REMARK   17  A    between atoms: C26_40  and  C27_41 
REMARK   18  A    between atoms: C27_41  and  O6_42 
REMARK   19  A    between atoms: C27_41  and  C28_44 
REMARK   20  A    between atoms: C28_44  and  O7_45 
REMARK   21  A    between atoms: C28_44  and  C30_47 
ROOT
HETATM    1  C16 UNL     1      11.516  17.107  11.915  1.00  0.00     0.228 C 
HETATM    2  O3  UNL     1      12.025  16.357  12.787  1.00  0.00    -0.273 OA
HETATM    3  N2  UNL     1      10.891  18.295  12.328  1.00  0.00    -0.296 N 
ATOM      4  H2  UNL     1      10.461  18.878  11.610  1.00  0.00     0.171 HD
HETATM    5  C17 UNL     1      10.816  18.737  13.652  1.00  0.00     0.246 C 
HETATM    6  O4  UNL     1      11.385  17.965  14.521  1.00  0.00    -0.271 OA
ENDROOT
BRANCH   5   7
HETATM    7  C18 UNL     1      10.170  19.972  14.145  1.00  0.00     0.170 C 
BRANCH   7   8
HETATM    8  C19 UNL     1      10.604  21.161  13.281  1.00  0.00     0.038 C 
BRANCH   8   9
HETATM    9  C20 UNL     1      10.958  22.368  14.090  1.00  0.00    -0.020 C 
HETATM   10  C21 UNL     1      11.789  22.033  15.310  1.00  0.00     0.009 C 
HETATM   11  C22 UNL     1      11.778  23.298  13.209  1.00  0.00     0.009 C 
ENDBRANCH   8   9
ENDBRANCH   7   8
BRANCH   7  12
HETATM   12  N3  UNL     1       8.816  19.953  14.424  1.00  0.00    -0.397 N 
ATOM     13  H3  UNL     1       8.190  19.787  13.635  1.00  0.00     0.154 HD
BRANCH  12  14
HETATM   14  C23 UNL     1       8.221  20.136  15.655  1.00  0.00     0.166 C 
HETATM   15  C24 UNL     1       8.026  21.622  16.014  1.00  0.00     0.042 C 
BRANCH  14  16
HETATM   16  C25 UNL     1       6.799  19.617  15.611  1.00  0.00     0.239 C 
HETATM   17  O5  UNL     1       6.091  20.040  14.673  1.00  0.00    -0.271 OA
HETATM   18  N4  UNL     1       6.317  18.714  16.571  1.00  0.00    -0.357 N 
ATOM     19  H4  UNL     1       6.954  18.385  17.298  1.00  0.00     0.162 HD
BRANCH  18  20
HETATM   20  C26 UNL     1       4.951  18.231  16.572  1.00  0.00     0.157 C 
BRANCH  20  21
HETATM   21  C27 UNL     1       4.940  16.694  16.409  1.00  0.00     0.165 C 
BRANCH  21  22
HETATM   22  O6  UNL     1       6.221  16.290  16.474  1.00  0.00    -0.391 OA
ATOM     23  H6  UNL     1       6.376  15.751  15.707  1.00  0.00     0.210 HD
ENDBRANCH  21  22
BRANCH  21  24
HETATM   24  C28 UNL     1       4.119  16.423  15.222  1.00  0.00     0.155 C 
BRANCH  24  25
HETATM   25  O7  UNL     1       4.087  17.546  14.417  1.00  0.00    -0.388 OA
HETATM   26  C29 UNL     1       3.281  17.523  13.328  1.00  0.00     0.202 C 
ENDBRANCH  24  25
BRANCH  24  27
HETATM   27  C30 UNL     1       2.737  15.906  15.386  1.00  0.00     0.017 A 
HETATM   28  C31 UNL     1       2.462  14.421  15.281  1.00  0.00     0.007 A 
HETATM   29  C32 UNL     1       2.192  15.228  16.553  1.00  0.00     0.007 A 
ENDBRANCH  24  27
ENDBRANCH  21  24
ENDBRANCH  20  21
ENDBRANCH  18  20
ENDBRANCH  14  16
ENDBRANCH  12  14
ENDBRANCH   7  12
ENDBRANCH   5   7
BRANCH   1  30
HETATM   30  C14 UNL     1      11.613  16.677  10.485  1.00  0.00     0.076 C 
HETATM   31  C15 UNL     1      12.932  17.100   9.920  1.00  0.00     0.020 C 
BRANCH  30  32
HETATM   32  C13 UNL     1      10.385  17.059   9.748  1.00  0.00     0.047 C 
BRANCH  32  33
HETATM   33  C12 UNL     1      10.420  18.086   8.705  1.00  0.00     0.141 C 
BRANCH  33  34
HETATM   34  C4  UNL     1       9.575  19.295   8.746  1.00  0.00     0.114 C 
BRANCH  34  35
HETATM   35  N1  UNL     1       8.241  18.987   9.318  1.00  0.00    -0.350 N 
HETATM   36  C3  UNL     1       7.064  19.637   9.043  1.00  0.00     0.240 C 
HETATM   37  O1  UNL     1       7.060  20.669   8.266  1.00  0.00    -0.269 OA
ATOM     38  H1  UNL     1       8.194  18.214   9.982  1.00  0.00     0.163 HD
BRANCH  36  39
HETATM   39  C2  UNL     1       5.772  19.273   9.545  1.00  0.00     0.064 C 
HETATM   40  C1  UNL     1       5.107  18.220   9.062  1.00  0.00     0.017 C 
ENDBRANCH  36  39
ENDBRANCH  34  35
BRANCH  34  41
HETATM   41  C5  UNL     1      10.209  20.392   9.656  1.00  0.00     0.032 C 
BRANCH  41  42
HETATM   42  C6  UNL     1      11.186  21.269   8.992  1.00  0.00    -0.013 C 
HETATM   43  C7  UNL     1      10.807  21.625   7.564  1.00  0.00     0.005 C 
HETATM   44  C8  UNL     1      10.286  23.020   7.402  1.00  0.00     0.000 C 
HETATM   45  C9  UNL     1       9.312  23.430   8.494  1.00  0.00     0.000 C 
HETATM   46  C10 UNL     1       9.943  23.226   9.859  1.00  0.00     0.000 C 
HETATM   47  C11 UNL     1      11.291  22.608   9.766  1.00  0.00     0.005 C 
ENDBRANCH  41  42
ENDBRANCH  34  41
ENDBRANCH  33  34
BRANCH  33  48
HETATM   48  O2  UNL     1      10.368  17.477   7.418  1.00  0.00    -0.393 OA
ATOM     49  H2  UNL     1      10.540  16.546   7.479  1.00  0.00     0.210 HD
ENDBRANCH  33  48
ENDBRANCH  32  33
ENDBRANCH  30  32
ENDBRANCH   1  30
TORSDOF 21
ENDMDL
MODEL 4
REMARK VINA RESULT: -6.582766076      3.823      8.918
REMARK  21 active torsions:
REMARK  status: ('A' for Active; 'I' for Inactive)
REMARK    1  A    between atoms: C2_2  and  C3_3 
REMARK       I    between atoms: C3_3  and  N1_5 
REMARK    2  A    between atoms: N1_5  and  C4_7 
REMARK    3  A    between atoms: C4_7  and  C5_8 
REMARK    4  A    between atoms: C4_7  and  C12_15 
REMARK    5  A    between atoms: C5_8  and  C6_9 
REMARK    6  A    between atoms: C12_15  and  O2_16 
REMARK    7  A    between atoms: C12_15  and  C13_18 
REMARK    8  A    between atoms: C13_18  and  C14_19 
REMARK    9  A    between atoms: C14_19  and  C16_21 
REMARK       I    between atoms: C16_21  and  N2_23 
REMARK       I    between atoms: N2_23  and  C17_25 
REMARK   10  A    between atoms: C17_25  and  C18_27 
REMARK   11  A    between atoms: C18_27  and  C19_28 
REMARK   12  A    between atoms: C18_27  and  N3_32 
REMARK   13  A    between atoms: C19_28  and  C20_29 
REMARK   14  A    between atoms: N3_32  and  C23_34 
REMARK   15  A    between atoms: C23_34  and  C25_36 
REMARK       I    between atoms: C25_36  and  N4_38 
REMARK   16  A    between atoms: N4_38  and  C26_40 
REMARK   17  A    between atoms: C26_40  and  C27_41 
REMARK   18  A    between atoms: C27_41  and  O6_42 
REMARK   19  A    between atoms: C27_41  and  C28_44 
REMARK   20  A    between atoms: C28_44  and  O7_45 
REMARK   21  A    between atoms: C28_44  and  C30_47 
ROOT
HETATM    1  C16 UNL     1       5.969  19.577   8.606  1.00  0.00     0.228 C 
HETATM    2  O3  UNL     1       5.808  20.752   8.188  1.00  0.00    -0.273 OA
HETATM    3  N2  UNL     1       7.265  19.149   8.939  1.00  0.00    -0.296 N 
ATOM      4  H2  UNL     1       7.379  18.185   9.250  1.00  0.00     0.171 HD
HETATM    5  C17 UNL     1       8.409  19.949   8.874  1.00  0.00     0.246 C 
HETATM    6  O4  UNL     1       8.205  21.166   8.481  1.00  0.00    -0.271 OA
ENDROOT
BRANCH   5   7
HETATM    7  C18 UNL     1       9.794  19.554   9.207  1.00  0.00     0.170 C 
BRANCH   7   8
HETATM    8  C19 UNL     1      10.779  20.511   8.527  1.00  0.00     0.038 C 
BRANCH   8   9
HETATM    9  C20 UNL     1      12.073  19.852   8.166  1.00  0.00    -0.020 C 
HETATM   10  C21 UNL     1      11.884  18.630   7.293  1.00  0.00     0.009 C 
HETATM   11  C22 UNL     1      12.909  20.856   7.387  1.00  0.00     0.009 C 
ENDBRANCH   8   9
ENDBRANCH   7   8
BRANCH   7  12
HETATM   12  N3  UNL     1      10.112  19.272  10.522  1.00  0.00    -0.397 N 
ATOM     13  H3  UNL     1      10.493  20.041  11.075  1.00  0.00     0.154 HD
BRANCH  12  14
HETATM   14  C23 UNL     1       9.969  18.062  11.168  1.00  0.00     0.166 C 
HETATM   15  C24 UNL     1      10.412  16.864  10.306  1.00  0.00     0.042 C 
BRANCH  14  16
HETATM   16  C25 UNL     1      10.924  17.998  12.341  1.00  0.00     0.239 C 
HETATM   17  O5  UNL     1      11.113  19.071  12.951  1.00  0.00    -0.271 OA
HETATM   18  N4  UNL     1      11.556  16.800  12.709  1.00  0.00    -0.357 N 
ATOM     19  H4  UNL     1      11.340  15.951  12.186  1.00  0.00     0.162 HD
BRANCH  18  20
HETATM   20  C26 UNL     1      12.502  16.721  13.804  1.00  0.00     0.157 C 
BRANCH  20  21
HETATM   21  C27 UNL     1      13.700  15.834  13.395  1.00  0.00     0.165 C 
BRANCH  21  22
HETATM   22  O6  UNL     1      14.117  15.210  14.511  1.00  0.00    -0.391 OA
ATOM     23  H6  UNL     1      14.776  15.769  14.906  1.00  0.00     0.210 HD
ENDBRANCH  21  22
BRANCH  21  24
HETATM   24  C28 UNL     1      14.603  16.706  12.633  1.00  0.00     0.155 C 
BRANCH  24  25
HETATM   25  O7  UNL     1      14.021  17.026  11.421  1.00  0.00    -0.388 OA
HETATM   26  C29 UNL     1      14.067  16.103  10.431  1.00  0.00     0.202 C 
ENDBRANCH  24  25
BRANCH  24  27
HETATM   27  C30 UNL     1      16.007  16.285  12.398  1.00  0.00     0.017 A 
HETATM   28  C31 UNL     1      17.091  17.325  12.206  1.00  0.00     0.007 A 
HETATM   29  C32 UNL     1      17.100  16.318  13.358  1.00  0.00     0.007 A 
ENDBRANCH  24  27
ENDBRANCH  21  24
ENDBRANCH  20  21
ENDBRANCH  18  20
ENDBRANCH  14  16
ENDBRANCH  12  14
ENDBRANCH   7  12
ENDBRANCH   5   7
BRANCH   1  30
HETATM   30  C14 UNL     1       4.756  18.708   8.720  1.00  0.00     0.076 C 
HETATM   31  C15 UNL     1       3.708  19.178   7.763  1.00  0.00     0.020 C 
BRANCH  30  32
HETATM   32  C13 UNL     1       4.375  18.540  10.143  1.00  0.00     0.047 C 
BRANCH  32  33
HETATM   33  C12 UNL     1       4.099  19.702  10.991  1.00  0.00     0.141 C 
BRANCH  33  34
HETATM   34  C4  UNL     1       4.705  19.877  12.325  1.00  0.00     0.114 C 
BRANCH  34  35
HETATM   35  N1  UNL     1       4.578  18.637  13.130  1.00  0.00    -0.350 N 
HETATM   36  C3  UNL     1       3.865  18.488  14.293  1.00  0.00     0.240 C 
HETATM   37  O1  UNL     1       3.275  19.505  14.828  1.00  0.00    -0.269 OA
ATOM     38  H1  UNL     1       5.069  17.813  12.784  1.00  0.00     0.163 HD
BRANCH  36  39
HETATM   39  C2  UNL     1       3.690  17.261  15.014  1.00  0.00     0.064 C 
HETATM   40  C1  UNL     1       4.697  16.697  15.687  1.00  0.00     0.017 C 
ENDBRANCH  36  39
ENDBRANCH  34  35
BRANCH  34  41
HETATM   41  C5  UNL     1       6.231  20.182  12.212  1.00  0.00     0.032 C 
BRANCH  41  42
HETATM   42  C6  UNL     1       6.682  21.392  12.917  1.00  0.00    -0.013 C 
HETATM   43  C7  UNL     1       5.759  21.811  14.050  1.00  0.00     0.005 C 
HETATM   44  C8  UNL     1       6.291  21.498  15.415  1.00  0.00     0.000 C 
HETATM   45  C9  UNL     1       6.918  20.117  15.515  1.00  0.00     0.000 C 
HETATM   46  C10 UNL     1       7.987  19.952  14.450  1.00  0.00     0.000 C 
HETATM   47  C11 UNL     1       8.071  21.134  13.554  1.00  0.00     0.005 C 
ENDBRANCH  41  42
ENDBRANCH  34  41
ENDBRANCH  33  34
BRANCH  33  48
HETATM   48  O2  UNL     1       2.697  19.952  11.037  1.00  0.00    -0.393 OA
ATOM     49  H2  UNL     1       2.503  20.837  10.752  1.00  0.00     0.210 HD
ENDBRANCH  33  48
ENDBRANCH  32  33
ENDBRANCH  30  32
ENDBRANCH   1  30
TORSDOF 21
ENDMDL
MODEL 5
REMARK VINA RESULT: -6.501989168      3.161      6.652
REMARK  21 active torsions:
REMARK  status: ('A' for Active; 'I' for Inactive)
REMARK    1  A    between atoms: C2_2  and  C3_3 
REMARK       I    between atoms: C3_3  and  N1_5 
REMARK    2  A    between atoms: N1_5  and  C4_7 
REMARK    3  A    between atoms: C4_7  and  C5_8 
REMARK    4  A    between atoms: C4_7  and  C12_15 
REMARK    5  A    between atoms: C5_8  and  C6_9 
REMARK    6  A    between atoms: C12_15  and  O2_16 
REMARK    7  A    between atoms: C12_15  and  C13_18 
REMARK    8  A    between atoms: C13_18  and  C14_19 
REMARK    9  A    between atoms: C14_19  and  C16_21 
REMARK       I    between atoms: C16_21  and  N2_23 
REMARK       I    between atoms: N2_23  and  C17_25 
REMARK   10  A    between atoms: C17_25  and  C18_27 
REMARK   11  A    between atoms: C18_27  and  C19_28 
REMARK   12  A    between atoms: C18_27  and  N3_32 
REMARK   13  A    between atoms: C19_28  and  C20_29 
REMARK   14  A    between atoms: N3_32  and  C23_34 
REMARK   15  A    between atoms: C23_34  and  C25_36 
REMARK       I    between atoms: C25_36  and  N4_38 
REMARK   16  A    between atoms: N4_38  and  C26_40 
REMARK   17  A    between atoms: C26_40  and  C27_41 
REMARK   18  A    between atoms: C27_41  and  O6_42 
REMARK   19  A    between atoms: C27_41  and  C28_44 
REMARK   20  A    between atoms: C28_44  and  O7_45 
REMARK   21  A    between atoms: C28_44  and  C30_47 
ROOT
HETATM    1  C16 UNL     1      11.507  17.108  11.953  1.00  0.00     0.228 C 
HETATM    2  O3  UNL     1      11.985  16.399  12.876  1.00  0.00    -0.273 OA
HETATM    3  N2  UNL     1      10.859  18.308  12.290  1.00  0.00    -0.296 N 
ATOM      4  H2  UNL     1      10.454  18.856  11.531  1.00  0.00     0.171 HD
HETATM    5  C17 UNL     1      10.730  18.806  13.589  1.00  0.00     0.246 C 
HETATM    6  O4  UNL     1      11.269  18.077  14.512  1.00  0.00    -0.271 OA
ENDROOT
BRANCH   5   7
HETATM    7  C18 UNL     1      10.059  20.056  14.003  1.00  0.00     0.170 C 
BRANCH   7   8
HETATM    8  C19 UNL     1      10.285  21.138  12.941  1.00  0.00     0.038 C 
BRANCH   8   9
HETATM    9  C20 UNL     1      10.708  22.448  13.527  1.00  0.00    -0.020 C 
HETATM   10  C21 UNL     1      11.667  22.287  14.687  1.00  0.00     0.009 C 
HETATM   11  C22 UNL     1      11.419  23.239  12.440  1.00  0.00     0.009 C 
ENDBRANCH   8   9
ENDBRANCH   7   8
BRANCH   7  12
HETATM   12  N3  UNL     1       8.757  19.996  14.465  1.00  0.00    -0.397 N 
ATOM     13  H3  UNL     1       8.039  19.766  13.778  1.00  0.00     0.154 HD
BRANCH  12  14
HETATM   14  C23 UNL     1       8.326  20.212  15.758  1.00  0.00     0.166 C 
HETATM   15  C24 UNL     1       8.328  21.703  16.150  1.00  0.00     0.042 C 
BRANCH  14  16
HETATM   16  C25 UNL     1       6.862  19.842  15.870  1.00  0.00     0.239 C 
HETATM   17  O5  UNL     1       6.082  20.461  15.117  1.00  0.00    -0.271 OA
HETATM   18  N4  UNL     1       6.420  18.861  16.771  1.00  0.00    -0.357 N 
ATOM     19  H4  UNL     1       7.111  18.372  17.341  1.00  0.00     0.162 HD
BRANCH  18  20
HETATM   20  C26 UNL     1       5.021  18.514  16.924  1.00  0.00     0.157 C 
BRANCH  20  21
HETATM   21  C27 UNL     1       4.816  17.016  16.602  1.00  0.00     0.165 C 
BRANCH  21  22
HETATM   22  O6  UNL     1       6.040  16.490  16.420  1.00  0.00    -0.391 OA
ATOM     23  H6  UNL     1       6.166  15.849  17.109  1.00  0.00     0.210 HD
ENDBRANCH  21  22
BRANCH  21  24
HETATM   24  C28 UNL     1       3.805  16.970  15.538  1.00  0.00     0.155 C 
BRANCH  24  25
HETATM   25  O7  UNL     1       3.592  15.658  15.161  1.00  0.00    -0.388 OA
HETATM   26  C29 UNL     1       2.686  14.935  15.862  1.00  0.00     0.202 C 
ENDBRANCH  24  25
BRANCH  24  27
HETATM   27  C30 UNL     1       3.981  17.801  14.320  1.00  0.00     0.017 A 
HETATM   28  C31 UNL     1       3.156  17.521  13.083  1.00  0.00     0.007 A 
HETATM   29  C32 UNL     1       3.091  18.848  13.842  1.00  0.00     0.007 A 
ENDBRANCH  24  27
ENDBRANCH  21  24
ENDBRANCH  20  21
ENDBRANCH  18  20
ENDBRANCH  14  16
ENDBRANCH  12  14
ENDBRANCH   7  12
ENDBRANCH   5   7
BRANCH   1  30
HETATM   30  C14 UNL     1      11.662  16.617  10.548  1.00  0.00     0.076 C 
HETATM   31  C15 UNL     1      13.019  16.979  10.035  1.00  0.00     0.020 C 
BRANCH  30  32
HETATM   32  C13 UNL     1      10.484  17.003   9.736  1.00  0.00     0.047 C 
BRANCH  32  33
HETATM   33  C12 UNL     1      10.553  18.119   8.789  1.00  0.00     0.141 C 
BRANCH  33  34
HETATM   34  C4  UNL     1       9.839  19.392   9.005  1.00  0.00     0.114 C 
BRANCH  34  35
HETATM   35  N1  UNL     1       9.491  20.029   7.711  1.00  0.00    -0.350 N 
HETATM   36  C3  UNL     1      10.110  21.112   7.141  1.00  0.00     0.240 C 
HETATM   37  O1  UNL     1      11.057  21.724   7.771  1.00  0.00    -0.269 OA
ATOM     38  H1  UNL     1       8.713  19.620   7.194  1.00  0.00     0.163 HD
BRANCH  36  39
HETATM   39  C2  UNL     1       9.810  21.663   5.852  1.00  0.00     0.064 C 
HETATM   40  C1  UNL     1      10.406  21.213   4.744  1.00  0.00     0.017 C 
ENDBRANCH  36  39
ENDBRANCH  34  35
BRANCH  34  41
HETATM   41  C5  UNL     1       8.497  19.161   9.766  1.00  0.00     0.032 C 
BRANCH  41  42
HETATM   42  C6  UNL     1       7.322  19.823   9.178  1.00  0.00    -0.013 C 
HETATM   43  C7  UNL     1       6.043  19.013   9.311  1.00  0.00     0.005 C 
HETATM   44  C8  UNL     1       5.104  19.523  10.360  1.00  0.00     0.000 C 
HETATM   45  C9  UNL     1       5.803  19.920  11.651  1.00  0.00     0.000 C 
HETATM   46  C10 UNL     1       6.909  20.917  11.360  1.00  0.00     0.000 C 
HETATM   47  C11 UNL     1       7.067  21.168   9.904  1.00  0.00     0.005 C 
ENDBRANCH  41  42
ENDBRANCH  34  41
ENDBRANCH  33  34
BRANCH  33  48
HETATM   48  O2  UNL     1      10.353  17.647   7.461  1.00  0.00    -0.393 OA
ATOM     49  H2  UNL     1      10.307  18.372   6.849  1.00  0.00     0.210 HD
ENDBRANCH  33  48
ENDBRANCH  32  33
ENDBRANCH  30  32
ENDBRANCH   1  30
TORSDOF 21
ENDMDL
