MODEL 1
REMARK VINA RESULT: -6.396518011      0.000      0.000
REMARK  22 active torsions:
REMARK  status: ('A' for Active; 'I' for Inactive)
REMARK    1  A    between atoms: C2_2  and  C4_4 
REMARK    2  A    between atoms: C4_4  and  C5_5 
REMARK    3  A    between atoms: C5_5  and  N1_6 
REMARK    4  A    between atoms: C10_11  and  C11_12 
REMARK    5  A    between atoms: C11_12  and  C13_14 
REMARK    6  A    between atoms: C13_14  and  N2_15 
REMARK    7  A    between atoms: C13_14  and  C26_42 
REMARK    8  A    between atoms: N2_15  and  C14_17 
REMARK    9  A    between atoms: C14_17  and  C15_18 
REMARK   10  A    between atoms: C14_17  and  C19_26 
REMARK   11  A    between atoms: C15_18  and  C16_19 
REMARK   12  A    between atoms: C16_19  and  C17_20 
REMARK   13  A    between atoms: C17_20  and  C18_21 
REMARK   14  A    between atoms: C18_21  and  N3_22 
REMARK       I    between atoms: C19_26  and  N4_28 
REMARK   15  A    between atoms: N4_28  and  C20_30 
REMARK   16  A    between atoms: C20_30  and  C21_31 
REMARK   17  A    between atoms: C20_30  and  C25_39 
REMARK   18  A    between atoms: C21_31  and  C22_32 
REMARK   19  A    between atoms: C22_32  and  C23_33 
REMARK   20  A    between atoms: C23_33  and  N5_34 
REMARK   21  A    between atoms: C26_42  and  O4_44 
REMARK   22  A    between atoms: O4_44  and  C27_45 
ROOT
HETATM    1  C14 UNL     1       9.984  19.640  12.365  1.00  0.00     0.170 C 
ENDROOT
BRANCH   1   2
HETATM    2  N2  UNL     1      10.364  18.319  12.174  1.00  0.00    -0.396 N 
ATOM      3  H2  UNL     1       9.680  17.590  12.376  1.00  0.00     0.155 HD
BRANCH   2   4
HETATM    4  C13 UNL     1      11.626  17.929  11.723  1.00  0.00     0.187 C 
BRANCH   4   5
HETATM    5  C11 UNL     1      11.578  17.243  10.338  1.00  0.00     0.059 C 
HETATM    6  C12 UNL     1      10.208  16.689  10.090  1.00  0.00     0.018 C 
BRANCH   5   7
HETATM    7  C10 UNL     1      12.136  18.094   9.234  1.00  0.00    -0.010 C 
HETATM    8  N1  UNL     1      11.362  19.132   8.716  1.00  0.00    -0.387 N 
HETATM    9  C6  UNL     1      10.641  18.920   7.512  1.00  0.00     0.122 C 
HETATM   10  C7  UNL     1      11.279  18.064   6.480  1.00  0.00     0.020 C 
HETATM   11  C8  UNL     1      12.028  16.891   7.001  1.00  0.00     0.007 C 
HETATM   12  C9  UNL     1      12.826  17.228   8.195  1.00  0.00     0.053 C 
BRANCH   8  13
HETATM   13  C5  UNL     1      11.914  20.457   8.819  1.00  0.00     0.123 C 
BRANCH  13  14
HETATM   14  C4  UNL     1      10.853  21.528   9.015  1.00  0.00     0.023 C 
BRANCH  14  15
HETATM   15  C2  UNL     1      11.507  22.824   9.489  1.00  0.00    -0.021 C 
HETATM   16  C1  UNL     1      12.942  22.886   9.056  1.00  0.00     0.009 C 
HETATM   17  C3  UNL     1      11.434  22.841  10.996  1.00  0.00     0.009 C 
ENDBRANCH  14  15
ENDBRANCH  13  14
ENDBRANCH   8  13
ENDBRANCH   5   7
ENDBRANCH   4   5
BRANCH   4  18
HETATM   18  C26 UNL     1      12.401  17.026  12.609  1.00  0.00     0.282 C 
HETATM   19  O3  UNL     1      11.835  16.038  13.121  1.00  0.00    -0.263 OA
BRANCH  18  20
HETATM   20  O4  UNL     1      13.736  17.228  12.907  1.00  0.00    -0.310 OA
BRANCH  20  21
HETATM   21  C27 UNL     1      14.797  16.395  12.493  1.00  0.00     0.060 C 
HETATM   22  C28 UNL     1      14.470  15.801  11.126  1.00  0.00     0.045 C 
HETATM   23  C29 UNL     1      15.008  15.263  13.492  1.00  0.00     0.045 C 
HETATM   24  C30 UNL     1      16.053  17.192  12.372  1.00  0.00     0.045 C 
ENDBRANCH  20  21
ENDBRANCH  18  20
ENDBRANCH   4  18
ENDBRANCH   2   4
ENDBRANCH   1   2
BRANCH   1  25
HETATM   25  C15 UNL     1       8.792  20.216  11.702  1.00  0.00     0.034 C 
BRANCH  25  26
HETATM   26  C16 UNL     1       8.186  19.529  10.550  1.00  0.00     0.004 C 
BRANCH  26  27
HETATM   27  C17 UNL     1       6.671  19.832  10.583  1.00  0.00     0.027 C 
BRANCH  27  28
HETATM   28  C18 UNL     1       6.022  19.256   9.338  1.00  0.00     0.229 C 
BRANCH  28  29
HETATM   29  N3  UNL     1       6.646  19.816   8.160  1.00  0.00    -0.079 N 
ATOM     30  H33 UNL     1       6.730  20.831   8.215  1.00  0.00     0.274 HD
ATOM     31  H32 UNL     1       7.639  19.588   8.105  1.00  0.00     0.274 HD
ATOM     32  H31 UNL     1       6.137  19.518   7.327  1.00  0.00     0.274 HD
ENDBRANCH  28  29
ENDBRANCH  27  28
ENDBRANCH  26  27
ENDBRANCH  25  26
ENDBRANCH   1  25
BRANCH   1  33
HETATM   33  C19 UNL     1       9.772  19.883  13.856  1.00  0.00     0.240 C 
HETATM   34  O1  UNL     1      10.767  19.862  14.613  1.00  0.00    -0.271 OA
HETATM   35  N4  UNL     1       8.491  20.128  14.356  1.00  0.00    -0.346 N 
ATOM     36  H4  UNL     1       7.718  20.133  13.691  1.00  0.00     0.163 HD
BRANCH  35  37
HETATM   37  C20 UNL     1       8.182  20.373  15.731  1.00  0.00     0.173 C 
BRANCH  37  38
HETATM   38  C21 UNL     1       7.771  21.853  15.924  1.00  0.00     0.036 C 
BRANCH  38  39
HETATM   39  C22 UNL     1       8.978  22.747  15.705  1.00  0.00     0.022 C 
BRANCH  39  40
HETATM   40  C23 UNL     1      10.013  22.375  16.757  1.00  0.00     0.122 C 
BRANCH  40  41
HETATM   41  N5  UNL     1      11.335  22.619  16.270  1.00  0.00    -0.367 N 
HETATM   42  C24 UNL     1      12.401  22.282  16.949  1.00  0.00     0.196 C 
HETATM   43  N6  UNL     1      13.709  22.511  16.493  1.00  0.00    -0.067 NA
HETATM   44  N7  UNL     1      12.188  21.655  18.206  1.00  0.00    -0.067 NA
ATOM     45  H5  UNL     1      11.450  23.072  15.363  1.00  0.00     0.161 HD
ENDBRANCH  40  41
ENDBRANCH  39  40
ENDBRANCH  38  39
ENDBRANCH  37  38
BRANCH  37  46
HETATM   46  C25 UNL     1       7.076  19.514  16.205  1.00  0.00     0.254 C 
HETATM   47  N8  UNL     1       5.798  20.057  16.469  1.00  0.00    -0.060 NA
HETATM   48  O2  UNL     1       7.277  18.293  16.373  1.00  0.00    -0.275 OA
ENDBRANCH  37  46
ENDBRANCH  35  37
ENDBRANCH   1  33
TORSDOF 22
ENDMDL
MODEL 2
REMARK VINA RESULT: -6.147469652      5.961     11.589
REMARK  22 active torsions:
REMARK  status: ('A' for Active; 'I' for Inactive)
REMARK    1  A    between atoms: C2_2  and  C4_4 
REMARK    2  A    between atoms: C4_4  and  C5_5 
REMARK    3  A    between atoms: C5_5  and  N1_6 
REMARK    4  A    between atoms: C10_11  and  C11_12 
REMARK    5  A    between atoms: C11_12  and  C13_14 
REMARK    6  A    between atoms: C13_14  and  N2_15 
REMARK    7  A    between atoms: C13_14  and  C26_42 
REMARK    8  A    between atoms: N2_15  and  C14_17 
REMARK    9  A    between atoms: C14_17  and  C15_18 
REMARK   10  A    between atoms: C14_17  and  C19_26 
REMARK   11  A    between atoms: C15_18  and  C16_19 
REMARK   12  A    between atoms: C16_19  and  C17_20 
REMARK   13  A    between atoms: C17_20  and  C18_21 
REMARK   14  A    between atoms: C18_21  and  N3_22 
REMARK       I    between atoms: C19_26  and  N4_28 
REMARK   15  A    between atoms: N4_28  and  C20_30 
REMARK   16  A    between atoms: C20_30  and  C21_31 
REMARK   17  A    between atoms: C20_30  and  C25_39 
REMARK   18  A    between atoms: C21_31  and  C22_32 
REMARK   19  A    between atoms: C22_32  and  C23_33 
REMARK   20  A    between atoms: C23_33  and  N5_34 
REMARK   21  A    between atoms: C26_42  and  O4_44 
REMARK   22  A    between atoms: O4_44  and  C27_45 
ROOT
HETATM    1  C14 UNL     1      12.543  17.483   5.517  1.00  0.00     0.170 C 
ENDROOT
BRANCH   1   2
HETATM    2  N2  UNL     1      12.355  18.726   4.928  1.00  0.00    -0.396 N 
ATOM      3  H2  UNL     1      11.671  18.802   4.176  1.00  0.00     0.155 HD
BRANCH   2   4
HETATM    4  C13 UNL     1      13.048  19.878   5.304  1.00  0.00     0.187 C 
BRANCH   4   5
HETATM    5  C11 UNL     1      12.106  21.017   5.761  1.00  0.00     0.059 C 
HETATM    6  C12 UNL     1      10.857  21.011   4.931  1.00  0.00     0.018 C 
BRANCH   5   7
HETATM    7  C10 UNL     1      11.888  21.048   7.247  1.00  0.00    -0.010 C 
HETATM    8  N1  UNL     1      10.686  21.546   7.750  1.00  0.00    -0.387 N 
HETATM    9  C6  UNL     1      10.636  22.885   8.217  1.00  0.00     0.122 C 
HETATM   10  C7  UNL     1      11.846  23.411   8.900  1.00  0.00     0.020 C 
HETATM   11  C8  UNL     1      13.143  22.975   8.320  1.00  0.00     0.007 C 
HETATM   12  C9  UNL     1      13.135  21.546   7.954  1.00  0.00     0.053 C 
BRANCH   8  13
HETATM   13  C5  UNL     1       9.898  20.640   8.543  1.00  0.00     0.123 C 
BRANCH  13  14
HETATM   14  C4  UNL     1      10.541  20.310   9.880  1.00  0.00     0.023 C 
BRANCH  14  15
HETATM   15  C2  UNL     1       9.582  19.472  10.724  1.00  0.00    -0.021 C 
HETATM   16  C1  UNL     1      10.325  18.408  11.476  1.00  0.00     0.009 C 
HETATM   17  C3  UNL     1       8.598  18.827   9.779  1.00  0.00     0.009 C 
ENDBRANCH  14  15
ENDBRANCH  13  14
ENDBRANCH   8  13
ENDBRANCH   5   7
ENDBRANCH   4   5
BRANCH   4  18
HETATM   18  C26 UNL     1      13.957  20.470   4.293  1.00  0.00     0.282 C 
HETATM   19  O3  UNL     1      14.553  21.536   4.557  1.00  0.00    -0.263 OA
BRANCH  18  20
HETATM   20  O4  UNL     1      14.178  19.900   3.054  1.00  0.00    -0.310 OA
BRANCH  20  21
HETATM   21  C27 UNL     1      13.599  20.336   1.843  1.00  0.00     0.060 C 
HETATM   22  C28 UNL     1      14.487  19.910   0.676  1.00  0.00     0.045 C 
HETATM   23  C29 UNL     1      13.457  21.853   1.834  1.00  0.00     0.045 C 
HETATM   24  C30 UNL     1      12.256  19.708   1.665  1.00  0.00     0.045 C 
ENDBRANCH  20  21
ENDBRANCH  18  20
ENDBRANCH   4  18
ENDBRANCH   2   4
ENDBRANCH   1   2
BRANCH   1  25
HETATM   25  C15 UNL     1      11.448  16.776   6.219  1.00  0.00     0.034 C 
BRANCH  25  26
HETATM   26  C16 UNL     1      11.057  17.187   7.576  1.00  0.00     0.004 C 
BRANCH  26  27
HETATM   27  C17 UNL     1      12.358  17.483   8.357  1.00  0.00     0.027 C 
BRANCH  27  28
HETATM   28  C18 UNL     1      12.551  16.420   9.422  1.00  0.00     0.229 C 
BRANCH  28  29
HETATM   29  N3  UNL     1      13.645  16.793  10.291  1.00  0.00    -0.079 N 
ATOM     30  H33 UNL     1      14.429  16.144  10.223  1.00  0.00     0.274 HD
ATOM     31  H32 UNL     1      14.123  17.635   9.967  1.00  0.00     0.274 HD
ATOM     32  H31 UNL     1      13.307  16.888  11.248  1.00  0.00     0.274 HD
ENDBRANCH  28  29
ENDBRANCH  27  28
ENDBRANCH  26  27
ENDBRANCH  25  26
ENDBRANCH   1  25
BRANCH   1  33
HETATM   33  C19 UNL     1      13.039  16.504   4.457  1.00  0.00     0.240 C 
HETATM   34  O1  UNL     1      12.571  15.344   4.447  1.00  0.00    -0.271 OA
HETATM   35  N4  UNL     1      13.992  16.904   3.518  1.00  0.00    -0.346 N 
ATOM     36  H4  UNL     1      14.338  17.862   3.575  1.00  0.00     0.163 HD
BRANCH  35  37
HETATM   37  C20 UNL     1      14.521  16.072   2.482  1.00  0.00     0.173 C 
BRANCH  37  38
HETATM   38  C21 UNL     1      13.787  16.359   1.149  1.00  0.00     0.036 C 
BRANCH  38  39
HETATM   39  C22 UNL     1      12.947  15.154   0.763  1.00  0.00     0.022 C 
BRANCH  39  40
HETATM   40  C23 UNL     1      13.615  14.505  -0.440  1.00  0.00     0.122 C 
BRANCH  40  41
HETATM   41  N5  UNL     1      14.302  13.312  -0.050  1.00  0.00    -0.367 N 
HETATM   42  C24 UNL     1      15.546  13.084  -0.384  1.00  0.00     0.196 C 
HETATM   43  N6  UNL     1      16.241  11.922  -0.013  1.00  0.00    -0.067 NA
HETATM   44  N7  UNL     1      16.195  14.083  -1.159  1.00  0.00    -0.067 NA
ATOM     45  H5  UNL     1      13.804  12.617   0.505  1.00  0.00     0.161 HD
ENDBRANCH  40  41
ENDBRANCH  39  40
ENDBRANCH  38  39
ENDBRANCH  37  38
BRANCH  37  46
HETATM   46  C25 UNL     1      15.967  16.301   2.279  1.00  0.00     0.254 C 
HETATM   47  N8  UNL     1      16.812  16.609   3.370  1.00  0.00    -0.060 NA
HETATM   48  O2  UNL     1      16.446  16.220   1.129  1.00  0.00    -0.275 OA
ENDBRANCH  37  46
ENDBRANCH  35  37
ENDBRANCH   1  33
TORSDOF 22
ENDMDL
MODEL 3
REMARK VINA RESULT: -6.066817524      3.972      9.924
REMARK  22 active torsions:
REMARK  status: ('A' for Active; 'I' for Inactive)
REMARK    1  A    between atoms: C2_2  and  C4_4 
REMARK    2  A    between atoms: C4_4  and  C5_5 
REMARK    3  A    between atoms: C5_5  and  N1_6 
REMARK    4  A    between atoms: C10_11  and  C11_12 
REMARK    5  A    between atoms: C11_12  and  C13_14 
REMARK    6  A    between atoms: C13_14  and  N2_15 
REMARK    7  A    between atoms: C13_14  and  C26_42 
REMARK    8  A    between atoms: N2_15  and  C14_17 
REMARK    9  A    between atoms: C14_17  and  C15_18 
REMARK   10  A    between atoms: C14_17  and  C19_26 
REMARK   11  A    between atoms: C15_18  and  C16_19 
REMARK   12  A    between atoms: C16_19  and  C17_20 
REMARK   13  A    between atoms: C17_20  and  C18_21 
REMARK   14  A    between atoms: C18_21  and  N3_22 
REMARK       I    between atoms: C19_26  and  N4_28 
REMARK   15  A    between atoms: N4_28  and  C20_30 
REMARK   16  A    between atoms: C20_30  and  C21_31 
REMARK   17  A    between atoms: C20_30  and  C25_39 
REMARK   18  A    between atoms: C21_31  and  C22_32 
REMARK   19  A    between atoms: C22_32  and  C23_33 
REMARK   20  A    between atoms: C23_33  and  N5_34 
REMARK   21  A    between atoms: C26_42  and  O4_44 
REMARK   22  A    between atoms: O4_44  and  C27_45 
ROOT
HETATM    1  C14 UNL     1      10.869  19.319   7.508  1.00  0.00     0.170 C 
ENDROOT
BRANCH   1   2
HETATM    2  N2  UNL     1       9.926  18.619   8.247  1.00  0.00    -0.396 N 
ATOM      3  H2  UNL     1       9.387  17.895   7.773  1.00  0.00     0.155 HD
BRANCH   2   4
HETATM    4  C13 UNL     1       9.672  18.847   9.601  1.00  0.00     0.187 C 
BRANCH   4   5
HETATM    5  C11 UNL     1      10.084  17.653  10.493  1.00  0.00     0.059 C 
HETATM    6  C12 UNL     1      10.050  16.384   9.697  1.00  0.00     0.018 C 
BRANCH   5   7
HETATM    7  C10 UNL     1      11.353  17.895  11.260  1.00  0.00    -0.010 C 
HETATM    8  N1  UNL     1      12.088  16.805  11.724  1.00  0.00    -0.387 N 
HETATM    9  C6  UNL     1      11.938  16.397  13.075  1.00  0.00     0.122 C 
HETATM   10  C7  UNL     1      11.727  17.464  14.087  1.00  0.00     0.020 C 
HETATM   11  C8  UNL     1      10.864  18.592  13.652  1.00  0.00     0.007 C 
HETATM   12  C9  UNL     1      11.157  19.013  12.268  1.00  0.00     0.053 C 
BRANCH   8  13
HETATM   13  C5  UNL     1      13.440  16.692  11.247  1.00  0.00     0.123 C 
BRANCH  13  14
HETATM   14  C4  UNL     1      14.471  17.113  12.281  1.00  0.00     0.023 C 
BRANCH  14  15
HETATM   15  C2  UNL     1      15.725  16.252  12.143  1.00  0.00    -0.021 C 
HETATM   16  C1  UNL     1      15.739  15.163  13.176  1.00  0.00     0.009 C 
HETATM   17  C3  UNL     1      16.917  17.155  12.348  1.00  0.00     0.009 C 
ENDBRANCH  14  15
ENDBRANCH  13  14
ENDBRANCH   8  13
ENDBRANCH   5   7
ENDBRANCH   4   5
BRANCH   4  18
HETATM   18  C26 UNL     1       8.275  19.181   9.970  1.00  0.00     0.282 C 
HETATM   19  O3  UNL     1       7.362  18.997   9.138  1.00  0.00    -0.263 OA
BRANCH  18  20
HETATM   20  O4  UNL     1       7.925  19.698  11.203  1.00  0.00    -0.310 OA
BRANCH  20  21
HETATM   21  C27 UNL     1       7.820  21.071  11.510  1.00  0.00     0.060 C 
HETATM   22  C28 UNL     1       6.370  21.518  11.341  1.00  0.00     0.045 C 
HETATM   23  C29 UNL     1       8.708  21.894  10.584  1.00  0.00     0.045 C 
HETATM   24  C30 UNL     1       8.223  21.309  12.927  1.00  0.00     0.045 C 
ENDBRANCH  20  21
ENDBRANCH  18  20
ENDBRANCH   4  18
ENDBRANCH   2   4
ENDBRANCH   1   2
BRANCH   1  25
HETATM   25  C15 UNL     1      11.648  20.436   8.089  1.00  0.00     0.034 C 
BRANCH  25  26
HETATM   26  C16 UNL     1      11.431  21.811   7.613  1.00  0.00     0.004 C 
BRANCH  26  27
HETATM   27  C17 UNL     1      12.650  22.190   6.741  1.00  0.00     0.027 C 
BRANCH  27  28
HETATM   28  C18 UNL     1      13.907  21.617   7.368  1.00  0.00     0.229 C 
BRANCH  28  29
HETATM   29  N3  UNL     1      14.689  20.939   6.359  1.00  0.00    -0.079 N 
ATOM     30  H33 UNL     1      14.154  20.770   5.507  1.00  0.00     0.274 HD
ATOM     31  H32 UNL     1      15.411  21.541   5.962  1.00  0.00     0.274 HD
ATOM     32  H31 UNL     1      15.077  20.078   6.745  1.00  0.00     0.274 HD
ENDBRANCH  28  29
ENDBRANCH  27  28
ENDBRANCH  26  27
ENDBRANCH  25  26
ENDBRANCH   1  25
BRANCH   1  33
HETATM   33  C19 UNL     1      11.910  18.337   6.977  1.00  0.00     0.240 C 
HETATM   34  O1  UNL     1      12.554  17.646   7.797  1.00  0.00    -0.271 OA
HETATM   35  N4  UNL     1      12.128  18.214   5.603  1.00  0.00    -0.346 N 
ATOM     36  H4  UNL     1      11.573  18.803   4.983  1.00  0.00     0.163 HD
BRANCH  35  37
HETATM   37  C20 UNL     1      13.071  17.323   5.000  1.00  0.00     0.173 C 
BRANCH  37  38
HETATM   38  C21 UNL     1      12.329  16.268   4.146  1.00  0.00     0.036 C 
BRANCH  38  39
HETATM   39  C22 UNL     1      11.704  16.942   2.937  1.00  0.00     0.022 C 
BRANCH  39  40
HETATM   40  C23 UNL     1      11.988  16.058   1.731  1.00  0.00     0.122 C 
BRANCH  40  41
HETATM   41  N5  UNL     1      13.216  15.347   1.907  1.00  0.00    -0.367 N 
HETATM   42  C24 UNL     1      14.079  15.194   0.936  1.00  0.00     0.196 C 
HETATM   43  N6  UNL     1      15.291  14.500   1.085  1.00  0.00    -0.067 NA
HETATM   44  N7  UNL     1      13.741  15.772  -0.318  1.00  0.00    -0.067 NA
ATOM     45  H5  UNL     1      13.426  14.945   2.821  1.00  0.00     0.161 HD
ENDBRANCH  40  41
ENDBRANCH  39  40
ENDBRANCH  38  39
ENDBRANCH  37  38
BRANCH  37  46
HETATM   46  C25 UNL     1      14.025  18.043   4.131  1.00  0.00     0.254 C 
HETATM   47  N8  UNL     1      13.885  19.429   3.891  1.00  0.00    -0.060 NA
HETATM   48  O2  UNL     1      14.967  17.416   3.604  1.00  0.00    -0.275 OA
ENDBRANCH  37  46
ENDBRANCH  35  37
ENDBRANCH   1  33
TORSDOF 22
ENDMDL
MODEL 4
REMARK VINA RESULT: -6.005684124      8.321     13.363
REMARK  22 active torsions:
REMARK  status: ('A' for Active; 'I' for Inactive)
REMARK    1  A    between atoms: C2_2  and  C4_4 
REMARK    2  A    between atoms: C4_4  and  C5_5 
REMARK    3  A    between atoms: C5_5  and  N1_6 
REMARK    4  A    between atoms: C10_11  and  C11_12 
REMARK    5  A    between atoms: C11_12  and  C13_14 
REMARK    6  A    between atoms: C13_14  and  N2_15 
REMARK    7  A    between atoms: C13_14  and  C26_42 
REMARK    8  A    between atoms: N2_15  and  C14_17 
REMARK    9  A    between atoms: C14_17  and  C15_18 
REMARK   10  A    between atoms: C14_17  and  C19_26 
REMARK   11  A    between atoms: C15_18  and  C16_19 
REMARK   12  A    between atoms: C16_19  and  C17_20 
REMARK   13  A    between atoms: C17_20  and  C18_21 
REMARK   14  A    between atoms: C18_21  and  N3_22 
REMARK       I    between atoms: C19_26  and  N4_28 
REMARK   15  A    between atoms: N4_28  and  C20_30 
REMARK   16  A    between atoms: C20_30  and  C21_31 
REMARK   17  A    between atoms: C20_30  and  C25_39 
REMARK   18  A    between atoms: C21_31  and  C22_32 
REMARK   19  A    between atoms: C22_32  and  C23_33 
REMARK   20  A    between atoms: C23_33  and  N5_34 
REMARK   21  A    between atoms: C26_42  and  O4_44 
REMARK   22  A    between atoms: O4_44  and  C27_45 
ROOT
HETATM    1  C14 UNL     1       1.032  16.695  13.203  1.00  0.00     0.170 C 
ENDROOT
BRANCH   1   2
HETATM    2  N2  UNL     1       1.436  15.516  13.814  1.00  0.00    -0.396 N 
ATOM      3  H2  UNL     1       2.234  15.020  13.419  1.00  0.00     0.155 HD
BRANCH   2   4
HETATM    4  C13 UNL     1       0.813  14.968  14.938  1.00  0.00     0.187 C 
BRANCH   4   5
HETATM    5  C11 UNL     1       1.768  14.852  16.149  1.00  0.00     0.059 C 
HETATM    6  C12 UNL     1       3.191  14.857  15.680  1.00  0.00     0.018 C 
BRANCH   5   7
HETATM    7  C10 UNL     1       1.451  15.822  17.251  1.00  0.00    -0.010 C 
HETATM    8  N1  UNL     1       2.487  16.548  17.839  1.00  0.00    -0.387 N 
HETATM    9  C6  UNL     1       3.032  16.098  19.070  1.00  0.00     0.122 C 
HETATM   10  C7  UNL     1       2.093  15.480  20.041  1.00  0.00     0.020 C 
HETATM   11  C8  UNL     1       1.038  14.619  19.447  1.00  0.00     0.007 C 
HETATM   12  C9  UNL     1       0.461  15.212  18.226  1.00  0.00     0.053 C 
BRANCH   8  13
HETATM   13  C5  UNL     1       2.398  17.981  17.750  1.00  0.00     0.123 C 
BRANCH  13  14
HETATM   14  C4  UNL     1       3.752  18.650  17.573  1.00  0.00     0.023 C 
BRANCH  14  15
HETATM   15  C2  UNL     1       4.234  18.470  16.134  1.00  0.00    -0.021 C 
HETATM   16  C1  UNL     1       5.530  17.715  16.098  1.00  0.00     0.009 C 
HETATM   17  C3  UNL     1       4.437  19.847  15.552  1.00  0.00     0.009 C 
ENDBRANCH  14  15
ENDBRANCH  13  14
ENDBRANCH   8  13
ENDBRANCH   5   7
ENDBRANCH   4   5
BRANCH   4  18
HETATM   18  C26 UNL     1       0.187  13.635  14.770  1.00  0.00     0.282 C 
HETATM   19  O3  UNL     1      -0.238  13.296  13.646  1.00  0.00    -0.263 OA
BRANCH  18  20
HETATM   20  O4  UNL     1       0.041  12.736  15.810  1.00  0.00    -0.310 OA
BRANCH  20  21
HETATM   21  C27 UNL     1      -1.192  12.264  16.310  1.00  0.00     0.060 C 
HETATM   22  C28 UNL     1      -1.650  11.067  15.480  1.00  0.00     0.045 C 
HETATM   23  C29 UNL     1      -2.251  13.357  16.237  1.00  0.00     0.045 C 
HETATM   24  C30 UNL     1      -1.030  11.820  17.726  1.00  0.00     0.045 C 
ENDBRANCH  20  21
ENDBRANCH  18  20
ENDBRANCH   4  18
ENDBRANCH   2   4
ENDBRANCH   1   2
BRANCH   1  25
HETATM   25  C15 UNL     1       1.964  17.823  12.986  1.00  0.00     0.034 C 
BRANCH  25  26
HETATM   26  C16 UNL     1       3.392  17.563  12.744  1.00  0.00     0.004 C 
BRANCH  26  27
HETATM   27  C17 UNL     1       3.860  18.557  11.657  1.00  0.00     0.027 C 
BRANCH  27  28
HETATM   28  C18 UNL     1       3.744  17.896  10.296  1.00  0.00     0.229 C 
BRANCH  28  29
HETATM   29  N3  UNL     1       2.726  18.565   9.515  1.00  0.00    -0.079 N 
ATOM     30  H33 UNL     1       2.470  19.469   9.912  1.00  0.00     0.274 HD
ATOM     31  H32 UNL     1       3.084  18.893   8.618  1.00  0.00     0.274 HD
ATOM     32  H31 UNL     1       1.919  17.951   9.406  1.00  0.00     0.274 HD
ENDBRANCH  28  29
ENDBRANCH  27  28
ENDBRANCH  26  27
ENDBRANCH  25  26
ENDBRANCH   1  25
BRANCH   1  33
HETATM   33  C19 UNL     1       0.468  16.368  11.823  1.00  0.00     0.240 C 
HETATM   34  O1  UNL     1       0.331  17.298  10.997  1.00  0.00    -0.271 OA
HETATM   35  N4  UNL     1       0.120  15.056  11.495  1.00  0.00    -0.346 N 
ATOM     36  H4  UNL     1       0.253  14.340  12.210  1.00  0.00     0.163 HD
BRANCH  35  37
HETATM   37  C20 UNL     1      -0.410  14.640  10.234  1.00  0.00     0.173 C 
BRANCH  37  38
HETATM   38  C21 UNL     1      -0.111  13.139  10.005  1.00  0.00     0.036 C 
BRANCH  38  39
HETATM   39  C22 UNL     1       0.981  12.993   8.959  1.00  0.00     0.022 C 
BRANCH  39  40
HETATM   40  C23 UNL     1       0.381  12.237   7.782  1.00  0.00     0.122 C 
BRANCH  40  41
HETATM   41  N5  UNL     1       1.371  12.000   6.779  1.00  0.00    -0.367 N 
HETATM   42  C24 UNL     1       1.211  11.104   5.839  1.00  0.00     0.196 C 
HETATM   43  N6  UNL     1       2.169  10.854   4.843  1.00  0.00    -0.067 NA
HETATM   44  N7  UNL     1      -0.004  10.368   5.857  1.00  0.00    -0.067 NA
ATOM     45  H5  UNL     1       2.232  12.547   6.797  1.00  0.00     0.161 HD
ENDBRANCH  40  41
ENDBRANCH  39  40
ENDBRANCH  38  39
ENDBRANCH  37  38
BRANCH  37  46
HETATM   46  C25 UNL     1      -1.872  14.843  10.160  1.00  0.00     0.254 C 
HETATM   47  N8  UNL     1      -2.732  14.285  11.133  1.00  0.00    -0.060 NA
HETATM   48  O2  UNL     1      -2.351  15.518   9.225  1.00  0.00    -0.275 OA
ENDBRANCH  37  46
ENDBRANCH  35  37
ENDBRANCH   1  33
TORSDOF 22
ENDMDL
MODEL 5
REMARK VINA RESULT: -5.908239833      2.818      7.623
REMARK  22 active torsions:
REMARK  status: ('A' for Active; 'I' for Inactive)
REMARK    1  A    between atoms: C2_2  and  C4_4 
REMARK    2  A    between atoms: C4_4  and  C5_5 
REMARK    3  A    between atoms: C5_5  and  N1_6 
REMARK    4  A    between atoms: C10_11  and  C11_12 
REMARK    5  A    between atoms: C11_12  and  C13_14 
REMARK    6  A    between atoms: C13_14  and  N2_15 
REMARK    7  A    between atoms: C13_14  and  C26_42 
REMARK    8  A    between atoms: N2_15  and  C14_17 
REMARK    9  A    between atoms: C14_17  and  C15_18 
REMARK   10  A    between atoms: C14_17  and  C19_26 
REMARK   11  A    between atoms: C15_18  and  C16_19 
REMARK   12  A    between atoms: C16_19  and  C17_20 
REMARK   13  A    between atoms: C17_20  and  C18_21 
REMARK   14  A    between atoms: C18_21  and  N3_22 
REMARK       I    between atoms: C19_26  and  N4_28 
REMARK   15  A    between atoms: N4_28  and  C20_30 
REMARK   16  A    between atoms: C20_30  and  C21_31 
REMARK   17  A    between atoms: C20_30  and  C25_39 
REMARK   18  A    between atoms: C21_31  and  C22_32 
REMARK   19  A    between atoms: C22_32  and  C23_33 
REMARK   20  A    between atoms: C23_33  and  N5_34 
REMARK   21  A    between atoms: C26_42  and  O4_44 
REMARK   22  A    between atoms: O4_44  and  C27_45 
ROOT
HETATM    1  C14 UNL     1       9.254  19.345  10.851  1.00  0.00     0.170 C 
ENDROOT
BRANCH   1   2
HETATM    2  N2  UNL     1       8.708  19.713  12.073  1.00  0.00    -0.396 N 
ATOM      3  H2  UNL     1       8.507  18.978  12.750  1.00  0.00     0.155 HD
BRANCH   2   4
HETATM    4  C13 UNL     1       8.418  21.031  12.431  1.00  0.00     0.187 C 
BRANCH   4   5
HETATM    5  C11 UNL     1       8.445  21.253  13.961  1.00  0.00     0.059 C 
HETATM    6  C12 UNL     1       8.506  19.932  14.668  1.00  0.00     0.018 C 
BRANCH   5   7
HETATM    7  C10 UNL     1       9.468  22.262  14.398  1.00  0.00    -0.010 C 
HETATM    8  N1  UNL     1      10.343  21.940  15.435  1.00  0.00    -0.387 N 
HETATM    9  C6  UNL     1      10.058  22.403  16.746  1.00  0.00     0.122 C 
HETATM   10  C7  UNL     1       9.433  23.745  16.870  1.00  0.00     0.020 C 
HETATM   11  C8  UNL     1       8.421  24.074  15.833  1.00  0.00     0.007 C 
HETATM   12  C9  UNL     1       8.846  23.643  14.488  1.00  0.00     0.053 C 
BRANCH   8  13
HETATM   13  C5  UNL     1      11.748  21.962  15.121  1.00  0.00     0.123 C 
BRANCH  13  14
HETATM   14  C4  UNL     1      12.220  23.314  14.610  1.00  0.00     0.023 C 
BRANCH  14  15
HETATM   15  C2  UNL     1      13.371  23.821  15.477  1.00  0.00    -0.021 C 
HETATM   16  C1  UNL     1      13.839  22.751  16.419  1.00  0.00     0.009 C 
HETATM   17  C3  UNL     1      12.854  24.998  16.268  1.00  0.00     0.009 C 
ENDBRANCH  14  15
ENDBRANCH  13  14
ENDBRANCH   8  13
ENDBRANCH   5   7
ENDBRANCH   4   5
BRANCH   4  18
HETATM   18  C26 UNL     1       7.127  21.584  11.952  1.00  0.00     0.282 C 
HETATM   19  O3  UNL     1       6.279  21.967  12.786  1.00  0.00    -0.263 OA
BRANCH  18  20
HETATM   20  O4  UNL     1       6.805  21.693  10.613  1.00  0.00    -0.310 OA
BRANCH  20  21
HETATM   21  C27 UNL     1       5.859  20.894   9.935  1.00  0.00     0.060 C 
HETATM   22  C28 UNL     1       4.605  21.718   9.659  1.00  0.00     0.045 C 
HETATM   23  C29 UNL     1       5.484  19.680  10.778  1.00  0.00     0.045 C 
HETATM   24  C30 UNL     1       6.420  20.438   8.629  1.00  0.00     0.045 C 
ENDBRANCH  20  21
ENDBRANCH  18  20
ENDBRANCH   4  18
ENDBRANCH   2   4
ENDBRANCH   1   2
BRANCH   1  25
HETATM   25  C15 UNL     1      10.069  20.281  10.045  1.00  0.00     0.034 C 
BRANCH  25  26
HETATM   26  C16 UNL     1      10.172  20.100   8.588  1.00  0.00     0.004 C 
BRANCH  26  27
HETATM   27  C17 UNL     1      11.650  19.783   8.269  1.00  0.00     0.027 C 
BRANCH  27  28
HETATM   28  C18 UNL     1      11.709  18.665   7.245  1.00  0.00     0.229 C 
BRANCH  28  29
HETATM   29  N3  UNL     1      10.584  17.775   7.430  1.00  0.00    -0.079 N 
ATOM     30  H33 UNL     1       9.738  18.276   7.703  1.00  0.00     0.274 HD
ATOM     31  H32 UNL     1      10.249  17.390   6.547  1.00  0.00     0.274 HD
ATOM     32  H31 UNL     1      10.830  17.045   8.099  1.00  0.00     0.274 HD
ENDBRANCH  28  29
ENDBRANCH  27  28
ENDBRANCH  26  27
ENDBRANCH  25  26
ENDBRANCH   1  25
BRANCH   1  33
HETATM   33  C19 UNL     1      10.136  18.116  11.055  1.00  0.00     0.240 C 
HETATM   34  O1  UNL     1       9.951  17.120  10.321  1.00  0.00    -0.271 OA
HETATM   35  N4  UNL     1      11.129  18.114  12.037  1.00  0.00    -0.346 N 
ATOM     36  H4  UNL     1      11.232  18.955  12.604  1.00  0.00     0.163 HD
BRANCH  35  37
HETATM   37  C20 UNL     1      12.011  17.021  12.307  1.00  0.00     0.173 C 
BRANCH  37  38
HETATM   38  C21 UNL     1      13.425  17.338  11.763  1.00  0.00     0.036 C 
BRANCH  38  39
HETATM   39  C22 UNL     1      13.887  16.205  10.863  1.00  0.00     0.022 C 
BRANCH  39  40
HETATM   40  C23 UNL     1      14.946  15.424  11.628  1.00  0.00     0.122 C 
BRANCH  40  41
HETATM   41  N5  UNL     1      16.045  16.272  11.971  1.00  0.00    -0.367 N 
HETATM   42  C24 UNL     1      16.776  16.068  13.037  1.00  0.00     0.196 C 
HETATM   43  N6  UNL     1      17.860  16.885  13.395  1.00  0.00    -0.067 NA
HETATM   44  N7  UNL     1      16.427  14.955  13.849  1.00  0.00    -0.067 NA
ATOM     45  H5  UNL     1      16.267  17.061  11.365  1.00  0.00     0.161 HD
ENDBRANCH  40  41
ENDBRANCH  39  40
ENDBRANCH  38  39
ENDBRANCH  37  38
BRANCH  37  46
HETATM   46  C25 UNL     1      12.117  16.748  13.756  1.00  0.00     0.254 C 
HETATM   47  N8  UNL     1      12.971  15.732  14.241  1.00  0.00    -0.060 NA
HETATM   48  O2  UNL     1      11.442  17.425  14.559  1.00  0.00    -0.275 OA
ENDBRANCH  37  46
ENDBRANCH  35  37
ENDBRANCH   1  33
TORSDOF 22
ENDMDL
