MODEL 1
REMARK VINA RESULT: -6.003664757      0.000      0.000
REMARK  22 active torsions:
REMARK  status: ('A' for Active; 'I' for Inactive)
REMARK    1  A    between atoms: C5_5  and  C6_6 
REMARK    2  A    between atoms: C10_10  and  S1_11 
REMARK    3  A    between atoms: S1_11  and  N1_14 
REMARK       I    between atoms: C11_16  and  N3_18 
REMARK    4  A    between atoms: N3_18  and  C12_20 
REMARK    5  A    between atoms: C12_20  and  C13_21 
REMARK    6  A    between atoms: C12_20  and  N5_29 
REMARK    7  A    between atoms: C13_21  and  C14_22 
REMARK    8  A    between atoms: C14_22  and  C15_23 
REMARK    9  A    between atoms: C15_23  and  C16_24 
REMARK   10  A    between atoms: C16_24  and  N4_25 
REMARK   11  A    between atoms: N5_29  and  C17_31 
REMARK   12  A    between atoms: C17_31  and  C18_32 
REMARK   13  A    between atoms: C18_32  and  C19_33 
REMARK   14  A    between atoms: C19_33  and  C20_34 
REMARK   15  A    between atoms: C20_34  and  N6_35 
REMARK   16  A    between atoms: N6_35  and  C21_37 
REMARK   17  A    between atoms: C21_37  and  C22_38 
REMARK   18  A    between atoms: C22_38  and  N7_39 
REMARK   19  A    between atoms: N7_39  and  C23_42 
REMARK   20  A    between atoms: C23_42  and  C24_43 
REMARK   21  A    between atoms: C24_43  and  C25_44 
REMARK   22  A    between atoms: C25_44  and  N8_45 
ROOT
HETATM    1  C12 UNL     1      12.080  18.568   6.001  1.00  0.00     0.079 C 
ENDROOT
BRANCH   1   2
HETATM    2  N3  UNL     1      10.820  19.152   6.204  1.00  0.00    -0.320 N 
HETATM    3  C11 UNL     1      10.564  20.233   7.128  1.00  0.00     0.203 C 
HETATM    4  N1  UNL     1       9.412  20.692   7.264  1.00  0.00    -0.253 N 
HETATM    5  N2  UNL     1      11.680  20.702   7.836  1.00  0.00    -0.062 NA
ATOM      6  H1  UNL     1       8.689  20.260   6.689  1.00  0.00     0.181 HD
ATOM      7  H3  UNL     1      10.034  18.790   5.664  1.00  0.00     0.169 HD
BRANCH   4   8
HETATM    8  S1  UNL     1       8.906  21.923   8.269  1.00  0.00     0.272 S 
HETATM    9  O1  UNL     1       7.492  22.331   7.847  1.00  0.00    -0.200 OA
HETATM   10  O2  UNL     1       9.721  23.194   8.058  1.00  0.00    -0.200 OA
BRANCH   8  11
HETATM   11  C10 UNL     1       8.925  21.594   9.985  1.00  0.00     0.127 A 
HETATM   12  C8  UNL     1       8.273  20.618  10.699  1.00  0.00    -0.030 A 
HETATM   13  C7  UNL     1       8.464  20.596  12.022  1.00  0.00     0.028 A 
HETATM   14  C9  UNL     1       7.385  19.636   9.947  1.00  0.00     0.050 C 
HETATM   15  C6  UNL     1       9.293  21.548  12.562  1.00  0.00     0.017 A 
HETATM   16  S2  UNL     1       9.775  22.438  11.193  1.00  0.00    -0.075 SA
BRANCH  15  17
HETATM   17  C5  UNL     1       9.647  21.736  13.989  1.00  0.00    -0.018 A 
HETATM   18  C4  UNL     1       8.739  21.636  14.986  1.00  0.00     0.013 A 
HETATM   19  C3  UNL     1       9.151  21.843  16.306  1.00  0.00     0.008 A 
HETATM   20  C2  UNL     1      10.463  22.144  16.609  1.00  0.00    -0.056 A 
HETATM   21  C1  UNL     1      10.938  22.377  17.995  1.00  0.00     0.049 C 
HETATM   22  C27 UNL     1      11.389  22.244  15.585  1.00  0.00    -0.055 A 
HETATM   23  C26 UNL     1      10.962  22.036  14.280  1.00  0.00     0.020 A 
HETATM   24  C28 UNL     1      12.823  22.563  15.801  1.00  0.00     0.049 C 
ENDBRANCH  15  17
ENDBRANCH   8  11
ENDBRANCH   4   8
ENDBRANCH   1   2
BRANCH   1  25
HETATM   25  C13 UNL     1      12.793  18.606   4.724  1.00  0.00     0.076 C 
BRANCH  25  26
HETATM   26  C14 UNL     1      12.431  17.498   3.790  1.00  0.00     0.009 C 
BRANCH  26  27
HETATM   27  C15 UNL     1      13.540  16.521   3.558  1.00  0.00     0.027 C 
BRANCH  27  28
HETATM   28  C16 UNL     1      13.170  15.147   4.116  1.00  0.00     0.229 C 
BRANCH  28  29
HETATM   29  N4  UNL     1      11.763  15.049   4.408  1.00  0.00    -0.079 N 
ATOM     30  H43 UNL     1      11.318  15.966   4.395  1.00  0.00     0.274 HD
ATOM     31  H42 UNL     1      11.254  14.613   3.639  1.00  0.00     0.274 HD
ATOM     32  H41 UNL     1      11.591  14.566   5.290  1.00  0.00     0.274 HD
ENDBRANCH  28  29
ENDBRANCH  27  28
ENDBRANCH  26  27
ENDBRANCH  25  26
ENDBRANCH   1  25
BRANCH   1  33
HETATM   33  N5  UNL     1      12.655  17.973   7.020  1.00  0.00    -0.380 N 
ATOM     34  H5  UNL     1      13.516  18.366   7.397  1.00  0.00     0.160 HD
BRANCH  33  35
HETATM   35  C17 UNL     1      12.116  16.794   7.618  1.00  0.00     0.121 C 
BRANCH  35  36
HETATM   36  C18 UNL     1      12.104  16.821   9.121  1.00  0.00     0.021 C 
BRANCH  36  37
HETATM   37  C19 UNL     1      10.756  17.390   9.569  1.00  0.00     0.021 C 
BRANCH  37  38
HETATM   38  C20 UNL     1      10.594  17.223  11.058  1.00  0.00     0.113 C 
BRANCH  38  39
HETATM   39  N6  UNL     1      10.949  18.365  11.810  1.00  0.00    -0.420 N 
ATOM     40  H6  UNL     1      10.932  19.297  11.396  1.00  0.00     0.153 HD
BRANCH  39  41
HETATM   41  C21 UNL     1      11.332  18.167  13.171  1.00  0.00     0.141 C 
BRANCH  41  42
HETATM   42  C22 UNL     1      12.062  16.872  13.363  1.00  0.00     0.251 C 
BRANCH  42  43
HETATM   43  N7  UNL     1      13.492  17.005  13.458  1.00  0.00    -0.074 N 
ATOM     44  H72 UNL     1      13.822  17.912  13.129  1.00  0.00     0.277 HD
ATOM     45  H71 UNL     1      13.812  17.078  14.424  1.00  0.00     0.277 HD
BRANCH  43  46
HETATM   46  C23 UNL     1      14.112  15.907  12.755  1.00  0.00     0.234 C 
BRANCH  46  47
HETATM   47  C24 UNL     1      15.031  16.498  11.706  1.00  0.00     0.055 C 
BRANCH  47  48
HETATM   48  C25 UNL     1      16.256  17.138  12.267  1.00  0.00     0.231 C 
BRANCH  48  49
HETATM   49  N8  UNL     1      16.911  16.399  13.302  1.00  0.00    -0.079 N 
ATOM     50  H83 UNL     1      17.506  15.678  12.894  1.00  0.00     0.274 HD
ATOM     51  H82 UNL     1      17.617  16.980  13.754  1.00  0.00     0.274 HD
ATOM     52  H81 UNL     1      16.293  15.990  14.001  1.00  0.00     0.274 HD
ENDBRANCH  48  49
ENDBRANCH  47  48
ENDBRANCH  46  47
ENDBRANCH  43  46
ENDBRANCH  42  43
ENDBRANCH  41  42
ENDBRANCH  39  41
ENDBRANCH  38  39
ENDBRANCH  37  38
ENDBRANCH  36  37
ENDBRANCH  35  36
ENDBRANCH  33  35
ENDBRANCH   1  33
TORSDOF 22
ENDMDL
MODEL 2
REMARK VINA RESULT: -5.770219439      4.035      5.884
REMARK  22 active torsions:
REMARK  status: ('A' for Active; 'I' for Inactive)
REMARK    1  A    between atoms: C5_5  and  C6_6 
REMARK    2  A    between atoms: C10_10  and  S1_11 
REMARK    3  A    between atoms: S1_11  and  N1_14 
REMARK       I    between atoms: C11_16  and  N3_18 
REMARK    4  A    between atoms: N3_18  and  C12_20 
REMARK    5  A    between atoms: C12_20  and  C13_21 
REMARK    6  A    between atoms: C12_20  and  N5_29 
REMARK    7  A    between atoms: C13_21  and  C14_22 
REMARK    8  A    between atoms: C14_22  and  C15_23 
REMARK    9  A    between atoms: C15_23  and  C16_24 
REMARK   10  A    between atoms: C16_24  and  N4_25 
REMARK   11  A    between atoms: N5_29  and  C17_31 
REMARK   12  A    between atoms: C17_31  and  C18_32 
REMARK   13  A    between atoms: C18_32  and  C19_33 
REMARK   14  A    between atoms: C19_33  and  C20_34 
REMARK   15  A    between atoms: C20_34  and  N6_35 
REMARK   16  A    between atoms: N6_35  and  C21_37 
REMARK   17  A    between atoms: C21_37  and  C22_38 
REMARK   18  A    between atoms: C22_38  and  N7_39 
REMARK   19  A    between atoms: N7_39  and  C23_42 
REMARK   20  A    between atoms: C23_42  and  C24_43 
REMARK   21  A    between atoms: C24_43  and  C25_44 
REMARK   22  A    between atoms: C25_44  and  N8_45 
ROOT
HETATM    1  C12 UNL     1       9.930  20.126   8.415  1.00  0.00     0.079 C 
ENDROOT
BRANCH   1   2
HETATM    2  N3  UNL     1       8.588  20.487   8.225  1.00  0.00    -0.320 N 
HETATM    3  C11 UNL     1       7.468  19.805   8.832  1.00  0.00     0.203 C 
HETATM    4  N1  UNL     1       6.299  20.177   8.603  1.00  0.00    -0.253 N 
HETATM    5  N2  UNL     1       7.795  18.726   9.666  1.00  0.00    -0.062 NA
ATOM      6  H1  UNL     1       6.199  20.976   7.977  1.00  0.00     0.181 HD
ATOM      7  H3  UNL     1       8.389  21.283   7.618  1.00  0.00     0.169 HD
BRANCH   4   8
HETATM    8  S1  UNL     1       4.879  19.531   9.194  1.00  0.00     0.272 S 
HETATM    9  O1  UNL     1       4.718  18.125   8.612  1.00  0.00    -0.200 OA
HETATM   10  O2  UNL     1       3.659  20.277   8.667  1.00  0.00    -0.200 OA
BRANCH   8  11
HETATM   11  C10 UNL     1       4.712  19.460  10.932  1.00  0.00     0.127 A 
HETATM   12  C8  UNL     1       4.982  20.417  11.880  1.00  0.00    -0.030 A 
HETATM   13  C7  UNL     1       4.765  20.091  13.158  1.00  0.00     0.028 A 
HETATM   14  C9  UNL     1       5.503  21.772  11.419  1.00  0.00     0.050 C 
HETATM   15  C6  UNL     1       4.294  18.829  13.422  1.00  0.00     0.017 A 
HETATM   16  S2  UNL     1       4.171  18.146  11.868  1.00  0.00    -0.075 SA
BRANCH  15  17
HETATM   17  C5  UNL     1       3.992  18.235  14.747  1.00  0.00    -0.018 A 
HETATM   18  C4  UNL     1       4.067  18.941  15.898  1.00  0.00     0.013 A 
HETATM   19  C3  UNL     1       3.782  18.302  17.109  1.00  0.00     0.008 A 
HETATM   20  C2  UNL     1       3.425  16.969  17.150  1.00  0.00    -0.056 A 
HETATM   21  C1  UNL     1       3.122  16.253  18.413  1.00  0.00     0.049 C 
HETATM   22  C27 UNL     1       3.350  16.251  15.969  1.00  0.00    -0.055 A 
HETATM   23  C26 UNL     1       3.637  16.902  14.776  1.00  0.00     0.020 A 
HETATM   24  C28 UNL     1       2.977  14.815  15.900  1.00  0.00     0.049 C 
ENDBRANCH  15  17
ENDBRANCH   8  11
ENDBRANCH   4   8
ENDBRANCH   1   2
BRANCH   1  25
HETATM   25  C13 UNL     1      10.735  20.571   9.553  1.00  0.00     0.076 C 
BRANCH  25  26
HETATM   26  C14 UNL     1      10.160  21.738  10.287  1.00  0.00     0.009 C 
BRANCH  26  27
HETATM   27  C15 UNL     1      10.365  21.677  11.768  1.00  0.00     0.027 C 
BRANCH  27  28
HETATM   28  C16 UNL     1       9.033  21.454  12.485  1.00  0.00     0.229 C 
BRANCH  28  29
HETATM   29  N4  UNL     1       8.582  20.092  12.364  1.00  0.00    -0.079 N 
ATOM     30  H43 UNL     1       7.824  20.011  11.687  1.00  0.00     0.274 HD
ATOM     31  H42 UNL     1       9.278  19.511  11.896  1.00  0.00     0.274 HD
ATOM     32  H41 UNL     1       8.316  19.699  13.267  1.00  0.00     0.274 HD
ENDBRANCH  28  29
ENDBRANCH  27  28
ENDBRANCH  26  27
ENDBRANCH  25  26
ENDBRANCH   1  25
BRANCH   1  33
HETATM   33  N5  UNL     1      10.486  19.331   7.531  1.00  0.00    -0.380 N 
ATOM     34  H5  UNL     1      10.728  19.706   6.615  1.00  0.00     0.160 HD
BRANCH  33  35
HETATM   35  C17 UNL     1      10.762  17.958   7.807  1.00  0.00     0.121 C 
BRANCH  35  36
HETATM   36  C18 UNL     1      12.200  17.680   8.147  1.00  0.00     0.021 C 
BRANCH  36  37
HETATM   37  C19 UNL     1      12.244  17.098   9.562  1.00  0.00     0.021 C 
BRANCH  37  38
HETATM   38  C20 UNL     1      10.856  16.713  10.006  1.00  0.00     0.113 C 
BRANCH  38  39
HETATM   39  N6  UNL     1      10.454  17.303  11.225  1.00  0.00    -0.420 N 
ATOM     40  H6  UNL     1       9.473  17.329  11.501  1.00  0.00     0.153 HD
BRANCH  39  41
HETATM   41  C21 UNL     1      11.472  17.861  12.055  1.00  0.00     0.141 C 
BRANCH  41  42
HETATM   42  C22 UNL     1      11.968  16.875  13.071  1.00  0.00     0.251 C 
BRANCH  42  43
HETATM   43  N7  UNL     1      13.341  17.061  13.459  1.00  0.00    -0.074 N 
ATOM     44  H72 UNL     1      13.684  17.996  13.239  1.00  0.00     0.277 HD
ATOM     45  H71 UNL     1      13.455  17.103  14.472  1.00  0.00     0.277 HD
BRANCH  43  46
HETATM   46  C23 UNL     1      14.143  16.024  12.856  1.00  0.00     0.234 C 
BRANCH  46  47
HETATM   47  C24 UNL     1      15.029  16.680  11.816  1.00  0.00     0.055 C 
BRANCH  47  48
HETATM   48  C25 UNL     1      16.342  17.147  12.349  1.00  0.00     0.231 C 
BRANCH  48  49
HETATM   49  N8  UNL     1      16.915  16.322  13.366  1.00  0.00    -0.079 N 
ATOM     50  H83 UNL     1      16.328  16.335  14.200  1.00  0.00     0.274 HD
ATOM     51  H82 UNL     1      16.837  15.339  13.106  1.00  0.00     0.274 HD
ATOM     52  H81 UNL     1      17.880  16.544  13.613  1.00  0.00     0.274 HD
ENDBRANCH  48  49
ENDBRANCH  47  48
ENDBRANCH  46  47
ENDBRANCH  43  46
ENDBRANCH  42  43
ENDBRANCH  41  42
ENDBRANCH  39  41
ENDBRANCH  38  39
ENDBRANCH  37  38
ENDBRANCH  36  37
ENDBRANCH  35  36
ENDBRANCH  33  35
ENDBRANCH   1  33
TORSDOF 22
ENDMDL
MODEL 3
REMARK VINA RESULT: -5.653668375      4.996      8.633
REMARK  22 active torsions:
REMARK  status: ('A' for Active; 'I' for Inactive)
REMARK    1  A    between atoms: C5_5  and  C6_6 
REMARK    2  A    between atoms: C10_10  and  S1_11 
REMARK    3  A    between atoms: S1_11  and  N1_14 
REMARK       I    between atoms: C11_16  and  N3_18 
REMARK    4  A    between atoms: N3_18  and  C12_20 
REMARK    5  A    between atoms: C12_20  and  C13_21 
REMARK    6  A    between atoms: C12_20  and  N5_29 
REMARK    7  A    between atoms: C13_21  and  C14_22 
REMARK    8  A    between atoms: C14_22  and  C15_23 
REMARK    9  A    between atoms: C15_23  and  C16_24 
REMARK   10  A    between atoms: C16_24  and  N4_25 
REMARK   11  A    between atoms: N5_29  and  C17_31 
REMARK   12  A    between atoms: C17_31  and  C18_32 
REMARK   13  A    between atoms: C18_32  and  C19_33 
REMARK   14  A    between atoms: C19_33  and  C20_34 
REMARK   15  A    between atoms: C20_34  and  N6_35 
REMARK   16  A    between atoms: N6_35  and  C21_37 
REMARK   17  A    between atoms: C21_37  and  C22_38 
REMARK   18  A    between atoms: C22_38  and  N7_39 
REMARK   19  A    between atoms: N7_39  and  C23_42 
REMARK   20  A    between atoms: C23_42  and  C24_43 
REMARK   21  A    between atoms: C24_43  and  C25_44 
REMARK   22  A    between atoms: C25_44  and  N8_45 
ROOT
HETATM    1  C12 UNL     1       2.285  18.734  12.991  1.00  0.00     0.079 C 
ENDROOT
BRANCH   1   2
HETATM    2  N3  UNL     1       2.834  19.720  12.157  1.00  0.00    -0.320 N 
HETATM    3  C11 UNL     1       4.231  20.087  12.142  1.00  0.00     0.203 C 
HETATM    4  N1  UNL     1       4.643  20.985  11.380  1.00  0.00    -0.253 N 
HETATM    5  N2  UNL     1       5.054  19.377  13.027  1.00  0.00    -0.062 NA
ATOM      6  H1  UNL     1       3.939  21.424  10.786  1.00  0.00     0.181 HD
ATOM      7  H3  UNL     1       2.205  20.210  11.519  1.00  0.00     0.169 HD
BRANCH   4   8
HETATM    8  S1  UNL     1       6.200  21.559  11.211  1.00  0.00     0.272 S 
HETATM    9  O1  UNL     1       6.590  22.267  12.511  1.00  0.00    -0.200 OA
HETATM   10  O2  UNL     1       6.283  22.664  10.164  1.00  0.00    -0.200 OA
BRANCH   8  11
HETATM   11  C10 UNL     1       7.428  20.385  10.801  1.00  0.00     0.127 A 
HETATM   12  C8  UNL     1       7.440  19.437   9.807  1.00  0.00    -0.030 A 
HETATM   13  C7  UNL     1       8.521  18.655   9.719  1.00  0.00     0.028 A 
HETATM   14  C9  UNL     1       6.235  19.339   8.881  1.00  0.00     0.050 C 
HETATM   15  C6  UNL     1       9.530  18.860  10.626  1.00  0.00     0.017 A 
HETATM   16  S2  UNL     1       8.927  20.141  11.570  1.00  0.00    -0.075 SA
BRANCH  15  17
HETATM   17  C5  UNL     1      10.810  18.119  10.739  1.00  0.00    -0.018 A 
HETATM   18  C4  UNL     1      11.591  17.844   9.671  1.00  0.00     0.013 A 
HETATM   19  C3  UNL     1      12.776  17.126   9.860  1.00  0.00     0.008 A 
HETATM   20  C2  UNL     1      13.162  16.695  11.113  1.00  0.00    -0.056 A 
HETATM   21  C1  UNL     1      14.406  15.927  11.354  1.00  0.00     0.049 C 
HETATM   22  C27 UNL     1      12.358  16.980  12.204  1.00  0.00    -0.055 A 
HETATM   23  C26 UNL     1      11.185  17.693  11.997  1.00  0.00     0.020 A 
HETATM   24  C28 UNL     1      12.678  16.564  13.593  1.00  0.00     0.049 C 
ENDBRANCH  15  17
ENDBRANCH   8  11
ENDBRANCH   4   8
ENDBRANCH   1   2
BRANCH   1  25
HETATM   25  C13 UNL     1       1.512  17.594  12.497  1.00  0.00     0.076 C 
BRANCH  25  26
HETATM   26  C14 UNL     1       2.034  17.009  11.226  1.00  0.00     0.009 C 
BRANCH  26  27
HETATM   27  C15 UNL     1       1.306  15.777  10.788  1.00  0.00     0.027 C 
BRANCH  27  28
HETATM   28  C16 UNL     1       0.428  15.243  11.920  1.00  0.00     0.229 C 
BRANCH  28  29
HETATM   29  N4  UNL     1       0.988  14.061  12.520  1.00  0.00    -0.079 N 
ATOM     30  H43 UNL     1       0.454  13.772  13.339  1.00  0.00     0.274 HD
ATOM     31  H42 UNL     1       0.839  13.240  11.933  1.00  0.00     0.274 HD
ATOM     32  H41 UNL     1       1.976  14.181  12.745  1.00  0.00     0.274 HD
ENDBRANCH  28  29
ENDBRANCH  27  28
ENDBRANCH  26  27
ENDBRANCH  25  26
ENDBRANCH   1  25
BRANCH   1  33
HETATM   33  N5  UNL     1       2.495  18.833  14.283  1.00  0.00    -0.380 N 
ATOM     34  H5  UNL     1       3.185  19.504  14.619  1.00  0.00     0.160 HD
BRANCH  33  35
HETATM   35  C17 UNL     1       1.791  18.036  15.235  1.00  0.00     0.121 C 
BRANCH  35  36
HETATM   36  C18 UNL     1       2.683  17.265  16.167  1.00  0.00     0.021 C 
BRANCH  36  37
HETATM   37  C19 UNL     1       4.022  18.002  16.252  1.00  0.00     0.021 C 
BRANCH  37  38
HETATM   38  C20 UNL     1       5.160  17.016  16.180  1.00  0.00     0.113 C 
BRANCH  38  39
HETATM   39  N6  UNL     1       6.434  17.588  16.385  1.00  0.00    -0.420 N 
ATOM     40  H6  UNL     1       7.267  17.007  16.474  1.00  0.00     0.153 HD
BRANCH  39  41
HETATM   41  C21 UNL     1       6.514  19.012  16.461  1.00  0.00     0.141 C 
BRANCH  41  42
HETATM   42  C22 UNL     1       7.679  19.549  15.685  1.00  0.00     0.251 C 
BRANCH  42  43
HETATM   43  N7  UNL     1       7.408  20.773  14.978  1.00  0.00    -0.074 N 
ATOM     44  H72 UNL     1       7.581  20.690  13.976  1.00  0.00     0.277 HD
ATOM     45  H71 UNL     1       6.412  20.984  14.934  1.00  0.00     0.277 HD
BRANCH  43  46
HETATM   46  C23 UNL     1       8.171  21.840  15.580  1.00  0.00     0.234 C 
BRANCH  46  47
HETATM   47  C24 UNL     1       9.577  21.770  15.018  1.00  0.00     0.055 C 
BRANCH  47  48
HETATM   48  C25 UNL     1      10.625  22.290  15.943  1.00  0.00     0.231 C 
BRANCH  48  49
HETATM   49  N8  UNL     1      10.257  22.323  17.325  1.00  0.00    -0.079 N 
ATOM     50  H83 UNL     1       9.731  21.483  17.567  1.00  0.00     0.274 HD
ATOM     51  H82 UNL     1      11.082  22.194  17.910  1.00  0.00     0.274 HD
ATOM     52  H81 UNL     1       9.745  23.155  17.618  1.00  0.00     0.274 HD
ENDBRANCH  48  49
ENDBRANCH  47  48
ENDBRANCH  46  47
ENDBRANCH  43  46
ENDBRANCH  42  43
ENDBRANCH  41  42
ENDBRANCH  39  41
ENDBRANCH  38  39
ENDBRANCH  37  38
ENDBRANCH  36  37
ENDBRANCH  35  36
ENDBRANCH  33  35
ENDBRANCH   1  33
TORSDOF 22
ENDMDL
MODEL 4
REMARK VINA RESULT: -5.617121131      7.308     10.667
REMARK  22 active torsions:
REMARK  status: ('A' for Active; 'I' for Inactive)
REMARK    1  A    between atoms: C5_5  and  C6_6 
REMARK    2  A    between atoms: C10_10  and  S1_11 
REMARK    3  A    between atoms: S1_11  and  N1_14 
REMARK       I    between atoms: C11_16  and  N3_18 
REMARK    4  A    between atoms: N3_18  and  C12_20 
REMARK    5  A    between atoms: C12_20  and  C13_21 
REMARK    6  A    between atoms: C12_20  and  N5_29 
REMARK    7  A    between atoms: C13_21  and  C14_22 
REMARK    8  A    between atoms: C14_22  and  C15_23 
REMARK    9  A    between atoms: C15_23  and  C16_24 
REMARK   10  A    between atoms: C16_24  and  N4_25 
REMARK   11  A    between atoms: N5_29  and  C17_31 
REMARK   12  A    between atoms: C17_31  and  C18_32 
REMARK   13  A    between atoms: C18_32  and  C19_33 
REMARK   14  A    between atoms: C19_33  and  C20_34 
REMARK   15  A    between atoms: C20_34  and  N6_35 
REMARK   16  A    between atoms: N6_35  and  C21_37 
REMARK   17  A    between atoms: C21_37  and  C22_38 
REMARK   18  A    between atoms: C22_38  and  N7_39 
REMARK   19  A    between atoms: N7_39  and  C23_42 
REMARK   20  A    between atoms: C23_42  and  C24_43 
REMARK   21  A    between atoms: C24_43  and  C25_44 
REMARK   22  A    between atoms: C25_44  and  N8_45 
ROOT
HETATM    1  C12 UNL     1       1.961  17.850  12.216  1.00  0.00     0.079 C 
ENDROOT
BRANCH   1   2
HETATM    2  N3  UNL     1       2.680  18.992  11.831  1.00  0.00    -0.320 N 
HETATM    3  C11 UNL     1       3.816  18.975  10.938  1.00  0.00     0.203 C 
HETATM    4  N1  UNL     1       4.414  20.032  10.652  1.00  0.00    -0.253 N 
HETATM    5  N2  UNL     1       4.178  17.714  10.441  1.00  0.00    -0.062 NA
ATOM      6  H1  UNL     1       4.049  20.881  11.082  1.00  0.00     0.181 HD
ATOM      7  H3  UNL     1       2.382  19.893  12.206  1.00  0.00     0.169 HD
BRANCH   4   8
HETATM    8  S1  UNL     1       5.737  20.229   9.655  1.00  0.00     0.272 S 
HETATM    9  O1  UNL     1       5.802  21.700   9.237  1.00  0.00    -0.200 OA
HETATM   10  O2  UNL     1       5.560  19.491   8.332  1.00  0.00    -0.200 OA
BRANCH   8  11
HETATM   11  C10 UNL     1       7.285  19.741  10.299  1.00  0.00     0.127 A 
HETATM   12  C8  UNL     1       7.914  20.123  11.460  1.00  0.00    -0.030 A 
HETATM   13  C7  UNL     1       9.114  19.591  11.710  1.00  0.00     0.028 A 
HETATM   14  C9  UNL     1       7.210  21.116  12.375  1.00  0.00     0.050 C 
HETATM   15  C6  UNL     1       9.624  18.708  10.790  1.00  0.00     0.017 A 
HETATM   16  S2  UNL     1       8.401  18.657   9.608  1.00  0.00    -0.075 SA
BRANCH  15  17
HETATM   17  C5  UNL     1      10.928  18.004  10.837  1.00  0.00    -0.018 A 
HETATM   18  C4  UNL     1      11.673  17.773   9.733  1.00  0.00     0.013 A 
HETATM   19  C3  UNL     1      12.886  17.088   9.860  1.00  0.00     0.008 A 
HETATM   20  C2  UNL     1      13.335  16.647  11.089  1.00  0.00    -0.056 A 
HETATM   21  C1  UNL     1      14.611  15.912  11.265  1.00  0.00     0.049 C 
HETATM   22  C27 UNL     1      12.569  16.888  12.216  1.00  0.00    -0.055 A 
HETATM   23  C26 UNL     1      11.367  17.569  12.071  1.00  0.00     0.020 A 
HETATM   24  C28 UNL     1      12.958  16.457  13.583  1.00  0.00     0.049 C 
ENDBRANCH  15  17
ENDBRANCH   8  11
ENDBRANCH   4   8
ENDBRANCH   1   2
BRANCH   1  25
HETATM   25  C13 UNL     1       2.143  17.173  13.500  1.00  0.00     0.076 C 
BRANCH  25  26
HETATM   26  C14 UNL     1       3.344  17.627  14.263  1.00  0.00     0.009 C 
BRANCH  26  27
HETATM   27  C15 UNL     1       4.096  16.511  14.919  1.00  0.00     0.027 C 
BRANCH  27  28
HETATM   28  C16 UNL     1       4.614  16.947  16.289  1.00  0.00     0.229 C 
BRANCH  28  29
HETATM   29  N4  UNL     1       6.024  16.695  16.433  1.00  0.00    -0.079 N 
ATOM     30  H43 UNL     1       6.354  16.027  15.737  1.00  0.00     0.274 HD
ATOM     31  H42 UNL     1       6.576  17.506  16.152  1.00  0.00     0.274 HD
ATOM     32  H41 UNL     1       6.262  16.395  17.378  1.00  0.00     0.274 HD
ENDBRANCH  28  29
ENDBRANCH  27  28
ENDBRANCH  26  27
ENDBRANCH  25  26
ENDBRANCH   1  25
BRANCH   1  33
HETATM   33  N5  UNL     1       1.063  17.378  11.383  1.00  0.00    -0.380 N 
ATOM     34  H5  UNL     1       0.759  17.962  10.605  1.00  0.00     0.160 HD
BRANCH  33  35
HETATM   35  C17 UNL     1       0.495  16.077  11.529  1.00  0.00     0.121 C 
BRANCH  35  36
HETATM   36  C18 UNL     1       1.182  15.015  10.716  1.00  0.00     0.021 C 
BRANCH  36  37
HETATM   37  C19 UNL     1       0.108  14.071  10.171  1.00  0.00     0.021 C 
BRANCH  37  38
HETATM   38  C20 UNL     1      -0.912  13.777  11.241  1.00  0.00     0.113 C 
BRANCH  38  39
HETATM   39  N6  UNL     1      -0.611  12.646  12.032  1.00  0.00    -0.420 N 
ATOM     40  H6  UNL     1       0.063  11.947  11.720  1.00  0.00     0.153 HD
BRANCH  39  41
HETATM   41  C21 UNL     1      -1.283  12.518  13.285  1.00  0.00     0.141 C 
BRANCH  41  42
HETATM   42  C22 UNL     1      -0.707  11.413  14.118  1.00  0.00     0.251 C 
BRANCH  42  43
HETATM   43  N7  UNL     1      -1.062  11.471  15.511  1.00  0.00    -0.074 N 
ATOM     44  H72 UNL     1      -1.794  10.804  15.754  1.00  0.00     0.277 HD
ATOM     45  H71 UNL     1      -0.327  11.104  16.115  1.00  0.00     0.277 HD
BRANCH  43  46
HETATM   46  C23 UNL     1      -1.423  12.828  15.846  1.00  0.00     0.234 C 
BRANCH  46  47
HETATM   47  C24 UNL     1      -0.723  13.179  17.143  1.00  0.00     0.055 C 
BRANCH  47  48
HETATM   48  C25 UNL     1       0.315  14.241  17.002  1.00  0.00     0.231 C 
BRANCH  48  49
HETATM   49  N8  UNL     1       0.684  14.559  15.658  1.00  0.00    -0.079 N 
ATOM     50  H83 UNL     1       1.068  15.503  15.614  1.00  0.00     0.274 HD
ATOM     51  H82 UNL     1       1.504  14.018  15.382  1.00  0.00     0.274 HD
ATOM     52  H81 UNL     1      -0.057  14.449  14.967  1.00  0.00     0.274 HD
ENDBRANCH  48  49
ENDBRANCH  47  48
ENDBRANCH  46  47
ENDBRANCH  43  46
ENDBRANCH  42  43
ENDBRANCH  41  42
ENDBRANCH  39  41
ENDBRANCH  38  39
ENDBRANCH  37  38
ENDBRANCH  36  37
ENDBRANCH  35  36
ENDBRANCH  33  35
ENDBRANCH   1  33
TORSDOF 22
ENDMDL
MODEL 5
REMARK VINA RESULT: -5.585023010      6.727     10.769
REMARK  22 active torsions:
REMARK  status: ('A' for Active; 'I' for Inactive)
REMARK    1  A    between atoms: C5_5  and  C6_6 
REMARK    2  A    between atoms: C10_10  and  S1_11 
REMARK    3  A    between atoms: S1_11  and  N1_14 
REMARK       I    between atoms: C11_16  and  N3_18 
REMARK    4  A    between atoms: N3_18  and  C12_20 
REMARK    5  A    between atoms: C12_20  and  C13_21 
REMARK    6  A    between atoms: C12_20  and  N5_29 
REMARK    7  A    between atoms: C13_21  and  C14_22 
REMARK    8  A    between atoms: C14_22  and  C15_23 
REMARK    9  A    between atoms: C15_23  and  C16_24 
REMARK   10  A    between atoms: C16_24  and  N4_25 
REMARK   11  A    between atoms: N5_29  and  C17_31 
REMARK   12  A    between atoms: C17_31  and  C18_32 
REMARK   13  A    between atoms: C18_32  and  C19_33 
REMARK   14  A    between atoms: C19_33  and  C20_34 
REMARK   15  A    between atoms: C20_34  and  N6_35 
REMARK   16  A    between atoms: N6_35  and  C21_37 
REMARK   17  A    between atoms: C21_37  and  C22_38 
REMARK   18  A    between atoms: C22_38  and  N7_39 
REMARK   19  A    between atoms: N7_39  and  C23_42 
REMARK   20  A    between atoms: C23_42  and  C24_43 
REMARK   21  A    between atoms: C24_43  and  C25_44 
REMARK   22  A    between atoms: C25_44  and  N8_45 
ROOT
HETATM    1  C12 UNL     1       2.895  18.457  14.260  1.00  0.00     0.079 C 
ENDROOT
BRANCH   1   2
HETATM    2  N3  UNL     1       3.260  19.270  13.176  1.00  0.00    -0.320 N 
HETATM    3  C11 UNL     1       4.590  19.791  12.962  1.00  0.00     0.203 C 
HETATM    4  N1  UNL     1       4.836  20.520  11.980  1.00  0.00    -0.253 N 
HETATM    5  N2  UNL     1       5.547  19.425  13.921  1.00  0.00    -0.062 NA
ATOM      6  H1  UNL     1       4.050  20.710  11.358  1.00  0.00     0.181 HD
ATOM      7  H3  UNL     1       2.540  19.508  12.494  1.00  0.00     0.169 HD
BRANCH   4   8
HETATM    8  S1  UNL     1       6.288  21.222  11.556  1.00  0.00     0.272 S 
HETATM    9  O1  UNL     1       6.777  22.057  12.742  1.00  0.00    -0.200 OA
HETATM   10  O2  UNL     1       6.114  22.250  10.444  1.00  0.00    -0.200 OA
BRANCH   8  11
HETATM   11  C10 UNL     1       7.563  20.141  11.045  1.00  0.00     0.127 A 
HETATM   12  C8  UNL     1       7.636  19.332   9.937  1.00  0.00    -0.030 A 
HETATM   13  C7  UNL     1       8.741  18.594   9.790  1.00  0.00     0.028 A 
HETATM   14  C9  UNL     1       6.468  19.328   8.960  1.00  0.00     0.050 C 
HETATM   15  C6  UNL     1       9.712  18.701  10.755  1.00  0.00     0.017 A 
HETATM   16  S2  UNL     1       9.039  19.834  11.833  1.00  0.00    -0.075 SA
BRANCH  15  17
HETATM   17  C5  UNL     1      11.007  17.982  10.820  1.00  0.00    -0.018 A 
HETATM   18  C4  UNL     1      11.750  17.716   9.723  1.00  0.00     0.013 A 
HETATM   19  C3  UNL     1      12.954  17.019   9.867  1.00  0.00     0.008 A 
HETATM   20  C2  UNL     1      13.395  16.599  11.106  1.00  0.00    -0.056 A 
HETATM   21  C1  UNL     1      14.661  15.852  11.301  1.00  0.00     0.049 C 
HETATM   22  C27 UNL     1      12.630  16.874  12.226  1.00  0.00    -0.055 A 
HETATM   23  C26 UNL     1      11.438  17.568  12.064  1.00  0.00     0.020 A 
HETATM   24  C28 UNL     1      13.011  16.469  13.603  1.00  0.00     0.049 C 
ENDBRANCH  15  17
ENDBRANCH   8  11
ENDBRANCH   4   8
ENDBRANCH   1   2
BRANCH   1  25
HETATM   25  C13 UNL     1       2.008  18.895  15.338  1.00  0.00     0.076 C 
BRANCH  25  26
HETATM   26  C14 UNL     1       2.263  20.290  15.807  1.00  0.00     0.009 C 
BRANCH  26  27
HETATM   27  C15 UNL     1       3.486  20.423  16.659  1.00  0.00     0.027 C 
BRANCH  27  28
HETATM   28  C16 UNL     1       3.373  19.540  17.901  1.00  0.00     0.229 C 
BRANCH  28  29
HETATM   29  N4  UNL     1       4.657  19.050  18.328  1.00  0.00    -0.079 N 
ATOM     30  H43 UNL     1       5.400  19.361  17.702  1.00  0.00     0.274 HD
ATOM     31  H42 UNL     1       4.965  19.513  19.184  1.00  0.00     0.274 HD
ATOM     32  H41 UNL     1       4.661  18.036  18.433  1.00  0.00     0.274 HD
ENDBRANCH  28  29
ENDBRANCH  27  28
ENDBRANCH  26  27
ENDBRANCH  25  26
ENDBRANCH   1  25
BRANCH   1  33
HETATM   33  N5  UNL     1       3.361  17.230  14.294  1.00  0.00    -0.380 N 
ATOM     34  H5  UNL     1       3.421  16.702  13.424  1.00  0.00     0.160 HD
BRANCH  33  35
HETATM   35  C17 UNL     1       3.786  16.609  15.507  1.00  0.00     0.121 C 
BRANCH  35  36
HETATM   36  C18 UNL     1       3.288  15.201  15.681  1.00  0.00     0.021 C 
BRANCH  36  37
HETATM   37  C19 UNL     1       1.765  15.221  15.538  1.00  0.00     0.021 C 
BRANCH  37  38
HETATM   38  C20 UNL     1       1.320  14.136  14.591  1.00  0.00     0.113 C 
BRANCH  38  39
HETATM   39  N6  UNL     1       0.057  13.584  14.896  1.00  0.00    -0.420 N 
ATOM     40  H6  UNL     1      -0.573  14.039  15.557  1.00  0.00     0.153 HD
BRANCH  39  41
HETATM   41  C21 UNL     1      -0.307  12.366  14.246  1.00  0.00     0.141 C 
BRANCH  41  42
HETATM   42  C22 UNL     1      -1.274  12.598  13.125  1.00  0.00     0.251 C 
BRANCH  42  43
HETATM   43  N7  UNL     1      -0.678  12.592  11.815  1.00  0.00    -0.074 N 
ATOM     44  H72 UNL     1       0.341  12.606  11.851  1.00  0.00     0.277 HD
ATOM     45  H71 UNL     1      -0.791  11.696  11.341  1.00  0.00     0.277 HD
BRANCH  43  46
HETATM   46  C23 UNL     1      -1.216  13.691  11.050  1.00  0.00     0.234 C 
BRANCH  46  47
HETATM   47  C24 UNL     1      -0.311  14.886  11.268  1.00  0.00     0.055 C 
BRANCH  47  48
HETATM   48  C25 UNL     1       1.037  14.744  10.645  1.00  0.00     0.231 C 
BRANCH  48  49
HETATM   49  N8  UNL     1       1.936  15.830  10.882  1.00  0.00    -0.079 N 
ATOM     50  H83 UNL     1       1.422  16.711  10.908  1.00  0.00     0.274 HD
ATOM     51  H82 UNL     1       2.282  15.796  11.841  1.00  0.00     0.274 HD
ATOM     52  H81 UNL     1       2.717  15.898  10.231  1.00  0.00     0.274 HD
ENDBRANCH  48  49
ENDBRANCH  47  48
ENDBRANCH  46  47
ENDBRANCH  43  46
ENDBRANCH  42  43
ENDBRANCH  41  42
ENDBRANCH  39  41
ENDBRANCH  38  39
ENDBRANCH  37  38
ENDBRANCH  36  37
ENDBRANCH  35  36
ENDBRANCH  33  35
ENDBRANCH   1  33
TORSDOF 22
ENDMDL
